default_name
  -OEChem-01062215323D

 44 43  0     1  0  0  0  0  0999 V2000
    2.4488   -3.0448    2.0990 H   0  0  0  0  0  0  0  0  0  0  0  0
    2.2788   -2.0018    2.3640 C   0  0  0  0  0  0  0  0  0  0  0  0
    2.9228   -1.7258    3.1960 H   0  0  0  0  0  0  0  0  0  0  0  0
    1.2358   -1.8618    2.6430 H   0  0  0  0  0  0  0  0  0  0  0  0
    2.6018   -1.1318    1.1730 C   0  0  0  0  0  0  0  0  0  0  0  0
    3.0048   -1.6348    0.1320 O   0  0  0  0  0  0  0  0  0  0  0  0
    2.4088    0.1752    1.3190 N   0  0  0  0  0  0  0  0  0  0  0  0
    2.0708    0.5242    2.2050 H   0  0  0  0  0  0  0  0  0  0  0  0
    2.6638    1.1782    0.2840 C   0  0  1  0  0  0  0  0  0  0  0  0
    3.7273    1.1521    0.0408 H   0  0  0  0  0  0  0  0  0  0  0  0
    1.8743    0.8225   -0.9879 C   0  0  0  0  0  0  0  0  0  0  0  0
    1.9443    1.6553   -1.6887 H   0  0  0  0  0  0  0  0  0  0  0  0
    0.8227    0.7385   -0.7148 H   0  0  0  0  0  0  0  0  0  0  0  0
    2.3162   -0.7078   -1.8631 S   0  0  0  0  0  0  0  0  0  0  0  0
    2.3322    2.5944    0.7906 C   0  0  0  0  0  0  0  0  0  0  0  0
    1.9172    2.7671    1.9365 O   0  0  0  0  0  0  0  0  0  0  0  0
    2.5222    3.6092   -0.0631 N   0  0  0  0  0  0  0  0  0  0  0  0
    2.8671    3.3968   -0.9854 H   0  0  0  0  0  0  0  0  0  0  0  0
    2.2525    5.0073    0.2660 C   0  0  0  0  0  0  0  0  0  0  0  0
    1.1900    5.1347    0.4841 H   0  0  0  0  0  0  0  0  0  0  0  0
    2.8237    5.2956    1.1503 H   0  0  0  0  0  0  0  0  0  0  0  0
    2.5293    5.6534   -0.5681 H   0  0  0  0  0  0  0  0  0  0  0  0
    5.6487    3.7028   -7.8014 H   0  0  0  0  0  0  0  0  0  0  0  0
    4.6786    3.3652   -7.4398 C   0  0  0  0  0  0  0  0  0  0  0  0
    4.0370    3.1192   -8.2845 H   0  0  0  0  0  0  0  0  0  0  0  0
    4.2181    4.1499   -6.8424 H   0  0  0  0  0  0  0  0  0  0  0  0
    4.8747    2.1352   -6.5849 C   0  0  0  0  0  0  0  0  0  0  0  0
    5.9978    1.6900   -6.3909 O   0  0  0  0  0  0  0  0  0  0  0  0
    3.7768    1.5914   -6.0666 N   0  0  0  0  0  0  0  0  0  0  0  0
    2.8811    2.0067   -6.2776 H   0  0  0  0  0  0  0  0  0  0  0  0
    3.7631    0.4051   -5.2106 C   0  0  1  0  0  0  0  0  0  0  0  0
    4.5235   -0.2952   -5.5609 H   0  0  0  0  0  0  0  0  0  0  0  0
    4.1299    0.8426   -3.7856 C   0  0  0  0  0  0  0  0  0  0  0  0
    5.1092    1.3213   -3.8308 H   0  0  0  0  0  0  0  0  0  0  0  0
    3.4177    1.5986   -3.4545 H   0  0  0  0  0  0  0  0  0  0  0  0
    4.2330   -0.4476   -2.5161 S   0  0  0  0  0  0  0  0  0  0  0  0
    2.3951   -0.2959   -5.2837 C   0  0  0  0  0  0  0  0  0  0  0  0
    1.3759    0.3651   -5.4878 O   0  0  0  0  0  0  0  0  0  0  0  0
    2.3744   -1.6257   -5.1265 N   0  0  0  0  0  0  0  0  0  0  0  0
    3.2472   -2.0892   -4.9296 H   0  0  0  0  0  0  0  0  0  0  0  0
    1.1596   -2.4392   -5.1594 C   0  0  0  0  0  0  0  0  0  0  0  0
    0.5952   -2.2951   -4.2366 H   0  0  0  0  0  0  0  0  0  0  0  0
    0.5320   -2.1395   -6.0021 H   0  0  0  0  0  0  0  0  0  0  0  0
    1.4151   -3.4939   -5.2632 H   0  0  0  0  0  0  0  0  0  0  0  0
  5  6  2  0  0  0  0
  5  7  1  0  0  0  0
  2  3  1  0  0  0  0
  2  4  1  0  0  0  0
  2  5  1  0  0  0  0
  1  2  1  0  0  0  0
 15 16  2  0  0  0  0
 15 17  1  0  0  0  0
 14 36  1  0  0  0  0
 11 12  1  0  0  0  0
 11 13  1  0  0  0  0
 11 14  1  0  0  0  0
  9 10  1  0  0  0  0
  9 11  1  0  0  0  0
  9 15  1  0  0  0  0
  7  8  1  0  0  0  0
  7  9  1  0  0  0  0
 19 20  1  0  0  0  0
 19 21  1  0  0  0  0
 19 22  1  0  0  0  0
 17 18  1  0  0  0  0
 17 19  1  0  0  0  0
 27 28  2  0  0  0  0
 27 29  1  0  0  0  0
 24 25  1  0  0  0  0
 24 26  1  0  0  0  0
 24 27  1  0  0  0  0
 23 24  1  0  0  0  0
 37 38  2  0  0  0  0
 37 39  1  0  0  0  0
 33 34  1  0  0  0  0
 33 35  1  0  0  0  0
 33 36  1  0  0  0  0
 31 32  1  0  0  0  0
 31 33  1  0  0  0  0
 31 37  1  0  0  0  0
 29 30  1  0  0  0  0
 29 31  1  0  0  0  0
 41 42  1  0  0  0  0
 41 43  1  0  0  0  0
 41 44  1  0  0  0  0
 39 40  1  0  0  0  0
 39 41  1  0  0  0  0
M  END
$$$$
default_name
  -OEChem-01062215323D

 44 43  0     1  0  0  0  0  0999 V2000
    2.4488   -3.0448    2.0990 H   0  0  0  0  0  0  0  0  0  0  0  0
    2.2788   -2.0018    2.3640 C   0  0  0  0  0  0  0  0  0  0  0  0
    2.9228   -1.7258    3.1960 H   0  0  0  0  0  0  0  0  0  0  0  0
    1.2358   -1.8618    2.6430 H   0  0  0  0  0  0  0  0  0  0  0  0
    2.6018   -1.1318    1.1730 C   0  0  0  0  0  0  0  0  0  0  0  0
    3.0048   -1.6348    0.1320 O   0  0  0  0  0  0  0  0  0  0  0  0
    2.4088    0.1752    1.3190 N   0  0  0  0  0  0  0  0  0  0  0  0
    2.0708    0.5242    2.2050 H   0  0  0  0  0  0  0  0  0  0  0  0
    2.6638    1.1782    0.2840 C   0  0  1  0  0  0  0  0  0  0  0  0
    3.7273    1.1521    0.0408 H   0  0  0  0  0  0  0  0  0  0  0  0
    1.8743    0.8225   -0.9879 C   0  0  0  0  0  0  0  0  0  0  0  0
    1.9443    1.6553   -1.6887 H   0  0  0  0  0  0  0  0  0  0  0  0
    0.8227    0.7385   -0.7148 H   0  0  0  0  0  0  0  0  0  0  0  0
    2.3162   -0.7078   -1.8631 S   0  0  0  0  0  0  0  0  0  0  0  0
    2.3322    2.5944    0.7906 C   0  0  0  0  0  0  0  0  0  0  0  0
    2.1848    2.8093    1.9936 O   0  0  0  0  0  0  0  0  0  0  0  0
    2.2217    3.5624   -0.1289 N   0  0  0  0  0  0  0  0  0  0  0  0
    2.3576    3.3173   -1.0965 H   0  0  0  0  0  0  0  0  0  0  0  0
    1.9097    4.9537    0.1915 C   0  0  0  0  0  0  0  0  0  0  0  0
    0.9215    5.0115    0.6526 H   0  0  0  0  0  0  0  0  0  0  0  0
    2.6443    5.3437    0.8986 H   0  0  0  0  0  0  0  0  0  0  0  0
    1.9217    5.5631   -0.7131 H   0  0  0  0  0  0  0  0  0  0  0  0
    5.6487    3.7028   -7.8014 H   0  0  0  0  0  0  0  0  0  0  0  0
    4.6786    3.3652   -7.4398 C   0  0  0  0  0  0  0  0  0  0  0  0
    4.0370    3.1192   -8.2845 H   0  0  0  0  0  0  0  0  0  0  0  0
    4.2181    4.1499   -6.8424 H   0  0  0  0  0  0  0  0  0  0  0  0
    4.8747    2.1352   -6.5849 C   0  0  0  0  0  0  0  0  0  0  0  0
    5.9978    1.6900   -6.3909 O   0  0  0  0  0  0  0  0  0  0  0  0
    3.7768    1.5914   -6.0666 N   0  0  0  0  0  0  0  0  0  0  0  0
    2.8811    2.0067   -6.2776 H   0  0  0  0  0  0  0  0  0  0  0  0
    3.7631    0.4051   -5.2106 C   0  0  1  0  0  0  0  0  0  0  0  0
    4.5235   -0.2952   -5.5609 H   0  0  0  0  0  0  0  0  0  0  0  0
    4.1299    0.8426   -3.7856 C   0  0  0  0  0  0  0  0  0  0  0  0
    5.1092    1.3213   -3.8308 H   0  0  0  0  0  0  0  0  0  0  0  0
    3.4177    1.5986   -3.4545 H   0  0  0  0  0  0  0  0  0  0  0  0
    4.2330   -0.4476   -2.5161 S   0  0  0  0  0  0  0  0  0  0  0  0
    2.3951   -0.2959   -5.2837 C   0  0  0  0  0  0  0  0  0  0  0  0
    1.3759    0.3651   -5.4878 O   0  0  0  0  0  0  0  0  0  0  0  0
    2.3744   -1.6257   -5.1265 N   0  0  0  0  0  0  0  0  0  0  0  0
    3.2472   -2.0892   -4.9296 H   0  0  0  0  0  0  0  0  0  0  0  0
    1.1596   -2.4392   -5.1594 C   0  0  0  0  0  0  0  0  0  0  0  0
    0.5952   -2.2951   -4.2366 H   0  0  0  0  0  0  0  0  0  0  0  0
    0.5320   -2.1395   -6.0021 H   0  0  0  0  0  0  0  0  0  0  0  0
    1.4151   -3.4939   -5.2632 H   0  0  0  0  0  0  0  0  0  0  0  0
  5  6  2  0  0  0  0
  5  7  1  0  0  0  0
  2  3  1  0  0  0  0
  2  4  1  0  0  0  0
  2  5  1  0  0  0  0
  1  2  1  0  0  0  0
 15 16  2  0  0  0  0
 15 17  1  0  0  0  0
 14 36  1  0  0  0  0
 11 12  1  0  0  0  0
 11 13  1  0  0  0  0
 11 14  1  0  0  0  0
  9 10  1  0  0  0  0
  9 11  1  0  0  0  0
  9 15  1  0  0  0  0
  7  8  1  0  0  0  0
  7  9  1  0  0  0  0
 19 20  1  0  0  0  0
 19 21  1  0  0  0  0
 19 22  1  0  0  0  0
 17 18  1  0  0  0  0
 17 19  1  0  0  0  0
 27 28  2  0  0  0  0
 27 29  1  0  0  0  0
 24 25  1  0  0  0  0
 24 26  1  0  0  0  0
 24 27  1  0  0  0  0
 23 24  1  0  0  0  0
 37 38  2  0  0  0  0
 37 39  1  0  0  0  0
 33 34  1  0  0  0  0
 33 35  1  0  0  0  0
 33 36  1  0  0  0  0
 31 32  1  0  0  0  0
 31 33  1  0  0  0  0
 31 37  1  0  0  0  0
 29 30  1  0  0  0  0
 29 31  1  0  0  0  0
 41 42  1  0  0  0  0
 41 43  1  0  0  0  0
 41 44  1  0  0  0  0
 39 40  1  0  0  0  0
 39 41  1  0  0  0  0
M  END
$$$$
default_name
  -OEChem-01062215323D

 44 43  0     1  0  0  0  0  0999 V2000
    2.4488   -3.0448    2.0990 H   0  0  0  0  0  0  0  0  0  0  0  0
    2.2788   -2.0018    2.3640 C   0  0  0  0  0  0  0  0  0  0  0  0
    2.9228   -1.7258    3.1960 H   0  0  0  0  0  0  0  0  0  0  0  0
    1.2358   -1.8618    2.6430 H   0  0  0  0  0  0  0  0  0  0  0  0
    2.6018   -1.1318    1.1730 C   0  0  0  0  0  0  0  0  0  0  0  0
    3.0048   -1.6348    0.1320 O   0  0  0  0  0  0  0  0  0  0  0  0
    2.4088    0.1752    1.3190 N   0  0  0  0  0  0  0  0  0  0  0  0
    2.0708    0.5242    2.2050 H   0  0  0  0  0  0  0  0  0  0  0  0
    2.6638    1.1782    0.2840 C   0  0  1  0  0  0  0  0  0  0  0  0
    3.7273    1.1521    0.0408 H   0  0  0  0  0  0  0  0  0  0  0  0
    1.8743    0.8225   -0.9879 C   0  0  0  0  0  0  0  0  0  0  0  0
    1.9443    1.6553   -1.6887 H   0  0  0  0  0  0  0  0  0  0  0  0
    0.8227    0.7385   -0.7148 H   0  0  0  0  0  0  0  0  0  0  0  0
    2.3162   -0.7078   -1.8631 S   0  0  0  0  0  0  0  0  0  0  0  0
    2.3322    2.5944    0.7906 C   0  0  0  0  0  0  0  0  0  0  0  0
    2.4532    2.8760    1.9827 O   0  0  0  0  0  0  0  0  0  0  0  0
    1.9197    3.4879   -0.1184 N   0  0  0  0  0  0  0  0  0  0  0  0
    1.8458    3.1909   -1.0780 H   0  0  0  0  0  0  0  0  0  0  0  0
    1.5656    4.8686    0.2041 C   0  0  0  0  0  0  0  0  0  0  0  0
    0.7127    4.8791    0.8862 H   0  0  0  0  0  0  0  0  0  0  0  0
    2.4069    5.3608    0.6954 H   0  0  0  0  0  0  0  0  0  0  0  0
    1.3081    5.4160   -0.7035 H   0  0  0  0  0  0  0  0  0  0  0  0
    5.6487    3.7028   -7.8014 H   0  0  0  0  0  0  0  0  0  0  0  0
    4.6786    3.3652   -7.4398 C   0  0  0  0  0  0  0  0  0  0  0  0
    4.0370    3.1192   -8.2845 H   0  0  0  0  0  0  0  0  0  0  0  0
    4.2181    4.1499   -6.8424 H   0  0  0  0  0  0  0  0  0  0  0  0
    4.8747    2.1352   -6.5849 C   0  0  0  0  0  0  0  0  0  0  0  0
    5.9978    1.6900   -6.3909 O   0  0  0  0  0  0  0  0  0  0  0  0
    3.7768    1.5914   -6.0666 N   0  0  0  0  0  0  0  0  0  0  0  0
    2.8811    2.0067   -6.2776 H   0  0  0  0  0  0  0  0  0  0  0  0
    3.7631    0.4051   -5.2106 C   0  0  1  0  0  0  0  0  0  0  0  0
    4.5235   -0.2952   -5.5609 H   0  0  0  0  0  0  0  0  0  0  0  0
    4.1299    0.8426   -3.7856 C   0  0  0  0  0  0  0  0  0  0  0  0
    5.1092    1.3213   -3.8308 H   0  0  0  0  0  0  0  0  0  0  0  0
    3.4177    1.5986   -3.4545 H   0  0  0  0  0  0  0  0  0  0  0  0
    4.2330   -0.4476   -2.5161 S   0  0  0  0  0  0  0  0  0  0  0  0
    2.3951   -0.2959   -5.2837 C   0  0  0  0  0  0  0  0  0  0  0  0
    1.3759    0.3651   -5.4878 O   0  0  0  0  0  0  0  0  0  0  0  0
    2.3744   -1.6257   -5.1265 N   0  0  0  0  0  0  0  0  0  0  0  0
    3.2472   -2.0892   -4.9296 H   0  0  0  0  0  0  0  0  0  0  0  0
    1.1596   -2.4392   -5.1594 C   0  0  0  0  0  0  0  0  0  0  0  0
    0.5952   -2.2951   -4.2366 H   0  0  0  0  0  0  0  0  0  0  0  0
    0.5320   -2.1395   -6.0021 H   0  0  0  0  0  0  0  0  0  0  0  0
    1.4151   -3.4939   -5.2632 H   0  0  0  0  0  0  0  0  0  0  0  0
  5  6  2  0  0  0  0
  5  7  1  0  0  0  0
  2  3  1  0  0  0  0
  2  4  1  0  0  0  0
  2  5  1  0  0  0  0
  1  2  1  0  0  0  0
 15 16  2  0  0  0  0
 15 17  1  0  0  0  0
 14 36  1  0  0  0  0
 11 12  1  0  0  0  0
 11 13  1  0  0  0  0
 11 14  1  0  0  0  0
  9 10  1  0  0  0  0
  9 11  1  0  0  0  0
  9 15  1  0  0  0  0
  7  8  1  0  0  0  0
  7  9  1  0  0  0  0
 19 20  1  0  0  0  0
 19 21  1  0  0  0  0
 19 22  1  0  0  0  0
 17 18  1  0  0  0  0
 17 19  1  0  0  0  0
 27 28  2  0  0  0  0
 27 29  1  0  0  0  0
 24 25  1  0  0  0  0
 24 26  1  0  0  0  0
 24 27  1  0  0  0  0
 23 24  1  0  0  0  0
 37 38  2  0  0  0  0
 37 39  1  0  0  0  0
 33 34  1  0  0  0  0
 33 35  1  0  0  0  0
 33 36  1  0  0  0  0
 31 32  1  0  0  0  0
 31 33  1  0  0  0  0
 31 37  1  0  0  0  0
 29 30  1  0  0  0  0
 29 31  1  0  0  0  0
 41 42  1  0  0  0  0
 41 43  1  0  0  0  0
 41 44  1  0  0  0  0
 39 40  1  0  0  0  0
 39 41  1  0  0  0  0
M  END
$$$$
default_name
  -OEChem-01062215323D

 44 43  0     1  0  0  0  0  0999 V2000
    2.4488   -3.0448    2.0990 H   0  0  0  0  0  0  0  0  0  0  0  0
    2.2788   -2.0018    2.3640 C   0  0  0  0  0  0  0  0  0  0  0  0
    2.9228   -1.7258    3.1960 H   0  0  0  0  0  0  0  0  0  0  0  0
    1.2358   -1.8618    2.6430 H   0  0  0  0  0  0  0  0  0  0  0  0
    2.6018   -1.1318    1.1730 C   0  0  0  0  0  0  0  0  0  0  0  0
    3.0048   -1.6348    0.1320 O   0  0  0  0  0  0  0  0  0  0  0  0
    2.4088    0.1752    1.3190 N   0  0  0  0  0  0  0  0  0  0  0  0
    2.0708    0.5242    2.2050 H   0  0  0  0  0  0  0  0  0  0  0  0
    2.6638    1.1782    0.2840 C   0  0  1  0  0  0  0  0  0  0  0  0
    3.7273    1.1521    0.0408 H   0  0  0  0  0  0  0  0  0  0  0  0
    1.8743    0.8225   -0.9879 C   0  0  0  0  0  0  0  0  0  0  0  0
    1.9443    1.6553   -1.6887 H   0  0  0  0  0  0  0  0  0  0  0  0
    0.8227    0.7385   -0.7148 H   0  0  0  0  0  0  0  0  0  0  0  0
    2.3162   -0.7078   -1.8631 S   0  0  0  0  0  0  0  0  0  0  0  0
    2.3322    2.5944    0.7906 C   0  0  0  0  0  0  0  0  0  0  0  0
    2.7042    2.9628    1.9046 O   0  0  0  0  0  0  0  0  0  0  0  0
    1.6369    3.3909   -0.0322 N   0  0  0  0  0  0  0  0  0  0  0  0
    1.3666    3.0262   -0.9314 H   0  0  0  0  0  0  0  0  0  0  0  0
    1.2433    4.7578    0.3030 C   0  0  0  0  0  0  0  0  0  0  0  0
    0.5779    4.7464    1.1688 H   0  0  0  0  0  0  0  0  0  0  0  0
    2.1279    5.3458    0.5547 H   0  0  0  0  0  0  0  0  0  0  0  0
    0.7301    5.2222   -0.5400 H   0  0  0  0  0  0  0  0  0  0  0  0
    5.6487    3.7028   -7.8014 H   0  0  0  0  0  0  0  0  0  0  0  0
    4.6786    3.3652   -7.4398 C   0  0  0  0  0  0  0  0  0  0  0  0
    4.0370    3.1192   -8.2845 H   0  0  0  0  0  0  0  0  0  0  0  0
    4.2181    4.1499   -6.8424 H   0  0  0  0  0  0  0  0  0  0  0  0
    4.8747    2.1352   -6.5849 C   0  0  0  0  0  0  0  0  0  0  0  0
    5.9978    1.6900   -6.3909 O   0  0  0  0  0  0  0  0  0  0  0  0
    3.7768    1.5914   -6.0666 N   0  0  0  0  0  0  0  0  0  0  0  0
    2.8811    2.0067   -6.2776 H   0  0  0  0  0  0  0  0  0  0  0  0
    3.7631    0.4051   -5.2106 C   0  0  1  0  0  0  0  0  0  0  0  0
    4.5235   -0.2952   -5.5609 H   0  0  0  0  0  0  0  0  0  0  0  0
    4.1299    0.8426   -3.7856 C   0  0  0  0  0  0  0  0  0  0  0  0
    5.1092    1.3213   -3.8308 H   0  0  0  0  0  0  0  0  0  0  0  0
    3.4177    1.5986   -3.4545 H   0  0  0  0  0  0  0  0  0  0  0  0
    4.2330   -0.4476   -2.5161 S   0  0  0  0  0  0  0  0  0  0  0  0
    2.3951   -0.2959   -5.2837 C   0  0  0  0  0  0  0  0  0  0  0  0
    1.3759    0.3651   -5.4878 O   0  0  0  0  0  0  0  0  0  0  0  0
    2.3744   -1.6257   -5.1265 N   0  0  0  0  0  0  0  0  0  0  0  0
    3.2472   -2.0892   -4.9296 H   0  0  0  0  0  0  0  0  0  0  0  0
    1.1596   -2.4392   -5.1594 C   0  0  0  0  0  0  0  0  0  0  0  0
    0.5952   -2.2951   -4.2366 H   0  0  0  0  0  0  0  0  0  0  0  0
    0.5320   -2.1395   -6.0021 H   0  0  0  0  0  0  0  0  0  0  0  0
    1.4151   -3.4939   -5.2632 H   0  0  0  0  0  0  0  0  0  0  0  0
  5  6  2  0  0  0  0
  5  7  1  0  0  0  0
  2  3  1  0  0  0  0
  2  4  1  0  0  0  0
  2  5  1  0  0  0  0
  1  2  1  0  0  0  0
 15 16  2  0  0  0  0
 15 17  1  0  0  0  0
 14 36  1  0  0  0  0
 11 12  1  0  0  0  0
 11 13  1  0  0  0  0
 11 14  1  0  0  0  0
  9 10  1  0  0  0  0
  9 11  1  0  0  0  0
  9 15  1  0  0  0  0
  7  8  1  0  0  0  0
  7  9  1  0  0  0  0
 19 20  1  0  0  0  0
 19 21  1  0  0  0  0
 19 22  1  0  0  0  0
 17 18  1  0  0  0  0
 17 19  1  0  0  0  0
 27 28  2  0  0  0  0
 27 29  1  0  0  0  0
 24 25  1  0  0  0  0
 24 26  1  0  0  0  0
 24 27  1  0  0  0  0
 23 24  1  0  0  0  0
 37 38  2  0  0  0  0
 37 39  1  0  0  0  0
 33 34  1  0  0  0  0
 33 35  1  0  0  0  0
 33 36  1  0  0  0  0
 31 32  1  0  0  0  0
 31 33  1  0  0  0  0
 31 37  1  0  0  0  0
 29 30  1  0  0  0  0
 29 31  1  0  0  0  0
 41 42  1  0  0  0  0
 41 43  1  0  0  0  0
 41 44  1  0  0  0  0
 39 40  1  0  0  0  0
 39 41  1  0  0  0  0
M  END
$$$$
default_name
  -OEChem-01062215323D

 44 43  0     1  0  0  0  0  0999 V2000
    2.4488   -3.0448    2.0990 H   0  0  0  0  0  0  0  0  0  0  0  0
    2.2788   -2.0018    2.3640 C   0  0  0  0  0  0  0  0  0  0  0  0
    2.9228   -1.7258    3.1960 H   0  0  0  0  0  0  0  0  0  0  0  0
    1.2358   -1.8618    2.6430 H   0  0  0  0  0  0  0  0  0  0  0  0
    2.6018   -1.1318    1.1730 C   0  0  0  0  0  0  0  0  0  0  0  0
    3.0048   -1.6348    0.1320 O   0  0  0  0  0  0  0  0  0  0  0  0
    2.4088    0.1752    1.3190 N   0  0  0  0  0  0  0  0  0  0  0  0
    2.0708    0.5242    2.2050 H   0  0  0  0  0  0  0  0  0  0  0  0
    2.6638    1.1782    0.2840 C   0  0  1  0  0  0  0  0  0  0  0  0
    3.7273    1.1521    0.0408 H   0  0  0  0  0  0  0  0  0  0  0  0
    1.8743    0.8225   -0.9879 C   0  0  0  0  0  0  0  0  0  0  0  0
    1.9443    1.6553   -1.6887 H   0  0  0  0  0  0  0  0  0  0  0  0
    0.8227    0.7385   -0.7148 H   0  0  0  0  0  0  0  0  0  0  0  0
    2.3162   -0.7078   -1.8631 S   0  0  0  0  0  0  0  0  0  0  0  0
    2.3322    2.5944    0.7906 C   0  0  0  0  0  0  0  0  0  0  0  0
    2.9207    3.0635    1.7646 O   0  0  0  0  0  0  0  0  0  0  0  0
    1.3925    3.2778    0.1238 N   0  0  0  0  0  0  0  0  0  0  0  0
    0.9527    2.8345   -0.6666 H   0  0  0  0  0  0  0  0  0  0  0  0
    0.9651    4.6289    0.4813 C   0  0  0  0  0  0  0  0  0  0  0  0
    0.5263    4.6225    1.4813 H   0  0  0  0  0  0  0  0  0  0  0  0
    1.8261    5.2997    0.4860 H   0  0  0  0  0  0  0  0  0  0  0  0
    0.2272    4.9949   -0.2338 H   0  0  0  0  0  0  0  0  0  0  0  0
    5.6487    3.7028   -7.8014 H   0  0  0  0  0  0  0  0  0  0  0  0
    4.6786    3.3652   -7.4398 C   0  0  0  0  0  0  0  0  0  0  0  0
    4.0370    3.1192   -8.2845 H   0  0  0  0  0  0  0  0  0  0  0  0
    4.2181    4.1499   -6.8424 H   0  0  0  0  0  0  0  0  0  0  0  0
    4.8747    2.1352   -6.5849 C   0  0  0  0  0  0  0  0  0  0  0  0
    5.9978    1.6900   -6.3909 O   0  0  0  0  0  0  0  0  0  0  0  0
    3.7768    1.5914   -6.0666 N   0  0  0  0  0  0  0  0  0  0  0  0
    2.8811    2.0067   -6.2776 H   0  0  0  0  0  0  0  0  0  0  0  0
    3.7631    0.4051   -5.2106 C   0  0  1  0  0  0  0  0  0  0  0  0
    4.5235   -0.2952   -5.5609 H   0  0  0  0  0  0  0  0  0  0  0  0
    4.1299    0.8426   -3.7856 C   0  0  0  0  0  0  0  0  0  0  0  0
    5.1092    1.3213   -3.8308 H   0  0  0  0  0  0  0  0  0  0  0  0
    3.4177    1.5986   -3.4545 H   0  0  0  0  0  0  0  0  0  0  0  0
    4.2330   -0.4476   -2.5161 S   0  0  0  0  0  0  0  0  0  0  0  0
    2.3951   -0.2959   -5.2837 C   0  0  0  0  0  0  0  0  0  0  0  0
    1.3759    0.3651   -5.4878 O   0  0  0  0  0  0  0  0  0  0  0  0
    2.3744   -1.6257   -5.1265 N   0  0  0  0  0  0  0  0  0  0  0  0
    3.2472   -2.0892   -4.9296 H   0  0  0  0  0  0  0  0  0  0  0  0
    1.1596   -2.4392   -5.1594 C   0  0  0  0  0  0  0  0  0  0  0  0
    0.5952   -2.2951   -4.2366 H   0  0  0  0  0  0  0  0  0  0  0  0
    0.5320   -2.1395   -6.0021 H   0  0  0  0  0  0  0  0  0  0  0  0
    1.4151   -3.4939   -5.2632 H   0  0  0  0  0  0  0  0  0  0  0  0
  5  6  2  0  0  0  0
  5  7  1  0  0  0  0
  2  3  1  0  0  0  0
  2  4  1  0  0  0  0
  2  5  1  0  0  0  0
  1  2  1  0  0  0  0
 15 16  2  0  0  0  0
 15 17  1  0  0  0  0
 14 36  1  0  0  0  0
 11 12  1  0  0  0  0
 11 13  1  0  0  0  0
 11 14  1  0  0  0  0
  9 10  1  0  0  0  0
  9 11  1  0  0  0  0
  9 15  1  0  0  0  0
  7  8  1  0  0  0  0
  7  9  1  0  0  0  0
 19 20  1  0  0  0  0
 19 21  1  0  0  0  0
 19 22  1  0  0  0  0
 17 18  1  0  0  0  0
 17 19  1  0  0  0  0
 27 28  2  0  0  0  0
 27 29  1  0  0  0  0
 24 25  1  0  0  0  0
 24 26  1  0  0  0  0
 24 27  1  0  0  0  0
 23 24  1  0  0  0  0
 37 38  2  0  0  0  0
 37 39  1  0  0  0  0
 33 34  1  0  0  0  0
 33 35  1  0  0  0  0
 33 36  1  0  0  0  0
 31 32  1  0  0  0  0
 31 33  1  0  0  0  0
 31 37  1  0  0  0  0
 29 30  1  0  0  0  0
 29 31  1  0  0  0  0
 41 42  1  0  0  0  0
 41 43  1  0  0  0  0
 41 44  1  0  0  0  0
 39 40  1  0  0  0  0
 39 41  1  0  0  0  0
M  END
$$$$
default_name
  -OEChem-01062215323D

 44 43  0     1  0  0  0  0  0999 V2000
    2.4488   -3.0448    2.0990 H   0  0  0  0  0  0  0  0  0  0  0  0
    2.2788   -2.0018    2.3640 C   0  0  0  0  0  0  0  0  0  0  0  0
    2.9228   -1.7258    3.1960 H   0  0  0  0  0  0  0  0  0  0  0  0
    1.2358   -1.8618    2.6430 H   0  0  0  0  0  0  0  0  0  0  0  0
    2.6018   -1.1318    1.1730 C   0  0  0  0  0  0  0  0  0  0  0  0
    3.0048   -1.6348    0.1320 O   0  0  0  0  0  0  0  0  0  0  0  0
    2.4088    0.1752    1.3190 N   0  0  0  0  0  0  0  0  0  0  0  0
    2.0708    0.5242    2.2050 H   0  0  0  0  0  0  0  0  0  0  0  0
    2.6638    1.1782    0.2840 C   0  0  1  0  0  0  0  0  0  0  0  0
    3.7273    1.1521    0.0408 H   0  0  0  0  0  0  0  0  0  0  0  0
    1.8743    0.8225   -0.9879 C   0  0  0  0  0  0  0  0  0  0  0  0
    1.9443    1.6553   -1.6887 H   0  0  0  0  0  0  0  0  0  0  0  0
    0.8227    0.7385   -0.7148 H   0  0  0  0  0  0  0  0  0  0  0  0
    2.3162   -0.7078   -1.8631 S   0  0  0  0  0  0  0  0  0  0  0  0
    2.3322    2.5944    0.7906 C   0  0  0  0  0  0  0  0  0  0  0  0
    3.0879    3.1715    1.5723 O   0  0  0  0  0  0  0  0  0  0  0  0
    1.2031    3.1565    0.3389 N   0  0  0  0  0  0  0  0  0  0  0  0
    0.6322    2.6289   -0.3016 H   0  0  0  0  0  0  0  0  0  0  0  0
    0.7497    4.4906    0.7270 C   0  0  0  0  0  0  0  0  0  0  0  0
    0.5613    4.5159    1.8024 H   0  0  0  0  0  0  0  0  0  0  0  0
    1.5222    5.2257    0.4941 H   0  0  0  0  0  0  0  0  0  0  0  0
   -0.1662    4.7496    0.1943 H   0  0  0  0  0  0  0  0  0  0  0  0
    5.6487    3.7028   -7.8014 H   0  0  0  0  0  0  0  0  0  0  0  0
    4.6786    3.3652   -7.4398 C   0  0  0  0  0  0  0  0  0  0  0  0
    4.0370    3.1192   -8.2845 H   0  0  0  0  0  0  0  0  0  0  0  0
    4.2181    4.1499   -6.8424 H   0  0  0  0  0  0  0  0  0  0  0  0
    4.8747    2.1352   -6.5849 C   0  0  0  0  0  0  0  0  0  0  0  0
    5.9978    1.6900   -6.3909 O   0  0  0  0  0  0  0  0  0  0  0  0
    3.7768    1.5914   -6.0666 N   0  0  0  0  0  0  0  0  0  0  0  0
    2.8811    2.0067   -6.2776 H   0  0  0  0  0  0  0  0  0  0  0  0
    3.7631    0.4051   -5.2106 C   0  0  1  0  0  0  0  0  0  0  0  0
    4.5235   -0.2952   -5.5609 H   0  0  0  0  0  0  0  0  0  0  0  0
    4.1299    0.8426   -3.7856 C   0  0  0  0  0  0  0  0  0  0  0  0
    5.1092    1.3213   -3.8308 H   0  0  0  0  0  0  0  0  0  0  0  0
    3.4177    1.5986   -3.4545 H   0  0  0  0  0  0  0  0  0  0  0  0
    4.2330   -0.4476   -2.5161 S   0  0  0  0  0  0  0  0  0  0  0  0
    2.3951   -0.2959   -5.2837 C   0  0  0  0  0  0  0  0  0  0  0  0
    1.3759    0.3651   -5.4878 O   0  0  0  0  0  0  0  0  0  0  0  0
    2.3744   -1.6257   -5.1265 N   0  0  0  0  0  0  0  0  0  0  0  0
    3.2472   -2.0892   -4.9296 H   0  0  0  0  0  0  0  0  0  0  0  0
    1.1596   -2.4392   -5.1594 C   0  0  0  0  0  0  0  0  0  0  0  0
    0.5952   -2.2951   -4.2366 H   0  0  0  0  0  0  0  0  0  0  0  0
    0.5320   -2.1395   -6.0021 H   0  0  0  0  0  0  0  0  0  0  0  0
    1.4151   -3.4939   -5.2632 H   0  0  0  0  0  0  0  0  0  0  0  0
  5  6  2  0  0  0  0
  5  7  1  0  0  0  0
  2  3  1  0  0  0  0
  2  4  1  0  0  0  0
  2  5  1  0  0  0  0
  1  2  1  0  0  0  0
 15 16  2  0  0  0  0
 15 17  1  0  0  0  0
 14 36  1  0  0  0  0
 11 12  1  0  0  0  0
 11 13  1  0  0  0  0
 11 14  1  0  0  0  0
  9 10  1  0  0  0  0
  9 11  1  0  0  0  0
  9 15  1  0  0  0  0
  7  8  1  0  0  0  0
  7  9  1  0  0  0  0
 19 20  1  0  0  0  0
 19 21  1  0  0  0  0
 19 22  1  0  0  0  0
 17 18  1  0  0  0  0
 17 19  1  0  0  0  0
 27 28  2  0  0  0  0
 27 29  1  0  0  0  0
 24 25  1  0  0  0  0
 24 26  1  0  0  0  0
 24 27  1  0  0  0  0
 23 24  1  0  0  0  0
 37 38  2  0  0  0  0
 37 39  1  0  0  0  0
 33 34  1  0  0  0  0
 33 35  1  0  0  0  0
 33 36  1  0  0  0  0
 31 32  1  0  0  0  0
 31 33  1  0  0  0  0
 31 37  1  0  0  0  0
 29 30  1  0  0  0  0
 29 31  1  0  0  0  0
 41 42  1  0  0  0  0
 41 43  1  0  0  0  0
 41 44  1  0  0  0  0
 39 40  1  0  0  0  0
 39 41  1  0  0  0  0
M  END
$$$$
default_name
  -OEChem-01062215323D

 44 43  0     1  0  0  0  0  0999 V2000
    2.4488   -3.0448    2.0990 H   0  0  0  0  0  0  0  0  0  0  0  0
    2.2788   -2.0018    2.3640 C   0  0  0  0  0  0  0  0  0  0  0  0
    2.9228   -1.7258    3.1960 H   0  0  0  0  0  0  0  0  0  0  0  0
    1.2358   -1.8618    2.6430 H   0  0  0  0  0  0  0  0  0  0  0  0
    2.6018   -1.1318    1.1730 C   0  0  0  0  0  0  0  0  0  0  0  0
    3.0048   -1.6348    0.1320 O   0  0  0  0  0  0  0  0  0  0  0  0
    2.4088    0.1752    1.3190 N   0  0  0  0  0  0  0  0  0  0  0  0
    2.0708    0.5242    2.2050 H   0  0  0  0  0  0  0  0  0  0  0  0
    2.6638    1.1782    0.2840 C   0  0  1  0  0  0  0  0  0  0  0  0
    3.7273    1.1521    0.0408 H   0  0  0  0  0  0  0  0  0  0  0  0
    1.8743    0.8225   -0.9879 C   0  0  0  0  0  0  0  0  0  0  0  0
    1.9443    1.6553   -1.6887 H   0  0  0  0  0  0  0  0  0  0  0  0
    0.8227    0.7385   -0.7148 H   0  0  0  0  0  0  0  0  0  0  0  0
    2.3162   -0.7078   -1.8631 S   0  0  0  0  0  0  0  0  0  0  0  0
    2.3322    2.5944    0.7906 C   0  0  0  0  0  0  0  0  0  0  0  0
    3.1944    3.2793    1.3407 O   0  0  0  0  0  0  0  0  0  0  0  0
    1.0818    3.0352    0.5986 N   0  0  0  0  0  0  0  0  0  0  0  0
    0.4269    2.4233    0.1387 H   0  0  0  0  0  0  0  0  0  0  0  0
    0.6119    4.3523    1.0232 C   0  0  0  0  0  0  0  0  0  0  0  0
    0.6806    4.4337    2.1101 H   0  0  0  0  0  0  0  0  0  0  0  0
    1.2369    5.1287    0.5783 H   0  0  0  0  0  0  0  0  0  0  0  0
   -0.4236    4.5030    0.7152 H   0  0  0  0  0  0  0  0  0  0  0  0
    5.6487    3.7028   -7.8014 H   0  0  0  0  0  0  0  0  0  0  0  0
    4.6786    3.3652   -7.4398 C   0  0  0  0  0  0  0  0  0  0  0  0
    4.0370    3.1192   -8.2845 H   0  0  0  0  0  0  0  0  0  0  0  0
    4.2181    4.1499   -6.8424 H   0  0  0  0  0  0  0  0  0  0  0  0
    4.8747    2.1352   -6.5849 C   0  0  0  0  0  0  0  0  0  0  0  0
    5.9978    1.6900   -6.3909 O   0  0  0  0  0  0  0  0  0  0  0  0
    3.7768    1.5914   -6.0666 N   0  0  0  0  0  0  0  0  0  0  0  0
    2.8811    2.0067   -6.2776 H   0  0  0  0  0  0  0  0  0  0  0  0
    3.7631    0.4051   -5.2106 C   0  0  1  0  0  0  0  0  0  0  0  0
    4.5235   -0.2952   -5.5609 H   0  0  0  0  0  0  0  0  0  0  0  0
    4.1299    0.8426   -3.7856 C   0  0  0  0  0  0  0  0  0  0  0  0
    5.1092    1.3213   -3.8308 H   0  0  0  0  0  0  0  0  0  0  0  0
    3.4177    1.5986   -3.4545 H   0  0  0  0  0  0  0  0  0  0  0  0
    4.2330   -0.4476   -2.5161 S   0  0  0  0  0  0  0  0  0  0  0  0
    2.3951   -0.2959   -5.2837 C   0  0  0  0  0  0  0  0  0  0  0  0
    1.3759    0.3651   -5.4878 O   0  0  0  0  0  0  0  0  0  0  0  0
    2.3744   -1.6257   -5.1265 N   0  0  0  0  0  0  0  0  0  0  0  0
    3.2472   -2.0892   -4.9296 H   0  0  0  0  0  0  0  0  0  0  0  0
    1.1596   -2.4392   -5.1594 C   0  0  0  0  0  0  0  0  0  0  0  0
    0.5952   -2.2951   -4.2366 H   0  0  0  0  0  0  0  0  0  0  0  0
    0.5320   -2.1395   -6.0021 H   0  0  0  0  0  0  0  0  0  0  0  0
    1.4151   -3.4939   -5.2632 H   0  0  0  0  0  0  0  0  0  0  0  0
  5  6  2  0  0  0  0
  5  7  1  0  0  0  0
  2  3  1  0  0  0  0
  2  4  1  0  0  0  0
  2  5  1  0  0  0  0
  1  2  1  0  0  0  0
 15 16  2  0  0  0  0
 15 17  1  0  0  0  0
 14 36  1  0  0  0  0
 11 12  1  0  0  0  0
 11 13  1  0  0  0  0
 11 14  1  0  0  0  0
  9 10  1  0  0  0  0
  9 11  1  0  0  0  0
  9 15  1  0  0  0  0
  7  8  1  0  0  0  0
  7  9  1  0  0  0  0
 19 20  1  0  0  0  0
 19 21  1  0  0  0  0
 19 22  1  0  0  0  0
 17 18  1  0  0  0  0
 17 19  1  0  0  0  0
 27 28  2  0  0  0  0
 27 29  1  0  0  0  0
 24 25  1  0  0  0  0
 24 26  1  0  0  0  0
 24 27  1  0  0  0  0
 23 24  1  0  0  0  0
 37 38  2  0  0  0  0
 37 39  1  0  0  0  0
 33 34  1  0  0  0  0
 33 35  1  0  0  0  0
 33 36  1  0  0  0  0
 31 32  1  0  0  0  0
 31 33  1  0  0  0  0
 31 37  1  0  0  0  0
 29 30  1  0  0  0  0
 29 31  1  0  0  0  0
 41 42  1  0  0  0  0
 41 43  1  0  0  0  0
 41 44  1  0  0  0  0
 39 40  1  0  0  0  0
 39 41  1  0  0  0  0
M  END
$$$$
default_name
  -OEChem-01062215323D

 44 43  0     1  0  0  0  0  0999 V2000
    2.4488   -3.0448    2.0990 H   0  0  0  0  0  0  0  0  0  0  0  0
    2.2788   -2.0018    2.3640 C   0  0  0  0  0  0  0  0  0  0  0  0
    2.9228   -1.7258    3.1960 H   0  0  0  0  0  0  0  0  0  0  0  0
    1.2358   -1.8618    2.6430 H   0  0  0  0  0  0  0  0  0  0  0  0
    2.6018   -1.1318    1.1730 C   0  0  0  0  0  0  0  0  0  0  0  0
    3.0048   -1.6348    0.1320 O   0  0  0  0  0  0  0  0  0  0  0  0
    2.4088    0.1752    1.3190 N   0  0  0  0  0  0  0  0  0  0  0  0
    2.0708    0.5242    2.2050 H   0  0  0  0  0  0  0  0  0  0  0  0
    2.6638    1.1782    0.2840 C   0  0  1  0  0  0  0  0  0  0  0  0
    3.7273    1.1521    0.0408 H   0  0  0  0  0  0  0  0  0  0  0  0
    1.8743    0.8225   -0.9879 C   0  0  0  0  0  0  0  0  0  0  0  0
    1.9443    1.6553   -1.6887 H   0  0  0  0  0  0  0  0  0  0  0  0
    0.8227    0.7385   -0.7148 H   0  0  0  0  0  0  0  0  0  0  0  0
    2.3162   -0.7078   -1.8631 S   0  0  0  0  0  0  0  0  0  0  0  0
    2.3322    2.5944    0.7906 C   0  0  0  0  0  0  0  0  0  0  0  0
    3.2331    3.3796    1.0856 O   0  0  0  0  0  0  0  0  0  0  0  0
    1.0367    2.9222    0.8850 N   0  0  0  0  0  0  0  0  0  0  0  0
    0.3510    2.2318    0.6243 H   0  0  0  0  0  0  0  0  0  0  0  0
    0.5610    4.2235    1.3499 C   0  0  0  0  0  0  0  0  0  0  0  0
    0.8761    4.3817    2.3835 H   0  0  0  0  0  0  0  0  0  0  0  0
    0.9897    5.0155    0.7330 H   0  0  0  0  0  0  0  0  0  0  0  0
   -0.5272    4.2719    1.2932 H   0  0  0  0  0  0  0  0  0  0  0  0
    5.6487    3.7028   -7.8014 H   0  0  0  0  0  0  0  0  0  0  0  0
    4.6786    3.3652   -7.4398 C   0  0  0  0  0  0  0  0  0  0  0  0
    4.0370    3.1192   -8.2845 H   0  0  0  0  0  0  0  0  0  0  0  0
    4.2181    4.1499   -6.8424 H   0  0  0  0  0  0  0  0  0  0  0  0
    4.8747    2.1352   -6.5849 C   0  0  0  0  0  0  0  0  0  0  0  0
    5.9978    1.6900   -6.3909 O   0  0  0  0  0  0  0  0  0  0  0  0
    3.7768    1.5914   -6.0666 N   0  0  0  0  0  0  0  0  0  0  0  0
    2.8811    2.0067   -6.2776 H   0  0  0  0  0  0  0  0  0  0  0  0
    3.7631    0.4051   -5.2106 C   0  0  1  0  0  0  0  0  0  0  0  0
    4.5235   -0.2952   -5.5609 H   0  0  0  0  0  0  0  0  0  0  0  0
    4.1299    0.8426   -3.7856 C   0  0  0  0  0  0  0  0  0  0  0  0
    5.1092    1.3213   -3.8308 H   0  0  0  0  0  0  0  0  0  0  0  0
    3.4177    1.5986   -3.4545 H   0  0  0  0  0  0  0  0  0  0  0  0
    4.2330   -0.4476   -2.5161 S   0  0  0  0  0  0  0  0  0  0  0  0
    2.3951   -0.2959   -5.2837 C   0  0  0  0  0  0  0  0  0  0  0  0
    1.3759    0.3651   -5.4878 O   0  0  0  0  0  0  0  0  0  0  0  0
    2.3744   -1.6257   -5.1265 N   0  0  0  0  0  0  0  0  0  0  0  0
    3.2472   -2.0892   -4.9296 H   0  0  0  0  0  0  0  0  0  0  0  0
    1.1596   -2.4392   -5.1594 C   0  0  0  0  0  0  0  0  0  0  0  0
    0.5952   -2.2951   -4.2366 H   0  0  0  0  0  0  0  0  0  0  0  0
    0.5320   -2.1395   -6.0021 H   0  0  0  0  0  0  0  0  0  0  0  0
    1.4151   -3.4939   -5.2632 H   0  0  0  0  0  0  0  0  0  0  0  0
  5  6  2  0  0  0  0
  5  7  1  0  0  0  0
  2  3  1  0  0  0  0
  2  4  1  0  0  0  0
  2  5  1  0  0  0  0
  1  2  1  0  0  0  0
 15 16  2  0  0  0  0
 15 17  1  0  0  0  0
 14 36  1  0  0  0  0
 11 12  1  0  0  0  0
 11 13  1  0  0  0  0
 11 14  1  0  0  0  0
  9 10  1  0  0  0  0
  9 11  1  0  0  0  0
  9 15  1  0  0  0  0
  7  8  1  0  0  0  0
  7  9  1  0  0  0  0
 19 20  1  0  0  0  0
 19 21  1  0  0  0  0
 19 22  1  0  0  0  0
 17 18  1  0  0  0  0
 17 19  1  0  0  0  0
 27 28  2  0  0  0  0
 27 29  1  0  0  0  0
 24 25  1  0  0  0  0
 24 26  1  0  0  0  0
 24 27  1  0  0  0  0
 23 24  1  0  0  0  0
 37 38  2  0  0  0  0
 37 39  1  0  0  0  0
 33 34  1  0  0  0  0
 33 35  1  0  0  0  0
 33 36  1  0  0  0  0
 31 32  1  0  0  0  0
 31 33  1  0  0  0  0
 31 37  1  0  0  0  0
 29 30  1  0  0  0  0
 29 31  1  0  0  0  0
 41 42  1  0  0  0  0
 41 43  1  0  0  0  0
 41 44  1  0  0  0  0
 39 40  1  0  0  0  0
 39 41  1  0  0  0  0
M  END
$$$$
default_name
  -OEChem-01062215323D

 44 43  0     1  0  0  0  0  0999 V2000
    2.4488   -3.0448    2.0990 H   0  0  0  0  0  0  0  0  0  0  0  0
    2.2788   -2.0018    2.3640 C   0  0  0  0  0  0  0  0  0  0  0  0
    2.9228   -1.7258    3.1960 H   0  0  0  0  0  0  0  0  0  0  0  0
    1.2358   -1.8618    2.6430 H   0  0  0  0  0  0  0  0  0  0  0  0
    2.6018   -1.1318    1.1730 C   0  0  0  0  0  0  0  0  0  0  0  0
    3.0048   -1.6348    0.1320 O   0  0  0  0  0  0  0  0  0  0  0  0
    2.4088    0.1752    1.3190 N   0  0  0  0  0  0  0  0  0  0  0  0
    2.0708    0.5242    2.2050 H   0  0  0  0  0  0  0  0  0  0  0  0
    2.6638    1.1782    0.2840 C   0  0  1  0  0  0  0  0  0  0  0  0
    3.7273    1.1521    0.0408 H   0  0  0  0  0  0  0  0  0  0  0  0
    1.8743    0.8225   -0.9879 C   0  0  0  0  0  0  0  0  0  0  0  0
    1.9443    1.6553   -1.6887 H   0  0  0  0  0  0  0  0  0  0  0  0
    0.8227    0.7385   -0.7148 H   0  0  0  0  0  0  0  0  0  0  0  0
    2.3162   -0.7078   -1.8631 S   0  0  0  0  0  0  0  0  0  0  0  0
    2.3322    2.5944    0.7906 C   0  0  0  0  0  0  0  0  0  0  0  0
    3.2011    3.4656    0.8244 O   0  0  0  0  0  0  0  0  0  0  0  0
    1.0709    2.8251    1.1786 N   0  0  0  0  0  0  0  0  0  0  0  0
    0.4095    2.0674    1.1221 H   0  0  0  0  0  0  0  0  0  0  0  0
    0.6006    4.1130    1.6846 C   0  0  0  0  0  0  0  0  0  0  0  0
    1.1344    4.3633    2.6039 H   0  0  0  0  0  0  0  0  0  0  0  0
    0.7972    4.8937    0.9475 H   0  0  0  0  0  0  0  0  0  0  0  0
   -0.4700    4.0721    1.8892 H   0  0  0  0  0  0  0  0  0  0  0  0
    5.6487    3.7028   -7.8014 H   0  0  0  0  0  0  0  0  0  0  0  0
    4.6786    3.3652   -7.4398 C   0  0  0  0  0  0  0  0  0  0  0  0
    4.0370    3.1192   -8.2845 H   0  0  0  0  0  0  0  0  0  0  0  0
    4.2181    4.1499   -6.8424 H   0  0  0  0  0  0  0  0  0  0  0  0
    4.8747    2.1352   -6.5849 C   0  0  0  0  0  0  0  0  0  0  0  0
    5.9978    1.6900   -6.3909 O   0  0  0  0  0  0  0  0  0  0  0  0
    3.7768    1.5914   -6.0666 N   0  0  0  0  0  0  0  0  0  0  0  0
    2.8811    2.0067   -6.2776 H   0  0  0  0  0  0  0  0  0  0  0  0
    3.7631    0.4051   -5.2106 C   0  0  1  0  0  0  0  0  0  0  0  0
    4.5235   -0.2952   -5.5609 H   0  0  0  0  0  0  0  0  0  0  0  0
    4.1299    0.8426   -3.7856 C   0  0  0  0  0  0  0  0  0  0  0  0
    5.1092    1.3213   -3.8308 H   0  0  0  0  0  0  0  0  0  0  0  0
    3.4177    1.5986   -3.4545 H   0  0  0  0  0  0  0  0  0  0  0  0
    4.2330   -0.4476   -2.5161 S   0  0  0  0  0  0  0  0  0  0  0  0
    2.3951   -0.2959   -5.2837 C   0  0  0  0  0  0  0  0  0  0  0  0
    1.3759    0.3651   -5.4878 O   0  0  0  0  0  0  0  0  0  0  0  0
    2.3744   -1.6257   -5.1265 N   0  0  0  0  0  0  0  0  0  0  0  0
    3.2472   -2.0892   -4.9296 H   0  0  0  0  0  0  0  0  0  0  0  0
    1.1596   -2.4392   -5.1594 C   0  0  0  0  0  0  0  0  0  0  0  0
    0.5952   -2.2951   -4.2366 H   0  0  0  0  0  0  0  0  0  0  0  0
    0.5320   -2.1395   -6.0021 H   0  0  0  0  0  0  0  0  0  0  0  0
    1.4151   -3.4939   -5.2632 H   0  0  0  0  0  0  0  0  0  0  0  0
  5  6  2  0  0  0  0
  5  7  1  0  0  0  0
  2  3  1  0  0  0  0
  2  4  1  0  0  0  0
  2  5  1  0  0  0  0
  1  2  1  0  0  0  0
 15 16  2  0  0  0  0
 15 17  1  0  0  0  0
 14 36  1  0  0  0  0
 11 12  1  0  0  0  0
 11 13  1  0  0  0  0
 11 14  1  0  0  0  0
  9 10  1  0  0  0  0
  9 11  1  0  0  0  0
  9 15  1  0  0  0  0
  7  8  1  0  0  0  0
  7  9  1  0  0  0  0
 19 20  1  0  0  0  0
 19 21  1  0  0  0  0
 19 22  1  0  0  0  0
 17 18  1  0  0  0  0
 17 19  1  0  0  0  0
 27 28  2  0  0  0  0
 27 29  1  0  0  0  0
 24 25  1  0  0  0  0
 24 26  1  0  0  0  0
 24 27  1  0  0  0  0
 23 24  1  0  0  0  0
 37 38  2  0  0  0  0
 37 39  1  0  0  0  0
 33 34  1  0  0  0  0
 33 35  1  0  0  0  0
 33 36  1  0  0  0  0
 31 32  1  0  0  0  0
 31 33  1  0  0  0  0
 31 37  1  0  0  0  0
 29 30  1  0  0  0  0
 29 31  1  0  0  0  0
 41 42  1  0  0  0  0
 41 43  1  0  0  0  0
 41 44  1  0  0  0  0
 39 40  1  0  0  0  0
 39 41  1  0  0  0  0
M  END
$$$$
default_name
  -OEChem-01062215323D

 44 43  0     1  0  0  0  0  0999 V2000
    2.4488   -3.0448    2.0990 H   0  0  0  0  0  0  0  0  0  0  0  0
    2.2788   -2.0018    2.3640 C   0  0  0  0  0  0  0  0  0  0  0  0
    2.9228   -1.7258    3.1960 H   0  0  0  0  0  0  0  0  0  0  0  0
    1.2358   -1.8618    2.6430 H   0  0  0  0  0  0  0  0  0  0  0  0
    2.6018   -1.1318    1.1730 C   0  0  0  0  0  0  0  0  0  0  0  0
    3.0048   -1.6348    0.1320 O   0  0  0  0  0  0  0  0  0  0  0  0
    2.4088    0.1752    1.3190 N   0  0  0  0  0  0  0  0  0  0  0  0
    2.0708    0.5242    2.2050 H   0  0  0  0  0  0  0  0  0  0  0  0
    2.6638    1.1782    0.2840 C   0  0  1  0  0  0  0  0  0  0  0  0
    3.7273    1.1521    0.0408 H   0  0  0  0  0  0  0  0  0  0  0  0
    1.8743    0.8225   -0.9879 C   0  0  0  0  0  0  0  0  0  0  0  0
    1.9443    1.6553   -1.6887 H   0  0  0  0  0  0  0  0  0  0  0  0
    0.8227    0.7385   -0.7148 H   0  0  0  0  0  0  0  0  0  0  0  0
    2.3162   -0.7078   -1.8631 S   0  0  0  0  0  0  0  0  0  0  0  0
    2.3322    2.5944    0.7906 C   0  0  0  0  0  0  0  0  0  0  0  0
    3.1008    3.5313    0.5749 O   0  0  0  0  0  0  0  0  0  0  0  0
    1.1820    2.7507    1.4596 N   0  0  0  0  0  0  0  0  0  0  0  0
    0.5985    1.9414    1.5981 H   0  0  0  0  0  0  0  0  0  0  0  0
    0.7280    4.0283    2.0048 C   0  0  0  0  0  0  0  0  0  0  0  0
    1.4380    4.3798    2.7564 H   0  0  0  0  0  0  0  0  0  0  0  0
    0.6728    4.7716    1.2073 H   0  0  0  0  0  0  0  0  0  0  0  0
   -0.2559    3.9172    2.4623 H   0  0  0  0  0  0  0  0  0  0  0  0
    5.6487    3.7028   -7.8014 H   0  0  0  0  0  0  0  0  0  0  0  0
    4.6786    3.3652   -7.4398 C   0  0  0  0  0  0  0  0  0  0  0  0
    4.0370    3.1192   -8.2845 H   0  0  0  0  0  0  0  0  0  0  0  0
    4.2181    4.1499   -6.8424 H   0  0  0  0  0  0  0  0  0  0  0  0
    4.8747    2.1352   -6.5849 C   0  0  0  0  0  0  0  0  0  0  0  0
    5.9978    1.6900   -6.3909 O   0  0  0  0  0  0  0  0  0  0  0  0
    3.7768    1.5914   -6.0666 N   0  0  0  0  0  0  0  0  0  0  0  0
    2.8811    2.0067   -6.2776 H   0  0  0  0  0  0  0  0  0  0  0  0
    3.7631    0.4051   -5.2106 C   0  0  1  0  0  0  0  0  0  0  0  0
    4.5235   -0.2952   -5.5609 H   0  0  0  0  0  0  0  0  0  0  0  0
    4.1299    0.8426   -3.7856 C   0  0  0  0  0  0  0  0  0  0  0  0
    5.1092    1.3213   -3.8308 H   0  0  0  0  0  0  0  0  0  0  0  0
    3.4177    1.5986   -3.4545 H   0  0  0  0  0  0  0  0  0  0  0  0
    4.2330   -0.4476   -2.5161 S   0  0  0  0  0  0  0  0  0  0  0  0
    2.3951   -0.2959   -5.2837 C   0  0  0  0  0  0  0  0  0  0  0  0
    1.3759    0.3651   -5.4878 O   0  0  0  0  0  0  0  0  0  0  0  0
    2.3744   -1.6257   -5.1265 N   0  0  0  0  0  0  0  0  0  0  0  0
    3.2472   -2.0892   -4.9296 H   0  0  0  0  0  0  0  0  0  0  0  0
    1.1596   -2.4392   -5.1594 C   0  0  0  0  0  0  0  0  0  0  0  0
    0.5952   -2.2951   -4.2366 H   0  0  0  0  0  0  0  0  0  0  0  0
    0.5320   -2.1395   -6.0021 H   0  0  0  0  0  0  0  0  0  0  0  0
    1.4151   -3.4939   -5.2632 H   0  0  0  0  0  0  0  0  0  0  0  0
  5  6  2  0  0  0  0
  5  7  1  0  0  0  0
  2  3  1  0  0  0  0
  2  4  1  0  0  0  0
  2  5  1  0  0  0  0
  1  2  1  0  0  0  0
 15 16  2  0  0  0  0
 15 17  1  0  0  0  0
 14 36  1  0  0  0  0
 11 12  1  0  0  0  0
 11 13  1  0  0  0  0
 11 14  1  0  0  0  0
  9 10  1  0  0  0  0
  9 11  1  0  0  0  0
  9 15  1  0  0  0  0
  7  8  1  0  0  0  0
  7  9  1  0  0  0  0
 19 20  1  0  0  0  0
 19 21  1  0  0  0  0
 19 22  1  0  0  0  0
 17 18  1  0  0  0  0
 17 19  1  0  0  0  0
 27 28  2  0  0  0  0
 27 29  1  0  0  0  0
 24 25  1  0  0  0  0
 24 26  1  0  0  0  0
 24 27  1  0  0  0  0
 23 24  1  0  0  0  0
 37 38  2  0  0  0  0
 37 39  1  0  0  0  0
 33 34  1  0  0  0  0
 33 35  1  0  0  0  0
 33 36  1  0  0  0  0
 31 32  1  0  0  0  0
 31 33  1  0  0  0  0
 31 37  1  0  0  0  0
 29 30  1  0  0  0  0
 29 31  1  0  0  0  0
 41 42  1  0  0  0  0
 41 43  1  0  0  0  0
 41 44  1  0  0  0  0
 39 40  1  0  0  0  0
 39 41  1  0  0  0  0
M  END
$$$$
default_name
  -OEChem-01062215323D

 44 43  0     1  0  0  0  0  0999 V2000
    2.4488   -3.0448    2.0990 H   0  0  0  0  0  0  0  0  0  0  0  0
    2.2788   -2.0018    2.3640 C   0  0  0  0  0  0  0  0  0  0  0  0
    2.9228   -1.7258    3.1960 H   0  0  0  0  0  0  0  0  0  0  0  0
    1.2358   -1.8618    2.6430 H   0  0  0  0  0  0  0  0  0  0  0  0
    2.6018   -1.1318    1.1730 C   0  0  0  0  0  0  0  0  0  0  0  0
    3.0048   -1.6348    0.1320 O   0  0  0  0  0  0  0  0  0  0  0  0
    2.4088    0.1752    1.3190 N   0  0  0  0  0  0  0  0  0  0  0  0
    2.0708    0.5242    2.2050 H   0  0  0  0  0  0  0  0  0  0  0  0
    2.6638    1.1782    0.2840 C   0  0  1  0  0  0  0  0  0  0  0  0
    3.7273    1.1521    0.0408 H   0  0  0  0  0  0  0  0  0  0  0  0
    1.8743    0.8225   -0.9879 C   0  0  0  0  0  0  0  0  0  0  0  0
    1.9443    1.6553   -1.6887 H   0  0  0  0  0  0  0  0  0  0  0  0
    0.8227    0.7385   -0.7148 H   0  0  0  0  0  0  0  0  0  0  0  0
    2.3162   -0.7078   -1.8631 S   0  0  0  0  0  0  0  0  0  0  0  0
    2.3322    2.5944    0.7906 C   0  0  0  0  0  0  0  0  0  0  0  0
    2.9389    3.5724    0.3542 O   0  0  0  0  0  0  0  0  0  0  0  0
    1.3626    2.7038    1.7087 N   0  0  0  0  0  0  0  0  0  0  0  0
    0.9051    1.8622    2.0200 H   0  0  0  0  0  0  0  0  0  0  0  0
    0.9343    3.9752    2.2884 C   0  0  0  0  0  0  0  0  0  0  0  0
    1.7660    4.4301    2.8306 H   0  0  0  0  0  0  0  0  0  0  0  0
    0.6248    4.6576    1.4947 H   0  0  0  0  0  0  0  0  0  0  0  0
    0.1004    3.8177    2.9736 H   0  0  0  0  0  0  0  0  0  0  0  0
    5.6487    3.7028   -7.8014 H   0  0  0  0  0  0  0  0  0  0  0  0
    4.6786    3.3652   -7.4398 C   0  0  0  0  0  0  0  0  0  0  0  0
    4.0370    3.1192   -8.2845 H   0  0  0  0  0  0  0  0  0  0  0  0
    4.2181    4.1499   -6.8424 H   0  0  0  0  0  0  0  0  0  0  0  0
    4.8747    2.1352   -6.5849 C   0  0  0  0  0  0  0  0  0  0  0  0
    5.9978    1.6900   -6.3909 O   0  0  0  0  0  0  0  0  0  0  0  0
    3.7768    1.5914   -6.0666 N   0  0  0  0  0  0  0  0  0  0  0  0
    2.8811    2.0067   -6.2776 H   0  0  0  0  0  0  0  0  0  0  0  0
    3.7631    0.4051   -5.2106 C   0  0  1  0  0  0  0  0  0  0  0  0
    4.5235   -0.2952   -5.5609 H   0  0  0  0  0  0  0  0  0  0  0  0
    4.1299    0.8426   -3.7856 C   0  0  0  0  0  0  0  0  0  0  0  0
    5.1092    1.3213   -3.8308 H   0  0  0  0  0  0  0  0  0  0  0  0
    3.4177    1.5986   -3.4545 H   0  0  0  0  0  0  0  0  0  0  0  0
    4.2330   -0.4476   -2.5161 S   0  0  0  0  0  0  0  0  0  0  0  0
    2.3951   -0.2959   -5.2837 C   0  0  0  0  0  0  0  0  0  0  0  0
    1.3759    0.3651   -5.4878 O   0  0  0  0  0  0  0  0  0  0  0  0
    2.3744   -1.6257   -5.1265 N   0  0  0  0  0  0  0  0  0  0  0  0
    3.2472   -2.0892   -4.9296 H   0  0  0  0  0  0  0  0  0  0  0  0
    1.1596   -2.4392   -5.1594 C   0  0  0  0  0  0  0  0  0  0  0  0
    0.5952   -2.2951   -4.2366 H   0  0  0  0  0  0  0  0  0  0  0  0
    0.5320   -2.1395   -6.0021 H   0  0  0  0  0  0  0  0  0  0  0  0
    1.4151   -3.4939   -5.2632 H   0  0  0  0  0  0  0  0  0  0  0  0
  5  6  2  0  0  0  0
  5  7  1  0  0  0  0
  2  3  1  0  0  0  0
  2  4  1  0  0  0  0
  2  5  1  0  0  0  0
  1  2  1  0  0  0  0
 15 16  2  0  0  0  0
 15 17  1  0  0  0  0
 14 36  1  0  0  0  0
 11 12  1  0  0  0  0
 11 13  1  0  0  0  0
 11 14  1  0  0  0  0
  9 10  1  0  0  0  0
  9 11  1  0  0  0  0
  9 15  1  0  0  0  0
  7  8  1  0  0  0  0
  7  9  1  0  0  0  0
 19 20  1  0  0  0  0
 19 21  1  0  0  0  0
 19 22  1  0  0  0  0
 17 18  1  0  0  0  0
 17 19  1  0  0  0  0
 27 28  2  0  0  0  0
 27 29  1  0  0  0  0
 24 25  1  0  0  0  0
 24 26  1  0  0  0  0
 24 27  1  0  0  0  0
 23 24  1  0  0  0  0
 37 38  2  0  0  0  0
 37 39  1  0  0  0  0
 33 34  1  0  0  0  0
 33 35  1  0  0  0  0
 33 36  1  0  0  0  0
 31 32  1  0  0  0  0
 31 33  1  0  0  0  0
 31 37  1  0  0  0  0
 29 30  1  0  0  0  0
 29 31  1  0  0  0  0
 41 42  1  0  0  0  0
 41 43  1  0  0  0  0
 41 44  1  0  0  0  0
 39 40  1  0  0  0  0
 39 41  1  0  0  0  0
M  END
$$$$
default_name
  -OEChem-01062215323D

 44 43  0     1  0  0  0  0  0999 V2000
    2.4488   -3.0448    2.0990 H   0  0  0  0  0  0  0  0  0  0  0  0
    2.2788   -2.0018    2.3640 C   0  0  0  0  0  0  0  0  0  0  0  0
    2.9228   -1.7258    3.1960 H   0  0  0  0  0  0  0  0  0  0  0  0
    1.2358   -1.8618    2.6430 H   0  0  0  0  0  0  0  0  0  0  0  0
    2.6018   -1.1318    1.1730 C   0  0  0  0  0  0  0  0  0  0  0  0
    3.0048   -1.6348    0.1320 O   0  0  0  0  0  0  0  0  0  0  0  0
    2.4088    0.1752    1.3190 N   0  0  0  0  0  0  0  0  0  0  0  0
    2.0708    0.5242    2.2050 H   0  0  0  0  0  0  0  0  0  0  0  0
    2.6638    1.1782    0.2840 C   0  0  1  0  0  0  0  0  0  0  0  0
    3.7273    1.1521    0.0408 H   0  0  0  0  0  0  0  0  0  0  0  0
    1.8743    0.8225   -0.9879 C   0  0  0  0  0  0  0  0  0  0  0  0
    1.9443    1.6553   -1.6887 H   0  0  0  0  0  0  0  0  0  0  0  0
    0.8227    0.7385   -0.7148 H   0  0  0  0  0  0  0  0  0  0  0  0
    2.3162   -0.7078   -1.8631 S   0  0  0  0  0  0  0  0  0  0  0  0
    2.3322    2.5944    0.7906 C   0  0  0  0  0  0  0  0  0  0  0  0
    2.7265    3.5860    0.1772 O   0  0  0  0  0  0  0  0  0  0  0  0
    1.6003    2.6879    1.9089 N   0  0  0  0  0  0  0  0  0  0  0  0
    1.3083    1.8354    2.3590 H   0  0  0  0  0  0  0  0  0  0  0  0
    1.2057    3.9572    2.5162 C   0  0  0  0  0  0  0  0  0  0  0  0
    2.0963    4.5107    2.8214 H   0  0  0  0  0  0  0  0  0  0  0  0
    0.6566    4.5593    1.7900 H   0  0  0  0  0  0  0  0  0  0  0  0
    0.5748    3.7804    3.3882 H   0  0  0  0  0  0  0  0  0  0  0  0
    5.6487    3.7028   -7.8014 H   0  0  0  0  0  0  0  0  0  0  0  0
    4.6786    3.3652   -7.4398 C   0  0  0  0  0  0  0  0  0  0  0  0
    4.0370    3.1192   -8.2845 H   0  0  0  0  0  0  0  0  0  0  0  0
    4.2181    4.1499   -6.8424 H   0  0  0  0  0  0  0  0  0  0  0  0
    4.8747    2.1352   -6.5849 C   0  0  0  0  0  0  0  0  0  0  0  0
    5.9978    1.6900   -6.3909 O   0  0  0  0  0  0  0  0  0  0  0  0
    3.7768    1.5914   -6.0666 N   0  0  0  0  0  0  0  0  0  0  0  0
    2.8811    2.0067   -6.2776 H   0  0  0  0  0  0  0  0  0  0  0  0
    3.7631    0.4051   -5.2106 C   0  0  1  0  0  0  0  0  0  0  0  0
    4.5235   -0.2952   -5.5609 H   0  0  0  0  0  0  0  0  0  0  0  0
    4.1299    0.8426   -3.7856 C   0  0  0  0  0  0  0  0  0  0  0  0
    5.1092    1.3213   -3.8308 H   0  0  0  0  0  0  0  0  0  0  0  0
    3.4177    1.5986   -3.4545 H   0  0  0  0  0  0  0  0  0  0  0  0
    4.2330   -0.4476   -2.5161 S   0  0  0  0  0  0  0  0  0  0  0  0
    2.3951   -0.2959   -5.2837 C   0  0  0  0  0  0  0  0  0  0  0  0
    1.3759    0.3651   -5.4878 O   0  0  0  0  0  0  0  0  0  0  0  0
    2.3744   -1.6257   -5.1265 N   0  0  0  0  0  0  0  0  0  0  0  0
    3.2472   -2.0892   -4.9296 H   0  0  0  0  0  0  0  0  0  0  0  0
    1.1596   -2.4392   -5.1594 C   0  0  0  0  0  0  0  0  0  0  0  0
    0.5952   -2.2951   -4.2366 H   0  0  0  0  0  0  0  0  0  0  0  0
    0.5320   -2.1395   -6.0021 H   0  0  0  0  0  0  0  0  0  0  0  0
    1.4151   -3.4939   -5.2632 H   0  0  0  0  0  0  0  0  0  0  0  0
  5  6  2  0  0  0  0
  5  7  1  0  0  0  0
  2  3  1  0  0  0  0
  2  4  1  0  0  0  0
  2  5  1  0  0  0  0
  1  2  1  0  0  0  0
 15 16  2  0  0  0  0
 15 17  1  0  0  0  0
 14 36  1  0  0  0  0
 11 12  1  0  0  0  0
 11 13  1  0  0  0  0
 11 14  1  0  0  0  0
  9 10  1  0  0  0  0
  9 11  1  0  0  0  0
  9 15  1  0  0  0  0
  7  8  1  0  0  0  0
  7  9  1  0  0  0  0
 19 20  1  0  0  0  0
 19 21  1  0  0  0  0
 19 22  1  0  0  0  0
 17 18  1  0  0  0  0
 17 19  1  0  0  0  0
 27 28  2  0  0  0  0
 27 29  1  0  0  0  0
 24 25  1  0  0  0  0
 24 26  1  0  0  0  0
 24 27  1  0  0  0  0
 23 24  1  0  0  0  0
 37 38  2  0  0  0  0
 37 39  1  0  0  0  0
 33 34  1  0  0  0  0
 33 35  1  0  0  0  0
 33 36  1  0  0  0  0
 31 32  1  0  0  0  0
 31 33  1  0  0  0  0
 31 37  1  0  0  0  0
 29 30  1  0  0  0  0
 29 31  1  0  0  0  0
 41 42  1  0  0  0  0
 41 43  1  0  0  0  0
 41 44  1  0  0  0  0
 39 40  1  0  0  0  0
 39 41  1  0  0  0  0
M  END
$$$$
default_name
  -OEChem-01062215323D

 44 43  0     1  0  0  0  0  0999 V2000
    2.4488   -3.0448    2.0990 H   0  0  0  0  0  0  0  0  0  0  0  0
    2.2788   -2.0018    2.3640 C   0  0  0  0  0  0  0  0  0  0  0  0
    2.9228   -1.7258    3.1960 H   0  0  0  0  0  0  0  0  0  0  0  0
    1.2358   -1.8618    2.6430 H   0  0  0  0  0  0  0  0  0  0  0  0
    2.6018   -1.1318    1.1730 C   0  0  0  0  0  0  0  0  0  0  0  0
    3.0048   -1.6348    0.1320 O   0  0  0  0  0  0  0  0  0  0  0  0
    2.4088    0.1752    1.3190 N   0  0  0  0  0  0  0  0  0  0  0  0
    2.0708    0.5242    2.2050 H   0  0  0  0  0  0  0  0  0  0  0  0
    2.6638    1.1782    0.2840 C   0  0  1  0  0  0  0  0  0  0  0  0
    3.7273    1.1521    0.0408 H   0  0  0  0  0  0  0  0  0  0  0  0
    1.8743    0.8225   -0.9879 C   0  0  0  0  0  0  0  0  0  0  0  0
    1.9443    1.6553   -1.6887 H   0  0  0  0  0  0  0  0  0  0  0  0
    0.8227    0.7385   -0.7148 H   0  0  0  0  0  0  0  0  0  0  0  0
    2.3162   -0.7078   -1.8631 S   0  0  0  0  0  0  0  0  0  0  0  0
    2.3322    2.5944    0.7906 C   0  0  0  0  0  0  0  0  0  0  0  0
    2.4781    3.5712    0.0560 O   0  0  0  0  0  0  0  0  0  0  0  0
    1.8790    2.7038    2.0466 N   0  0  0  0  0  0  0  0  0  0  0  0
    1.7808    1.8626    2.5919 H   0  0  0  0  0  0  0  0  0  0  0  0
    1.5236    3.9756    2.6727 C   0  0  0  0  0  0  0  0  0  0  0  0
    2.4063    4.6162    2.7293 H   0  0  0  0  0  0  0  0  0  0  0  0
    0.7659    4.4836    2.0732 H   0  0  0  0  0  0  0  0  0  0  0  0
    1.1348    3.8079    3.6779 H   0  0  0  0  0  0  0  0  0  0  0  0
    5.6487    3.7028   -7.8014 H   0  0  0  0  0  0  0  0  0  0  0  0
    4.6786    3.3652   -7.4398 C   0  0  0  0  0  0  0  0  0  0  0  0
    4.0370    3.1192   -8.2845 H   0  0  0  0  0  0  0  0  0  0  0  0
    4.2181    4.1499   -6.8424 H   0  0  0  0  0  0  0  0  0  0  0  0
    4.8747    2.1352   -6.5849 C   0  0  0  0  0  0  0  0  0  0  0  0
    5.9978    1.6900   -6.3909 O   0  0  0  0  0  0  0  0  0  0  0  0
    3.7768    1.5914   -6.0666 N   0  0  0  0  0  0  0  0  0  0  0  0
    2.8811    2.0067   -6.2776 H   0  0  0  0  0  0  0  0  0  0  0  0
    3.7631    0.4051   -5.2106 C   0  0  1  0  0  0  0  0  0  0  0  0
    4.5235   -0.2952   -5.5609 H   0  0  0  0  0  0  0  0  0  0  0  0
    4.1299    0.8426   -3.7856 C   0  0  0  0  0  0  0  0  0  0  0  0
    5.1092    1.3213   -3.8308 H   0  0  0  0  0  0  0  0  0  0  0  0
    3.4177    1.5986   -3.4545 H   0  0  0  0  0  0  0  0  0  0  0  0
    4.2330   -0.4476   -2.5161 S   0  0  0  0  0  0  0  0  0  0  0  0
    2.3951   -0.2959   -5.2837 C   0  0  0  0  0  0  0  0  0  0  0  0
    1.3759    0.3651   -5.4878 O   0  0  0  0  0  0  0  0  0  0  0  0
    2.3744   -1.6257   -5.1265 N   0  0  0  0  0  0  0  0  0  0  0  0
    3.2472   -2.0892   -4.9296 H   0  0  0  0  0  0  0  0  0  0  0  0
    1.1596   -2.4392   -5.1594 C   0  0  0  0  0  0  0  0  0  0  0  0
    0.5952   -2.2951   -4.2366 H   0  0  0  0  0  0  0  0  0  0  0  0
    0.5320   -2.1395   -6.0021 H   0  0  0  0  0  0  0  0  0  0  0  0
    1.4151   -3.4939   -5.2632 H   0  0  0  0  0  0  0  0  0  0  0  0
  5  6  2  0  0  0  0
  5  7  1  0  0  0  0
  2  3  1  0  0  0  0
  2  4  1  0  0  0  0
  2  5  1  0  0  0  0
  1  2  1  0  0  0  0
 15 16  2  0  0  0  0
 15 17  1  0  0  0  0
 14 36  1  0  0  0  0
 11 12  1  0  0  0  0
 11 13  1  0  0  0  0
 11 14  1  0  0  0  0
  9 10  1  0  0  0  0
  9 11  1  0  0  0  0
  9 15  1  0  0  0  0
  7  8  1  0  0  0  0
  7  9  1  0  0  0  0
 19 20  1  0  0  0  0
 19 21  1  0  0  0  0
 19 22  1  0  0  0  0
 17 18  1  0  0  0  0
 17 19  1  0  0  0  0
 27 28  2  0  0  0  0
 27 29  1  0  0  0  0
 24 25  1  0  0  0  0
 24 26  1  0  0  0  0
 24 27  1  0  0  0  0
 23 24  1  0  0  0  0
 37 38  2  0  0  0  0
 37 39  1  0  0  0  0
 33 34  1  0  0  0  0
 33 35  1  0  0  0  0
 33 36  1  0  0  0  0
 31 32  1  0  0  0  0
 31 33  1  0  0  0  0
 31 37  1  0  0  0  0
 29 30  1  0  0  0  0
 29 31  1  0  0  0  0
 41 42  1  0  0  0  0
 41 43  1  0  0  0  0
 41 44  1  0  0  0  0
 39 40  1  0  0  0  0
 39 41  1  0  0  0  0
M  END
$$$$
default_name
  -OEChem-01062215323D

 44 43  0     1  0  0  0  0  0999 V2000
    2.4488   -3.0448    2.0990 H   0  0  0  0  0  0  0  0  0  0  0  0
    2.2788   -2.0018    2.3640 C   0  0  0  0  0  0  0  0  0  0  0  0
    2.9228   -1.7258    3.1960 H   0  0  0  0  0  0  0  0  0  0  0  0
    1.2358   -1.8618    2.6430 H   0  0  0  0  0  0  0  0  0  0  0  0
    2.6018   -1.1318    1.1730 C   0  0  0  0  0  0  0  0  0  0  0  0
    3.0048   -1.6348    0.1320 O   0  0  0  0  0  0  0  0  0  0  0  0
    2.4088    0.1752    1.3190 N   0  0  0  0  0  0  0  0  0  0  0  0
    2.0708    0.5242    2.2050 H   0  0  0  0  0  0  0  0  0  0  0  0
    2.6638    1.1782    0.2840 C   0  0  1  0  0  0  0  0  0  0  0  0
    3.7273    1.1521    0.0408 H   0  0  0  0  0  0  0  0  0  0  0  0
    1.8743    0.8225   -0.9879 C   0  0  0  0  0  0  0  0  0  0  0  0
    1.9443    1.6553   -1.6887 H   0  0  0  0  0  0  0  0  0  0  0  0
    0.8227    0.7385   -0.7148 H   0  0  0  0  0  0  0  0  0  0  0  0
    2.3162   -0.7078   -1.8631 S   0  0  0  0  0  0  0  0  0  0  0  0
    2.3322    2.5944    0.7906 C   0  0  0  0  0  0  0  0  0  0  0  0
    2.2105    3.5290   -0.0011 O   0  0  0  0  0  0  0  0  0  0  0  0
    2.1795    2.7507    2.1124 N   0  0  0  0  0  0  0  0  0  0  0  0
    2.2903    1.9422    2.7030 H   0  0  0  0  0  0  0  0  0  0  0  0
    1.8663    4.0292    2.7472 C   0  0  0  0  0  0  0  0  0  0  0  0
    2.6748    4.7394    2.5608 H   0  0  0  0  0  0  0  0  0  0  0  0
    0.9453    4.4356    2.3250 H   0  0  0  0  0  0  0  0  0  0  0  0
    1.7423    3.8983    3.8229 H   0  0  0  0  0  0  0  0  0  0  0  0
    5.6487    3.7028   -7.8014 H   0  0  0  0  0  0  0  0  0  0  0  0
    4.6786    3.3652   -7.4398 C   0  0  0  0  0  0  0  0  0  0  0  0
    4.0370    3.1192   -8.2845 H   0  0  0  0  0  0  0  0  0  0  0  0
    4.2181    4.1499   -6.8424 H   0  0  0  0  0  0  0  0  0  0  0  0
    4.8747    2.1352   -6.5849 C   0  0  0  0  0  0  0  0  0  0  0  0
    5.9978    1.6900   -6.3909 O   0  0  0  0  0  0  0  0  0  0  0  0
    3.7768    1.5914   -6.0666 N   0  0  0  0  0  0  0  0  0  0  0  0
    2.8811    2.0067   -6.2776 H   0  0  0  0  0  0  0  0  0  0  0  0
    3.7631    0.4051   -5.2106 C   0  0  1  0  0  0  0  0  0  0  0  0
    4.5235   -0.2952   -5.5609 H   0  0  0  0  0  0  0  0  0  0  0  0
    4.1299    0.8426   -3.7856 C   0  0  0  0  0  0  0  0  0  0  0  0
    5.1092    1.3213   -3.8308 H   0  0  0  0  0  0  0  0  0  0  0  0
    3.4177    1.5986   -3.4545 H   0  0  0  0  0  0  0  0  0  0  0  0
    4.2330   -0.4476   -2.5161 S   0  0  0  0  0  0  0  0  0  0  0  0
    2.3951   -0.2959   -5.2837 C   0  0  0  0  0  0  0  0  0  0  0  0
    1.3759    0.3651   -5.4878 O   0  0  0  0  0  0  0  0  0  0  0  0
    2.3744   -1.6257   -5.1265 N   0  0  0  0  0  0  0  0  0  0  0  0
    3.2472   -2.0892   -4.9296 H   0  0  0  0  0  0  0  0  0  0  0  0
    1.1596   -2.4392   -5.1594 C   0  0  0  0  0  0  0  0  0  0  0  0
    0.5952   -2.2951   -4.2366 H   0  0  0  0  0  0  0  0  0  0  0  0
    0.5320   -2.1395   -6.0021 H   0  0  0  0  0  0  0  0  0  0  0  0
    1.4151   -3.4939   -5.2632 H   0  0  0  0  0  0  0  0  0  0  0  0
  5  6  2  0  0  0  0
  5  7  1  0  0  0  0
  2  3  1  0  0  0  0
  2  4  1  0  0  0  0
  2  5  1  0  0  0  0
  1  2  1  0  0  0  0
 15 16  2  0  0  0  0
 15 17  1  0  0  0  0
 14 36  1  0  0  0  0
 11 12  1  0  0  0  0
 11 13  1  0  0  0  0
 11 14  1  0  0  0  0
  9 10  1  0  0  0  0
  9 11  1  0  0  0  0
  9 15  1  0  0  0  0
  7  8  1  0  0  0  0
  7  9  1  0  0  0  0
 19 20  1  0  0  0  0
 19 21  1  0  0  0  0
 19 22  1  0  0  0  0
 17 18  1  0  0  0  0
 17 19  1  0  0  0  0
 27 28  2  0  0  0  0
 27 29  1  0  0  0  0
 24 25  1  0  0  0  0
 24 26  1  0  0  0  0
 24 27  1  0  0  0  0
 23 24  1  0  0  0  0
 37 38  2  0  0  0  0
 37 39  1  0  0  0  0
 33 34  1  0  0  0  0
 33 35  1  0  0  0  0
 33 36  1  0  0  0  0
 31 32  1  0  0  0  0
 31 33  1  0  0  0  0
 31 37  1  0  0  0  0
 29 30  1  0  0  0  0
 29 31  1  0  0  0  0
 41 42  1  0  0  0  0
 41 43  1  0  0  0  0
 41 44  1  0  0  0  0
 39 40  1  0  0  0  0
 39 41  1  0  0  0  0
M  END
$$$$
default_name
  -OEChem-01062215323D

 44 43  0     1  0  0  0  0  0999 V2000
    2.4488   -3.0448    2.0990 H   0  0  0  0  0  0  0  0  0  0  0  0
    2.2788   -2.0018    2.3640 C   0  0  0  0  0  0  0  0  0  0  0  0
    2.9228   -1.7258    3.1960 H   0  0  0  0  0  0  0  0  0  0  0  0
    1.2358   -1.8618    2.6430 H   0  0  0  0  0  0  0  0  0  0  0  0
    2.6018   -1.1318    1.1730 C   0  0  0  0  0  0  0  0  0  0  0  0
    3.0048   -1.6348    0.1320 O   0  0  0  0  0  0  0  0  0  0  0  0
    2.4088    0.1752    1.3190 N   0  0  0  0  0  0  0  0  0  0  0  0
    2.0708    0.5242    2.2050 H   0  0  0  0  0  0  0  0  0  0  0  0
    2.6638    1.1782    0.2840 C   0  0  1  0  0  0  0  0  0  0  0  0
    3.7273    1.1521    0.0408 H   0  0  0  0  0  0  0  0  0  0  0  0
    1.8743    0.8225   -0.9879 C   0  0  0  0  0  0  0  0  0  0  0  0
    1.9443    1.6553   -1.6887 H   0  0  0  0  0  0  0  0  0  0  0  0
    0.8227    0.7385   -0.7148 H   0  0  0  0  0  0  0  0  0  0  0  0
    2.3162   -0.7078   -1.8631 S   0  0  0  0  0  0  0  0  0  0  0  0
    2.3322    2.5944    0.7906 C   0  0  0  0  0  0  0  0  0  0  0  0
    1.9421    3.4622    0.0098 O   0  0  0  0  0  0  0  0  0  0  0  0
    2.4815    2.8251    2.1018 N   0  0  0  0  0  0  0  0  0  0  0  0
    2.8020    2.0686    2.6846 H   0  0  0  0  0  0  0  0  0  0  0  0
    2.2105    4.1143    2.7345 C   0  0  0  0  0  0  0  0  0  0  0  0
    2.8835    4.8718    2.3272 H   0  0  0  0  0  0  0  0  0  0  0  0
    1.1827    4.4185    2.5281 H   0  0  0  0  0  0  0  0  0  0  0  0
    2.3560    4.0454    3.8133 H   0  0  0  0  0  0  0  0  0  0  0  0
    5.6487    3.7028   -7.8014 H   0  0  0  0  0  0  0  0  0  0  0  0
    4.6786    3.3652   -7.4398 C   0  0  0  0  0  0  0  0  0  0  0  0
    4.0370    3.1192   -8.2845 H   0  0  0  0  0  0  0  0  0  0  0  0
    4.2181    4.1499   -6.8424 H   0  0  0  0  0  0  0  0  0  0  0  0
    4.8747    2.1352   -6.5849 C   0  0  0  0  0  0  0  0  0  0  0  0
    5.9978    1.6900   -6.3909 O   0  0  0  0  0  0  0  0  0  0  0  0
    3.7768    1.5914   -6.0666 N   0  0  0  0  0  0  0  0  0  0  0  0
    2.8811    2.0067   -6.2776 H   0  0  0  0  0  0  0  0  0  0  0  0
    3.7631    0.4051   -5.2106 C   0  0  1  0  0  0  0  0  0  0  0  0
    4.5235   -0.2952   -5.5609 H   0  0  0  0  0  0  0  0  0  0  0  0
    4.1299    0.8426   -3.7856 C   0  0  0  0  0  0  0  0  0  0  0  0
    5.1092    1.3213   -3.8308 H   0  0  0  0  0  0  0  0  0  0  0  0
    3.4177    1.5986   -3.4545 H   0  0  0  0  0  0  0  0  0  0  0  0
    4.2330   -0.4476   -2.5161 S   0  0  0  0  0  0  0  0  0  0  0  0
    2.3951   -0.2959   -5.2837 C   0  0  0  0  0  0  0  0  0  0  0  0
    1.3759    0.3651   -5.4878 O   0  0  0  0  0  0  0  0  0  0  0  0
    2.3744   -1.6257   -5.1265 N   0  0  0  0  0  0  0  0  0  0  0  0
    3.2472   -2.0892   -4.9296 H   0  0  0  0  0  0  0  0  0  0  0  0
    1.1596   -2.4392   -5.1594 C   0  0  0  0  0  0  0  0  0  0  0  0
    0.5952   -2.2951   -4.2366 H   0  0  0  0  0  0  0  0  0  0  0  0
    0.5320   -2.1395   -6.0021 H   0  0  0  0  0  0  0  0  0  0  0  0
    1.4151   -3.4939   -5.2632 H   0  0  0  0  0  0  0  0  0  0  0  0
  5  6  2  0  0  0  0
  5  7  1  0  0  0  0
  2  3  1  0  0  0  0
  2  4  1  0  0  0  0
  2  5  1  0  0  0  0
  1  2  1  0  0  0  0
 15 16  2  0  0  0  0
 15 17  1  0  0  0  0
 14 36  1  0  0  0  0
 11 12  1  0  0  0  0
 11 13  1  0  0  0  0
 11 14  1  0  0  0  0
  9 10  1  0  0  0  0
  9 11  1  0  0  0  0
  9 15  1  0  0  0  0
  7  8  1  0  0  0  0
  7  9  1  0  0  0  0
 19 20  1  0  0  0  0
 19 21  1  0  0  0  0
 19 22  1  0  0  0  0
 17 18  1  0  0  0  0
 17 19  1  0  0  0  0
 27 28  2  0  0  0  0
 27 29  1  0  0  0  0
 24 25  1  0  0  0  0
 24 26  1  0  0  0  0
 24 27  1  0  0  0  0
 23 24  1  0  0  0  0
 37 38  2  0  0  0  0
 37 39  1  0  0  0  0
 33 34  1  0  0  0  0
 33 35  1  0  0  0  0
 33 36  1  0  0  0  0
 31 32  1  0  0  0  0
 31 33  1  0  0  0  0
 31 37  1  0  0  0  0
 29 30  1  0  0  0  0
 29 31  1  0  0  0  0
 41 42  1  0  0  0  0
 41 43  1  0  0  0  0
 41 44  1  0  0  0  0
 39 40  1  0  0  0  0
 39 41  1  0  0  0  0
M  END
$$$$
default_name
  -OEChem-01062215323D

 44 43  0     1  0  0  0  0  0999 V2000
    2.4488   -3.0448    2.0990 H   0  0  0  0  0  0  0  0  0  0  0  0
    2.2788   -2.0018    2.3640 C   0  0  0  0  0  0  0  0  0  0  0  0
    2.9228   -1.7258    3.1960 H   0  0  0  0  0  0  0  0  0  0  0  0
    1.2358   -1.8618    2.6430 H   0  0  0  0  0  0  0  0  0  0  0  0
    2.6018   -1.1318    1.1730 C   0  0  0  0  0  0  0  0  0  0  0  0
    3.0048   -1.6348    0.1320 O   0  0  0  0  0  0  0  0  0  0  0  0
    2.4088    0.1752    1.3190 N   0  0  0  0  0  0  0  0  0  0  0  0
    2.0708    0.5242    2.2050 H   0  0  0  0  0  0  0  0  0  0  0  0
    2.6638    1.1782    0.2840 C   0  0  1  0  0  0  0  0  0  0  0  0
    3.7273    1.1521    0.0408 H   0  0  0  0  0  0  0  0  0  0  0  0
    1.8743    0.8225   -0.9879 C   0  0  0  0  0  0  0  0  0  0  0  0
    1.9443    1.6553   -1.6887 H   0  0  0  0  0  0  0  0  0  0  0  0
    0.8227    0.7385   -0.7148 H   0  0  0  0  0  0  0  0  0  0  0  0
    2.3162   -0.7078   -1.8631 S   0  0  0  0  0  0  0  0  0  0  0  0
    2.3322    2.5944    0.7906 C   0  0  0  0  0  0  0  0  0  0  0  0
    1.6911    3.3755    0.0879 O   0  0  0  0  0  0  0  0  0  0  0  0
    2.7643    2.9222    2.0156 N   0  0  0  0  0  0  0  0  0  0  0  0
    3.2812    2.2333    2.5380 H   0  0  0  0  0  0  0  0  0  0  0  0
    2.5327    4.2252    2.6357 C   0  0  0  0  0  0  0  0  0  0  0  0
    3.0183    5.0045    2.0446 H   0  0  0  0  0  0  0  0  0  0  0  0
    1.4617    4.4335    2.6688 H   0  0  0  0  0  0  0  0  0  0  0  0
    2.9339    4.2392    3.6499 H   0  0  0  0  0  0  0  0  0  0  0  0
    5.6487    3.7028   -7.8014 H   0  0  0  0  0  0  0  0  0  0  0  0
    4.6786    3.3652   -7.4398 C   0  0  0  0  0  0  0  0  0  0  0  0
    4.0370    3.1192   -8.2845 H   0  0  0  0  0  0  0  0  0  0  0  0
    4.2181    4.1499   -6.8424 H   0  0  0  0  0  0  0  0  0  0  0  0
    4.8747    2.1352   -6.5849 C   0  0  0  0  0  0  0  0  0  0  0  0
    5.9978    1.6900   -6.3909 O   0  0  0  0  0  0  0  0  0  0  0  0
    3.7768    1.5914   -6.0666 N   0  0  0  0  0  0  0  0  0  0  0  0
    2.8811    2.0067   -6.2776 H   0  0  0  0  0  0  0  0  0  0  0  0
    3.7631    0.4051   -5.2106 C   0  0  1  0  0  0  0  0  0  0  0  0
    4.5235   -0.2952   -5.5609 H   0  0  0  0  0  0  0  0  0  0  0  0
    4.1299    0.8426   -3.7856 C   0  0  0  0  0  0  0  0  0  0  0  0
    5.1092    1.3213   -3.8308 H   0  0  0  0  0  0  0  0  0  0  0  0
    3.4177    1.5986   -3.4545 H   0  0  0  0  0  0  0  0  0  0  0  0
    4.2330   -0.4476   -2.5161 S   0  0  0  0  0  0  0  0  0  0  0  0
    2.3951   -0.2959   -5.2837 C   0  0  0  0  0  0  0  0  0  0  0  0
    1.3759    0.3651   -5.4878 O   0  0  0  0  0  0  0  0  0  0  0  0
    2.3744   -1.6257   -5.1265 N   0  0  0  0  0  0  0  0  0  0  0  0
    3.2472   -2.0892   -4.9296 H   0  0  0  0  0  0  0  0  0  0  0  0
    1.1596   -2.4392   -5.1594 C   0  0  0  0  0  0  0  0  0  0  0  0
    0.5952   -2.2951   -4.2366 H   0  0  0  0  0  0  0  0  0  0  0  0
    0.5320   -2.1395   -6.0021 H   0  0  0  0  0  0  0  0  0  0  0  0
    1.4151   -3.4939   -5.2632 H   0  0  0  0  0  0  0  0  0  0  0  0
  5  6  2  0  0  0  0
  5  7  1  0  0  0  0
  2  3  1  0  0  0  0
  2  4  1  0  0  0  0
  2  5  1  0  0  0  0
  1  2  1  0  0  0  0
 15 16  2  0  0  0  0
 15 17  1  0  0  0  0
 14 36  1  0  0  0  0
 11 12  1  0  0  0  0
 11 13  1  0  0  0  0
 11 14  1  0  0  0  0
  9 10  1  0  0  0  0
  9 11  1  0  0  0  0
  9 15  1  0  0  0  0
  7  8  1  0  0  0  0
  7  9  1  0  0  0  0
 19 20  1  0  0  0  0
 19 21  1  0  0  0  0
 19 22  1  0  0  0  0
 17 18  1  0  0  0  0
 17 19  1  0  0  0  0
 27 28  2  0  0  0  0
 27 29  1  0  0  0  0
 24 25  1  0  0  0  0
 24 26  1  0  0  0  0
 24 27  1  0  0  0  0
 23 24  1  0  0  0  0
 37 38  2  0  0  0  0
 37 39  1  0  0  0  0
 33 34  1  0  0  0  0
 33 35  1  0  0  0  0
 33 36  1  0  0  0  0
 31 32  1  0  0  0  0
 31 33  1  0  0  0  0
 31 37  1  0  0  0  0
 29 30  1  0  0  0  0
 29 31  1  0  0  0  0
 41 42  1  0  0  0  0
 41 43  1  0  0  0  0
 41 44  1  0  0  0  0
 39 40  1  0  0  0  0
 39 41  1  0  0  0  0
M  END
$$$$
default_name
  -OEChem-01062215323D

 44 43  0     1  0  0  0  0  0999 V2000
    2.4488   -3.0448    2.0990 H   0  0  0  0  0  0  0  0  0  0  0  0
    2.2788   -2.0018    2.3640 C   0  0  0  0  0  0  0  0  0  0  0  0
    2.9228   -1.7258    3.1960 H   0  0  0  0  0  0  0  0  0  0  0  0
    1.2358   -1.8618    2.6430 H   0  0  0  0  0  0  0  0  0  0  0  0
    2.6018   -1.1318    1.1730 C   0  0  0  0  0  0  0  0  0  0  0  0
    3.0048   -1.6348    0.1320 O   0  0  0  0  0  0  0  0  0  0  0  0
    2.4088    0.1752    1.3190 N   0  0  0  0  0  0  0  0  0  0  0  0
    2.0708    0.5242    2.2050 H   0  0  0  0  0  0  0  0  0  0  0  0
    2.6638    1.1782    0.2840 C   0  0  1  0  0  0  0  0  0  0  0  0
    3.7273    1.1521    0.0408 H   0  0  0  0  0  0  0  0  0  0  0  0
    1.8743    0.8225   -0.9879 C   0  0  0  0  0  0  0  0  0  0  0  0
    1.9443    1.6553   -1.6887 H   0  0  0  0  0  0  0  0  0  0  0  0
    0.8227    0.7385   -0.7148 H   0  0  0  0  0  0  0  0  0  0  0  0
    2.3162   -0.7078   -1.8631 S   0  0  0  0  0  0  0  0  0  0  0  0
    2.3322    2.5944    0.7906 C   0  0  0  0  0  0  0  0  0  0  0  0
    1.4746    3.2748    0.2279 O   0  0  0  0  0  0  0  0  0  0  0  0
    3.0087    3.0352    1.8597 N   0  0  0  0  0  0  0  0  0  0  0  0
    3.6952    2.4249    2.2731 H   0  0  0  0  0  0  0  0  0  0  0  0
    2.8110    4.3541    2.4574 C   0  0  0  0  0  0  0  0  0  0  0  0
    3.0700    5.1284    1.7321 H   0  0  0  0  0  0  0  0  0  0  0  0
    1.7635    4.4795    2.7375 H   0  0  0  0  0  0  0  0  0  0  0  0
    3.4368    4.4665    3.3436 H   0  0  0  0  0  0  0  0  0  0  0  0
    5.6487    3.7028   -7.8014 H   0  0  0  0  0  0  0  0  0  0  0  0
    4.6786    3.3652   -7.4398 C   0  0  0  0  0  0  0  0  0  0  0  0
    4.0370    3.1192   -8.2845 H   0  0  0  0  0  0  0  0  0  0  0  0
    4.2181    4.1499   -6.8424 H   0  0  0  0  0  0  0  0  0  0  0  0
    4.8747    2.1352   -6.5849 C   0  0  0  0  0  0  0  0  0  0  0  0
    5.9978    1.6900   -6.3909 O   0  0  0  0  0  0  0  0  0  0  0  0
    3.7768    1.5914   -6.0666 N   0  0  0  0  0  0  0  0  0  0  0  0
    2.8811    2.0067   -6.2776 H   0  0  0  0  0  0  0  0  0  0  0  0
    3.7631    0.4051   -5.2106 C   0  0  1  0  0  0  0  0  0  0  0  0
    4.5235   -0.2952   -5.5609 H   0  0  0  0  0  0  0  0  0  0  0  0
    4.1299    0.8426   -3.7856 C   0  0  0  0  0  0  0  0  0  0  0  0
    5.1092    1.3213   -3.8308 H   0  0  0  0  0  0  0  0  0  0  0  0
    3.4177    1.5986   -3.4545 H   0  0  0  0  0  0  0  0  0  0  0  0
    4.2330   -0.4476   -2.5161 S   0  0  0  0  0  0  0  0  0  0  0  0
    2.3951   -0.2959   -5.2837 C   0  0  0  0  0  0  0  0  0  0  0  0
    1.3759    0.3651   -5.4878 O   0  0  0  0  0  0  0  0  0  0  0  0
    2.3744   -1.6257   -5.1265 N   0  0  0  0  0  0  0  0  0  0  0  0
    3.2472   -2.0892   -4.9296 H   0  0  0  0  0  0  0  0  0  0  0  0
    1.1596   -2.4392   -5.1594 C   0  0  0  0  0  0  0  0  0  0  0  0
    0.5952   -2.2951   -4.2366 H   0  0  0  0  0  0  0  0  0  0  0  0
    0.5320   -2.1395   -6.0021 H   0  0  0  0  0  0  0  0  0  0  0  0
    1.4151   -3.4939   -5.2632 H   0  0  0  0  0  0  0  0  0  0  0  0
  5  6  2  0  0  0  0
  5  7  1  0  0  0  0
  2  3  1  0  0  0  0
  2  4  1  0  0  0  0
  2  5  1  0  0  0  0
  1  2  1  0  0  0  0
 15 16  2  0  0  0  0
 15 17  1  0  0  0  0
 14 36  1  0  0  0  0
 11 12  1  0  0  0  0
 11 13  1  0  0  0  0
 11 14  1  0  0  0  0
  9 10  1  0  0  0  0
  9 11  1  0  0  0  0
  9 15  1  0  0  0  0
  7  8  1  0  0  0  0
  7  9  1  0  0  0  0
 19 20  1  0  0  0  0
 19 21  1  0  0  0  0
 19 22  1  0  0  0  0
 17 18  1  0  0  0  0
 17 19  1  0  0  0  0
 27 28  2  0  0  0  0
 27 29  1  0  0  0  0
 24 25  1  0  0  0  0
 24 26  1  0  0  0  0
 24 27  1  0  0  0  0
 23 24  1  0  0  0  0
 37 38  2  0  0  0  0
 37 39  1  0  0  0  0
 33 34  1  0  0  0  0
 33 35  1  0  0  0  0
 33 36  1  0  0  0  0
 31 32  1  0  0  0  0
 31 33  1  0  0  0  0
 31 37  1  0  0  0  0
 29 30  1  0  0  0  0
 29 31  1  0  0  0  0
 41 42  1  0  0  0  0
 41 43  1  0  0  0  0
 41 44  1  0  0  0  0
 39 40  1  0  0  0  0
 39 41  1  0  0  0  0
M  END
$$$$
default_name
  -OEChem-01062215323D

 44 43  0     1  0  0  0  0  0999 V2000
    2.4488   -3.0448    2.0990 H   0  0  0  0  0  0  0  0  0  0  0  0
    2.2788   -2.0018    2.3640 C   0  0  0  0  0  0  0  0  0  0  0  0
    2.9228   -1.7258    3.1960 H   0  0  0  0  0  0  0  0  0  0  0  0
    1.2358   -1.8618    2.6430 H   0  0  0  0  0  0  0  0  0  0  0  0
    2.6018   -1.1318    1.1730 C   0  0  0  0  0  0  0  0  0  0  0  0
    3.0048   -1.6348    0.1320 O   0  0  0  0  0  0  0  0  0  0  0  0
    2.4088    0.1752    1.3190 N   0  0  0  0  0  0  0  0  0  0  0  0
    2.0708    0.5242    2.2050 H   0  0  0  0  0  0  0  0  0  0  0  0
    2.6638    1.1782    0.2840 C   0  0  1  0  0  0  0  0  0  0  0  0
    3.7273    1.1521    0.0408 H   0  0  0  0  0  0  0  0  0  0  0  0
    1.8743    0.8225   -0.9879 C   0  0  0  0  0  0  0  0  0  0  0  0
    1.9443    1.6553   -1.6887 H   0  0  0  0  0  0  0  0  0  0  0  0
    0.8227    0.7385   -0.7148 H   0  0  0  0  0  0  0  0  0  0  0  0
    2.3162   -0.7078   -1.8631 S   0  0  0  0  0  0  0  0  0  0  0  0
    2.3322    2.5944    0.7906 C   0  0  0  0  0  0  0  0  0  0  0  0
    1.3074    3.1668    0.4202 O   0  0  0  0  0  0  0  0  0  0  0  0
    3.1980    3.1565    1.6445 N   0  0  0  0  0  0  0  0  0  0  0  0
    4.0157    2.6306    1.9081 H   0  0  0  0  0  0  0  0  0  0  0  0
    3.0264    4.4924    2.2117 C   0  0  0  0  0  0  0  0  0  0  0  0
    3.0349    5.2350    1.4110 H   0  0  0  0  0  0  0  0  0  0  0  0
    2.0674    4.5536    2.7295 H   0  0  0  0  0  0  0  0  0  0  0  0
    3.8303    4.7118    2.9155 H   0  0  0  0  0  0  0  0  0  0  0  0
    5.6487    3.7028   -7.8014 H   0  0  0  0  0  0  0  0  0  0  0  0
    4.6786    3.3652   -7.4398 C   0  0  0  0  0  0  0  0  0  0  0  0
    4.0370    3.1192   -8.2845 H   0  0  0  0  0  0  0  0  0  0  0  0
    4.2181    4.1499   -6.8424 H   0  0  0  0  0  0  0  0  0  0  0  0
    4.8747    2.1352   -6.5849 C   0  0  0  0  0  0  0  0  0  0  0  0
    5.9978    1.6900   -6.3909 O   0  0  0  0  0  0  0  0  0  0  0  0
    3.7768    1.5914   -6.0666 N   0  0  0  0  0  0  0  0  0  0  0  0
    2.8811    2.0067   -6.2776 H   0  0  0  0  0  0  0  0  0  0  0  0
    3.7631    0.4051   -5.2106 C   0  0  1  0  0  0  0  0  0  0  0  0
    4.5235   -0.2952   -5.5609 H   0  0  0  0  0  0  0  0  0  0  0  0
    4.1299    0.8426   -3.7856 C   0  0  0  0  0  0  0  0  0  0  0  0
    5.1092    1.3213   -3.8308 H   0  0  0  0  0  0  0  0  0  0  0  0
    3.4177    1.5986   -3.4545 H   0  0  0  0  0  0  0  0  0  0  0  0
    4.2330   -0.4476   -2.5161 S   0  0  0  0  0  0  0  0  0  0  0  0
    2.3951   -0.2959   -5.2837 C   0  0  0  0  0  0  0  0  0  0  0  0
    1.3759    0.3651   -5.4878 O   0  0  0  0  0  0  0  0  0  0  0  0
    2.3744   -1.6257   -5.1265 N   0  0  0  0  0  0  0  0  0  0  0  0
    3.2472   -2.0892   -4.9296 H   0  0  0  0  0  0  0  0  0  0  0  0
    1.1596   -2.4392   -5.1594 C   0  0  0  0  0  0  0  0  0  0  0  0
    0.5952   -2.2951   -4.2366 H   0  0  0  0  0  0  0  0  0  0  0  0
    0.5320   -2.1395   -6.0021 H   0  0  0  0  0  0  0  0  0  0  0  0
    1.4151   -3.4939   -5.2632 H   0  0  0  0  0  0  0  0  0  0  0  0
  5  6  2  0  0  0  0
  5  7  1  0  0  0  0
  2  3  1  0  0  0  0
  2  4  1  0  0  0  0
  2  5  1  0  0  0  0
  1  2  1  0  0  0  0
 15 16  2  0  0  0  0
 15 17  1  0  0  0  0
 14 36  1  0  0  0  0
 11 12  1  0  0  0  0
 11 13  1  0  0  0  0
 11 14  1  0  0  0  0
  9 10  1  0  0  0  0
  9 11  1  0  0  0  0
  9 15  1  0  0  0  0
  7  8  1  0  0  0  0
  7  9  1  0  0  0  0
 19 20  1  0  0  0  0
 19 21  1  0  0  0  0
 19 22  1  0  0  0  0
 17 18  1  0  0  0  0
 17 19  1  0  0  0  0
 27 28  2  0  0  0  0
 27 29  1  0  0  0  0
 24 25  1  0  0  0  0
 24 26  1  0  0  0  0
 24 27  1  0  0  0  0
 23 24  1  0  0  0  0
 37 38  2  0  0  0  0
 37 39  1  0  0  0  0
 33 34  1  0  0  0  0
 33 35  1  0  0  0  0
 33 36  1  0  0  0  0
 31 32  1  0  0  0  0
 31 33  1  0  0  0  0
 31 37  1  0  0  0  0
 29 30  1  0  0  0  0
 29 31  1  0  0  0  0
 41 42  1  0  0  0  0
 41 43  1  0  0  0  0
 41 44  1  0  0  0  0
 39 40  1  0  0  0  0
 39 41  1  0  0  0  0
M  END
$$$$
default_name
  -OEChem-01062215323D

 44 43  0     1  0  0  0  0  0999 V2000
    2.4488   -3.0448    2.0990 H   0  0  0  0  0  0  0  0  0  0  0  0
    2.2788   -2.0018    2.3640 C   0  0  0  0  0  0  0  0  0  0  0  0
    2.9228   -1.7258    3.1960 H   0  0  0  0  0  0  0  0  0  0  0  0
    1.2358   -1.8618    2.6430 H   0  0  0  0  0  0  0  0  0  0  0  0
    2.6018   -1.1318    1.1730 C   0  0  0  0  0  0  0  0  0  0  0  0
    3.0048   -1.6348    0.1320 O   0  0  0  0  0  0  0  0  0  0  0  0
    2.4088    0.1752    1.3190 N   0  0  0  0  0  0  0  0  0  0  0  0
    2.0708    0.5242    2.2050 H   0  0  0  0  0  0  0  0  0  0  0  0
    2.6638    1.1782    0.2840 C   0  0  1  0  0  0  0  0  0  0  0  0
    3.7273    1.1521    0.0408 H   0  0  0  0  0  0  0  0  0  0  0  0
    1.8743    0.8225   -0.9879 C   0  0  0  0  0  0  0  0  0  0  0  0
    1.9443    1.6553   -1.6887 H   0  0  0  0  0  0  0  0  0  0  0  0
    0.8227    0.7385   -0.7148 H   0  0  0  0  0  0  0  0  0  0  0  0
    2.3162   -0.7078   -1.8631 S   0  0  0  0  0  0  0  0  0  0  0  0
    2.3322    2.5944    0.7906 C   0  0  0  0  0  0  0  0  0  0  0  0
    1.2008    3.0590    0.6519 O   0  0  0  0  0  0  0  0  0  0  0  0
    3.3194    3.2778    1.3849 N   0  0  0  0  0  0  0  0  0  0  0  0
    4.2209    2.8361    1.4678 H   0  0  0  0  0  0  0  0  0  0  0  0
    3.1642    4.6307    1.9155 C   0  0  0  0  0  0  0  0  0  0  0  0
    2.9156    5.3172    1.1033 H   0  0  0  0  0  0  0  0  0  0  0  0
    2.3527    4.6505    2.6452 H   0  0  0  0  0  0  0  0  0  0  0  0
    4.0876    4.9584    2.3947 H   0  0  0  0  0  0  0  0  0  0  0  0
    5.6487    3.7028   -7.8014 H   0  0  0  0  0  0  0  0  0  0  0  0
    4.6786    3.3652   -7.4398 C   0  0  0  0  0  0  0  0  0  0  0  0
    4.0370    3.1192   -8.2845 H   0  0  0  0  0  0  0  0  0  0  0  0
    4.2181    4.1499   -6.8424 H   0  0  0  0  0  0  0  0  0  0  0  0
    4.8747    2.1352   -6.5849 C   0  0  0  0  0  0  0  0  0  0  0  0
    5.9978    1.6900   -6.3909 O   0  0  0  0  0  0  0  0  0  0  0  0
    3.7768    1.5914   -6.0666 N   0  0  0  0  0  0  0  0  0  0  0  0
    2.8811    2.0067   -6.2776 H   0  0  0  0  0  0  0  0  0  0  0  0
    3.7631    0.4051   -5.2106 C   0  0  1  0  0  0  0  0  0  0  0  0
    4.5235   -0.2952   -5.5609 H   0  0  0  0  0  0  0  0  0  0  0  0
    4.1299    0.8426   -3.7856 C   0  0  0  0  0  0  0  0  0  0  0  0
    5.1092    1.3213   -3.8308 H   0  0  0  0  0  0  0  0  0  0  0  0
    3.4177    1.5986   -3.4545 H   0  0  0  0  0  0  0  0  0  0  0  0
    4.2330   -0.4476   -2.5161 S   0  0  0  0  0  0  0  0  0  0  0  0
    2.3951   -0.2959   -5.2837 C   0  0  0  0  0  0  0  0  0  0  0  0
    1.3759    0.3651   -5.4878 O   0  0  0  0  0  0  0  0  0  0  0  0
    2.3744   -1.6257   -5.1265 N   0  0  0  0  0  0  0  0  0  0  0  0
    3.2472   -2.0892   -4.9296 H   0  0  0  0  0  0  0  0  0  0  0  0
    1.1596   -2.4392   -5.1594 C   0  0  0  0  0  0  0  0  0  0  0  0
    0.5952   -2.2951   -4.2366 H   0  0  0  0  0  0  0  0  0  0  0  0
    0.5320   -2.1395   -6.0021 H   0  0  0  0  0  0  0  0  0  0  0  0
    1.4151   -3.4939   -5.2632 H   0  0  0  0  0  0  0  0  0  0  0  0
  5  6  2  0  0  0  0
  5  7  1  0  0  0  0
  2  3  1  0  0  0  0
  2  4  1  0  0  0  0
  2  5  1  0  0  0  0
  1  2  1  0  0  0  0
 15 16  2  0  0  0  0
 15 17  1  0  0  0  0
 14 36  1  0  0  0  0
 11 12  1  0  0  0  0
 11 13  1  0  0  0  0
 11 14  1  0  0  0  0
  9 10  1  0  0  0  0
  9 11  1  0  0  0  0
  9 15  1  0  0  0  0
  7  8  1  0  0  0  0
  7  9  1  0  0  0  0
 19 20  1  0  0  0  0
 19 21  1  0  0  0  0
 19 22  1  0  0  0  0
 17 18  1  0  0  0  0
 17 19  1  0  0  0  0
 27 28  2  0  0  0  0
 27 29  1  0  0  0  0
 24 25  1  0  0  0  0
 24 26  1  0  0  0  0
 24 27  1  0  0  0  0
 23 24  1  0  0  0  0
 37 38  2  0  0  0  0
 37 39  1  0  0  0  0
 33 34  1  0  0  0  0
 33 35  1  0  0  0  0
 33 36  1  0  0  0  0
 31 32  1  0  0  0  0
 31 33  1  0  0  0  0
 31 37  1  0  0  0  0
 29 30  1  0  0  0  0
 29 31  1  0  0  0  0
 41 42  1  0  0  0  0
 41 43  1  0  0  0  0
 41 44  1  0  0  0  0
 39 40  1  0  0  0  0
 39 41  1  0  0  0  0
M  END
$$$$
default_name
  -OEChem-01062215323D

 44 43  0     1  0  0  0  0  0999 V2000
    2.4488   -3.0448    2.0990 H   0  0  0  0  0  0  0  0  0  0  0  0
    2.2788   -2.0018    2.3640 C   0  0  0  0  0  0  0  0  0  0  0  0
    2.9228   -1.7258    3.1960 H   0  0  0  0  0  0  0  0  0  0  0  0
    1.2358   -1.8618    2.6430 H   0  0  0  0  0  0  0  0  0  0  0  0
    2.6018   -1.1318    1.1730 C   0  0  0  0  0  0  0  0  0  0  0  0
    3.0048   -1.6348    0.1320 O   0  0  0  0  0  0  0  0  0  0  0  0
    2.4088    0.1752    1.3190 N   0  0  0  0  0  0  0  0  0  0  0  0
    2.0708    0.5242    2.2050 H   0  0  0  0  0  0  0  0  0  0  0  0
    2.6638    1.1782    0.2840 C   0  0  1  0  0  0  0  0  0  0  0  0
    3.7273    1.1521    0.0408 H   0  0  0  0  0  0  0  0  0  0  0  0
    1.8743    0.8225   -0.9879 C   0  0  0  0  0  0  0  0  0  0  0  0
    1.9443    1.6553   -1.6887 H   0  0  0  0  0  0  0  0  0  0  0  0
    0.8227    0.7385   -0.7148 H   0  0  0  0  0  0  0  0  0  0  0  0
    2.3162   -0.7078   -1.8631 S   0  0  0  0  0  0  0  0  0  0  0  0
    2.3322    2.5944    0.7906 C   0  0  0  0  0  0  0  0  0  0  0  0
    1.1622    2.9587    0.9069 O   0  0  0  0  0  0  0  0  0  0  0  0
    3.3645    3.3908    1.0985 N   0  0  0  0  0  0  0  0  0  0  0  0
    4.2969    3.0277    0.9822 H   0  0  0  0  0  0  0  0  0  0  0  0
    3.2150    4.7594    1.5888 C   0  0  0  0  0  0  0  0  0  0  0  0
    2.7201    5.3692    0.8299 H   0  0  0  0  0  0  0  0  0  0  0  0
    2.6000    4.7637    2.4906 H   0  0  0  0  0  0  0  0  0  0  0  0
    4.1912    5.1894    1.8166 H   0  0  0  0  0  0  0  0  0  0  0  0
    5.6487    3.7028   -7.8014 H   0  0  0  0  0  0  0  0  0  0  0  0
    4.6786    3.3652   -7.4398 C   0  0  0  0  0  0  0  0  0  0  0  0
    4.0370    3.1192   -8.2845 H   0  0  0  0  0  0  0  0  0  0  0  0
    4.2181    4.1499   -6.8424 H   0  0  0  0  0  0  0  0  0  0  0  0
    4.8747    2.1352   -6.5849 C   0  0  0  0  0  0  0  0  0  0  0  0
    5.9978    1.6900   -6.3909 O   0  0  0  0  0  0  0  0  0  0  0  0
    3.7768    1.5914   -6.0666 N   0  0  0  0  0  0  0  0  0  0  0  0
    2.8811    2.0067   -6.2776 H   0  0  0  0  0  0  0  0  0  0  0  0
    3.7631    0.4051   -5.2106 C   0  0  1  0  0  0  0  0  0  0  0  0
    4.5235   -0.2952   -5.5609 H   0  0  0  0  0  0  0  0  0  0  0  0
    4.1299    0.8426   -3.7856 C   0  0  0  0  0  0  0  0  0  0  0  0
    5.1092    1.3213   -3.8308 H   0  0  0  0  0  0  0  0  0  0  0  0
    3.4177    1.5986   -3.4545 H   0  0  0  0  0  0  0  0  0  0  0  0
    4.2330   -0.4476   -2.5161 S   0  0  0  0  0  0  0  0  0  0  0  0
    2.3951   -0.2959   -5.2837 C   0  0  0  0  0  0  0  0  0  0  0  0
    1.3759    0.3651   -5.4878 O   0  0  0  0  0  0  0  0  0  0  0  0
    2.3744   -1.6257   -5.1265 N   0  0  0  0  0  0  0  0  0  0  0  0
    3.2472   -2.0892   -4.9296 H   0  0  0  0  0  0  0  0  0  0  0  0
    1.1596   -2.4392   -5.1594 C   0  0  0  0  0  0  0  0  0  0  0  0
    0.5952   -2.2951   -4.2366 H   0  0  0  0  0  0  0  0  0  0  0  0
    0.5320   -2.1395   -6.0021 H   0  0  0  0  0  0  0  0  0  0  0  0
    1.4151   -3.4939   -5.2632 H   0  0  0  0  0  0  0  0  0  0  0  0
  5  6  2  0  0  0  0
  5  7  1  0  0  0  0
  2  3  1  0  0  0  0
  2  4  1  0  0  0  0
  2  5  1  0  0  0  0
  1  2  1  0  0  0  0
 15 16  2  0  0  0  0
 15 17  1  0  0  0  0
 14 36  1  0  0  0  0
 11 12  1  0  0  0  0
 11 13  1  0  0  0  0
 11 14  1  0  0  0  0
  9 10  1  0  0  0  0
  9 11  1  0  0  0  0
  9 15  1  0  0  0  0
  7  8  1  0  0  0  0
  7  9  1  0  0  0  0
 19 20  1  0  0  0  0
 19 21  1  0  0  0  0
 19 22  1  0  0  0  0
 17 18  1  0  0  0  0
 17 19  1  0  0  0  0
 27 28  2  0  0  0  0
 27 29  1  0  0  0  0
 24 25  1  0  0  0  0
 24 26  1  0  0  0  0
 24 27  1  0  0  0  0
 23 24  1  0  0  0  0
 37 38  2  0  0  0  0
 37 39  1  0  0  0  0
 33 34  1  0  0  0  0
 33 35  1  0  0  0  0
 33 36  1  0  0  0  0
 31 32  1  0  0  0  0
 31 33  1  0  0  0  0
 31 37  1  0  0  0  0
 29 30  1  0  0  0  0
 29 31  1  0  0  0  0
 41 42  1  0  0  0  0
 41 43  1  0  0  0  0
 41 44  1  0  0  0  0
 39 40  1  0  0  0  0
 39 41  1  0  0  0  0
M  END
$$$$
default_name
  -OEChem-01062215323D

 44 43  0     1  0  0  0  0  0999 V2000
    2.4488   -3.0448    2.0990 H   0  0  0  0  0  0  0  0  0  0  0  0
    2.2788   -2.0018    2.3640 C   0  0  0  0  0  0  0  0  0  0  0  0
    2.9228   -1.7258    3.1960 H   0  0  0  0  0  0  0  0  0  0  0  0
    1.2358   -1.8618    2.6430 H   0  0  0  0  0  0  0  0  0  0  0  0
    2.6018   -1.1318    1.1730 C   0  0  0  0  0  0  0  0  0  0  0  0
    3.0048   -1.6348    0.1320 O   0  0  0  0  0  0  0  0  0  0  0  0
    2.4088    0.1752    1.3190 N   0  0  0  0  0  0  0  0  0  0  0  0
    2.0708    0.5242    2.2050 H   0  0  0  0  0  0  0  0  0  0  0  0
    2.6638    1.1782    0.2840 C   0  0  1  0  0  0  0  0  0  0  0  0
    3.7273    1.1521    0.0408 H   0  0  0  0  0  0  0  0  0  0  0  0
    1.8743    0.8225   -0.9879 C   0  0  0  0  0  0  0  0  0  0  0  0
    1.9443    1.6553   -1.6887 H   0  0  0  0  0  0  0  0  0  0  0  0
    0.8227    0.7385   -0.7148 H   0  0  0  0  0  0  0  0  0  0  0  0
    2.3162   -0.7078   -1.8631 S   0  0  0  0  0  0  0  0  0  0  0  0
    2.3322    2.5944    0.7906 C   0  0  0  0  0  0  0  0  0  0  0  0
    1.1942    2.8727    1.1681 O   0  0  0  0  0  0  0  0  0  0  0  0
    3.3303    3.4879    0.8048 N   0  0  0  0  0  0  0  0  0  0  0  0
    4.2383    3.1920    0.4845 H   0  0  0  0  0  0  0  0  0  0  0  0
    3.1754    4.8699    1.2540 C   0  0  0  0  0  0  0  0  0  0  0  0
    2.4618    5.3876    0.6095 H   0  0  0  0  0  0  0  0  0  0  0  0
    2.7924    4.8855    2.2760 H   0  0  0  0  0  0  0  0  0  0  0  0
    4.1340    5.3892    1.2207 H   0  0  0  0  0  0  0  0  0  0  0  0
    5.6487    3.7028   -7.8014 H   0  0  0  0  0  0  0  0  0  0  0  0
    4.6786    3.3652   -7.4398 C   0  0  0  0  0  0  0  0  0  0  0  0
    4.0370    3.1192   -8.2845 H   0  0  0  0  0  0  0  0  0  0  0  0
    4.2181    4.1499   -6.8424 H   0  0  0  0  0  0  0  0  0  0  0  0
    4.8747    2.1352   -6.5849 C   0  0  0  0  0  0  0  0  0  0  0  0
    5.9978    1.6900   -6.3909 O   0  0  0  0  0  0  0  0  0  0  0  0
    3.7768    1.5914   -6.0666 N   0  0  0  0  0  0  0  0  0  0  0  0
    2.8811    2.0067   -6.2776 H   0  0  0  0  0  0  0  0  0  0  0  0
    3.7631    0.4051   -5.2106 C   0  0  1  0  0  0  0  0  0  0  0  0
    4.5235   -0.2952   -5.5609 H   0  0  0  0  0  0  0  0  0  0  0  0
    4.1299    0.8426   -3.7856 C   0  0  0  0  0  0  0  0  0  0  0  0
    5.1092    1.3213   -3.8308 H   0  0  0  0  0  0  0  0  0  0  0  0
    3.4177    1.5986   -3.4545 H   0  0  0  0  0  0  0  0  0  0  0  0
    4.2330   -0.4476   -2.5161 S   0  0  0  0  0  0  0  0  0  0  0  0
    2.3951   -0.2959   -5.2837 C   0  0  0  0  0  0  0  0  0  0  0  0
    1.3759    0.3651   -5.4878 O   0  0  0  0  0  0  0  0  0  0  0  0
    2.3744   -1.6257   -5.1265 N   0  0  0  0  0  0  0  0  0  0  0  0
    3.2472   -2.0892   -4.9296 H   0  0  0  0  0  0  0  0  0  0  0  0
    1.1596   -2.4392   -5.1594 C   0  0  0  0  0  0  0  0  0  0  0  0
    0.5952   -2.2951   -4.2366 H   0  0  0  0  0  0  0  0  0  0  0  0
    0.5320   -2.1395   -6.0021 H   0  0  0  0  0  0  0  0  0  0  0  0
    1.4151   -3.4939   -5.2632 H   0  0  0  0  0  0  0  0  0  0  0  0
  5  6  2  0  0  0  0
  5  7  1  0  0  0  0
  2  3  1  0  0  0  0
  2  4  1  0  0  0  0
  2  5  1  0  0  0  0
  1  2  1  0  0  0  0
 15 16  2  0  0  0  0
 15 17  1  0  0  0  0
 14 36  1  0  0  0  0
 11 12  1  0  0  0  0
 11 13  1  0  0  0  0
 11 14  1  0  0  0  0
  9 10  1  0  0  0  0
  9 11  1  0  0  0  0
  9 15  1  0  0  0  0
  7  8  1  0  0  0  0
  7  9  1  0  0  0  0
 19 20  1  0  0  0  0
 19 21  1  0  0  0  0
 19 22  1  0  0  0  0
 17 18  1  0  0  0  0
 17 19  1  0  0  0  0
 27 28  2  0  0  0  0
 27 29  1  0  0  0  0
 24 25  1  0  0  0  0
 24 26  1  0  0  0  0
 24 27  1  0  0  0  0
 23 24  1  0  0  0  0
 37 38  2  0  0  0  0
 37 39  1  0  0  0  0
 33 34  1  0  0  0  0
 33 35  1  0  0  0  0
 33 36  1  0  0  0  0
 31 32  1  0  0  0  0
 31 33  1  0  0  0  0
 31 37  1  0  0  0  0
 29 30  1  0  0  0  0
 29 31  1  0  0  0  0
 41 42  1  0  0  0  0
 41 43  1  0  0  0  0
 41 44  1  0  0  0  0
 39 40  1  0  0  0  0
 39 41  1  0  0  0  0
M  END
$$$$
default_name
  -OEChem-01062215323D

 44 43  0     1  0  0  0  0  0999 V2000
    2.4488   -3.0448    2.0990 H   0  0  0  0  0  0  0  0  0  0  0  0
    2.2788   -2.0018    2.3640 C   0  0  0  0  0  0  0  0  0  0  0  0
    2.9228   -1.7258    3.1960 H   0  0  0  0  0  0  0  0  0  0  0  0
    1.2358   -1.8618    2.6430 H   0  0  0  0  0  0  0  0  0  0  0  0
    2.6018   -1.1318    1.1730 C   0  0  0  0  0  0  0  0  0  0  0  0
    3.0048   -1.6348    0.1320 O   0  0  0  0  0  0  0  0  0  0  0  0
    2.4088    0.1752    1.3190 N   0  0  0  0  0  0  0  0  0  0  0  0
    2.0708    0.5242    2.2050 H   0  0  0  0  0  0  0  0  0  0  0  0
    2.6638    1.1782    0.2840 C   0  0  1  0  0  0  0  0  0  0  0  0
    3.7273    1.1521    0.0408 H   0  0  0  0  0  0  0  0  0  0  0  0
    1.8743    0.8225   -0.9879 C   0  0  0  0  0  0  0  0  0  0  0  0
    1.9443    1.6553   -1.6887 H   0  0  0  0  0  0  0  0  0  0  0  0
    0.8227    0.7385   -0.7148 H   0  0  0  0  0  0  0  0  0  0  0  0
    2.3162   -0.7078   -1.8631 S   0  0  0  0  0  0  0  0  0  0  0  0
    2.3322    2.5944    0.7906 C   0  0  0  0  0  0  0  0  0  0  0  0
    1.2945    2.8069    1.4176 O   0  0  0  0  0  0  0  0  0  0  0  0
    3.2191    3.5624    0.5239 N   0  0  0  0  0  0  0  0  0  0  0  0
    4.0494    3.3181    0.0084 H   0  0  0  0  0  0  0  0  0  0  0  0
    3.0481    4.9547    0.9339 C   0  0  0  0  0  0  0  0  0  0  0  0
    2.1583    5.3711    0.4570 H   0  0  0  0  0  0  0  0  0  0  0  0
    2.9168    5.0076    2.0162 H   0  0  0  0  0  0  0  0  0  0  0  0
    3.9200    5.5442    0.6475 H   0  0  0  0  0  0  0  0  0  0  0  0
    5.6487    3.7028   -7.8014 H   0  0  0  0  0  0  0  0  0  0  0  0
    4.6786    3.3652   -7.4398 C   0  0  0  0  0  0  0  0  0  0  0  0
    4.0370    3.1192   -8.2845 H   0  0  0  0  0  0  0  0  0  0  0  0
    4.2181    4.1499   -6.8424 H   0  0  0  0  0  0  0  0  0  0  0  0
    4.8747    2.1352   -6.5849 C   0  0  0  0  0  0  0  0  0  0  0  0
    5.9978    1.6900   -6.3909 O   0  0  0  0  0  0  0  0  0  0  0  0
    3.7768    1.5914   -6.0666 N   0  0  0  0  0  0  0  0  0  0  0  0
    2.8811    2.0067   -6.2776 H   0  0  0  0  0  0  0  0  0  0  0  0
    3.7631    0.4051   -5.2106 C   0  0  1  0  0  0  0  0  0  0  0  0
    4.5235   -0.2952   -5.5609 H   0  0  0  0  0  0  0  0  0  0  0  0
    4.1299    0.8426   -3.7856 C   0  0  0  0  0  0  0  0  0  0  0  0
    5.1092    1.3213   -3.8308 H   0  0  0  0  0  0  0  0  0  0  0  0
    3.4177    1.5986   -3.4545 H   0  0  0  0  0  0  0  0  0  0  0  0
    4.2330   -0.4476   -2.5161 S   0  0  0  0  0  0  0  0  0  0  0  0
    2.3951   -0.2959   -5.2837 C   0  0  0  0  0  0  0  0  0  0  0  0
    1.3759    0.3651   -5.4878 O   0  0  0  0  0  0  0  0  0  0  0  0
    2.3744   -1.6257   -5.1265 N   0  0  0  0  0  0  0  0  0  0  0  0
    3.2472   -2.0892   -4.9296 H   0  0  0  0  0  0  0  0  0  0  0  0
    1.1596   -2.4392   -5.1594 C   0  0  0  0  0  0  0  0  0  0  0  0
    0.5952   -2.2951   -4.2366 H   0  0  0  0  0  0  0  0  0  0  0  0
    0.5320   -2.1395   -6.0021 H   0  0  0  0  0  0  0  0  0  0  0  0
    1.4151   -3.4939   -5.2632 H   0  0  0  0  0  0  0  0  0  0  0  0
  5  6  2  0  0  0  0
  5  7  1  0  0  0  0
  2  3  1  0  0  0  0
  2  4  1  0  0  0  0
  2  5  1  0  0  0  0
  1  2  1  0  0  0  0
 15 16  2  0  0  0  0
 15 17  1  0  0  0  0
 14 36  1  0  0  0  0
 11 12  1  0  0  0  0
 11 13  1  0  0  0  0
 11 14  1  0  0  0  0
  9 10  1  0  0  0  0
  9 11  1  0  0  0  0
  9 15  1  0  0  0  0
  7  8  1  0  0  0  0
  7  9  1  0  0  0  0
 19 20  1  0  0  0  0
 19 21  1  0  0  0  0
 19 22  1  0  0  0  0
 17 18  1  0  0  0  0
 17 19  1  0  0  0  0
 27 28  2  0  0  0  0
 27 29  1  0  0  0  0
 24 25  1  0  0  0  0
 24 26  1  0  0  0  0
 24 27  1  0  0  0  0
 23 24  1  0  0  0  0
 37 38  2  0  0  0  0
 37 39  1  0  0  0  0
 33 34  1  0  0  0  0
 33 35  1  0  0  0  0
 33 36  1  0  0  0  0
 31 32  1  0  0  0  0
 31 33  1  0  0  0  0
 31 37  1  0  0  0  0
 29 30  1  0  0  0  0
 29 31  1  0  0  0  0
 41 42  1  0  0  0  0
 41 43  1  0  0  0  0
 41 44  1  0  0  0  0
 39 40  1  0  0  0  0
 39 41  1  0  0  0  0
M  END
$$$$
default_name
  -OEChem-01062215323D

 44 43  0     1  0  0  0  0  0999 V2000
    2.4488   -3.0448    2.0990 H   0  0  0  0  0  0  0  0  0  0  0  0
    2.2788   -2.0018    2.3640 C   0  0  0  0  0  0  0  0  0  0  0  0
    2.9228   -1.7258    3.1960 H   0  0  0  0  0  0  0  0  0  0  0  0
    1.2358   -1.8618    2.6430 H   0  0  0  0  0  0  0  0  0  0  0  0
    2.6018   -1.1318    1.1730 C   0  0  0  0  0  0  0  0  0  0  0  0
    3.0048   -1.6348    0.1320 O   0  0  0  0  0  0  0  0  0  0  0  0
    2.4088    0.1752    1.3190 N   0  0  0  0  0  0  0  0  0  0  0  0
    2.0708    0.5242    2.2050 H   0  0  0  0  0  0  0  0  0  0  0  0
    2.6638    1.1782    0.2840 C   0  0  1  0  0  0  0  0  0  0  0  0
    3.7273    1.1521    0.0408 H   0  0  0  0  0  0  0  0  0  0  0  0
    1.8743    0.8225   -0.9879 C   0  0  0  0  0  0  0  0  0  0  0  0
    1.9443    1.6553   -1.6887 H   0  0  0  0  0  0  0  0  0  0  0  0
    0.8227    0.7385   -0.7148 H   0  0  0  0  0  0  0  0  0  0  0  0
    2.3162   -0.7078   -1.8631 S   0  0  0  0  0  0  0  0  0  0  0  0
    2.3322    2.5944    0.7906 C   0  0  0  0  0  0  0  0  0  0  0  0
    1.4564    2.7659    1.6383 O   0  0  0  0  0  0  0  0  0  0  0  0
    3.0385    3.6092    0.2748 N   0  0  0  0  0  0  0  0  0  0  0  0
    3.7428    3.3973   -0.4135 H   0  0  0  0  0  0  0  0  0  0  0  0
    2.8417    5.0078    0.6503 C   0  0  0  0  0  0  0  0  0  0  0  0
    1.8302    5.3208    0.3828 H   0  0  0  0  0  0  0  0  0  0  0  0
    2.9648    5.1217    1.7289 H   0  0  0  0  0  0  0  0  0  0  0  0
    3.5636    5.6437    0.1362 H   0  0  0  0  0  0  0  0  0  0  0  0
    5.6487    3.7028   -7.8014 H   0  0  0  0  0  0  0  0  0  0  0  0
    4.6786    3.3652   -7.4398 C   0  0  0  0  0  0  0  0  0  0  0  0
    4.0370    3.1192   -8.2845 H   0  0  0  0  0  0  0  0  0  0  0  0
    4.2181    4.1499   -6.8424 H   0  0  0  0  0  0  0  0  0  0  0  0
    4.8747    2.1352   -6.5849 C   0  0  0  0  0  0  0  0  0  0  0  0
    5.9978    1.6900   -6.3909 O   0  0  0  0  0  0  0  0  0  0  0  0
    3.7768    1.5914   -6.0666 N   0  0  0  0  0  0  0  0  0  0  0  0
    2.8811    2.0067   -6.2776 H   0  0  0  0  0  0  0  0  0  0  0  0
    3.7631    0.4051   -5.2106 C   0  0  1  0  0  0  0  0  0  0  0  0
    4.5235   -0.2952   -5.5609 H   0  0  0  0  0  0  0  0  0  0  0  0
    4.1299    0.8426   -3.7856 C   0  0  0  0  0  0  0  0  0  0  0  0
    5.1092    1.3213   -3.8308 H   0  0  0  0  0  0  0  0  0  0  0  0
    3.4177    1.5986   -3.4545 H   0  0  0  0  0  0  0  0  0  0  0  0
    4.2330   -0.4476   -2.5161 S   0  0  0  0  0  0  0  0  0  0  0  0
    2.3951   -0.2959   -5.2837 C   0  0  0  0  0  0  0  0  0  0  0  0
    1.3759    0.3651   -5.4878 O   0  0  0  0  0  0  0  0  0  0  0  0
    2.3744   -1.6257   -5.1265 N   0  0  0  0  0  0  0  0  0  0  0  0
    3.2472   -2.0892   -4.9296 H   0  0  0  0  0  0  0  0  0  0  0  0
    1.1596   -2.4392   -5.1594 C   0  0  0  0  0  0  0  0  0  0  0  0
    0.5952   -2.2951   -4.2366 H   0  0  0  0  0  0  0  0  0  0  0  0
    0.5320   -2.1395   -6.0021 H   0  0  0  0  0  0  0  0  0  0  0  0
    1.4151   -3.4939   -5.2632 H   0  0  0  0  0  0  0  0  0  0  0  0
  5  6  2  0  0  0  0
  5  7  1  0  0  0  0
  2  3  1  0  0  0  0
  2  4  1  0  0  0  0
  2  5  1  0  0  0  0
  1  2  1  0  0  0  0
 15 16  2  0  0  0  0
 15 17  1  0  0  0  0
 14 36  1  0  0  0  0
 11 12  1  0  0  0  0
 11 13  1  0  0  0  0
 11 14  1  0  0  0  0
  9 10  1  0  0  0  0
  9 11  1  0  0  0  0
  9 15  1  0  0  0  0
  7  8  1  0  0  0  0
  7  9  1  0  0  0  0
 19 20  1  0  0  0  0
 19 21  1  0  0  0  0
 19 22  1  0  0  0  0
 17 18  1  0  0  0  0
 17 19  1  0  0  0  0
 27 28  2  0  0  0  0
 27 29  1  0  0  0  0
 24 25  1  0  0  0  0
 24 26  1  0  0  0  0
 24 27  1  0  0  0  0
 23 24  1  0  0  0  0
 37 38  2  0  0  0  0
 37 39  1  0  0  0  0
 33 34  1  0  0  0  0
 33 35  1  0  0  0  0
 33 36  1  0  0  0  0
 31 32  1  0  0  0  0
 31 33  1  0  0  0  0
 31 37  1  0  0  0  0
 29 30  1  0  0  0  0
 29 31  1  0  0  0  0
 41 42  1  0  0  0  0
 41 43  1  0  0  0  0
 41 44  1  0  0  0  0
 39 40  1  0  0  0  0
 39 41  1  0  0  0  0
M  END
$$$$
default_name
  -OEChem-01062215323D

 44 43  0     1  0  0  0  0  0999 V2000
    2.4488   -3.0448    2.0990 H   0  0  0  0  0  0  0  0  0  0  0  0
    2.2788   -2.0018    2.3640 C   0  0  0  0  0  0  0  0  0  0  0  0
    2.9228   -1.7258    3.1960 H   0  0  0  0  0  0  0  0  0  0  0  0
    1.2358   -1.8618    2.6430 H   0  0  0  0  0  0  0  0  0  0  0  0
    2.6018   -1.1318    1.1730 C   0  0  0  0  0  0  0  0  0  0  0  0
    3.0048   -1.6348    0.1320 O   0  0  0  0  0  0  0  0  0  0  0  0
    2.4088    0.1752    1.3190 N   0  0  0  0  0  0  0  0  0  0  0  0
    2.0708    0.5242    2.2050 H   0  0  0  0  0  0  0  0  0  0  0  0
    2.6638    1.1782    0.2840 C   0  0  1  0  0  0  0  0  0  0  0  0
    3.7273    1.1521    0.0408 H   0  0  0  0  0  0  0  0  0  0  0  0
    1.8743    0.8225   -0.9879 C   0  0  0  0  0  0  0  0  0  0  0  0
    1.9443    1.6553   -1.6887 H   0  0  0  0  0  0  0  0  0  0  0  0
    0.8227    0.7385   -0.7148 H   0  0  0  0  0  0  0  0  0  0  0  0
    2.3162   -0.7078   -1.8631 S   0  0  0  0  0  0  0  0  0  0  0  0
    2.3322    2.5944    0.7906 C   0  0  0  0  0  0  0  0  0  0  0  0
    1.6688    2.7523    1.8153 O   0  0  0  0  0  0  0  0  0  0  0  0
    2.8008    3.6252    0.0746 N   0  0  0  0  0  0  0  0  0  0  0  0
    3.3395    3.4241   -0.7525 H   0  0  0  0  0  0  0  0  0  0  0  0
    2.5703    5.0258    0.4225 C   0  0  0  0  0  0  0  0  0  0  0  0
    1.4999    5.2402    0.3921 H   0  0  0  0  0  0  0  0  0  0  0  0
    2.9330    5.2199    1.4335 H   0  0  0  0  0  0  0  0  0  0  0  0
    3.0893    5.6809   -0.2784 H   0  0  0  0  0  0  0  0  0  0  0  0
    5.6487    3.7028   -7.8014 H   0  0  0  0  0  0  0  0  0  0  0  0
    4.6786    3.3652   -7.4398 C   0  0  0  0  0  0  0  0  0  0  0  0
    4.0370    3.1192   -8.2845 H   0  0  0  0  0  0  0  0  0  0  0  0
    4.2181    4.1499   -6.8424 H   0  0  0  0  0  0  0  0  0  0  0  0
    4.8747    2.1352   -6.5849 C   0  0  0  0  0  0  0  0  0  0  0  0
    5.9978    1.6900   -6.3909 O   0  0  0  0  0  0  0  0  0  0  0  0
    3.7768    1.5914   -6.0666 N   0  0  0  0  0  0  0  0  0  0  0  0
    2.8811    2.0067   -6.2776 H   0  0  0  0  0  0  0  0  0  0  0  0
    3.7631    0.4051   -5.2106 C   0  0  1  0  0  0  0  0  0  0  0  0
    4.5235   -0.2952   -5.5609 H   0  0  0  0  0  0  0  0  0  0  0  0
    4.1299    0.8426   -3.7856 C   0  0  0  0  0  0  0  0  0  0  0  0
    5.1092    1.3213   -3.8308 H   0  0  0  0  0  0  0  0  0  0  0  0
    3.4177    1.5986   -3.4545 H   0  0  0  0  0  0  0  0  0  0  0  0
    4.2330   -0.4476   -2.5161 S   0  0  0  0  0  0  0  0  0  0  0  0
    2.3951   -0.2959   -5.2837 C   0  0  0  0  0  0  0  0  0  0  0  0
    1.3759    0.3651   -5.4878 O   0  0  0  0  0  0  0  0  0  0  0  0
    2.3744   -1.6257   -5.1265 N   0  0  0  0  0  0  0  0  0  0  0  0
    3.2472   -2.0892   -4.9296 H   0  0  0  0  0  0  0  0  0  0  0  0
    1.1596   -2.4392   -5.1594 C   0  0  0  0  0  0  0  0  0  0  0  0
    0.5952   -2.2951   -4.2366 H   0  0  0  0  0  0  0  0  0  0  0  0
    0.5320   -2.1395   -6.0021 H   0  0  0  0  0  0  0  0  0  0  0  0
    1.4151   -3.4939   -5.2632 H   0  0  0  0  0  0  0  0  0  0  0  0
  5  6  2  0  0  0  0
  5  7  1  0  0  0  0
  2  3  1  0  0  0  0
  2  4  1  0  0  0  0
  2  5  1  0  0  0  0
  1  2  1  0  0  0  0
 15 16  2  0  0  0  0
 15 17  1  0  0  0  0
 14 36  1  0  0  0  0
 11 12  1  0  0  0  0
 11 13  1  0  0  0  0
 11 14  1  0  0  0  0
  9 10  1  0  0  0  0
  9 11  1  0  0  0  0
  9 15  1  0  0  0  0
  7  8  1  0  0  0  0
  7  9  1  0  0  0  0
 19 20  1  0  0  0  0
 19 21  1  0  0  0  0
 19 22  1  0  0  0  0
 17 18  1  0  0  0  0
 17 19  1  0  0  0  0
 27 28  2  0  0  0  0
 27 29  1  0  0  0  0
 24 25  1  0  0  0  0
 24 26  1  0  0  0  0
 24 27  1  0  0  0  0
 23 24  1  0  0  0  0
 37 38  2  0  0  0  0
 37 39  1  0  0  0  0
 33 34  1  0  0  0  0
 33 35  1  0  0  0  0
 33 36  1  0  0  0  0
 31 32  1  0  0  0  0
 31 33  1  0  0  0  0
 31 37  1  0  0  0  0
 29 30  1  0  0  0  0
 29 31  1  0  0  0  0
 41 42  1  0  0  0  0
 41 43  1  0  0  0  0
 41 44  1  0  0  0  0
 39 40  1  0  0  0  0
 39 41  1  0  0  0  0
M  END
$$$$
default_name
  -OEChem-01062215323D

 44 43  0     1  0  0  0  0  0999 V2000
    2.4488   -3.0448    2.0990 H   0  0  0  0  0  0  0  0  0  0  0  0
    2.2788   -2.0018    2.3640 C   0  0  0  0  0  0  0  0  0  0  0  0
    2.9228   -1.7258    3.1960 H   0  0  0  0  0  0  0  0  0  0  0  0
    1.2358   -1.8618    2.6430 H   0  0  0  0  0  0  0  0  0  0  0  0
    2.6018   -1.1318    1.1730 C   0  0  0  0  0  0  0  0  0  0  0  0
    3.0048   -1.6348    0.1320 O   0  0  0  0  0  0  0  0  0  0  0  0
    2.4088    0.1752    1.3190 N   0  0  0  0  0  0  0  0  0  0  0  0
    2.0708    0.5242    2.2050 H   0  0  0  0  0  0  0  0  0  0  0  0
    2.6638    1.1782    0.2840 C   0  0  1  0  0  0  0  0  0  0  0  0
    3.6452    0.9773   -0.1489 H   0  0  0  0  0  0  0  0  0  0  0  0
    1.6136    1.0485   -0.8331 C   0  0  0  0  0  0  0  0  0  0  0  0
    1.7158    1.8969   -1.5108 H   0  0  0  0  0  0  0  0  0  0  0  0
    0.6283    1.1375   -0.3761 H   0  0  0  0  0  0  0  0  0  0  0  0
    1.6030   -0.4793   -1.8173 S   0  0  0  0  0  0  0  0  0  0  0  0
    2.6959    2.5969    0.8827 C   0  0  0  0  0  0  0  0  0  0  0  0
    2.5253    2.7702    2.0893 O   0  0  0  0  0  0  0  0  0  0  0  0
    2.9216    3.6120    0.0380 N   0  0  0  0  0  0  0  0  0  0  0  0
    3.0556    3.3986   -0.9373 H   0  0  0  0  0  0  0  0  0  0  0  0
    2.9793    5.0128    0.4504 C   0  0  0  0  0  0  0  0  0  0  0  0
    2.0135    5.3146    0.8613 H   0  0  0  0  0  0  0  0  0  0  0  0
    3.7388    5.1392    1.2242 H   0  0  0  0  0  0  0  0  0  0  0  0
    3.2234    5.6491   -0.4012 H   0  0  0  0  0  0  0  0  0  0  0  0
    4.6223    3.6211   -8.1335 H   0  0  0  0  0  0  0  0  0  0  0  0
    3.6837    3.4410   -7.6115 C   0  0  0  0  0  0  0  0  0  0  0  0
    2.8710    3.3662   -8.3324 H   0  0  0  0  0  0  0  0  0  0  0  0
    3.4887    4.2570   -6.9183 H   0  0  0  0  0  0  0  0  0  0  0  0
    3.7913    2.1454   -6.8420 C   0  0  0  0  0  0  0  0  0  0  0  0
    4.8275    1.4953   -6.8679 O   0  0  0  0  0  0  0  0  0  0  0  0
    2.7177    1.7760   -6.1486 N   0  0  0  0  0  0  0  0  0  0  0  0
    1.8927    2.3571   -6.1816 H   0  0  0  0  0  0  0  0  0  0  0  0
    2.6307    0.5609   -5.3387 C   0  0  1  0  0  0  0  0  0  0  0  0
    3.1742   -0.2413   -5.8411 H   0  0  0  0  0  0  0  0  0  0  0  0
    3.3140    0.8370   -3.9920 C   0  0  0  0  0  0  0  0  0  0  0  0
    4.3427    1.1345   -4.2006 H   0  0  0  0  0  0  0  0  0  0  0  0
    2.8241    1.6864   -3.5156 H   0  0  0  0  0  0  0  0  0  0  0  0
    3.3921   -0.5266   -2.7998 S   0  0  0  0  0  0  0  0  0  0  0  0
    1.1641    0.1218   -5.1822 C   0  0  0  0  0  0  0  0  0  0  0  0
    0.2669    0.9658   -5.1789 O   0  0  0  0  0  0  0  0  0  0  0  0
    0.9225   -1.1899   -5.0619 N   0  0  0  0  0  0  0  0  0  0  0  0
    1.7138   -1.8133   -5.0401 H   0  0  0  0  0  0  0  0  0  0  0  0
   -0.4100   -1.7693   -4.8970 C   0  0  0  0  0  0  0  0  0  0  0  0
   -0.7691   -1.5837   -3.8833 H   0  0  0  0  0  0  0  0  0  0  0  0
   -1.1068   -1.3108   -5.6028 H   0  0  0  0  0  0  0  0  0  0  0  0
   -0.3783   -2.8443   -5.0755 H   0  0  0  0  0  0  0  0  0  0  0  0
  5  6  2  0  0  0  0
  5  7  1  0  0  0  0
  2  3  1  0  0  0  0
  2  4  1  0  0  0  0
  2  5  1  0  0  0  0
  1  2  1  0  0  0  0
 15 16  2  0  0  0  0
 15 17  1  0  0  0  0
 14 36  1  0  0  0  0
 11 12  1  0  0  0  0
 11 13  1  0  0  0  0
 11 14  1  0  0  0  0
  9 10  1  0  0  0  0
  9 11  1  0  0  0  0
  9 15  1  0  0  0  0
  7  8  1  0  0  0  0
  7  9  1  0  0  0  0
 19 20  1  0  0  0  0
 19 21  1  0  0  0  0
 19 22  1  0  0  0  0
 17 18  1  0  0  0  0
 17 19  1  0  0  0  0
 27 28  2  0  0  0  0
 27 29  1  0  0  0  0
 24 25  1  0  0  0  0
 24 26  1  0  0  0  0
 24 27  1  0  0  0  0
 23 24  1  0  0  0  0
 37 38  2  0  0  0  0
 37 39  1  0  0  0  0
 33 34  1  0  0  0  0
 33 35  1  0  0  0  0
 33 36  1  0  0  0  0
 31 32  1  0  0  0  0
 31 33  1  0  0  0  0
 31 37  1  0  0  0  0
 29 30  1  0  0  0  0
 29 31  1  0  0  0  0
 41 42  1  0  0  0  0
 41 43  1  0  0  0  0
 41 44  1  0  0  0  0
 39 40  1  0  0  0  0
 39 41  1  0  0  0  0
M  END
$$$$
default_name
  -OEChem-01062215323D

 44 43  0     1  0  0  0  0  0999 V2000
    2.4488   -3.0448    2.0990 H   0  0  0  0  0  0  0  0  0  0  0  0
    2.2788   -2.0018    2.3640 C   0  0  0  0  0  0  0  0  0  0  0  0
    2.9228   -1.7258    3.1960 H   0  0  0  0  0  0  0  0  0  0  0  0
    1.2358   -1.8618    2.6430 H   0  0  0  0  0  0  0  0  0  0  0  0
    2.6018   -1.1318    1.1730 C   0  0  0  0  0  0  0  0  0  0  0  0
    3.0048   -1.6348    0.1320 O   0  0  0  0  0  0  0  0  0  0  0  0
    2.4088    0.1752    1.3190 N   0  0  0  0  0  0  0  0  0  0  0  0
    2.0708    0.5242    2.2050 H   0  0  0  0  0  0  0  0  0  0  0  0
    2.6638    1.1782    0.2840 C   0  0  1  0  0  0  0  0  0  0  0  0
    3.6452    0.9773   -0.1489 H   0  0  0  0  0  0  0  0  0  0  0  0
    1.6136    1.0485   -0.8331 C   0  0  0  0  0  0  0  0  0  0  0  0
    1.7158    1.8969   -1.5108 H   0  0  0  0  0  0  0  0  0  0  0  0
    0.6283    1.1375   -0.3761 H   0  0  0  0  0  0  0  0  0  0  0  0
    1.6030   -0.4793   -1.8173 S   0  0  0  0  0  0  0  0  0  0  0  0
    2.6959    2.5969    0.8827 C   0  0  0  0  0  0  0  0  0  0  0  0
    2.8018    2.7602    2.0981 O   0  0  0  0  0  0  0  0  0  0  0  0
    2.6109    3.6239    0.0265 N   0  0  0  0  0  0  0  0  0  0  0  0
    2.5289    3.4185   -0.9562 H   0  0  0  0  0  0  0  0  0  0  0  0
    2.6250    5.0261    0.4379 C   0  0  0  0  0  0  0  0  0  0  0  0
    1.7601    5.2313    1.0722 H   0  0  0  0  0  0  0  0  0  0  0  0
    3.5307    5.2340    1.0107 H   0  0  0  0  0  0  0  0  0  0  0  0
    2.5939    5.6780   -0.4360 H   0  0  0  0  0  0  0  0  0  0  0  0
    4.6223    3.6211   -8.1335 H   0  0  0  0  0  0  0  0  0  0  0  0
    3.6837    3.4410   -7.6115 C   0  0  0  0  0  0  0  0  0  0  0  0
    2.8710    3.3662   -8.3324 H   0  0  0  0  0  0  0  0  0  0  0  0
    3.4887    4.2570   -6.9183 H   0  0  0  0  0  0  0  0  0  0  0  0
    3.7913    2.1454   -6.8420 C   0  0  0  0  0  0  0  0  0  0  0  0
    4.8275    1.4953   -6.8679 O   0  0  0  0  0  0  0  0  0  0  0  0
    2.7177    1.7760   -6.1486 N   0  0  0  0  0  0  0  0  0  0  0  0
    1.8927    2.3571   -6.1816 H   0  0  0  0  0  0  0  0  0  0  0  0
    2.6307    0.5609   -5.3387 C   0  0  1  0  0  0  0  0  0  0  0  0
    3.1742   -0.2413   -5.8411 H   0  0  0  0  0  0  0  0  0  0  0  0
    3.3140    0.8370   -3.9920 C   0  0  0  0  0  0  0  0  0  0  0  0
    4.3427    1.1345   -4.2006 H   0  0  0  0  0  0  0  0  0  0  0  0
    2.8241    1.6864   -3.5156 H   0  0  0  0  0  0  0  0  0  0  0  0
    3.3921   -0.5266   -2.7998 S   0  0  0  0  0  0  0  0  0  0  0  0
    1.1641    0.1218   -5.1822 C   0  0  0  0  0  0  0  0  0  0  0  0
    0.2669    0.9658   -5.1789 O   0  0  0  0  0  0  0  0  0  0  0  0
    0.9225   -1.1899   -5.0619 N   0  0  0  0  0  0  0  0  0  0  0  0
    1.7138   -1.8133   -5.0401 H   0  0  0  0  0  0  0  0  0  0  0  0
   -0.4100   -1.7693   -4.8970 C   0  0  0  0  0  0  0  0  0  0  0  0
   -0.7691   -1.5837   -3.8833 H   0  0  0  0  0  0  0  0  0  0  0  0
   -1.1068   -1.3108   -5.6028 H   0  0  0  0  0  0  0  0  0  0  0  0
   -0.3783   -2.8443   -5.0755 H   0  0  0  0  0  0  0  0  0  0  0  0
  5  6  2  0  0  0  0
  5  7  1  0  0  0  0
  2  3  1  0  0  0  0
  2  4  1  0  0  0  0
  2  5  1  0  0  0  0
  1  2  1  0  0  0  0
 15 16  2  0  0  0  0
 15 17  1  0  0  0  0
 14 36  1  0  0  0  0
 11 12  1  0  0  0  0
 11 13  1  0  0  0  0
 11 14  1  0  0  0  0
  9 10  1  0  0  0  0
  9 11  1  0  0  0  0
  9 15  1  0  0  0  0
  7  8  1  0  0  0  0
  7  9  1  0  0  0  0
 19 20  1  0  0  0  0
 19 21  1  0  0  0  0
 19 22  1  0  0  0  0
 17 18  1  0  0  0  0
 17 19  1  0  0  0  0
 27 28  2  0  0  0  0
 27 29  1  0  0  0  0
 24 25  1  0  0  0  0
 24 26  1  0  0  0  0
 24 27  1  0  0  0  0
 23 24  1  0  0  0  0
 37 38  2  0  0  0  0
 37 39  1  0  0  0  0
 33 34  1  0  0  0  0
 33 35  1  0  0  0  0
 33 36  1  0  0  0  0
 31 32  1  0  0  0  0
 31 33  1  0  0  0  0
 31 37  1  0  0  0  0
 29 30  1  0  0  0  0
 29 31  1  0  0  0  0
 41 42  1  0  0  0  0
 41 43  1  0  0  0  0
 41 44  1  0  0  0  0
 39 40  1  0  0  0  0
 39 41  1  0  0  0  0
M  END
$$$$
default_name
  -OEChem-01062215323D

 44 43  0     1  0  0  0  0  0999 V2000
    2.4488   -3.0448    2.0990 H   0  0  0  0  0  0  0  0  0  0  0  0
    2.2788   -2.0018    2.3640 C   0  0  0  0  0  0  0  0  0  0  0  0
    2.9228   -1.7258    3.1960 H   0  0  0  0  0  0  0  0  0  0  0  0
    1.2358   -1.8618    2.6430 H   0  0  0  0  0  0  0  0  0  0  0  0
    2.6018   -1.1318    1.1730 C   0  0  0  0  0  0  0  0  0  0  0  0
    3.0048   -1.6348    0.1320 O   0  0  0  0  0  0  0  0  0  0  0  0
    2.4088    0.1752    1.3190 N   0  0  0  0  0  0  0  0  0  0  0  0
    2.0708    0.5242    2.2050 H   0  0  0  0  0  0  0  0  0  0  0  0
    2.6638    1.1782    0.2840 C   0  0  1  0  0  0  0  0  0  0  0  0
    3.6452    0.9773   -0.1489 H   0  0  0  0  0  0  0  0  0  0  0  0
    1.6136    1.0485   -0.8331 C   0  0  0  0  0  0  0  0  0  0  0  0
    1.7158    1.8969   -1.5108 H   0  0  0  0  0  0  0  0  0  0  0  0
    0.6283    1.1375   -0.3761 H   0  0  0  0  0  0  0  0  0  0  0  0
    1.6030   -0.4793   -1.8173 S   0  0  0  0  0  0  0  0  0  0  0  0
    2.6959    2.5969    0.8827 C   0  0  0  0  0  0  0  0  0  0  0  0
    3.0720    2.7784    2.0406 O   0  0  0  0  0  0  0  0  0  0  0  0
    2.3068    3.6041    0.0896 N   0  0  0  0  0  0  0  0  0  0  0  0
    2.0135    3.3848   -0.8488 H   0  0  0  0  0  0  0  0  0  0  0  0
    2.2785    5.0034    0.5104 C   0  0  0  0  0  0  0  0  0  0  0  0
    1.5738    5.1243    1.3359 H   0  0  0  0  0  0  0  0  0  0  0  0
    3.2692    5.3058    0.8546 H   0  0  0  0  0  0  0  0  0  0  0  0
    1.9747    5.6428   -0.3194 H   0  0  0  0  0  0  0  0  0  0  0  0
    4.6223    3.6211   -8.1335 H   0  0  0  0  0  0  0  0  0  0  0  0
    3.6837    3.4410   -7.6115 C   0  0  0  0  0  0  0  0  0  0  0  0
    2.8710    3.3662   -8.3324 H   0  0  0  0  0  0  0  0  0  0  0  0
    3.4887    4.2570   -6.9183 H   0  0  0  0  0  0  0  0  0  0  0  0
    3.7913    2.1454   -6.8420 C   0  0  0  0  0  0  0  0  0  0  0  0
    4.8275    1.4953   -6.8679 O   0  0  0  0  0  0  0  0  0  0  0  0
    2.7177    1.7760   -6.1486 N   0  0  0  0  0  0  0  0  0  0  0  0
    1.8927    2.3571   -6.1816 H   0  0  0  0  0  0  0  0  0  0  0  0
    2.6307    0.5609   -5.3387 C   0  0  1  0  0  0  0  0  0  0  0  0
    3.1742   -0.2413   -5.8411 H   0  0  0  0  0  0  0  0  0  0  0  0
    3.3140    0.8370   -3.9920 C   0  0  0  0  0  0  0  0  0  0  0  0
    4.3427    1.1345   -4.2006 H   0  0  0  0  0  0  0  0  0  0  0  0
    2.8241    1.6864   -3.5156 H   0  0  0  0  0  0  0  0  0  0  0  0
    3.3921   -0.5266   -2.7998 S   0  0  0  0  0  0  0  0  0  0  0  0
    1.1641    0.1218   -5.1822 C   0  0  0  0  0  0  0  0  0  0  0  0
    0.2669    0.9658   -5.1789 O   0  0  0  0  0  0  0  0  0  0  0  0
    0.9225   -1.1899   -5.0619 N   0  0  0  0  0  0  0  0  0  0  0  0
    1.7138   -1.8133   -5.0401 H   0  0  0  0  0  0  0  0  0  0  0  0
   -0.4100   -1.7693   -4.8970 C   0  0  0  0  0  0  0  0  0  0  0  0
   -0.7691   -1.5837   -3.8833 H   0  0  0  0  0  0  0  0  0  0  0  0
   -1.1068   -1.3108   -5.6028 H   0  0  0  0  0  0  0  0  0  0  0  0
   -0.3783   -2.8443   -5.0755 H   0  0  0  0  0  0  0  0  0  0  0  0
  5  6  2  0  0  0  0
  5  7  1  0  0  0  0
  2  3  1  0  0  0  0
  2  4  1  0  0  0  0
  2  5  1  0  0  0  0
  1  2  1  0  0  0  0
 15 16  2  0  0  0  0
 15 17  1  0  0  0  0
 14 36  1  0  0  0  0
 11 12  1  0  0  0  0
 11 13  1  0  0  0  0
 11 14  1  0  0  0  0
  9 10  1  0  0  0  0
  9 11  1  0  0  0  0
  9 15  1  0  0  0  0
  7  8  1  0  0  0  0
  7  9  1  0  0  0  0
 19 20  1  0  0  0  0
 19 21  1  0  0  0  0
 19 22  1  0  0  0  0
 17 18  1  0  0  0  0
 17 19  1  0  0  0  0
 27 28  2  0  0  0  0
 27 29  1  0  0  0  0
 24 25  1  0  0  0  0
 24 26  1  0  0  0  0
 24 27  1  0  0  0  0
 23 24  1  0  0  0  0
 37 38  2  0  0  0  0
 37 39  1  0  0  0  0
 33 34  1  0  0  0  0
 33 35  1  0  0  0  0
 33 36  1  0  0  0  0
 31 32  1  0  0  0  0
 31 33  1  0  0  0  0
 31 37  1  0  0  0  0
 29 30  1  0  0  0  0
 29 31  1  0  0  0  0
 41 42  1  0  0  0  0
 41 43  1  0  0  0  0
 41 44  1  0  0  0  0
 39 40  1  0  0  0  0
 39 41  1  0  0  0  0
M  END
$$$$
default_name
  -OEChem-01062215323D

 44 43  0     1  0  0  0  0  0999 V2000
    2.4488   -3.0448    2.0990 H   0  0  0  0  0  0  0  0  0  0  0  0
    2.2788   -2.0018    2.3640 C   0  0  0  0  0  0  0  0  0  0  0  0
    2.9228   -1.7258    3.1960 H   0  0  0  0  0  0  0  0  0  0  0  0
    1.2358   -1.8618    2.6430 H   0  0  0  0  0  0  0  0  0  0  0  0
    2.6018   -1.1318    1.1730 C   0  0  0  0  0  0  0  0  0  0  0  0
    3.0048   -1.6348    0.1320 O   0  0  0  0  0  0  0  0  0  0  0  0
    2.4088    0.1752    1.3190 N   0  0  0  0  0  0  0  0  0  0  0  0
    2.0708    0.5242    2.2050 H   0  0  0  0  0  0  0  0  0  0  0  0
    2.6638    1.1782    0.2840 C   0  0  1  0  0  0  0  0  0  0  0  0
    3.6452    0.9773   -0.1489 H   0  0  0  0  0  0  0  0  0  0  0  0
    1.6136    1.0485   -0.8331 C   0  0  0  0  0  0  0  0  0  0  0  0
    1.7158    1.8969   -1.5108 H   0  0  0  0  0  0  0  0  0  0  0  0
    0.6283    1.1375   -0.3761 H   0  0  0  0  0  0  0  0  0  0  0  0
    1.6030   -0.4793   -1.8173 S   0  0  0  0  0  0  0  0  0  0  0  0
    2.6959    2.5969    0.8827 C   0  0  0  0  0  0  0  0  0  0  0  0
    3.3174    2.8234    1.9207 O   0  0  0  0  0  0  0  0  0  0  0  0
    2.0301    3.5541    0.2229 N   0  0  0  0  0  0  0  0  0  0  0  0
    1.5448    3.2998   -0.6224 H   0  0  0  0  0  0  0  0  0  0  0  0
    1.9633    4.9462    0.6629 C   0  0  0  0  0  0  0  0  0  0  0  0
    1.4676    5.0007    1.6345 H   0  0  0  0  0  0  0  0  0  0  0  0
    2.9722    5.3497    0.7665 H   0  0  0  0  0  0  0  0  0  0  0  0
    1.4079    5.5459   -0.0593 H   0  0  0  0  0  0  0  0  0  0  0  0
    4.6223    3.6211   -8.1335 H   0  0  0  0  0  0  0  0  0  0  0  0
    3.6837    3.4410   -7.6115 C   0  0  0  0  0  0  0  0  0  0  0  0
    2.8710    3.3662   -8.3324 H   0  0  0  0  0  0  0  0  0  0  0  0
    3.4887    4.2570   -6.9183 H   0  0  0  0  0  0  0  0  0  0  0  0
    3.7913    2.1454   -6.8420 C   0  0  0  0  0  0  0  0  0  0  0  0
    4.8275    1.4953   -6.8679 O   0  0  0  0  0  0  0  0  0  0  0  0
    2.7177    1.7760   -6.1486 N   0  0  0  0  0  0  0  0  0  0  0  0
    1.8927    2.3571   -6.1816 H   0  0  0  0  0  0  0  0  0  0  0  0
    2.6307    0.5609   -5.3387 C   0  0  1  0  0  0  0  0  0  0  0  0
    3.1742   -0.2413   -5.8411 H   0  0  0  0  0  0  0  0  0  0  0  0
    3.3140    0.8370   -3.9920 C   0  0  0  0  0  0  0  0  0  0  0  0
    4.3427    1.1345   -4.2006 H   0  0  0  0  0  0  0  0  0  0  0  0
    2.8241    1.6864   -3.5156 H   0  0  0  0  0  0  0  0  0  0  0  0
    3.3921   -0.5266   -2.7998 S   0  0  0  0  0  0  0  0  0  0  0  0
    1.1641    0.1218   -5.1822 C   0  0  0  0  0  0  0  0  0  0  0  0
    0.2669    0.9658   -5.1789 O   0  0  0  0  0  0  0  0  0  0  0  0
    0.9225   -1.1899   -5.0619 N   0  0  0  0  0  0  0  0  0  0  0  0
    1.7138   -1.8133   -5.0401 H   0  0  0  0  0  0  0  0  0  0  0  0
   -0.4100   -1.7693   -4.8970 C   0  0  0  0  0  0  0  0  0  0  0  0
   -0.7691   -1.5837   -3.8833 H   0  0  0  0  0  0  0  0  0  0  0  0
   -1.1068   -1.3108   -5.6028 H   0  0  0  0  0  0  0  0  0  0  0  0
   -0.3783   -2.8443   -5.0755 H   0  0  0  0  0  0  0  0  0  0  0  0
  5  6  2  0  0  0  0
  5  7  1  0  0  0  0
  2  3  1  0  0  0  0
  2  4  1  0  0  0  0
  2  5  1  0  0  0  0
  1  2  1  0  0  0  0
 15 16  2  0  0  0  0
 15 17  1  0  0  0  0
 14 36  1  0  0  0  0
 11 12  1  0  0  0  0
 11 13  1  0  0  0  0
 11 14  1  0  0  0  0
  9 10  1  0  0  0  0
  9 11  1  0  0  0  0
  9 15  1  0  0  0  0
  7  8  1  0  0  0  0
  7  9  1  0  0  0  0
 19 20  1  0  0  0  0
 19 21  1  0  0  0  0
 19 22  1  0  0  0  0
 17 18  1  0  0  0  0
 17 19  1  0  0  0  0
 27 28  2  0  0  0  0
 27 29  1  0  0  0  0
 24 25  1  0  0  0  0
 24 26  1  0  0  0  0
 24 27  1  0  0  0  0
 23 24  1  0  0  0  0
 37 38  2  0  0  0  0
 37 39  1  0  0  0  0
 33 34  1  0  0  0  0
 33 35  1  0  0  0  0
 33 36  1  0  0  0  0
 31 32  1  0  0  0  0
 31 33  1  0  0  0  0
 31 37  1  0  0  0  0
 29 30  1  0  0  0  0
 29 31  1  0  0  0  0
 41 42  1  0  0  0  0
 41 43  1  0  0  0  0
 41 44  1  0  0  0  0
 39 40  1  0  0  0  0
 39 41  1  0  0  0  0
M  END
$$$$
default_name
  -OEChem-01062215323D

 44 43  0     1  0  0  0  0  0999 V2000
    2.4488   -3.0448    2.0990 H   0  0  0  0  0  0  0  0  0  0  0  0
    2.2788   -2.0018    2.3640 C   0  0  0  0  0  0  0  0  0  0  0  0
    2.9228   -1.7258    3.1960 H   0  0  0  0  0  0  0  0  0  0  0  0
    1.2358   -1.8618    2.6430 H   0  0  0  0  0  0  0  0  0  0  0  0
    2.6018   -1.1318    1.1730 C   0  0  0  0  0  0  0  0  0  0  0  0
    3.0048   -1.6348    0.1320 O   0  0  0  0  0  0  0  0  0  0  0  0
    2.4088    0.1752    1.3190 N   0  0  0  0  0  0  0  0  0  0  0  0
    2.0708    0.5242    2.2050 H   0  0  0  0  0  0  0  0  0  0  0  0
    2.6638    1.1782    0.2840 C   0  0  1  0  0  0  0  0  0  0  0  0
    3.6452    0.9773   -0.1489 H   0  0  0  0  0  0  0  0  0  0  0  0
    1.6136    1.0485   -0.8331 C   0  0  0  0  0  0  0  0  0  0  0  0
    1.7158    1.8969   -1.5108 H   0  0  0  0  0  0  0  0  0  0  0  0
    0.6283    1.1375   -0.3761 H   0  0  0  0  0  0  0  0  0  0  0  0
    1.6030   -0.4793   -1.8173 S   0  0  0  0  0  0  0  0  0  0  0  0
    2.6959    2.5969    0.8827 C   0  0  0  0  0  0  0  0  0  0  0  0
    3.5213    2.8923    1.7467 O   0  0  0  0  0  0  0  0  0  0  0  0
    1.7996    3.4773    0.4174 N   0  0  0  0  0  0  0  0  0  0  0  0
    1.1545    3.1694   -0.2924 H   0  0  0  0  0  0  0  0  0  0  0  0
    1.7010    4.8584    0.8850 C   0  0  0  0  0  0  0  0  0  0  0  0
    1.4486    4.8690    1.9475 H   0  0  0  0  0  0  0  0  0  0  0  0
    2.6599    5.3627    0.7525 H   0  0  0  0  0  0  0  0  0  0  0  0
    0.9322    5.3938    0.3265 H   0  0  0  0  0  0  0  0  0  0  0  0
    4.6223    3.6211   -8.1335 H   0  0  0  0  0  0  0  0  0  0  0  0
    3.6837    3.4410   -7.6115 C   0  0  0  0  0  0  0  0  0  0  0  0
    2.8710    3.3662   -8.3324 H   0  0  0  0  0  0  0  0  0  0  0  0
    3.4887    4.2570   -6.9183 H   0  0  0  0  0  0  0  0  0  0  0  0
    3.7913    2.1454   -6.8420 C   0  0  0  0  0  0  0  0  0  0  0  0
    4.8275    1.4953   -6.8679 O   0  0  0  0  0  0  0  0  0  0  0  0
    2.7177    1.7760   -6.1486 N   0  0  0  0  0  0  0  0  0  0  0  0
    1.8927    2.3571   -6.1816 H   0  0  0  0  0  0  0  0  0  0  0  0
    2.6307    0.5609   -5.3387 C   0  0  1  0  0  0  0  0  0  0  0  0
    3.1742   -0.2413   -5.8411 H   0  0  0  0  0  0  0  0  0  0  0  0
    3.3140    0.8370   -3.9920 C   0  0  0  0  0  0  0  0  0  0  0  0
    4.3427    1.1345   -4.2006 H   0  0  0  0  0  0  0  0  0  0  0  0
    2.8241    1.6864   -3.5156 H   0  0  0  0  0  0  0  0  0  0  0  0
    3.3921   -0.5266   -2.7998 S   0  0  0  0  0  0  0  0  0  0  0  0
    1.1641    0.1218   -5.1822 C   0  0  0  0  0  0  0  0  0  0  0  0
    0.2669    0.9658   -5.1789 O   0  0  0  0  0  0  0  0  0  0  0  0
    0.9225   -1.1899   -5.0619 N   0  0  0  0  0  0  0  0  0  0  0  0
    1.7138   -1.8133   -5.0401 H   0  0  0  0  0  0  0  0  0  0  0  0
   -0.4100   -1.7693   -4.8970 C   0  0  0  0  0  0  0  0  0  0  0  0
   -0.7691   -1.5837   -3.8833 H   0  0  0  0  0  0  0  0  0  0  0  0
   -1.1068   -1.3108   -5.6028 H   0  0  0  0  0  0  0  0  0  0  0  0
   -0.3783   -2.8443   -5.0755 H   0  0  0  0  0  0  0  0  0  0  0  0
  5  6  2  0  0  0  0
  5  7  1  0  0  0  0
  2  3  1  0  0  0  0
  2  4  1  0  0  0  0
  2  5  1  0  0  0  0
  1  2  1  0  0  0  0
 15 16  2  0  0  0  0
 15 17  1  0  0  0  0
 14 36  1  0  0  0  0
 11 12  1  0  0  0  0
 11 13  1  0  0  0  0
 11 14  1  0  0  0  0
  9 10  1  0  0  0  0
  9 11  1  0  0  0  0
  9 15  1  0  0  0  0
  7  8  1  0  0  0  0
  7  9  1  0  0  0  0
 19 20  1  0  0  0  0
 19 21  1  0  0  0  0
 19 22  1  0  0  0  0
 17 18  1  0  0  0  0
 17 19  1  0  0  0  0
 27 28  2  0  0  0  0
 27 29  1  0  0  0  0
 24 25  1  0  0  0  0
 24 26  1  0  0  0  0
 24 27  1  0  0  0  0
 23 24  1  0  0  0  0
 37 38  2  0  0  0  0
 37 39  1  0  0  0  0
 33 34  1  0  0  0  0
 33 35  1  0  0  0  0
 33 36  1  0  0  0  0
 31 32  1  0  0  0  0
 31 33  1  0  0  0  0
 31 37  1  0  0  0  0
 29 30  1  0  0  0  0
 29 31  1  0  0  0  0
 41 42  1  0  0  0  0
 41 43  1  0  0  0  0
 41 44  1  0  0  0  0
 39 40  1  0  0  0  0
 39 41  1  0  0  0  0
M  END
$$$$
default_name
  -OEChem-01062215323D

 44 43  0     1  0  0  0  0  0999 V2000
    2.4488   -3.0448    2.0990 H   0  0  0  0  0  0  0  0  0  0  0  0
    2.2788   -2.0018    2.3640 C   0  0  0  0  0  0  0  0  0  0  0  0
    2.9228   -1.7258    3.1960 H   0  0  0  0  0  0  0  0  0  0  0  0
    1.2358   -1.8618    2.6430 H   0  0  0  0  0  0  0  0  0  0  0  0
    2.6018   -1.1318    1.1730 C   0  0  0  0  0  0  0  0  0  0  0  0
    3.0048   -1.6348    0.1320 O   0  0  0  0  0  0  0  0  0  0  0  0
    2.4088    0.1752    1.3190 N   0  0  0  0  0  0  0  0  0  0  0  0
    2.0708    0.5242    2.2050 H   0  0  0  0  0  0  0  0  0  0  0  0
    2.6638    1.1782    0.2840 C   0  0  1  0  0  0  0  0  0  0  0  0
    3.6452    0.9773   -0.1489 H   0  0  0  0  0  0  0  0  0  0  0  0
    1.6136    1.0485   -0.8331 C   0  0  0  0  0  0  0  0  0  0  0  0
    1.7158    1.8969   -1.5108 H   0  0  0  0  0  0  0  0  0  0  0  0
    0.6283    1.1375   -0.3761 H   0  0  0  0  0  0  0  0  0  0  0  0
    1.6030   -0.4793   -1.8173 S   0  0  0  0  0  0  0  0  0  0  0  0
    2.6959    2.5969    0.8827 C   0  0  0  0  0  0  0  0  0  0  0  0
    3.6699    2.9802    1.5303 O   0  0  0  0  0  0  0  0  0  0  0  0
    1.6311    3.3788    0.6597 N   0  0  0  0  0  0  0  0  0  0  0  0
    0.8693    3.0023    0.1187 H   0  0  0  0  0  0  0  0  0  0  0  0
    1.5093    4.7459    1.1616 C   0  0  0  0  0  0  0  0  0  0  0  0
    1.5181    4.7382    2.2536 H   0  0  0  0  0  0  0  0  0  0  0  0
    2.3536    5.3439    0.8135 H   0  0  0  0  0  0  0  0  0  0  0  0
    0.5799    5.1970    0.8117 H   0  0  0  0  0  0  0  0  0  0  0  0
    4.6223    3.6211   -8.1335 H   0  0  0  0  0  0  0  0  0  0  0  0
    3.6837    3.4410   -7.6115 C   0  0  0  0  0  0  0  0  0  0  0  0
    2.8710    3.3662   -8.3324 H   0  0  0  0  0  0  0  0  0  0  0  0
    3.4887    4.2570   -6.9183 H   0  0  0  0  0  0  0  0  0  0  0  0
    3.7913    2.1454   -6.8420 C   0  0  0  0  0  0  0  0  0  0  0  0
    4.8275    1.4953   -6.8679 O   0  0  0  0  0  0  0  0  0  0  0  0
    2.7177    1.7760   -6.1486 N   0  0  0  0  0  0  0  0  0  0  0  0
    1.8927    2.3571   -6.1816 H   0  0  0  0  0  0  0  0  0  0  0  0
    2.6307    0.5609   -5.3387 C   0  0  1  0  0  0  0  0  0  0  0  0
    3.1742   -0.2413   -5.8411 H   0  0  0  0  0  0  0  0  0  0  0  0
    3.3140    0.8370   -3.9920 C   0  0  0  0  0  0  0  0  0  0  0  0
    4.3427    1.1345   -4.2006 H   0  0  0  0  0  0  0  0  0  0  0  0
    2.8241    1.6864   -3.5156 H   0  0  0  0  0  0  0  0  0  0  0  0
    3.3921   -0.5266   -2.7998 S   0  0  0  0  0  0  0  0  0  0  0  0
    1.1641    0.1218   -5.1822 C   0  0  0  0  0  0  0  0  0  0  0  0
    0.2669    0.9658   -5.1789 O   0  0  0  0  0  0  0  0  0  0  0  0
    0.9225   -1.1899   -5.0619 N   0  0  0  0  0  0  0  0  0  0  0  0
    1.7138   -1.8133   -5.0401 H   0  0  0  0  0  0  0  0  0  0  0  0
   -0.4100   -1.7693   -4.8970 C   0  0  0  0  0  0  0  0  0  0  0  0
   -0.7691   -1.5837   -3.8833 H   0  0  0  0  0  0  0  0  0  0  0  0
   -1.1068   -1.3108   -5.6028 H   0  0  0  0  0  0  0  0  0  0  0  0
   -0.3783   -2.8443   -5.0755 H   0  0  0  0  0  0  0  0  0  0  0  0
  5  6  2  0  0  0  0
  5  7  1  0  0  0  0
  2  3  1  0  0  0  0
  2  4  1  0  0  0  0
  2  5  1  0  0  0  0
  1  2  1  0  0  0  0
 15 16  2  0  0  0  0
 15 17  1  0  0  0  0
 14 36  1  0  0  0  0
 11 12  1  0  0  0  0
 11 13  1  0  0  0  0
 11 14  1  0  0  0  0
  9 10  1  0  0  0  0
  9 11  1  0  0  0  0
  9 15  1  0  0  0  0
  7  8  1  0  0  0  0
  7  9  1  0  0  0  0
 19 20  1  0  0  0  0
 19 21  1  0  0  0  0
 19 22  1  0  0  0  0
 17 18  1  0  0  0  0
 17 19  1  0  0  0  0
 27 28  2  0  0  0  0
 27 29  1  0  0  0  0
 24 25  1  0  0  0  0
 24 26  1  0  0  0  0
 24 27  1  0  0  0  0
 23 24  1  0  0  0  0
 37 38  2  0  0  0  0
 37 39  1  0  0  0  0
 33 34  1  0  0  0  0
 33 35  1  0  0  0  0
 33 36  1  0  0  0  0
 31 32  1  0  0  0  0
 31 33  1  0  0  0  0
 31 37  1  0  0  0  0
 29 30  1  0  0  0  0
 29 31  1  0  0  0  0
 41 42  1  0  0  0  0
 41 43  1  0  0  0  0
 41 44  1  0  0  0  0
 39 40  1  0  0  0  0
 39 41  1  0  0  0  0
M  END
$$$$
default_name
  -OEChem-01062215323D

 44 43  0     1  0  0  0  0  0999 V2000
    2.4488   -3.0448    2.0990 H   0  0  0  0  0  0  0  0  0  0  0  0
    2.2788   -2.0018    2.3640 C   0  0  0  0  0  0  0  0  0  0  0  0
    2.9228   -1.7258    3.1960 H   0  0  0  0  0  0  0  0  0  0  0  0
    1.2358   -1.8618    2.6430 H   0  0  0  0  0  0  0  0  0  0  0  0
    2.6018   -1.1318    1.1730 C   0  0  0  0  0  0  0  0  0  0  0  0
    3.0048   -1.6348    0.1320 O   0  0  0  0  0  0  0  0  0  0  0  0
    2.4088    0.1752    1.3190 N   0  0  0  0  0  0  0  0  0  0  0  0
    2.0708    0.5242    2.2050 H   0  0  0  0  0  0  0  0  0  0  0  0
    2.6638    1.1782    0.2840 C   0  0  1  0  0  0  0  0  0  0  0  0
    3.6452    0.9773   -0.1489 H   0  0  0  0  0  0  0  0  0  0  0  0
    1.6136    1.0485   -0.8331 C   0  0  0  0  0  0  0  0  0  0  0  0
    1.7158    1.8969   -1.5108 H   0  0  0  0  0  0  0  0  0  0  0  0
    0.6283    1.1375   -0.3761 H   0  0  0  0  0  0  0  0  0  0  0  0
    1.6030   -0.4793   -1.8173 S   0  0  0  0  0  0  0  0  0  0  0  0
    2.6959    2.5969    0.8827 C   0  0  0  0  0  0  0  0  0  0  0  0
    3.7530    3.0813    1.2864 O   0  0  0  0  0  0  0  0  0  0  0  0
    1.5360    3.2654    0.9335 N   0  0  0  0  0  0  0  0  0  0  0  0
    0.7087    2.8101    0.5829 H   0  0  0  0  0  0  0  0  0  0  0  0
    1.4015    4.6166    1.4739 C   0  0  0  0  0  0  0  0  0  0  0  0
    1.6714    4.6173    2.5321 H   0  0  0  0  0  0  0  0  0  0  0  0
    2.0742    5.2945    0.9453 H   0  0  0  0  0  0  0  0  0  0  0  0
    0.3752    4.9688    1.3634 H   0  0  0  0  0  0  0  0  0  0  0  0
    4.6223    3.6211   -8.1335 H   0  0  0  0  0  0  0  0  0  0  0  0
    3.6837    3.4410   -7.6115 C   0  0  0  0  0  0  0  0  0  0  0  0
    2.8710    3.3662   -8.3324 H   0  0  0  0  0  0  0  0  0  0  0  0
    3.4887    4.2570   -6.9183 H   0  0  0  0  0  0  0  0  0  0  0  0
    3.7913    2.1454   -6.8420 C   0  0  0  0  0  0  0  0  0  0  0  0
    4.8275    1.4953   -6.8679 O   0  0  0  0  0  0  0  0  0  0  0  0
    2.7177    1.7760   -6.1486 N   0  0  0  0  0  0  0  0  0  0  0  0
    1.8927    2.3571   -6.1816 H   0  0  0  0  0  0  0  0  0  0  0  0
    2.6307    0.5609   -5.3387 C   0  0  1  0  0  0  0  0  0  0  0  0
    3.1742   -0.2413   -5.8411 H   0  0  0  0  0  0  0  0  0  0  0  0
    3.3140    0.8370   -3.9920 C   0  0  0  0  0  0  0  0  0  0  0  0
    4.3427    1.1345   -4.2006 H   0  0  0  0  0  0  0  0  0  0  0  0
    2.8241    1.6864   -3.5156 H   0  0  0  0  0  0  0  0  0  0  0  0
    3.3921   -0.5266   -2.7998 S   0  0  0  0  0  0  0  0  0  0  0  0
    1.1641    0.1218   -5.1822 C   0  0  0  0  0  0  0  0  0  0  0  0
    0.2669    0.9658   -5.1789 O   0  0  0  0  0  0  0  0  0  0  0  0
    0.9225   -1.1899   -5.0619 N   0  0  0  0  0  0  0  0  0  0  0  0
    1.7138   -1.8133   -5.0401 H   0  0  0  0  0  0  0  0  0  0  0  0
   -0.4100   -1.7693   -4.8970 C   0  0  0  0  0  0  0  0  0  0  0  0
   -0.7691   -1.5837   -3.8833 H   0  0  0  0  0  0  0  0  0  0  0  0
   -1.1068   -1.3108   -5.6028 H   0  0  0  0  0  0  0  0  0  0  0  0
   -0.3783   -2.8443   -5.0755 H   0  0  0  0  0  0  0  0  0  0  0  0
  5  6  2  0  0  0  0
  5  7  1  0  0  0  0
  2  3  1  0  0  0  0
  2  4  1  0  0  0  0
  2  5  1  0  0  0  0
  1  2  1  0  0  0  0
 15 16  2  0  0  0  0
 15 17  1  0  0  0  0
 14 36  1  0  0  0  0
 11 12  1  0  0  0  0
 11 13  1  0  0  0  0
 11 14  1  0  0  0  0
  9 10  1  0  0  0  0
  9 11  1  0  0  0  0
  9 15  1  0  0  0  0
  7  8  1  0  0  0  0
  7  9  1  0  0  0  0
 19 20  1  0  0  0  0
 19 21  1  0  0  0  0
 19 22  1  0  0  0  0
 17 18  1  0  0  0  0
 17 19  1  0  0  0  0
 27 28  2  0  0  0  0
 27 29  1  0  0  0  0
 24 25  1  0  0  0  0
 24 26  1  0  0  0  0
 24 27  1  0  0  0  0
 23 24  1  0  0  0  0
 37 38  2  0  0  0  0
 37 39  1  0  0  0  0
 33 34  1  0  0  0  0
 33 35  1  0  0  0  0
 33 36  1  0  0  0  0
 31 32  1  0  0  0  0
 31 33  1  0  0  0  0
 31 37  1  0  0  0  0
 29 30  1  0  0  0  0
 29 31  1  0  0  0  0
 41 42  1  0  0  0  0
 41 43  1  0  0  0  0
 41 44  1  0  0  0  0
 39 40  1  0  0  0  0
 39 41  1  0  0  0  0
M  END
$$$$
default_name
  -OEChem-01062215323D

 44 43  0     1  0  0  0  0  0999 V2000
    2.4488   -3.0448    2.0990 H   0  0  0  0  0  0  0  0  0  0  0  0
    2.2788   -2.0018    2.3640 C   0  0  0  0  0  0  0  0  0  0  0  0
    2.9228   -1.7258    3.1960 H   0  0  0  0  0  0  0  0  0  0  0  0
    1.2358   -1.8618    2.6430 H   0  0  0  0  0  0  0  0  0  0  0  0
    2.6018   -1.1318    1.1730 C   0  0  0  0  0  0  0  0  0  0  0  0
    3.0048   -1.6348    0.1320 O   0  0  0  0  0  0  0  0  0  0  0  0
    2.4088    0.1752    1.3190 N   0  0  0  0  0  0  0  0  0  0  0  0
    2.0708    0.5242    2.2050 H   0  0  0  0  0  0  0  0  0  0  0  0
    2.6638    1.1782    0.2840 C   0  0  1  0  0  0  0  0  0  0  0  0
    3.6452    0.9773   -0.1489 H   0  0  0  0  0  0  0  0  0  0  0  0
    1.6136    1.0485   -0.8331 C   0  0  0  0  0  0  0  0  0  0  0  0
    1.7158    1.8969   -1.5108 H   0  0  0  0  0  0  0  0  0  0  0  0
    0.6283    1.1375   -0.3761 H   0  0  0  0  0  0  0  0  0  0  0  0
    1.6030   -0.4793   -1.8173 S   0  0  0  0  0  0  0  0  0  0  0  0
    2.6959    2.5969    0.8827 C   0  0  0  0  0  0  0  0  0  0  0  0
    3.7649    3.1886    1.0315 O   0  0  0  0  0  0  0  0  0  0  0  0
    1.5208    3.1448    1.2200 N   0  0  0  0  0  0  0  0  0  0  0  0
    0.6835    2.6057    1.0685 H   0  0  0  0  0  0  0  0  0  0  0  0
    1.3848    4.4791    1.8005 C   0  0  0  0  0  0  0  0  0  0  0  0
    1.8981    4.5143    2.7638 H   0  0  0  0  0  0  0  0  0  0  0  0
    1.8406    5.2181    1.1390 H   0  0  0  0  0  0  0  0  0  0  0  0
    0.3318    4.7249    1.9438 H   0  0  0  0  0  0  0  0  0  0  0  0
    4.6223    3.6211   -8.1335 H   0  0  0  0  0  0  0  0  0  0  0  0
    3.6837    3.4410   -7.6115 C   0  0  0  0  0  0  0  0  0  0  0  0
    2.8710    3.3662   -8.3324 H   0  0  0  0  0  0  0  0  0  0  0  0
    3.4887    4.2570   -6.9183 H   0  0  0  0  0  0  0  0  0  0  0  0
    3.7913    2.1454   -6.8420 C   0  0  0  0  0  0  0  0  0  0  0  0
    4.8275    1.4953   -6.8679 O   0  0  0  0  0  0  0  0  0  0  0  0
    2.7177    1.7760   -6.1486 N   0  0  0  0  0  0  0  0  0  0  0  0
    1.8927    2.3571   -6.1816 H   0  0  0  0  0  0  0  0  0  0  0  0
    2.6307    0.5609   -5.3387 C   0  0  1  0  0  0  0  0  0  0  0  0
    3.1742   -0.2413   -5.8411 H   0  0  0  0  0  0  0  0  0  0  0  0
    3.3140    0.8370   -3.9920 C   0  0  0  0  0  0  0  0  0  0  0  0
    4.3427    1.1345   -4.2006 H   0  0  0  0  0  0  0  0  0  0  0  0
    2.8241    1.6864   -3.5156 H   0  0  0  0  0  0  0  0  0  0  0  0
    3.3921   -0.5266   -2.7998 S   0  0  0  0  0  0  0  0  0  0  0  0
    1.1641    0.1218   -5.1822 C   0  0  0  0  0  0  0  0  0  0  0  0
    0.2669    0.9658   -5.1789 O   0  0  0  0  0  0  0  0  0  0  0  0
    0.9225   -1.1899   -5.0619 N   0  0  0  0  0  0  0  0  0  0  0  0
    1.7138   -1.8133   -5.0401 H   0  0  0  0  0  0  0  0  0  0  0  0
   -0.4100   -1.7693   -4.8970 C   0  0  0  0  0  0  0  0  0  0  0  0
   -0.7691   -1.5837   -3.8833 H   0  0  0  0  0  0  0  0  0  0  0  0
   -1.1068   -1.3108   -5.6028 H   0  0  0  0  0  0  0  0  0  0  0  0
   -0.3783   -2.8443   -5.0755 H   0  0  0  0  0  0  0  0  0  0  0  0
  5  6  2  0  0  0  0
  5  7  1  0  0  0  0
  2  3  1  0  0  0  0
  2  4  1  0  0  0  0
  2  5  1  0  0  0  0
  1  2  1  0  0  0  0
 15 16  2  0  0  0  0
 15 17  1  0  0  0  0
 14 36  1  0  0  0  0
 11 12  1  0  0  0  0
 11 13  1  0  0  0  0
 11 14  1  0  0  0  0
  9 10  1  0  0  0  0
  9 11  1  0  0  0  0
  9 15  1  0  0  0  0
  7  8  1  0  0  0  0
  7  9  1  0  0  0  0
 19 20  1  0  0  0  0
 19 21  1  0  0  0  0
 19 22  1  0  0  0  0
 17 18  1  0  0  0  0
 17 19  1  0  0  0  0
 27 28  2  0  0  0  0
 27 29  1  0  0  0  0
 24 25  1  0  0  0  0
 24 26  1  0  0  0  0
 24 27  1  0  0  0  0
 23 24  1  0  0  0  0
 37 38  2  0  0  0  0
 37 39  1  0  0  0  0
 33 34  1  0  0  0  0
 33 35  1  0  0  0  0
 33 36  1  0  0  0  0
 31 32  1  0  0  0  0
 31 33  1  0  0  0  0
 31 37  1  0  0  0  0
 29 30  1  0  0  0  0
 29 31  1  0  0  0  0
 41 42  1  0  0  0  0
 41 43  1  0  0  0  0
 41 44  1  0  0  0  0
 39 40  1  0  0  0  0
 39 41  1  0  0  0  0
M  END
$$$$
default_name
  -OEChem-01062215323D

 44 43  0     1  0  0  0  0  0999 V2000
    2.4488   -3.0448    2.0990 H   0  0  0  0  0  0  0  0  0  0  0  0
    2.2788   -2.0018    2.3640 C   0  0  0  0  0  0  0  0  0  0  0  0
    2.9228   -1.7258    3.1960 H   0  0  0  0  0  0  0  0  0  0  0  0
    1.2358   -1.8618    2.6430 H   0  0  0  0  0  0  0  0  0  0  0  0
    2.6018   -1.1318    1.1730 C   0  0  0  0  0  0  0  0  0  0  0  0
    3.0048   -1.6348    0.1320 O   0  0  0  0  0  0  0  0  0  0  0  0
    2.4088    0.1752    1.3190 N   0  0  0  0  0  0  0  0  0  0  0  0
    2.0708    0.5242    2.2050 H   0  0  0  0  0  0  0  0  0  0  0  0
    2.6638    1.1782    0.2840 C   0  0  1  0  0  0  0  0  0  0  0  0
    3.6452    0.9773   -0.1489 H   0  0  0  0  0  0  0  0  0  0  0  0
    1.6136    1.0485   -0.8331 C   0  0  0  0  0  0  0  0  0  0  0  0
    1.7158    1.8969   -1.5108 H   0  0  0  0  0  0  0  0  0  0  0  0
    0.6283    1.1375   -0.3761 H   0  0  0  0  0  0  0  0  0  0  0  0
    1.6030   -0.4793   -1.8173 S   0  0  0  0  0  0  0  0  0  0  0  0
    2.6959    2.5969    0.8827 C   0  0  0  0  0  0  0  0  0  0  0  0
    3.7049    3.2948    0.7830 O   0  0  0  0  0  0  0  0  0  0  0  0
    1.5865    3.0253    1.4997 N   0  0  0  0  0  0  0  0  0  0  0  0
    0.7955    2.4032    1.5425 H   0  0  0  0  0  0  0  0  0  0  0  0
    1.4604    4.3429    2.1193 C   0  0  0  0  0  0  0  0  0  0  0  0
    2.1826    4.4365    2.9331 H   0  0  0  0  0  0  0  0  0  0  0  0
    1.6689    5.1197    1.3813 H   0  0  0  0  0  0  0  0  0  0  0  0
    0.4529    4.4817    2.5135 H   0  0  0  0  0  0  0  0  0  0  0  0
    4.6223    3.6211   -8.1335 H   0  0  0  0  0  0  0  0  0  0  0  0
    3.6837    3.4410   -7.6115 C   0  0  0  0  0  0  0  0  0  0  0  0
    2.8710    3.3662   -8.3324 H   0  0  0  0  0  0  0  0  0  0  0  0
    3.4887    4.2570   -6.9183 H   0  0  0  0  0  0  0  0  0  0  0  0
    3.7913    2.1454   -6.8420 C   0  0  0  0  0  0  0  0  0  0  0  0
    4.8275    1.4953   -6.8679 O   0  0  0  0  0  0  0  0  0  0  0  0
    2.7177    1.7760   -6.1486 N   0  0  0  0  0  0  0  0  0  0  0  0
    1.8927    2.3571   -6.1816 H   0  0  0  0  0  0  0  0  0  0  0  0
    2.6307    0.5609   -5.3387 C   0  0  1  0  0  0  0  0  0  0  0  0
    3.1742   -0.2413   -5.8411 H   0  0  0  0  0  0  0  0  0  0  0  0
    3.3140    0.8370   -3.9920 C   0  0  0  0  0  0  0  0  0  0  0  0
    4.3427    1.1345   -4.2006 H   0  0  0  0  0  0  0  0  0  0  0  0
    2.8241    1.6864   -3.5156 H   0  0  0  0  0  0  0  0  0  0  0  0
    3.3921   -0.5266   -2.7998 S   0  0  0  0  0  0  0  0  0  0  0  0
    1.1641    0.1218   -5.1822 C   0  0  0  0  0  0  0  0  0  0  0  0
    0.2669    0.9658   -5.1789 O   0  0  0  0  0  0  0  0  0  0  0  0
    0.9225   -1.1899   -5.0619 N   0  0  0  0  0  0  0  0  0  0  0  0
    1.7138   -1.8133   -5.0401 H   0  0  0  0  0  0  0  0  0  0  0  0
   -0.4100   -1.7693   -4.8970 C   0  0  0  0  0  0  0  0  0  0  0  0
   -0.7691   -1.5837   -3.8833 H   0  0  0  0  0  0  0  0  0  0  0  0
   -1.1068   -1.3108   -5.6028 H   0  0  0  0  0  0  0  0  0  0  0  0
   -0.3783   -2.8443   -5.0755 H   0  0  0  0  0  0  0  0  0  0  0  0
  5  6  2  0  0  0  0
  5  7  1  0  0  0  0
  2  3  1  0  0  0  0
  2  4  1  0  0  0  0
  2  5  1  0  0  0  0
  1  2  1  0  0  0  0
 15 16  2  0  0  0  0
 15 17  1  0  0  0  0
 14 36  1  0  0  0  0
 11 12  1  0  0  0  0
 11 13  1  0  0  0  0
 11 14  1  0  0  0  0
  9 10  1  0  0  0  0
  9 11  1  0  0  0  0
  9 15  1  0  0  0  0
  7  8  1  0  0  0  0
  7  9  1  0  0  0  0
 19 20  1  0  0  0  0
 19 21  1  0  0  0  0
 19 22  1  0  0  0  0
 17 18  1  0  0  0  0
 17 19  1  0  0  0  0
 27 28  2  0  0  0  0
 27 29  1  0  0  0  0
 24 25  1  0  0  0  0
 24 26  1  0  0  0  0
 24 27  1  0  0  0  0
 23 24  1  0  0  0  0
 37 38  2  0  0  0  0
 37 39  1  0  0  0  0
 33 34  1  0  0  0  0
 33 35  1  0  0  0  0
 33 36  1  0  0  0  0
 31 32  1  0  0  0  0
 31 33  1  0  0  0  0
 31 37  1  0  0  0  0
 29 30  1  0  0  0  0
 29 31  1  0  0  0  0
 41 42  1  0  0  0  0
 41 43  1  0  0  0  0
 41 44  1  0  0  0  0
 39 40  1  0  0  0  0
 39 41  1  0  0  0  0
M  END
$$$$
default_name
  -OEChem-01062215323D

 44 43  0     1  0  0  0  0  0999 V2000
    2.4488   -3.0448    2.0990 H   0  0  0  0  0  0  0  0  0  0  0  0
    2.2788   -2.0018    2.3640 C   0  0  0  0  0  0  0  0  0  0  0  0
    2.9228   -1.7258    3.1960 H   0  0  0  0  0  0  0  0  0  0  0  0
    1.2358   -1.8618    2.6430 H   0  0  0  0  0  0  0  0  0  0  0  0
    2.6018   -1.1318    1.1730 C   0  0  0  0  0  0  0  0  0  0  0  0
    3.0048   -1.6348    0.1320 O   0  0  0  0  0  0  0  0  0  0  0  0
    2.4088    0.1752    1.3190 N   0  0  0  0  0  0  0  0  0  0  0  0
    2.0708    0.5242    2.2050 H   0  0  0  0  0  0  0  0  0  0  0  0
    2.6638    1.1782    0.2840 C   0  0  1  0  0  0  0  0  0  0  0  0
    3.6452    0.9773   -0.1489 H   0  0  0  0  0  0  0  0  0  0  0  0
    1.6136    1.0485   -0.8331 C   0  0  0  0  0  0  0  0  0  0  0  0
    1.7158    1.8969   -1.5108 H   0  0  0  0  0  0  0  0  0  0  0  0
    0.6283    1.1375   -0.3761 H   0  0  0  0  0  0  0  0  0  0  0  0
    1.6030   -0.4793   -1.8173 S   0  0  0  0  0  0  0  0  0  0  0  0
    2.6959    2.5969    0.8827 C   0  0  0  0  0  0  0  0  0  0  0  0
    3.5770    3.3927    0.5579 O   0  0  0  0  0  0  0  0  0  0  0  0
    1.7288    2.9150    1.7535 N   0  0  0  0  0  0  0  0  0  0  0  0
    1.0371    2.2162    1.9725 H   0  0  0  0  0  0  0  0  0  0  0  0
    1.6231    4.2172    2.4084 C   0  0  0  0  0  0  0  0  0  0  0  0
    2.5056    4.3890    3.0284 H   0  0  0  0  0  0  0  0  0  0  0  0
    1.5708    5.0061    1.6558 H   0  0  0  0  0  0  0  0  0  0  0  0
    0.7302    4.2560    3.0336 H   0  0  0  0  0  0  0  0  0  0  0  0
    4.6223    3.6211   -8.1335 H   0  0  0  0  0  0  0  0  0  0  0  0
    3.6837    3.4410   -7.6115 C   0  0  0  0  0  0  0  0  0  0  0  0
    2.8710    3.3662   -8.3324 H   0  0  0  0  0  0  0  0  0  0  0  0
    3.4887    4.2570   -6.9183 H   0  0  0  0  0  0  0  0  0  0  0  0
    3.7913    2.1454   -6.8420 C   0  0  0  0  0  0  0  0  0  0  0  0
    4.8275    1.4953   -6.8679 O   0  0  0  0  0  0  0  0  0  0  0  0
    2.7177    1.7760   -6.1486 N   0  0  0  0  0  0  0  0  0  0  0  0
    1.8927    2.3571   -6.1816 H   0  0  0  0  0  0  0  0  0  0  0  0
    2.6307    0.5609   -5.3387 C   0  0  1  0  0  0  0  0  0  0  0  0
    3.1742   -0.2413   -5.8411 H   0  0  0  0  0  0  0  0  0  0  0  0
    3.3140    0.8370   -3.9920 C   0  0  0  0  0  0  0  0  0  0  0  0
    4.3427    1.1345   -4.2006 H   0  0  0  0  0  0  0  0  0  0  0  0
    2.8241    1.6864   -3.5156 H   0  0  0  0  0  0  0  0  0  0  0  0
    3.3921   -0.5266   -2.7998 S   0  0  0  0  0  0  0  0  0  0  0  0
    1.1641    0.1218   -5.1822 C   0  0  0  0  0  0  0  0  0  0  0  0
    0.2669    0.9658   -5.1789 O   0  0  0  0  0  0  0  0  0  0  0  0
    0.9225   -1.1899   -5.0619 N   0  0  0  0  0  0  0  0  0  0  0  0
    1.7138   -1.8133   -5.0401 H   0  0  0  0  0  0  0  0  0  0  0  0
   -0.4100   -1.7693   -4.8970 C   0  0  0  0  0  0  0  0  0  0  0  0
   -0.7691   -1.5837   -3.8833 H   0  0  0  0  0  0  0  0  0  0  0  0
   -1.1068   -1.3108   -5.6028 H   0  0  0  0  0  0  0  0  0  0  0  0
   -0.3783   -2.8443   -5.0755 H   0  0  0  0  0  0  0  0  0  0  0  0
  5  6  2  0  0  0  0
  5  7  1  0  0  0  0
  2  3  1  0  0  0  0
  2  4  1  0  0  0  0
  2  5  1  0  0  0  0
  1  2  1  0  0  0  0
 15 16  2  0  0  0  0
 15 17  1  0  0  0  0
 14 36  1  0  0  0  0
 11 12  1  0  0  0  0
 11 13  1  0  0  0  0
 11 14  1  0  0  0  0
  9 10  1  0  0  0  0
  9 11  1  0  0  0  0
  9 15  1  0  0  0  0
  7  8  1  0  0  0  0
  7  9  1  0  0  0  0
 19 20  1  0  0  0  0
 19 21  1  0  0  0  0
 19 22  1  0  0  0  0
 17 18  1  0  0  0  0
 17 19  1  0  0  0  0
 27 28  2  0  0  0  0
 27 29  1  0  0  0  0
 24 25  1  0  0  0  0
 24 26  1  0  0  0  0
 24 27  1  0  0  0  0
 23 24  1  0  0  0  0
 37 38  2  0  0  0  0
 37 39  1  0  0  0  0
 33 34  1  0  0  0  0
 33 35  1  0  0  0  0
 33 36  1  0  0  0  0
 31 32  1  0  0  0  0
 31 33  1  0  0  0  0
 31 37  1  0  0  0  0
 29 30  1  0  0  0  0
 29 31  1  0  0  0  0
 41 42  1  0  0  0  0
 41 43  1  0  0  0  0
 41 44  1  0  0  0  0
 39 40  1  0  0  0  0
 39 41  1  0  0  0  0
M  END
$$$$
default_name
  -OEChem-01062215323D

 44 43  0     1  0  0  0  0  0999 V2000
    2.4488   -3.0448    2.0990 H   0  0  0  0  0  0  0  0  0  0  0  0
    2.2788   -2.0018    2.3640 C   0  0  0  0  0  0  0  0  0  0  0  0
    2.9228   -1.7258    3.1960 H   0  0  0  0  0  0  0  0  0  0  0  0
    1.2358   -1.8618    2.6430 H   0  0  0  0  0  0  0  0  0  0  0  0
    2.6018   -1.1318    1.1730 C   0  0  0  0  0  0  0  0  0  0  0  0
    3.0048   -1.6348    0.1320 O   0  0  0  0  0  0  0  0  0  0  0  0
    2.4088    0.1752    1.3190 N   0  0  0  0  0  0  0  0  0  0  0  0
    2.0708    0.5242    2.2050 H   0  0  0  0  0  0  0  0  0  0  0  0
    2.6638    1.1782    0.2840 C   0  0  1  0  0  0  0  0  0  0  0  0
    3.6452    0.9773   -0.1489 H   0  0  0  0  0  0  0  0  0  0  0  0
    1.6136    1.0485   -0.8331 C   0  0  0  0  0  0  0  0  0  0  0  0
    1.7158    1.8969   -1.5108 H   0  0  0  0  0  0  0  0  0  0  0  0
    0.6283    1.1375   -0.3761 H   0  0  0  0  0  0  0  0  0  0  0  0
    1.6030   -0.4793   -1.8173 S   0  0  0  0  0  0  0  0  0  0  0  0
    2.6959    2.5969    0.8827 C   0  0  0  0  0  0  0  0  0  0  0  0
    3.3899    3.4756    0.3714 O   0  0  0  0  0  0  0  0  0  0  0  0
    1.9378    2.8213    1.9642 N   0  0  0  0  0  0  0  0  0  0  0  0
    1.3918    2.0576    2.3293 H   0  0  0  0  0  0  0  0  0  0  0  0
    1.8619    4.1106    2.6482 C   0  0  0  0  0  0  0  0  0  0  0  0
    2.8451    4.3751    3.0432 H   0  0  0  0  0  0  0  0  0  0  0  0
    1.5528    4.8850    1.9437 H   0  0  0  0  0  0  0  0  0  0  0  0
    1.1447    4.0630    3.4686 H   0  0  0  0  0  0  0  0  0  0  0  0
    4.6223    3.6211   -8.1335 H   0  0  0  0  0  0  0  0  0  0  0  0
    3.6837    3.4410   -7.6115 C   0  0  0  0  0  0  0  0  0  0  0  0
    2.8710    3.3662   -8.3324 H   0  0  0  0  0  0  0  0  0  0  0  0
    3.4887    4.2570   -6.9183 H   0  0  0  0  0  0  0  0  0  0  0  0
    3.7913    2.1454   -6.8420 C   0  0  0  0  0  0  0  0  0  0  0  0
    4.8275    1.4953   -6.8679 O   0  0  0  0  0  0  0  0  0  0  0  0
    2.7177    1.7760   -6.1486 N   0  0  0  0  0  0  0  0  0  0  0  0
    1.8927    2.3571   -6.1816 H   0  0  0  0  0  0  0  0  0  0  0  0
    2.6307    0.5609   -5.3387 C   0  0  1  0  0  0  0  0  0  0  0  0
    3.1742   -0.2413   -5.8411 H   0  0  0  0  0  0  0  0  0  0  0  0
    3.3140    0.8370   -3.9920 C   0  0  0  0  0  0  0  0  0  0  0  0
    4.3427    1.1345   -4.2006 H   0  0  0  0  0  0  0  0  0  0  0  0
    2.8241    1.6864   -3.5156 H   0  0  0  0  0  0  0  0  0  0  0  0
    3.3921   -0.5266   -2.7998 S   0  0  0  0  0  0  0  0  0  0  0  0
    1.1641    0.1218   -5.1822 C   0  0  0  0  0  0  0  0  0  0  0  0
    0.2669    0.9658   -5.1789 O   0  0  0  0  0  0  0  0  0  0  0  0
    0.9225   -1.1899   -5.0619 N   0  0  0  0  0  0  0  0  0  0  0  0
    1.7138   -1.8133   -5.0401 H   0  0  0  0  0  0  0  0  0  0  0  0
   -0.4100   -1.7693   -4.8970 C   0  0  0  0  0  0  0  0  0  0  0  0
   -0.7691   -1.5837   -3.8833 H   0  0  0  0  0  0  0  0  0  0  0  0
   -1.1068   -1.3108   -5.6028 H   0  0  0  0  0  0  0  0  0  0  0  0
   -0.3783   -2.8443   -5.0755 H   0  0  0  0  0  0  0  0  0  0  0  0
  5  6  2  0  0  0  0
  5  7  1  0  0  0  0
  2  3  1  0  0  0  0
  2  4  1  0  0  0  0
  2  5  1  0  0  0  0
  1  2  1  0  0  0  0
 15 16  2  0  0  0  0
 15 17  1  0  0  0  0
 14 36  1  0  0  0  0
 11 12  1  0  0  0  0
 11 13  1  0  0  0  0
 11 14  1  0  0  0  0
  9 10  1  0  0  0  0
  9 11  1  0  0  0  0
  9 15  1  0  0  0  0
  7  8  1  0  0  0  0
  7  9  1  0  0  0  0
 19 20  1  0  0  0  0
 19 21  1  0  0  0  0
 19 22  1  0  0  0  0
 17 18  1  0  0  0  0
 17 19  1  0  0  0  0
 27 28  2  0  0  0  0
 27 29  1  0  0  0  0
 24 25  1  0  0  0  0
 24 26  1  0  0  0  0
 24 27  1  0  0  0  0
 23 24  1  0  0  0  0
 37 38  2  0  0  0  0
 37 39  1  0  0  0  0
 33 34  1  0  0  0  0
 33 35  1  0  0  0  0
 33 36  1  0  0  0  0
 31 32  1  0  0  0  0
 31 33  1  0  0  0  0
 31 37  1  0  0  0  0
 29 30  1  0  0  0  0
 29 31  1  0  0  0  0
 41 42  1  0  0  0  0
 41 43  1  0  0  0  0
 41 44  1  0  0  0  0
 39 40  1  0  0  0  0
 39 41  1  0  0  0  0
M  END
$$$$
default_name
  -OEChem-01062215323D

 44 43  0     1  0  0  0  0  0999 V2000
    2.4488   -3.0448    2.0990 H   0  0  0  0  0  0  0  0  0  0  0  0
    2.2788   -2.0018    2.3640 C   0  0  0  0  0  0  0  0  0  0  0  0
    2.9228   -1.7258    3.1960 H   0  0  0  0  0  0  0  0  0  0  0  0
    1.2358   -1.8618    2.6430 H   0  0  0  0  0  0  0  0  0  0  0  0
    2.6018   -1.1318    1.1730 C   0  0  0  0  0  0  0  0  0  0  0  0
    3.0048   -1.6348    0.1320 O   0  0  0  0  0  0  0  0  0  0  0  0
    2.4088    0.1752    1.3190 N   0  0  0  0  0  0  0  0  0  0  0  0
    2.0708    0.5242    2.2050 H   0  0  0  0  0  0  0  0  0  0  0  0
    2.6638    1.1782    0.2840 C   0  0  1  0  0  0  0  0  0  0  0  0
    3.6452    0.9773   -0.1489 H   0  0  0  0  0  0  0  0  0  0  0  0
    1.6136    1.0485   -0.8331 C   0  0  0  0  0  0  0  0  0  0  0  0
    1.7158    1.8969   -1.5108 H   0  0  0  0  0  0  0  0  0  0  0  0
    0.6283    1.1375   -0.3761 H   0  0  0  0  0  0  0  0  0  0  0  0
    1.6030   -0.4793   -1.8173 S   0  0  0  0  0  0  0  0  0  0  0  0
    2.6959    2.5969    0.8827 C   0  0  0  0  0  0  0  0  0  0  0  0
    3.1564    3.5379    0.2364 O   0  0  0  0  0  0  0  0  0  0  0  0
    2.1993    2.7508    2.1174 N   0  0  0  0  0  0  0  0  0  0  0  0
    1.8354    1.9382    2.5885 H   0  0  0  0  0  0  0  0  0  0  0  0
    2.1604    4.0304    2.8223 C   0  0  0  0  0  0  0  0  0  0  0  0
    3.1779    4.3957    2.9764 H   0  0  0  0  0  0  0  0  0  0  0  0
    1.6163    4.7647    2.2254 H   0  0  0  0  0  0  0  0  0  0  0  0
    1.6682    3.9160    3.7890 H   0  0  0  0  0  0  0  0  0  0  0  0
    4.6223    3.6211   -8.1335 H   0  0  0  0  0  0  0  0  0  0  0  0
    3.6837    3.4410   -7.6115 C   0  0  0  0  0  0  0  0  0  0  0  0
    2.8710    3.3662   -8.3324 H   0  0  0  0  0  0  0  0  0  0  0  0
    3.4887    4.2570   -6.9183 H   0  0  0  0  0  0  0  0  0  0  0  0
    3.7913    2.1454   -6.8420 C   0  0  0  0  0  0  0  0  0  0  0  0
    4.8275    1.4953   -6.8679 O   0  0  0  0  0  0  0  0  0  0  0  0
    2.7177    1.7760   -6.1486 N   0  0  0  0  0  0  0  0  0  0  0  0
    1.8927    2.3571   -6.1816 H   0  0  0  0  0  0  0  0  0  0  0  0
    2.6307    0.5609   -5.3387 C   0  0  1  0  0  0  0  0  0  0  0  0
    3.1742   -0.2413   -5.8411 H   0  0  0  0  0  0  0  0  0  0  0  0
    3.3140    0.8370   -3.9920 C   0  0  0  0  0  0  0  0  0  0  0  0
    4.3427    1.1345   -4.2006 H   0  0  0  0  0  0  0  0  0  0  0  0
    2.8241    1.6864   -3.5156 H   0  0  0  0  0  0  0  0  0  0  0  0
    3.3921   -0.5266   -2.7998 S   0  0  0  0  0  0  0  0  0  0  0  0
    1.1641    0.1218   -5.1822 C   0  0  0  0  0  0  0  0  0  0  0  0
    0.2669    0.9658   -5.1789 O   0  0  0  0  0  0  0  0  0  0  0  0
    0.9225   -1.1899   -5.0619 N   0  0  0  0  0  0  0  0  0  0  0  0
    1.7138   -1.8133   -5.0401 H   0  0  0  0  0  0  0  0  0  0  0  0
   -0.4100   -1.7693   -4.8970 C   0  0  0  0  0  0  0  0  0  0  0  0
   -0.7691   -1.5837   -3.8833 H   0  0  0  0  0  0  0  0  0  0  0  0
   -1.1068   -1.3108   -5.6028 H   0  0  0  0  0  0  0  0  0  0  0  0
   -0.3783   -2.8443   -5.0755 H   0  0  0  0  0  0  0  0  0  0  0  0
  5  6  2  0  0  0  0
  5  7  1  0  0  0  0
  2  3  1  0  0  0  0
  2  4  1  0  0  0  0
  2  5  1  0  0  0  0
  1  2  1  0  0  0  0
 15 16  2  0  0  0  0
 15 17  1  0  0  0  0
 14 36  1  0  0  0  0
 11 12  1  0  0  0  0
 11 13  1  0  0  0  0
 11 14  1  0  0  0  0
  9 10  1  0  0  0  0
  9 11  1  0  0  0  0
  9 15  1  0  0  0  0
  7  8  1  0  0  0  0
  7  9  1  0  0  0  0
 19 20  1  0  0  0  0
 19 21  1  0  0  0  0
 19 22  1  0  0  0  0
 17 18  1  0  0  0  0
 17 19  1  0  0  0  0
 27 28  2  0  0  0  0
 27 29  1  0  0  0  0
 24 25  1  0  0  0  0
 24 26  1  0  0  0  0
 24 27  1  0  0  0  0
 23 24  1  0  0  0  0
 37 38  2  0  0  0  0
 37 39  1  0  0  0  0
 33 34  1  0  0  0  0
 33 35  1  0  0  0  0
 33 36  1  0  0  0  0
 31 32  1  0  0  0  0
 31 33  1  0  0  0  0
 31 37  1  0  0  0  0
 29 30  1  0  0  0  0
 29 31  1  0  0  0  0
 41 42  1  0  0  0  0
 41 43  1  0  0  0  0
 41 44  1  0  0  0  0
 39 40  1  0  0  0  0
 39 41  1  0  0  0  0
M  END
$$$$
default_name
  -OEChem-01062215323D

 44 43  0     1  0  0  0  0  0999 V2000
    2.4488   -3.0448    2.0990 H   0  0  0  0  0  0  0  0  0  0  0  0
    2.2788   -2.0018    2.3640 C   0  0  0  0  0  0  0  0  0  0  0  0
    2.9228   -1.7258    3.1960 H   0  0  0  0  0  0  0  0  0  0  0  0
    1.2358   -1.8618    2.6430 H   0  0  0  0  0  0  0  0  0  0  0  0
    2.6018   -1.1318    1.1730 C   0  0  0  0  0  0  0  0  0  0  0  0
    3.0048   -1.6348    0.1320 O   0  0  0  0  0  0  0  0  0  0  0  0
    2.4088    0.1752    1.3190 N   0  0  0  0  0  0  0  0  0  0  0  0
    2.0708    0.5242    2.2050 H   0  0  0  0  0  0  0  0  0  0  0  0
    2.6638    1.1782    0.2840 C   0  0  1  0  0  0  0  0  0  0  0  0
    3.6452    0.9773   -0.1489 H   0  0  0  0  0  0  0  0  0  0  0  0
    1.6136    1.0485   -0.8331 C   0  0  0  0  0  0  0  0  0  0  0  0
    1.7158    1.8969   -1.5108 H   0  0  0  0  0  0  0  0  0  0  0  0
    0.6283    1.1375   -0.3761 H   0  0  0  0  0  0  0  0  0  0  0  0
    1.6030   -0.4793   -1.8173 S   0  0  0  0  0  0  0  0  0  0  0  0
    2.6959    2.5969    0.8827 C   0  0  0  0  0  0  0  0  0  0  0  0
    2.8924    3.5752    0.1620 O   0  0  0  0  0  0  0  0  0  0  0  0
    2.4955    2.7081    2.2026 N   0  0  0  0  0  0  0  0  0  0  0  0
    2.3377    1.8661    2.7325 H   0  0  0  0  0  0  0  0  0  0  0  0
    2.4983    3.9820    2.9190 C   0  0  0  0  0  0  0  0  0  0  0  0
    3.4814    4.4495    2.8327 H   0  0  0  0  0  0  0  0  0  0  0  0
    1.7569    4.6533    2.4818 H   0  0  0  0  0  0  0  0  0  0  0  0
    2.2650    3.8249    3.9728 H   0  0  0  0  0  0  0  0  0  0  0  0
    4.6223    3.6211   -8.1335 H   0  0  0  0  0  0  0  0  0  0  0  0
    3.6837    3.4410   -7.6115 C   0  0  0  0  0  0  0  0  0  0  0  0
    2.8710    3.3662   -8.3324 H   0  0  0  0  0  0  0  0  0  0  0  0
    3.4887    4.2570   -6.9183 H   0  0  0  0  0  0  0  0  0  0  0  0
    3.7913    2.1454   -6.8420 C   0  0  0  0  0  0  0  0  0  0  0  0
    4.8275    1.4953   -6.8679 O   0  0  0  0  0  0  0  0  0  0  0  0
    2.7177    1.7760   -6.1486 N   0  0  0  0  0  0  0  0  0  0  0  0
    1.8927    2.3571   -6.1816 H   0  0  0  0  0  0  0  0  0  0  0  0
    2.6307    0.5609   -5.3387 C   0  0  1  0  0  0  0  0  0  0  0  0
    3.1742   -0.2413   -5.8411 H   0  0  0  0  0  0  0  0  0  0  0  0
    3.3140    0.8370   -3.9920 C   0  0  0  0  0  0  0  0  0  0  0  0
    4.3427    1.1345   -4.2006 H   0  0  0  0  0  0  0  0  0  0  0  0
    2.8241    1.6864   -3.5156 H   0  0  0  0  0  0  0  0  0  0  0  0
    3.3921   -0.5266   -2.7998 S   0  0  0  0  0  0  0  0  0  0  0  0
    1.1641    0.1218   -5.1822 C   0  0  0  0  0  0  0  0  0  0  0  0
    0.2669    0.9658   -5.1789 O   0  0  0  0  0  0  0  0  0  0  0  0
    0.9225   -1.1899   -5.0619 N   0  0  0  0  0  0  0  0  0  0  0  0
    1.7138   -1.8133   -5.0401 H   0  0  0  0  0  0  0  0  0  0  0  0
   -0.4100   -1.7693   -4.8970 C   0  0  0  0  0  0  0  0  0  0  0  0
   -0.7691   -1.5837   -3.8833 H   0  0  0  0  0  0  0  0  0  0  0  0
   -1.1068   -1.3108   -5.6028 H   0  0  0  0  0  0  0  0  0  0  0  0
   -0.3783   -2.8443   -5.0755 H   0  0  0  0  0  0  0  0  0  0  0  0
  5  6  2  0  0  0  0
  5  7  1  0  0  0  0
  2  3  1  0  0  0  0
  2  4  1  0  0  0  0
  2  5  1  0  0  0  0
  1  2  1  0  0  0  0
 15 16  2  0  0  0  0
 15 17  1  0  0  0  0
 14 36  1  0  0  0  0
 11 12  1  0  0  0  0
 11 13  1  0  0  0  0
 11 14  1  0  0  0  0
  9 10  1  0  0  0  0
  9 11  1  0  0  0  0
  9 15  1  0  0  0  0
  7  8  1  0  0  0  0
  7  9  1  0  0  0  0
 19 20  1  0  0  0  0
 19 21  1  0  0  0  0
 19 22  1  0  0  0  0
 17 18  1  0  0  0  0
 17 19  1  0  0  0  0
 27 28  2  0  0  0  0
 27 29  1  0  0  0  0
 24 25  1  0  0  0  0
 24 26  1  0  0  0  0
 24 27  1  0  0  0  0
 23 24  1  0  0  0  0
 37 38  2  0  0  0  0
 37 39  1  0  0  0  0
 33 34  1  0  0  0  0
 33 35  1  0  0  0  0
 33 36  1  0  0  0  0
 31 32  1  0  0  0  0
 31 33  1  0  0  0  0
 31 37  1  0  0  0  0
 29 30  1  0  0  0  0
 29 31  1  0  0  0  0
 41 42  1  0  0  0  0
 41 43  1  0  0  0  0
 41 44  1  0  0  0  0
 39 40  1  0  0  0  0
 39 41  1  0  0  0  0
M  END
$$$$
default_name
  -OEChem-01062215323D

 44 43  0     1  0  0  0  0  0999 V2000
    2.4488   -3.0448    2.0990 H   0  0  0  0  0  0  0  0  0  0  0  0
    2.2788   -2.0018    2.3640 C   0  0  0  0  0  0  0  0  0  0  0  0
    2.9228   -1.7258    3.1960 H   0  0  0  0  0  0  0  0  0  0  0  0
    1.2358   -1.8618    2.6430 H   0  0  0  0  0  0  0  0  0  0  0  0
    2.6018   -1.1318    1.1730 C   0  0  0  0  0  0  0  0  0  0  0  0
    3.0048   -1.6348    0.1320 O   0  0  0  0  0  0  0  0  0  0  0  0
    2.4088    0.1752    1.3190 N   0  0  0  0  0  0  0  0  0  0  0  0
    2.0708    0.5242    2.2050 H   0  0  0  0  0  0  0  0  0  0  0  0
    2.6638    1.1782    0.2840 C   0  0  1  0  0  0  0  0  0  0  0  0
    3.6452    0.9773   -0.1489 H   0  0  0  0  0  0  0  0  0  0  0  0
    1.6136    1.0485   -0.8331 C   0  0  0  0  0  0  0  0  0  0  0  0
    1.7158    1.8969   -1.5108 H   0  0  0  0  0  0  0  0  0  0  0  0
    0.6283    1.1375   -0.3761 H   0  0  0  0  0  0  0  0  0  0  0  0
    1.6030   -0.4793   -1.8173 S   0  0  0  0  0  0  0  0  0  0  0  0
    2.6959    2.5969    0.8827 C   0  0  0  0  0  0  0  0  0  0  0  0
    2.6159    3.5852    0.1532 O   0  0  0  0  0  0  0  0  0  0  0  0
    2.8063    2.6963    2.2141 N   0  0  0  0  0  0  0  0  0  0  0  0
    2.8644    1.8462    2.7514 H   0  0  0  0  0  0  0  0  0  0  0  0
    2.8526    3.9687    2.9315 C   0  0  0  0  0  0  0  0  0  0  0  0
    3.7349    4.5328    2.6218 H   0  0  0  0  0  0  0  0  0  0  0  0
    1.9650    4.5585    2.6953 H   0  0  0  0  0  0  0  0  0  0  0  0
    2.8945    3.7960    4.0076 H   0  0  0  0  0  0  0  0  0  0  0  0
    4.6223    3.6211   -8.1335 H   0  0  0  0  0  0  0  0  0  0  0  0
    3.6837    3.4410   -7.6115 C   0  0  0  0  0  0  0  0  0  0  0  0
    2.8710    3.3662   -8.3324 H   0  0  0  0  0  0  0  0  0  0  0  0
    3.4887    4.2570   -6.9183 H   0  0  0  0  0  0  0  0  0  0  0  0
    3.7913    2.1454   -6.8420 C   0  0  0  0  0  0  0  0  0  0  0  0
    4.8275    1.4953   -6.8679 O   0  0  0  0  0  0  0  0  0  0  0  0
    2.7177    1.7760   -6.1486 N   0  0  0  0  0  0  0  0  0  0  0  0
    1.8927    2.3571   -6.1816 H   0  0  0  0  0  0  0  0  0  0  0  0
    2.6307    0.5609   -5.3387 C   0  0  1  0  0  0  0  0  0  0  0  0
    3.1742   -0.2413   -5.8411 H   0  0  0  0  0  0  0  0  0  0  0  0
    3.3140    0.8370   -3.9920 C   0  0  0  0  0  0  0  0  0  0  0  0
    4.3427    1.1345   -4.2006 H   0  0  0  0  0  0  0  0  0  0  0  0
    2.8241    1.6864   -3.5156 H   0  0  0  0  0  0  0  0  0  0  0  0
    3.3921   -0.5266   -2.7998 S   0  0  0  0  0  0  0  0  0  0  0  0
    1.1641    0.1218   -5.1822 C   0  0  0  0  0  0  0  0  0  0  0  0
    0.2669    0.9658   -5.1789 O   0  0  0  0  0  0  0  0  0  0  0  0
    0.9225   -1.1899   -5.0619 N   0  0  0  0  0  0  0  0  0  0  0  0
    1.7138   -1.8133   -5.0401 H   0  0  0  0  0  0  0  0  0  0  0  0
   -0.4100   -1.7693   -4.8970 C   0  0  0  0  0  0  0  0  0  0  0  0
   -0.7691   -1.5837   -3.8833 H   0  0  0  0  0  0  0  0  0  0  0  0
   -1.1068   -1.3108   -5.6028 H   0  0  0  0  0  0  0  0  0  0  0  0
   -0.3783   -2.8443   -5.0755 H   0  0  0  0  0  0  0  0  0  0  0  0
  5  6  2  0  0  0  0
  5  7  1  0  0  0  0
  2  3  1  0  0  0  0
  2  4  1  0  0  0  0
  2  5  1  0  0  0  0
  1  2  1  0  0  0  0
 15 16  2  0  0  0  0
 15 17  1  0  0  0  0
 14 36  1  0  0  0  0
 11 12  1  0  0  0  0
 11 13  1  0  0  0  0
 11 14  1  0  0  0  0
  9 10  1  0  0  0  0
  9 11  1  0  0  0  0
  9 15  1  0  0  0  0
  7  8  1  0  0  0  0
  7  9  1  0  0  0  0
 19 20  1  0  0  0  0
 19 21  1  0  0  0  0
 19 22  1  0  0  0  0
 17 18  1  0  0  0  0
 17 19  1  0  0  0  0
 27 28  2  0  0  0  0
 27 29  1  0  0  0  0
 24 25  1  0  0  0  0
 24 26  1  0  0  0  0
 24 27  1  0  0  0  0
 23 24  1  0  0  0  0
 37 38  2  0  0  0  0
 37 39  1  0  0  0  0
 33 34  1  0  0  0  0
 33 35  1  0  0  0  0
 33 36  1  0  0  0  0
 31 32  1  0  0  0  0
 31 33  1  0  0  0  0
 31 37  1  0  0  0  0
 29 30  1  0  0  0  0
 29 31  1  0  0  0  0
 41 42  1  0  0  0  0
 41 43  1  0  0  0  0
 41 44  1  0  0  0  0
 39 40  1  0  0  0  0
 39 41  1  0  0  0  0
M  END
$$$$
default_name
  -OEChem-01062215323D

 44 43  0     1  0  0  0  0  0999 V2000
    2.4488   -3.0448    2.0990 H   0  0  0  0  0  0  0  0  0  0  0  0
    2.2788   -2.0018    2.3640 C   0  0  0  0  0  0  0  0  0  0  0  0
    2.9228   -1.7258    3.1960 H   0  0  0  0  0  0  0  0  0  0  0  0
    1.2358   -1.8618    2.6430 H   0  0  0  0  0  0  0  0  0  0  0  0
    2.6018   -1.1318    1.1730 C   0  0  0  0  0  0  0  0  0  0  0  0
    3.0048   -1.6348    0.1320 O   0  0  0  0  0  0  0  0  0  0  0  0
    2.4088    0.1752    1.3190 N   0  0  0  0  0  0  0  0  0  0  0  0
    2.0708    0.5242    2.2050 H   0  0  0  0  0  0  0  0  0  0  0  0
    2.6638    1.1782    0.2840 C   0  0  1  0  0  0  0  0  0  0  0  0
    3.6452    0.9773   -0.1489 H   0  0  0  0  0  0  0  0  0  0  0  0
    1.6136    1.0485   -0.8331 C   0  0  0  0  0  0  0  0  0  0  0  0
    1.7158    1.8969   -1.5108 H   0  0  0  0  0  0  0  0  0  0  0  0
    0.6283    1.1375   -0.3761 H   0  0  0  0  0  0  0  0  0  0  0  0
    1.6030   -0.4793   -1.8173 S   0  0  0  0  0  0  0  0  0  0  0  0
    2.6959    2.5969    0.8827 C   0  0  0  0  0  0  0  0  0  0  0  0
    2.3458    3.5670    0.2107 O   0  0  0  0  0  0  0  0  0  0  0  0
    3.1104    2.7160    2.1511 N   0  0  0  0  0  0  0  0  0  0  0  0
    3.3798    1.8799    2.6440 H   0  0  0  0  0  0  0  0  0  0  0  0
    3.1991    3.9914    2.8590 C   0  0  0  0  0  0  0  0  0  0  0  0
    3.9211    4.6399    2.3581 H   0  0  0  0  0  0  0  0  0  0  0  0
    2.2265    4.4867    2.8514 H   0  0  0  0  0  0  0  0  0  0  0  0
    3.5137    3.8312    3.8910 H   0  0  0  0  0  0  0  0  0  0  0  0
    4.6223    3.6211   -8.1335 H   0  0  0  0  0  0  0  0  0  0  0  0
    3.6837    3.4410   -7.6115 C   0  0  0  0  0  0  0  0  0  0  0  0
    2.8710    3.3662   -8.3324 H   0  0  0  0  0  0  0  0  0  0  0  0
    3.4887    4.2570   -6.9183 H   0  0  0  0  0  0  0  0  0  0  0  0
    3.7913    2.1454   -6.8420 C   0  0  0  0  0  0  0  0  0  0  0  0
    4.8275    1.4953   -6.8679 O   0  0  0  0  0  0  0  0  0  0  0  0
    2.7177    1.7760   -6.1486 N   0  0  0  0  0  0  0  0  0  0  0  0
    1.8927    2.3571   -6.1816 H   0  0  0  0  0  0  0  0  0  0  0  0
    2.6307    0.5609   -5.3387 C   0  0  1  0  0  0  0  0  0  0  0  0
    3.1742   -0.2413   -5.8411 H   0  0  0  0  0  0  0  0  0  0  0  0
    3.3140    0.8370   -3.9920 C   0  0  0  0  0  0  0  0  0  0  0  0
    4.3427    1.1345   -4.2006 H   0  0  0  0  0  0  0  0  0  0  0  0
    2.8241    1.6864   -3.5156 H   0  0  0  0  0  0  0  0  0  0  0  0
    3.3921   -0.5266   -2.7998 S   0  0  0  0  0  0  0  0  0  0  0  0
    1.1641    0.1218   -5.1822 C   0  0  0  0  0  0  0  0  0  0  0  0
    0.2669    0.9658   -5.1789 O   0  0  0  0  0  0  0  0  0  0  0  0
    0.9225   -1.1899   -5.0619 N   0  0  0  0  0  0  0  0  0  0  0  0
    1.7138   -1.8133   -5.0401 H   0  0  0  0  0  0  0  0  0  0  0  0
   -0.4100   -1.7693   -4.8970 C   0  0  0  0  0  0  0  0  0  0  0  0
   -0.7691   -1.5837   -3.8833 H   0  0  0  0  0  0  0  0  0  0  0  0
   -1.1068   -1.3108   -5.6028 H   0  0  0  0  0  0  0  0  0  0  0  0
   -0.3783   -2.8443   -5.0755 H   0  0  0  0  0  0  0  0  0  0  0  0
  5  6  2  0  0  0  0
  5  7  1  0  0  0  0
  2  3  1  0  0  0  0
  2  4  1  0  0  0  0
  2  5  1  0  0  0  0
  1  2  1  0  0  0  0
 15 16  2  0  0  0  0
 15 17  1  0  0  0  0
 14 36  1  0  0  0  0
 11 12  1  0  0  0  0
 11 13  1  0  0  0  0
 11 14  1  0  0  0  0
  9 10  1  0  0  0  0
  9 11  1  0  0  0  0
  9 15  1  0  0  0  0
  7  8  1  0  0  0  0
  7  9  1  0  0  0  0
 19 20  1  0  0  0  0
 19 21  1  0  0  0  0
 19 22  1  0  0  0  0
 17 18  1  0  0  0  0
 17 19  1  0  0  0  0
 27 28  2  0  0  0  0
 27 29  1  0  0  0  0
 24 25  1  0  0  0  0
 24 26  1  0  0  0  0
 24 27  1  0  0  0  0
 23 24  1  0  0  0  0
 37 38  2  0  0  0  0
 37 39  1  0  0  0  0
 33 34  1  0  0  0  0
 33 35  1  0  0  0  0
 33 36  1  0  0  0  0
 31 32  1  0  0  0  0
 31 33  1  0  0  0  0
 31 37  1  0  0  0  0
 29 30  1  0  0  0  0
 29 31  1  0  0  0  0
 41 42  1  0  0  0  0
 41 43  1  0  0  0  0
 41 44  1  0  0  0  0
 39 40  1  0  0  0  0
 39 41  1  0  0  0  0
M  END
$$$$
default_name
  -OEChem-01062215323D

 44 43  0     1  0  0  0  0  0999 V2000
    2.4488   -3.0448    2.0990 H   0  0  0  0  0  0  0  0  0  0  0  0
    2.2788   -2.0018    2.3640 C   0  0  0  0  0  0  0  0  0  0  0  0
    2.9228   -1.7258    3.1960 H   0  0  0  0  0  0  0  0  0  0  0  0
    1.2358   -1.8618    2.6430 H   0  0  0  0  0  0  0  0  0  0  0  0
    2.6018   -1.1318    1.1730 C   0  0  0  0  0  0  0  0  0  0  0  0
    3.0048   -1.6348    0.1320 O   0  0  0  0  0  0  0  0  0  0  0  0
    2.4088    0.1752    1.3190 N   0  0  0  0  0  0  0  0  0  0  0  0
    2.0708    0.5242    2.2050 H   0  0  0  0  0  0  0  0  0  0  0  0
    2.6638    1.1782    0.2840 C   0  0  1  0  0  0  0  0  0  0  0  0
    3.6452    0.9773   -0.1489 H   0  0  0  0  0  0  0  0  0  0  0  0
    1.6136    1.0485   -0.8331 C   0  0  0  0  0  0  0  0  0  0  0  0
    1.7158    1.8969   -1.5108 H   0  0  0  0  0  0  0  0  0  0  0  0
    0.6283    1.1375   -0.3761 H   0  0  0  0  0  0  0  0  0  0  0  0
    1.6030   -0.4793   -1.8173 S   0  0  0  0  0  0  0  0  0  0  0  0
    2.6959    2.5969    0.8827 C   0  0  0  0  0  0  0  0  0  0  0  0
    2.1004    3.5220    0.3306 O   0  0  0  0  0  0  0  0  0  0  0  0
    3.3871    2.7660    2.0177 N   0  0  0  0  0  0  0  0  0  0  0  0
    3.8485    1.9649    2.4176 H   0  0  0  0  0  0  0  0  0  0  0  0
    3.5143    4.0487    2.7065 C   0  0  0  0  0  0  0  0  0  0  0  0
    4.0274    4.7634    2.0596 H   0  0  0  0  0  0  0  0  0  0  0  0
    2.5235    4.4428    2.9395 H   0  0  0  0  0  0  0  0  0  0  0  0
    4.0805    3.9281    3.6310 H   0  0  0  0  0  0  0  0  0  0  0  0
    4.6223    3.6211   -8.1335 H   0  0  0  0  0  0  0  0  0  0  0  0
    3.6837    3.4410   -7.6115 C   0  0  0  0  0  0  0  0  0  0  0  0
    2.8710    3.3662   -8.3324 H   0  0  0  0  0  0  0  0  0  0  0  0
    3.4887    4.2570   -6.9183 H   0  0  0  0  0  0  0  0  0  0  0  0
    3.7913    2.1454   -6.8420 C   0  0  0  0  0  0  0  0  0  0  0  0
    4.8275    1.4953   -6.8679 O   0  0  0  0  0  0  0  0  0  0  0  0
    2.7177    1.7760   -6.1486 N   0  0  0  0  0  0  0  0  0  0  0  0
    1.8927    2.3571   -6.1816 H   0  0  0  0  0  0  0  0  0  0  0  0
    2.6307    0.5609   -5.3387 C   0  0  1  0  0  0  0  0  0  0  0  0
    3.1742   -0.2413   -5.8411 H   0  0  0  0  0  0  0  0  0  0  0  0
    3.3140    0.8370   -3.9920 C   0  0  0  0  0  0  0  0  0  0  0  0
    4.3427    1.1345   -4.2006 H   0  0  0  0  0  0  0  0  0  0  0  0
    2.8241    1.6864   -3.5156 H   0  0  0  0  0  0  0  0  0  0  0  0
    3.3921   -0.5266   -2.7998 S   0  0  0  0  0  0  0  0  0  0  0  0
    1.1641    0.1218   -5.1822 C   0  0  0  0  0  0  0  0  0  0  0  0
    0.2669    0.9658   -5.1789 O   0  0  0  0  0  0  0  0  0  0  0  0
    0.9225   -1.1899   -5.0619 N   0  0  0  0  0  0  0  0  0  0  0  0
    1.7138   -1.8133   -5.0401 H   0  0  0  0  0  0  0  0  0  0  0  0
   -0.4100   -1.7693   -4.8970 C   0  0  0  0  0  0  0  0  0  0  0  0
   -0.7691   -1.5837   -3.8833 H   0  0  0  0  0  0  0  0  0  0  0  0
   -1.1068   -1.3108   -5.6028 H   0  0  0  0  0  0  0  0  0  0  0  0
   -0.3783   -2.8443   -5.0755 H   0  0  0  0  0  0  0  0  0  0  0  0
  5  6  2  0  0  0  0
  5  7  1  0  0  0  0
  2  3  1  0  0  0  0
  2  4  1  0  0  0  0
  2  5  1  0  0  0  0
  1  2  1  0  0  0  0
 15 16  2  0  0  0  0
 15 17  1  0  0  0  0
 14 36  1  0  0  0  0
 11 12  1  0  0  0  0
 11 13  1  0  0  0  0
 11 14  1  0  0  0  0
  9 10  1  0  0  0  0
  9 11  1  0  0  0  0
  9 15  1  0  0  0  0
  7  8  1  0  0  0  0
  7  9  1  0  0  0  0
 19 20  1  0  0  0  0
 19 21  1  0  0  0  0
 19 22  1  0  0  0  0
 17 18  1  0  0  0  0
 17 19  1  0  0  0  0
 27 28  2  0  0  0  0
 27 29  1  0  0  0  0
 24 25  1  0  0  0  0
 24 26  1  0  0  0  0
 24 27  1  0  0  0  0
 23 24  1  0  0  0  0
 37 38  2  0  0  0  0
 37 39  1  0  0  0  0
 33 34  1  0  0  0  0
 33 35  1  0  0  0  0
 33 36  1  0  0  0  0
 31 32  1  0  0  0  0
 31 33  1  0  0  0  0
 31 37  1  0  0  0  0
 29 30  1  0  0  0  0
 29 31  1  0  0  0  0
 41 42  1  0  0  0  0
 41 43  1  0  0  0  0
 41 44  1  0  0  0  0
 39 40  1  0  0  0  0
 39 41  1  0  0  0  0
M  END
$$$$
default_name
  -OEChem-01062215323D

 44 43  0     1  0  0  0  0  0999 V2000
    2.4488   -3.0448    2.0990 H   0  0  0  0  0  0  0  0  0  0  0  0
    2.2788   -2.0018    2.3640 C   0  0  0  0  0  0  0  0  0  0  0  0
    2.9228   -1.7258    3.1960 H   0  0  0  0  0  0  0  0  0  0  0  0
    1.2358   -1.8618    2.6430 H   0  0  0  0  0  0  0  0  0  0  0  0
    2.6018   -1.1318    1.1730 C   0  0  0  0  0  0  0  0  0  0  0  0
    3.0048   -1.6348    0.1320 O   0  0  0  0  0  0  0  0  0  0  0  0
    2.4088    0.1752    1.3190 N   0  0  0  0  0  0  0  0  0  0  0  0
    2.0708    0.5242    2.2050 H   0  0  0  0  0  0  0  0  0  0  0  0
    2.6638    1.1782    0.2840 C   0  0  1  0  0  0  0  0  0  0  0  0
    3.6452    0.9773   -0.1489 H   0  0  0  0  0  0  0  0  0  0  0  0
    1.6136    1.0485   -0.8331 C   0  0  0  0  0  0  0  0  0  0  0  0
    1.7158    1.8969   -1.5108 H   0  0  0  0  0  0  0  0  0  0  0  0
    0.6283    1.1375   -0.3761 H   0  0  0  0  0  0  0  0  0  0  0  0
    1.6030   -0.4793   -1.8173 S   0  0  0  0  0  0  0  0  0  0  0  0
    2.6959    2.5969    0.8827 C   0  0  0  0  0  0  0  0  0  0  0  0
    1.8964    3.4531    0.5047 O   0  0  0  0  0  0  0  0  0  0  0  0
    3.6176    2.8429    1.8233 N   0  0  0  0  0  0  0  0  0  0  0  0
    4.2388    2.0953    2.0876 H   0  0  0  0  0  0  0  0  0  0  0  0
    3.7767    4.1365    2.4844 C   0  0  0  0  0  0  0  0  0  0  0  0
    4.0464    4.8951    1.7466 H   0  0  0  0  0  0  0  0  0  0  0  0
    2.8357    4.4298    2.9535 H   0  0  0  0  0  0  0  0  0  0  0  0
    4.5563    4.0802    3.2451 H   0  0  0  0  0  0  0  0  0  0  0  0
    4.6223    3.6211   -8.1335 H   0  0  0  0  0  0  0  0  0  0  0  0
    3.6837    3.4410   -7.6115 C   0  0  0  0  0  0  0  0  0  0  0  0
    2.8710    3.3662   -8.3324 H   0  0  0  0  0  0  0  0  0  0  0  0
    3.4887    4.2570   -6.9183 H   0  0  0  0  0  0  0  0  0  0  0  0
    3.7913    2.1454   -6.8420 C   0  0  0  0  0  0  0  0  0  0  0  0
    4.8275    1.4953   -6.8679 O   0  0  0  0  0  0  0  0  0  0  0  0
    2.7177    1.7760   -6.1486 N   0  0  0  0  0  0  0  0  0  0  0  0
    1.8927    2.3571   -6.1816 H   0  0  0  0  0  0  0  0  0  0  0  0
    2.6307    0.5609   -5.3387 C   0  0  1  0  0  0  0  0  0  0  0  0
    3.1742   -0.2413   -5.8411 H   0  0  0  0  0  0  0  0  0  0  0  0
    3.3140    0.8370   -3.9920 C   0  0  0  0  0  0  0  0  0  0  0  0
    4.3427    1.1345   -4.2006 H   0  0  0  0  0  0  0  0  0  0  0  0
    2.8241    1.6864   -3.5156 H   0  0  0  0  0  0  0  0  0  0  0  0
    3.3921   -0.5266   -2.7998 S   0  0  0  0  0  0  0  0  0  0  0  0
    1.1641    0.1218   -5.1822 C   0  0  0  0  0  0  0  0  0  0  0  0
    0.2669    0.9658   -5.1789 O   0  0  0  0  0  0  0  0  0  0  0  0
    0.9225   -1.1899   -5.0619 N   0  0  0  0  0  0  0  0  0  0  0  0
    1.7138   -1.8133   -5.0401 H   0  0  0  0  0  0  0  0  0  0  0  0
   -0.4100   -1.7693   -4.8970 C   0  0  0  0  0  0  0  0  0  0  0  0
   -0.7691   -1.5837   -3.8833 H   0  0  0  0  0  0  0  0  0  0  0  0
   -1.1068   -1.3108   -5.6028 H   0  0  0  0  0  0  0  0  0  0  0  0
   -0.3783   -2.8443   -5.0755 H   0  0  0  0  0  0  0  0  0  0  0  0
  5  6  2  0  0  0  0
  5  7  1  0  0  0  0
  2  3  1  0  0  0  0
  2  4  1  0  0  0  0
  2  5  1  0  0  0  0
  1  2  1  0  0  0  0
 15 16  2  0  0  0  0
 15 17  1  0  0  0  0
 14 36  1  0  0  0  0
 11 12  1  0  0  0  0
 11 13  1  0  0  0  0
 11 14  1  0  0  0  0
  9 10  1  0  0  0  0
  9 11  1  0  0  0  0
  9 15  1  0  0  0  0
  7  8  1  0  0  0  0
  7  9  1  0  0  0  0
 19 20  1  0  0  0  0
 19 21  1  0  0  0  0
 19 22  1  0  0  0  0
 17 18  1  0  0  0  0
 17 19  1  0  0  0  0
 27 28  2  0  0  0  0
 27 29  1  0  0  0  0
 24 25  1  0  0  0  0
 24 26  1  0  0  0  0
 24 27  1  0  0  0  0
 23 24  1  0  0  0  0
 37 38  2  0  0  0  0
 37 39  1  0  0  0  0
 33 34  1  0  0  0  0
 33 35  1  0  0  0  0
 33 36  1  0  0  0  0
 31 32  1  0  0  0  0
 31 33  1  0  0  0  0
 31 37  1  0  0  0  0
 29 30  1  0  0  0  0
 29 31  1  0  0  0  0
 41 42  1  0  0  0  0
 41 43  1  0  0  0  0
 41 44  1  0  0  0  0
 39 40  1  0  0  0  0
 39 41  1  0  0  0  0
M  END
$$$$
default_name
  -OEChem-01062215323D

 44 43  0     1  0  0  0  0  0999 V2000
    2.4488   -3.0448    2.0990 H   0  0  0  0  0  0  0  0  0  0  0  0
    2.2788   -2.0018    2.3640 C   0  0  0  0  0  0  0  0  0  0  0  0
    2.9228   -1.7258    3.1960 H   0  0  0  0  0  0  0  0  0  0  0  0
    1.2358   -1.8618    2.6430 H   0  0  0  0  0  0  0  0  0  0  0  0
    2.6018   -1.1318    1.1730 C   0  0  0  0  0  0  0  0  0  0  0  0
    3.0048   -1.6348    0.1320 O   0  0  0  0  0  0  0  0  0  0  0  0
    2.4088    0.1752    1.3190 N   0  0  0  0  0  0  0  0  0  0  0  0
    2.0708    0.5242    2.2050 H   0  0  0  0  0  0  0  0  0  0  0  0
    2.6638    1.1782    0.2840 C   0  0  1  0  0  0  0  0  0  0  0  0
    3.6452    0.9773   -0.1489 H   0  0  0  0  0  0  0  0  0  0  0  0
    1.6136    1.0485   -0.8331 C   0  0  0  0  0  0  0  0  0  0  0  0
    1.7158    1.8969   -1.5108 H   0  0  0  0  0  0  0  0  0  0  0  0
    0.6283    1.1375   -0.3761 H   0  0  0  0  0  0  0  0  0  0  0  0
    1.6030   -0.4793   -1.8173 S   0  0  0  0  0  0  0  0  0  0  0  0
    2.6959    2.5969    0.8827 C   0  0  0  0  0  0  0  0  0  0  0  0
    1.7478    3.3652    0.7210 O   0  0  0  0  0  0  0  0  0  0  0  0
    3.7861    2.9413    1.5809 N   0  0  0  0  0  0  0  0  0  0  0  0
    4.5240    2.2623    1.6765 H   0  0  0  0  0  0  0  0  0  0  0  0
    3.9683    4.2489    2.2078 C   0  0  0  0  0  0  0  0  0  0  0  0
    3.9768    5.0259    1.4404 H   0  0  0  0  0  0  0  0  0  0  0  0
    3.1420    4.4487    2.8926 H   0  0  0  0  0  0  0  0  0  0  0  0
    4.9085    4.2770    2.7599 H   0  0  0  0  0  0  0  0  0  0  0  0
    4.6223    3.6211   -8.1335 H   0  0  0  0  0  0  0  0  0  0  0  0
    3.6837    3.4410   -7.6115 C   0  0  0  0  0  0  0  0  0  0  0  0
    2.8710    3.3662   -8.3324 H   0  0  0  0  0  0  0  0  0  0  0  0
    3.4887    4.2570   -6.9183 H   0  0  0  0  0  0  0  0  0  0  0  0
    3.7913    2.1454   -6.8420 C   0  0  0  0  0  0  0  0  0  0  0  0
    4.8275    1.4953   -6.8679 O   0  0  0  0  0  0  0  0  0  0  0  0
    2.7177    1.7760   -6.1486 N   0  0  0  0  0  0  0  0  0  0  0  0
    1.8927    2.3571   -6.1816 H   0  0  0  0  0  0  0  0  0  0  0  0
    2.6307    0.5609   -5.3387 C   0  0  1  0  0  0  0  0  0  0  0  0
    3.1742   -0.2413   -5.8411 H   0  0  0  0  0  0  0  0  0  0  0  0
    3.3140    0.8370   -3.9920 C   0  0  0  0  0  0  0  0  0  0  0  0
    4.3427    1.1345   -4.2006 H   0  0  0  0  0  0  0  0  0  0  0  0
    2.8241    1.6864   -3.5156 H   0  0  0  0  0  0  0  0  0  0  0  0
    3.3921   -0.5266   -2.7998 S   0  0  0  0  0  0  0  0  0  0  0  0
    1.1641    0.1218   -5.1822 C   0  0  0  0  0  0  0  0  0  0  0  0
    0.2669    0.9658   -5.1789 O   0  0  0  0  0  0  0  0  0  0  0  0
    0.9225   -1.1899   -5.0619 N   0  0  0  0  0  0  0  0  0  0  0  0
    1.7138   -1.8133   -5.0401 H   0  0  0  0  0  0  0  0  0  0  0  0
   -0.4100   -1.7693   -4.8970 C   0  0  0  0  0  0  0  0  0  0  0  0
   -0.7691   -1.5837   -3.8833 H   0  0  0  0  0  0  0  0  0  0  0  0
   -1.1068   -1.3108   -5.6028 H   0  0  0  0  0  0  0  0  0  0  0  0
   -0.3783   -2.8443   -5.0755 H   0  0  0  0  0  0  0  0  0  0  0  0
  5  6  2  0  0  0  0
  5  7  1  0  0  0  0
  2  3  1  0  0  0  0
  2  4  1  0  0  0  0
  2  5  1  0  0  0  0
  1  2  1  0  0  0  0
 15 16  2  0  0  0  0
 15 17  1  0  0  0  0
 14 36  1  0  0  0  0
 11 12  1  0  0  0  0
 11 13  1  0  0  0  0
 11 14  1  0  0  0  0
  9 10  1  0  0  0  0
  9 11  1  0  0  0  0
  9 15  1  0  0  0  0
  7  8  1  0  0  0  0
  7  9  1  0  0  0  0
 19 20  1  0  0  0  0
 19 21  1  0  0  0  0
 19 22  1  0  0  0  0
 17 18  1  0  0  0  0
 17 19  1  0  0  0  0
 27 28  2  0  0  0  0
 27 29  1  0  0  0  0
 24 25  1  0  0  0  0
 24 26  1  0  0  0  0
 24 27  1  0  0  0  0
 23 24  1  0  0  0  0
 37 38  2  0  0  0  0
 37 39  1  0  0  0  0
 33 34  1  0  0  0  0
 33 35  1  0  0  0  0
 33 36  1  0  0  0  0
 31 32  1  0  0  0  0
 31 33  1  0  0  0  0
 31 37  1  0  0  0  0
 29 30  1  0  0  0  0
 29 31  1  0  0  0  0
 41 42  1  0  0  0  0
 41 43  1  0  0  0  0
 41 44  1  0  0  0  0
 39 40  1  0  0  0  0
 39 41  1  0  0  0  0
M  END
$$$$
default_name
  -OEChem-01062215323D

 44 43  0     1  0  0  0  0  0999 V2000
    2.4488   -3.0448    2.0990 H   0  0  0  0  0  0  0  0  0  0  0  0
    2.2788   -2.0018    2.3640 C   0  0  0  0  0  0  0  0  0  0  0  0
    2.9228   -1.7258    3.1960 H   0  0  0  0  0  0  0  0  0  0  0  0
    1.2358   -1.8618    2.6430 H   0  0  0  0  0  0  0  0  0  0  0  0
    2.6018   -1.1318    1.1730 C   0  0  0  0  0  0  0  0  0  0  0  0
    3.0048   -1.6348    0.1320 O   0  0  0  0  0  0  0  0  0  0  0  0
    2.4088    0.1752    1.3190 N   0  0  0  0  0  0  0  0  0  0  0  0
    2.0708    0.5242    2.2050 H   0  0  0  0  0  0  0  0  0  0  0  0
    2.6638    1.1782    0.2840 C   0  0  1  0  0  0  0  0  0  0  0  0
    3.6452    0.9773   -0.1489 H   0  0  0  0  0  0  0  0  0  0  0  0
    1.6136    1.0485   -0.8331 C   0  0  0  0  0  0  0  0  0  0  0  0
    1.7158    1.8969   -1.5108 H   0  0  0  0  0  0  0  0  0  0  0  0
    0.6283    1.1375   -0.3761 H   0  0  0  0  0  0  0  0  0  0  0  0
    1.6030   -0.4793   -1.8173 S   0  0  0  0  0  0  0  0  0  0  0  0
    2.6959    2.5969    0.8827 C   0  0  0  0  0  0  0  0  0  0  0  0
    1.6647    3.2641    0.9650 O   0  0  0  0  0  0  0  0  0  0  0  0
    3.8812    3.0547    1.3071 N   0  0  0  0  0  0  0  0  0  0  0  0
    4.6847    2.4546    1.2123 H   0  0  0  0  0  0  0  0  0  0  0  0
    4.0761    4.3782    1.8955 C   0  0  0  0  0  0  0  0  0  0  0  0
    3.8236    5.1468    1.1620 H   0  0  0  0  0  0  0  0  0  0  0  0
    3.4215    4.4980    2.7607 H   0  0  0  0  0  0  0  0  0  0  0  0
    5.1133    4.5052    2.2082 H   0  0  0  0  0  0  0  0  0  0  0  0
    4.6223    3.6211   -8.1335 H   0  0  0  0  0  0  0  0  0  0  0  0
    3.6837    3.4410   -7.6115 C   0  0  0  0  0  0  0  0  0  0  0  0
    2.8710    3.3662   -8.3324 H   0  0  0  0  0  0  0  0  0  0  0  0
    3.4887    4.2570   -6.9183 H   0  0  0  0  0  0  0  0  0  0  0  0
    3.7913    2.1454   -6.8420 C   0  0  0  0  0  0  0  0  0  0  0  0
    4.8275    1.4953   -6.8679 O   0  0  0  0  0  0  0  0  0  0  0  0
    2.7177    1.7760   -6.1486 N   0  0  0  0  0  0  0  0  0  0  0  0
    1.8927    2.3571   -6.1816 H   0  0  0  0  0  0  0  0  0  0  0  0
    2.6307    0.5609   -5.3387 C   0  0  1  0  0  0  0  0  0  0  0  0
    3.1742   -0.2413   -5.8411 H   0  0  0  0  0  0  0  0  0  0  0  0
    3.3140    0.8370   -3.9920 C   0  0  0  0  0  0  0  0  0  0  0  0
    4.3427    1.1345   -4.2006 H   0  0  0  0  0  0  0  0  0  0  0  0
    2.8241    1.6864   -3.5156 H   0  0  0  0  0  0  0  0  0  0  0  0
    3.3921   -0.5266   -2.7998 S   0  0  0  0  0  0  0  0  0  0  0  0
    1.1641    0.1218   -5.1822 C   0  0  0  0  0  0  0  0  0  0  0  0
    0.2669    0.9658   -5.1789 O   0  0  0  0  0  0  0  0  0  0  0  0
    0.9225   -1.1899   -5.0619 N   0  0  0  0  0  0  0  0  0  0  0  0
    1.7138   -1.8133   -5.0401 H   0  0  0  0  0  0  0  0  0  0  0  0
   -0.4100   -1.7693   -4.8970 C   0  0  0  0  0  0  0  0  0  0  0  0
   -0.7691   -1.5837   -3.8833 H   0  0  0  0  0  0  0  0  0  0  0  0
   -1.1068   -1.3108   -5.6028 H   0  0  0  0  0  0  0  0  0  0  0  0
   -0.3783   -2.8443   -5.0755 H   0  0  0  0  0  0  0  0  0  0  0  0
  5  6  2  0  0  0  0
  5  7  1  0  0  0  0
  2  3  1  0  0  0  0
  2  4  1  0  0  0  0
  2  5  1  0  0  0  0
  1  2  1  0  0  0  0
 15 16  2  0  0  0  0
 15 17  1  0  0  0  0
 14 36  1  0  0  0  0
 11 12  1  0  0  0  0
 11 13  1  0  0  0  0
 11 14  1  0  0  0  0
  9 10  1  0  0  0  0
  9 11  1  0  0  0  0
  9 15  1  0  0  0  0
  7  8  1  0  0  0  0
  7  9  1  0  0  0  0
 19 20  1  0  0  0  0
 19 21  1  0  0  0  0
 19 22  1  0  0  0  0
 17 18  1  0  0  0  0
 17 19  1  0  0  0  0
 27 28  2  0  0  0  0
 27 29  1  0  0  0  0
 24 25  1  0  0  0  0
 24 26  1  0  0  0  0
 24 27  1  0  0  0  0
 23 24  1  0  0  0  0
 37 38  2  0  0  0  0
 37 39  1  0  0  0  0
 33 34  1  0  0  0  0
 33 35  1  0  0  0  0
 33 36  1  0  0  0  0
 31 32  1  0  0  0  0
 31 33  1  0  0  0  0
 31 37  1  0  0  0  0
 29 30  1  0  0  0  0
 29 31  1  0  0  0  0
 41 42  1  0  0  0  0
 41 43  1  0  0  0  0
 41 44  1  0  0  0  0
 39 40  1  0  0  0  0
 39 41  1  0  0  0  0
M  END
$$$$
default_name
  -OEChem-01062215323D

 44 43  0     1  0  0  0  0  0999 V2000
    2.4488   -3.0448    2.0990 H   0  0  0  0  0  0  0  0  0  0  0  0
    2.2788   -2.0018    2.3640 C   0  0  0  0  0  0  0  0  0  0  0  0
    2.9228   -1.7258    3.1960 H   0  0  0  0  0  0  0  0  0  0  0  0
    1.2358   -1.8618    2.6430 H   0  0  0  0  0  0  0  0  0  0  0  0
    2.6018   -1.1318    1.1730 C   0  0  0  0  0  0  0  0  0  0  0  0
    3.0048   -1.6348    0.1320 O   0  0  0  0  0  0  0  0  0  0  0  0
    2.4088    0.1752    1.3190 N   0  0  0  0  0  0  0  0  0  0  0  0
    2.0708    0.5242    2.2050 H   0  0  0  0  0  0  0  0  0  0  0  0
    2.6638    1.1782    0.2840 C   0  0  1  0  0  0  0  0  0  0  0  0
    3.6452    0.9773   -0.1489 H   0  0  0  0  0  0  0  0  0  0  0  0
    1.6136    1.0485   -0.8331 C   0  0  0  0  0  0  0  0  0  0  0  0
    1.7158    1.8969   -1.5108 H   0  0  0  0  0  0  0  0  0  0  0  0
    0.6283    1.1375   -0.3761 H   0  0  0  0  0  0  0  0  0  0  0  0
    1.6030   -0.4793   -1.8173 S   0  0  0  0  0  0  0  0  0  0  0  0
    2.6959    2.5969    0.8827 C   0  0  0  0  0  0  0  0  0  0  0  0
    1.6528    3.1568    1.2198 O   0  0  0  0  0  0  0  0  0  0  0  0
    3.8964    3.1753    1.0207 N   0  0  0  0  0  0  0  0  0  0  0  0
    4.7098    2.6590    0.7267 H   0  0  0  0  0  0  0  0  0  0  0  0
    4.0928    4.5157    1.5689 C   0  0  0  0  0  0  0  0  0  0  0  0
    3.5969    5.2498    0.9302 H   0  0  0  0  0  0  0  0  0  0  0  0
    3.6550    4.5744    2.5671 H   0  0  0  0  0  0  0  0  0  0  0  0
    5.1566    4.7492    1.6278 H   0  0  0  0  0  0  0  0  0  0  0  0
    4.6223    3.6211   -8.1335 H   0  0  0  0  0  0  0  0  0  0  0  0
    3.6837    3.4410   -7.6115 C   0  0  0  0  0  0  0  0  0  0  0  0
    2.8710    3.3662   -8.3324 H   0  0  0  0  0  0  0  0  0  0  0  0
    3.4887    4.2570   -6.9183 H   0  0  0  0  0  0  0  0  0  0  0  0
    3.7913    2.1454   -6.8420 C   0  0  0  0  0  0  0  0  0  0  0  0
    4.8275    1.4953   -6.8679 O   0  0  0  0  0  0  0  0  0  0  0  0
    2.7177    1.7760   -6.1486 N   0  0  0  0  0  0  0  0  0  0  0  0
    1.8927    2.3571   -6.1816 H   0  0  0  0  0  0  0  0  0  0  0  0
    2.6307    0.5609   -5.3387 C   0  0  1  0  0  0  0  0  0  0  0  0
    3.1742   -0.2413   -5.8411 H   0  0  0  0  0  0  0  0  0  0  0  0
    3.3140    0.8370   -3.9920 C   0  0  0  0  0  0  0  0  0  0  0  0
    4.3427    1.1345   -4.2006 H   0  0  0  0  0  0  0  0  0  0  0  0
    2.8241    1.6864   -3.5156 H   0  0  0  0  0  0  0  0  0  0  0  0
    3.3921   -0.5266   -2.7998 S   0  0  0  0  0  0  0  0  0  0  0  0
    1.1641    0.1218   -5.1822 C   0  0  0  0  0  0  0  0  0  0  0  0
    0.2669    0.9658   -5.1789 O   0  0  0  0  0  0  0  0  0  0  0  0
    0.9225   -1.1899   -5.0619 N   0  0  0  0  0  0  0  0  0  0  0  0
    1.7138   -1.8133   -5.0401 H   0  0  0  0  0  0  0  0  0  0  0  0
   -0.4100   -1.7693   -4.8970 C   0  0  0  0  0  0  0  0  0  0  0  0
   -0.7691   -1.5837   -3.8833 H   0  0  0  0  0  0  0  0  0  0  0  0
   -1.1068   -1.3108   -5.6028 H   0  0  0  0  0  0  0  0  0  0  0  0
   -0.3783   -2.8443   -5.0755 H   0  0  0  0  0  0  0  0  0  0  0  0
  5  6  2  0  0  0  0
  5  7  1  0  0  0  0
  2  3  1  0  0  0  0
  2  4  1  0  0  0  0
  2  5  1  0  0  0  0
  1  2  1  0  0  0  0
 15 16  2  0  0  0  0
 15 17  1  0  0  0  0
 14 36  1  0  0  0  0
 11 12  1  0  0  0  0
 11 13  1  0  0  0  0
 11 14  1  0  0  0  0
  9 10  1  0  0  0  0
  9 11  1  0  0  0  0
  9 15  1  0  0  0  0
  7  8  1  0  0  0  0
  7  9  1  0  0  0  0
 19 20  1  0  0  0  0
 19 21  1  0  0  0  0
 19 22  1  0  0  0  0
 17 18  1  0  0  0  0
 17 19  1  0  0  0  0
 27 28  2  0  0  0  0
 27 29  1  0  0  0  0
 24 25  1  0  0  0  0
 24 26  1  0  0  0  0
 24 27  1  0  0  0  0
 23 24  1  0  0  0  0
 37 38  2  0  0  0  0
 37 39  1  0  0  0  0
 33 34  1  0  0  0  0
 33 35  1  0  0  0  0
 33 36  1  0  0  0  0
 31 32  1  0  0  0  0
 31 33  1  0  0  0  0
 31 37  1  0  0  0  0
 29 30  1  0  0  0  0
 29 31  1  0  0  0  0
 41 42  1  0  0  0  0
 41 43  1  0  0  0  0
 41 44  1  0  0  0  0
 39 40  1  0  0  0  0
 39 41  1  0  0  0  0
M  END
$$$$
default_name
  -OEChem-01062215323D

 44 43  0     1  0  0  0  0  0999 V2000
    2.4488   -3.0448    2.0990 H   0  0  0  0  0  0  0  0  0  0  0  0
    2.2788   -2.0018    2.3640 C   0  0  0  0  0  0  0  0  0  0  0  0
    2.9228   -1.7258    3.1960 H   0  0  0  0  0  0  0  0  0  0  0  0
    1.2358   -1.8618    2.6430 H   0  0  0  0  0  0  0  0  0  0  0  0
    2.6018   -1.1318    1.1730 C   0  0  0  0  0  0  0  0  0  0  0  0
    3.0048   -1.6348    0.1320 O   0  0  0  0  0  0  0  0  0  0  0  0
    2.4088    0.1752    1.3190 N   0  0  0  0  0  0  0  0  0  0  0  0
    2.0708    0.5242    2.2050 H   0  0  0  0  0  0  0  0  0  0  0  0
    2.6638    1.1782    0.2840 C   0  0  1  0  0  0  0  0  0  0  0  0
    3.6452    0.9773   -0.1489 H   0  0  0  0  0  0  0  0  0  0  0  0
    1.6136    1.0485   -0.8331 C   0  0  0  0  0  0  0  0  0  0  0  0
    1.7158    1.8969   -1.5108 H   0  0  0  0  0  0  0  0  0  0  0  0
    0.6283    1.1375   -0.3761 H   0  0  0  0  0  0  0  0  0  0  0  0
    1.6030   -0.4793   -1.8173 S   0  0  0  0  0  0  0  0  0  0  0  0
    2.6959    2.5969    0.8827 C   0  0  0  0  0  0  0  0  0  0  0  0
    1.7128    3.0506    1.4683 O   0  0  0  0  0  0  0  0  0  0  0  0
    3.8306    3.2948    0.7410 N   0  0  0  0  0  0  0  0  0  0  0  0
    4.5978    2.8615    0.2527 H   0  0  0  0  0  0  0  0  0  0  0  0
    4.0172    4.6519    1.2501 C   0  0  0  0  0  0  0  0  0  0  0  0
    3.3124    5.3276    0.7609 H   0  0  0  0  0  0  0  0  0  0  0  0
    3.8267    4.6728    2.3247 H   0  0  0  0  0  0  0  0  0  0  0  0
    5.0355    4.9923    1.0581 H   0  0  0  0  0  0  0  0  0  0  0  0
    4.6223    3.6211   -8.1335 H   0  0  0  0  0  0  0  0  0  0  0  0
    3.6837    3.4410   -7.6115 C   0  0  0  0  0  0  0  0  0  0  0  0
    2.8710    3.3662   -8.3324 H   0  0  0  0  0  0  0  0  0  0  0  0
    3.4887    4.2570   -6.9183 H   0  0  0  0  0  0  0  0  0  0  0  0
    3.7913    2.1454   -6.8420 C   0  0  0  0  0  0  0  0  0  0  0  0
    4.8275    1.4953   -6.8679 O   0  0  0  0  0  0  0  0  0  0  0  0
    2.7177    1.7760   -6.1486 N   0  0  0  0  0  0  0  0  0  0  0  0
    1.8927    2.3571   -6.1816 H   0  0  0  0  0  0  0  0  0  0  0  0
    2.6307    0.5609   -5.3387 C   0  0  1  0  0  0  0  0  0  0  0  0
    3.1742   -0.2413   -5.8411 H   0  0  0  0  0  0  0  0  0  0  0  0
    3.3140    0.8370   -3.9920 C   0  0  0  0  0  0  0  0  0  0  0  0
    4.3427    1.1345   -4.2006 H   0  0  0  0  0  0  0  0  0  0  0  0
    2.8241    1.6864   -3.5156 H   0  0  0  0  0  0  0  0  0  0  0  0
    3.3921   -0.5266   -2.7998 S   0  0  0  0  0  0  0  0  0  0  0  0
    1.1641    0.1218   -5.1822 C   0  0  0  0  0  0  0  0  0  0  0  0
    0.2669    0.9658   -5.1789 O   0  0  0  0  0  0  0  0  0  0  0  0
    0.9225   -1.1899   -5.0619 N   0  0  0  0  0  0  0  0  0  0  0  0
    1.7138   -1.8133   -5.0401 H   0  0  0  0  0  0  0  0  0  0  0  0
   -0.4100   -1.7693   -4.8970 C   0  0  0  0  0  0  0  0  0  0  0  0
   -0.7691   -1.5837   -3.8833 H   0  0  0  0  0  0  0  0  0  0  0  0
   -1.1068   -1.3108   -5.6028 H   0  0  0  0  0  0  0  0  0  0  0  0
   -0.3783   -2.8443   -5.0755 H   0  0  0  0  0  0  0  0  0  0  0  0
  5  6  2  0  0  0  0
  5  7  1  0  0  0  0
  2  3  1  0  0  0  0
  2  4  1  0  0  0  0
  2  5  1  0  0  0  0
  1  2  1  0  0  0  0
 15 16  2  0  0  0  0
 15 17  1  0  0  0  0
 14 36  1  0  0  0  0
 11 12  1  0  0  0  0
 11 13  1  0  0  0  0
 11 14  1  0  0  0  0
  9 10  1  0  0  0  0
  9 11  1  0  0  0  0
  9 15  1  0  0  0  0
  7  8  1  0  0  0  0
  7  9  1  0  0  0  0
 19 20  1  0  0  0  0
 19 21  1  0  0  0  0
 19 22  1  0  0  0  0
 17 18  1  0  0  0  0
 17 19  1  0  0  0  0
 27 28  2  0  0  0  0
 27 29  1  0  0  0  0
 24 25  1  0  0  0  0
 24 26  1  0  0  0  0
 24 27  1  0  0  0  0
 23 24  1  0  0  0  0
 37 38  2  0  0  0  0
 37 39  1  0  0  0  0
 33 34  1  0  0  0  0
 33 35  1  0  0  0  0
 33 36  1  0  0  0  0
 31 32  1  0  0  0  0
 31 33  1  0  0  0  0
 31 37  1  0  0  0  0
 29 30  1  0  0  0  0
 29 31  1  0  0  0  0
 41 42  1  0  0  0  0
 41 43  1  0  0  0  0
 41 44  1  0  0  0  0
 39 40  1  0  0  0  0
 39 41  1  0  0  0  0
M  END
$$$$
default_name
  -OEChem-01062215323D

 44 43  0     1  0  0  0  0  0999 V2000
    2.4488   -3.0448    2.0990 H   0  0  0  0  0  0  0  0  0  0  0  0
    2.2788   -2.0018    2.3640 C   0  0  0  0  0  0  0  0  0  0  0  0
    2.9228   -1.7258    3.1960 H   0  0  0  0  0  0  0  0  0  0  0  0
    1.2358   -1.8618    2.6430 H   0  0  0  0  0  0  0  0  0  0  0  0
    2.6018   -1.1318    1.1730 C   0  0  0  0  0  0  0  0  0  0  0  0
    3.0048   -1.6348    0.1320 O   0  0  0  0  0  0  0  0  0  0  0  0
    2.4088    0.1752    1.3190 N   0  0  0  0  0  0  0  0  0  0  0  0
    2.0708    0.5242    2.2050 H   0  0  0  0  0  0  0  0  0  0  0  0
    2.6638    1.1782    0.2840 C   0  0  1  0  0  0  0  0  0  0  0  0
    3.6452    0.9773   -0.1489 H   0  0  0  0  0  0  0  0  0  0  0  0
    1.6136    1.0485   -0.8331 C   0  0  0  0  0  0  0  0  0  0  0  0
    1.7158    1.8969   -1.5108 H   0  0  0  0  0  0  0  0  0  0  0  0
    0.6283    1.1375   -0.3761 H   0  0  0  0  0  0  0  0  0  0  0  0
    1.6030   -0.4793   -1.8173 S   0  0  0  0  0  0  0  0  0  0  0  0
    2.6959    2.5969    0.8827 C   0  0  0  0  0  0  0  0  0  0  0  0
    1.8408    2.9527    1.6934 O   0  0  0  0  0  0  0  0  0  0  0  0
    3.6884    3.4051    0.4871 N   0  0  0  0  0  0  0  0  0  0  0  0
    4.3562    3.0485   -0.1773 H   0  0  0  0  0  0  0  0  0  0  0  0
    3.8545    4.7776    0.9610 C   0  0  0  0  0  0  0  0  0  0  0  0
    2.9894    5.3751    0.6656 H   0  0  0  0  0  0  0  0  0  0  0  0
    3.9249    4.7864    2.0502 H   0  0  0  0  0  0  0  0  0  0  0  0
    4.7583    5.2181    0.5381 H   0  0  0  0  0  0  0  0  0  0  0  0
    4.6223    3.6211   -8.1335 H   0  0  0  0  0  0  0  0  0  0  0  0
    3.6837    3.4410   -7.6115 C   0  0  0  0  0  0  0  0  0  0  0  0
    2.8710    3.3662   -8.3324 H   0  0  0  0  0  0  0  0  0  0  0  0
    3.4887    4.2570   -6.9183 H   0  0  0  0  0  0  0  0  0  0  0  0
    3.7913    2.1454   -6.8420 C   0  0  0  0  0  0  0  0  0  0  0  0
    4.8275    1.4953   -6.8679 O   0  0  0  0  0  0  0  0  0  0  0  0
    2.7177    1.7760   -6.1486 N   0  0  0  0  0  0  0  0  0  0  0  0
    1.8927    2.3571   -6.1816 H   0  0  0  0  0  0  0  0  0  0  0  0
    2.6307    0.5609   -5.3387 C   0  0  1  0  0  0  0  0  0  0  0  0
    3.1742   -0.2413   -5.8411 H   0  0  0  0  0  0  0  0  0  0  0  0
    3.3140    0.8370   -3.9920 C   0  0  0  0  0  0  0  0  0  0  0  0
    4.3427    1.1345   -4.2006 H   0  0  0  0  0  0  0  0  0  0  0  0
    2.8241    1.6864   -3.5156 H   0  0  0  0  0  0  0  0  0  0  0  0
    3.3921   -0.5266   -2.7998 S   0  0  0  0  0  0  0  0  0  0  0  0
    1.1641    0.1218   -5.1822 C   0  0  0  0  0  0  0  0  0  0  0  0
    0.2669    0.9658   -5.1789 O   0  0  0  0  0  0  0  0  0  0  0  0
    0.9225   -1.1899   -5.0619 N   0  0  0  0  0  0  0  0  0  0  0  0
    1.7138   -1.8133   -5.0401 H   0  0  0  0  0  0  0  0  0  0  0  0
   -0.4100   -1.7693   -4.8970 C   0  0  0  0  0  0  0  0  0  0  0  0
   -0.7691   -1.5837   -3.8833 H   0  0  0  0  0  0  0  0  0  0  0  0
   -1.1068   -1.3108   -5.6028 H   0  0  0  0  0  0  0  0  0  0  0  0
   -0.3783   -2.8443   -5.0755 H   0  0  0  0  0  0  0  0  0  0  0  0
  5  6  2  0  0  0  0
  5  7  1  0  0  0  0
  2  3  1  0  0  0  0
  2  4  1  0  0  0  0
  2  5  1  0  0  0  0
  1  2  1  0  0  0  0
 15 16  2  0  0  0  0
 15 17  1  0  0  0  0
 14 36  1  0  0  0  0
 11 12  1  0  0  0  0
 11 13  1  0  0  0  0
 11 14  1  0  0  0  0
  9 10  1  0  0  0  0
  9 11  1  0  0  0  0
  9 15  1  0  0  0  0
  7  8  1  0  0  0  0
  7  9  1  0  0  0  0
 19 20  1  0  0  0  0
 19 21  1  0  0  0  0
 19 22  1  0  0  0  0
 17 18  1  0  0  0  0
 17 19  1  0  0  0  0
 27 28  2  0  0  0  0
 27 29  1  0  0  0  0
 24 25  1  0  0  0  0
 24 26  1  0  0  0  0
 24 27  1  0  0  0  0
 23 24  1  0  0  0  0
 37 38  2  0  0  0  0
 37 39  1  0  0  0  0
 33 34  1  0  0  0  0
 33 35  1  0  0  0  0
 33 36  1  0  0  0  0
 31 32  1  0  0  0  0
 31 33  1  0  0  0  0
 31 37  1  0  0  0  0
 29 30  1  0  0  0  0
 29 31  1  0  0  0  0
 41 42  1  0  0  0  0
 41 43  1  0  0  0  0
 41 44  1  0  0  0  0
 39 40  1  0  0  0  0
 39 41  1  0  0  0  0
M  END
$$$$
default_name
  -OEChem-01062215323D

 44 43  0     1  0  0  0  0  0999 V2000
    2.4488   -3.0448    2.0990 H   0  0  0  0  0  0  0  0  0  0  0  0
    2.2788   -2.0018    2.3640 C   0  0  0  0  0  0  0  0  0  0  0  0
    2.9228   -1.7258    3.1960 H   0  0  0  0  0  0  0  0  0  0  0  0
    1.2358   -1.8618    2.6430 H   0  0  0  0  0  0  0  0  0  0  0  0
    2.6018   -1.1318    1.1730 C   0  0  0  0  0  0  0  0  0  0  0  0
    3.0048   -1.6348    0.1320 O   0  0  0  0  0  0  0  0  0  0  0  0
    2.4088    0.1752    1.3190 N   0  0  0  0  0  0  0  0  0  0  0  0
    2.0708    0.5242    2.2050 H   0  0  0  0  0  0  0  0  0  0  0  0
    2.6638    1.1782    0.2840 C   0  0  1  0  0  0  0  0  0  0  0  0
    3.6452    0.9773   -0.1489 H   0  0  0  0  0  0  0  0  0  0  0  0
    1.6136    1.0485   -0.8331 C   0  0  0  0  0  0  0  0  0  0  0  0
    1.7158    1.8969   -1.5108 H   0  0  0  0  0  0  0  0  0  0  0  0
    0.6283    1.1375   -0.3761 H   0  0  0  0  0  0  0  0  0  0  0  0
    1.6030   -0.4793   -1.8173 S   0  0  0  0  0  0  0  0  0  0  0  0
    2.6959    2.5969    0.8827 C   0  0  0  0  0  0  0  0  0  0  0  0
    2.0278    2.8698    1.8799 O   0  0  0  0  0  0  0  0  0  0  0  0
    3.4794    3.4988    0.2764 N   0  0  0  0  0  0  0  0  0  0  0  0
    4.0016    3.2070   -0.5341 H   0  0  0  0  0  0  0  0  0  0  0  0
    3.6157    4.8842    0.7212 C   0  0  0  0  0  0  0  0  0  0  0  0
    2.6499    5.3890    0.6509 H   0  0  0  0  0  0  0  0  0  0  0  0
    3.9428    4.9075    1.7623 H   0  0  0  0  0  0  0  0  0  0  0  0
    4.3438    5.4110    0.1030 H   0  0  0  0  0  0  0  0  0  0  0  0
    4.6223    3.6211   -8.1335 H   0  0  0  0  0  0  0  0  0  0  0  0
    3.6837    3.4410   -7.6115 C   0  0  0  0  0  0  0  0  0  0  0  0
    2.8710    3.3662   -8.3324 H   0  0  0  0  0  0  0  0  0  0  0  0
    3.4887    4.2570   -6.9183 H   0  0  0  0  0  0  0  0  0  0  0  0
    3.7913    2.1454   -6.8420 C   0  0  0  0  0  0  0  0  0  0  0  0
    4.8275    1.4953   -6.8679 O   0  0  0  0  0  0  0  0  0  0  0  0
    2.7177    1.7760   -6.1486 N   0  0  0  0  0  0  0  0  0  0  0  0
    1.8927    2.3571   -6.1816 H   0  0  0  0  0  0  0  0  0  0  0  0
    2.6307    0.5609   -5.3387 C   0  0  1  0  0  0  0  0  0  0  0  0
    3.1742   -0.2413   -5.8411 H   0  0  0  0  0  0  0  0  0  0  0  0
    3.3140    0.8370   -3.9920 C   0  0  0  0  0  0  0  0  0  0  0  0
    4.3427    1.1345   -4.2006 H   0  0  0  0  0  0  0  0  0  0  0  0
    2.8241    1.6864   -3.5156 H   0  0  0  0  0  0  0  0  0  0  0  0
    3.3921   -0.5266   -2.7998 S   0  0  0  0  0  0  0  0  0  0  0  0
    1.1641    0.1218   -5.1822 C   0  0  0  0  0  0  0  0  0  0  0  0
    0.2669    0.9658   -5.1789 O   0  0  0  0  0  0  0  0  0  0  0  0
    0.9225   -1.1899   -5.0619 N   0  0  0  0  0  0  0  0  0  0  0  0
    1.7138   -1.8133   -5.0401 H   0  0  0  0  0  0  0  0  0  0  0  0
   -0.4100   -1.7693   -4.8970 C   0  0  0  0  0  0  0  0  0  0  0  0
   -0.7691   -1.5837   -3.8833 H   0  0  0  0  0  0  0  0  0  0  0  0
   -1.1068   -1.3108   -5.6028 H   0  0  0  0  0  0  0  0  0  0  0  0
   -0.3783   -2.8443   -5.0755 H   0  0  0  0  0  0  0  0  0  0  0  0
  5  6  2  0  0  0  0
  5  7  1  0  0  0  0
  2  3  1  0  0  0  0
  2  4  1  0  0  0  0
  2  5  1  0  0  0  0
  1  2  1  0  0  0  0
 15 16  2  0  0  0  0
 15 17  1  0  0  0  0
 14 36  1  0  0  0  0
 11 12  1  0  0  0  0
 11 13  1  0  0  0  0
 11 14  1  0  0  0  0
  9 10  1  0  0  0  0
  9 11  1  0  0  0  0
  9 15  1  0  0  0  0
  7  8  1  0  0  0  0
  7  9  1  0  0  0  0
 19 20  1  0  0  0  0
 19 21  1  0  0  0  0
 19 22  1  0  0  0  0
 17 18  1  0  0  0  0
 17 19  1  0  0  0  0
 27 28  2  0  0  0  0
 27 29  1  0  0  0  0
 24 25  1  0  0  0  0
 24 26  1  0  0  0  0
 24 27  1  0  0  0  0
 23 24  1  0  0  0  0
 37 38  2  0  0  0  0
 37 39  1  0  0  0  0
 33 34  1  0  0  0  0
 33 35  1  0  0  0  0
 33 36  1  0  0  0  0
 31 32  1  0  0  0  0
 31 33  1  0  0  0  0
 31 37  1  0  0  0  0
 29 30  1  0  0  0  0
 29 31  1  0  0  0  0
 41 42  1  0  0  0  0
 41 43  1  0  0  0  0
 41 44  1  0  0  0  0
 39 40  1  0  0  0  0
 39 41  1  0  0  0  0
M  END
$$$$
default_name
  -OEChem-01062215323D

 44 43  0     1  0  0  0  0  0999 V2000
    2.4488   -3.0448    2.0990 H   0  0  0  0  0  0  0  0  0  0  0  0
    2.2788   -2.0018    2.3640 C   0  0  0  0  0  0  0  0  0  0  0  0
    2.9228   -1.7258    3.1960 H   0  0  0  0  0  0  0  0  0  0  0  0
    1.2358   -1.8618    2.6430 H   0  0  0  0  0  0  0  0  0  0  0  0
    2.6018   -1.1318    1.1730 C   0  0  0  0  0  0  0  0  0  0  0  0
    3.0048   -1.6348    0.1320 O   0  0  0  0  0  0  0  0  0  0  0  0
    2.4088    0.1752    1.3190 N   0  0  0  0  0  0  0  0  0  0  0  0
    2.0708    0.5242    2.2050 H   0  0  0  0  0  0  0  0  0  0  0  0
    2.6638    1.1782    0.2840 C   0  0  1  0  0  0  0  0  0  0  0  0
    3.6452    0.9773   -0.1489 H   0  0  0  0  0  0  0  0  0  0  0  0
    1.6136    1.0485   -0.8331 C   0  0  0  0  0  0  0  0  0  0  0  0
    1.7158    1.8969   -1.5108 H   0  0  0  0  0  0  0  0  0  0  0  0
    0.6283    1.1375   -0.3761 H   0  0  0  0  0  0  0  0  0  0  0  0
    1.6030   -0.4793   -1.8173 S   0  0  0  0  0  0  0  0  0  0  0  0
    2.6959    2.5969    0.8827 C   0  0  0  0  0  0  0  0  0  0  0  0
    2.2613    2.8076    2.0149 O   0  0  0  0  0  0  0  0  0  0  0  0
    3.2179    3.5693    0.1232 N   0  0  0  0  0  0  0  0  0  0  0  0
    3.5579    3.3265   -0.7933 H   0  0  0  0  0  0  0  0  0  0  0  0
    3.3172    4.9644    0.5470 C   0  0  0  0  0  0  0  0  0  0  0  0
    2.3171    5.3684    0.7176 H   0  0  0  0  0  0  0  0  0  0  0  0
    3.8794    5.0279    1.4806 H   0  0  0  0  0  0  0  0  0  0  0  0
    3.8203    5.5581   -0.2174 H   0  0  0  0  0  0  0  0  0  0  0  0
    4.6223    3.6211   -8.1335 H   0  0  0  0  0  0  0  0  0  0  0  0
    3.6837    3.4410   -7.6115 C   0  0  0  0  0  0  0  0  0  0  0  0
    2.8710    3.3662   -8.3324 H   0  0  0  0  0  0  0  0  0  0  0  0
    3.4887    4.2570   -6.9183 H   0  0  0  0  0  0  0  0  0  0  0  0
    3.7913    2.1454   -6.8420 C   0  0  0  0  0  0  0  0  0  0  0  0
    4.8275    1.4953   -6.8679 O   0  0  0  0  0  0  0  0  0  0  0  0
    2.7177    1.7760   -6.1486 N   0  0  0  0  0  0  0  0  0  0  0  0
    1.8927    2.3571   -6.1816 H   0  0  0  0  0  0  0  0  0  0  0  0
    2.6307    0.5609   -5.3387 C   0  0  1  0  0  0  0  0  0  0  0  0
    3.1742   -0.2413   -5.8411 H   0  0  0  0  0  0  0  0  0  0  0  0
    3.3140    0.8370   -3.9920 C   0  0  0  0  0  0  0  0  0  0  0  0
    4.3427    1.1345   -4.2006 H   0  0  0  0  0  0  0  0  0  0  0  0
    2.8241    1.6864   -3.5156 H   0  0  0  0  0  0  0  0  0  0  0  0
    3.3921   -0.5266   -2.7998 S   0  0  0  0  0  0  0  0  0  0  0  0
    1.1641    0.1218   -5.1822 C   0  0  0  0  0  0  0  0  0  0  0  0
    0.2669    0.9658   -5.1789 O   0  0  0  0  0  0  0  0  0  0  0  0
    0.9225   -1.1899   -5.0619 N   0  0  0  0  0  0  0  0  0  0  0  0
    1.7138   -1.8133   -5.0401 H   0  0  0  0  0  0  0  0  0  0  0  0
   -0.4100   -1.7693   -4.8970 C   0  0  0  0  0  0  0  0  0  0  0  0
   -0.7691   -1.5837   -3.8833 H   0  0  0  0  0  0  0  0  0  0  0  0
   -1.1068   -1.3108   -5.6028 H   0  0  0  0  0  0  0  0  0  0  0  0
   -0.3783   -2.8443   -5.0755 H   0  0  0  0  0  0  0  0  0  0  0  0
  5  6  2  0  0  0  0
  5  7  1  0  0  0  0
  2  3  1  0  0  0  0
  2  4  1  0  0  0  0
  2  5  1  0  0  0  0
  1  2  1  0  0  0  0
 15 16  2  0  0  0  0
 15 17  1  0  0  0  0
 14 36  1  0  0  0  0
 11 12  1  0  0  0  0
 11 13  1  0  0  0  0
 11 14  1  0  0  0  0
  9 10  1  0  0  0  0
  9 11  1  0  0  0  0
  9 15  1  0  0  0  0
  7  8  1  0  0  0  0
  7  9  1  0  0  0  0
 19 20  1  0  0  0  0
 19 21  1  0  0  0  0
 19 22  1  0  0  0  0
 17 18  1  0  0  0  0
 17 19  1  0  0  0  0
 27 28  2  0  0  0  0
 27 29  1  0  0  0  0
 24 25  1  0  0  0  0
 24 26  1  0  0  0  0
 24 27  1  0  0  0  0
 23 24  1  0  0  0  0
 37 38  2  0  0  0  0
 37 39  1  0  0  0  0
 33 34  1  0  0  0  0
 33 35  1  0  0  0  0
 33 36  1  0  0  0  0
 31 32  1  0  0  0  0
 31 33  1  0  0  0  0
 31 37  1  0  0  0  0
 29 30  1  0  0  0  0
 29 31  1  0  0  0  0
 41 42  1  0  0  0  0
 41 43  1  0  0  0  0
 41 44  1  0  0  0  0
 39 40  1  0  0  0  0
 39 41  1  0  0  0  0
M  END
$$$$
default_name
  -OEChem-01062215323D

 44 43  0     1  0  0  0  0  0999 V2000
    2.4488   -3.0448    2.0990 H   0  0  0  0  0  0  0  0  0  0  0  0
    2.2788   -2.0018    2.3640 C   0  0  0  0  0  0  0  0  0  0  0  0
    2.9228   -1.7258    3.1960 H   0  0  0  0  0  0  0  0  0  0  0  0
    1.2358   -1.8618    2.6430 H   0  0  0  0  0  0  0  0  0  0  0  0
    2.6018   -1.1318    1.1730 C   0  0  0  0  0  0  0  0  0  0  0  0
    3.0048   -1.6348    0.1320 O   0  0  0  0  0  0  0  0  0  0  0  0
    2.4088    0.1752    1.3190 N   0  0  0  0  0  0  0  0  0  0  0  0
    2.0708    0.5242    2.2050 H   0  0  0  0  0  0  0  0  0  0  0  0
    2.6638    1.1782    0.2840 C   0  0  1  0  0  0  0  0  0  0  0  0
    3.5002    0.8320   -0.3255 H   0  0  0  0  0  0  0  0  0  0  0  0
    1.4306    1.3076   -0.6271 C   0  0  0  0  0  0  0  0  0  0  0  0
    1.5708    2.1642   -1.2876 H   0  0  0  0  0  0  0  0  0  0  0  0
    0.5737    1.5431    0.0035 H   0  0  0  0  0  0  0  0  0  0  0  0
    0.9641   -0.1300   -1.6363 S   0  0  0  0  0  0  0  0  0  0  0  0
    3.0639    2.5286    0.9072 C   0  0  0  0  0  0  0  0  0  0  0  0
    3.1404    2.6550    2.1292 O   0  0  0  0  0  0  0  0  0  0  0  0
    3.3258    3.5370    0.0649 N   0  0  0  0  0  0  0  0  0  0  0  0
    3.2466    3.3635   -0.9242 H   0  0  0  0  0  0  0  0  0  0  0  0
    3.7152    4.8768    0.4999 C   0  0  0  0  0  0  0  0  0  0  0  0
    2.9089    5.3206    1.0878 H   0  0  0  0  0  0  0  0  0  0  0  0
    4.6071    4.8173    1.1262 H   0  0  0  0  0  0  0  0  0  0  0  0
    3.9228    5.5104   -0.3634 H   0  0  0  0  0  0  0  0  0  0  0  0
    3.5571    3.7450   -8.2758 H   0  0  0  0  0  0  0  0  0  0  0  0
    2.7061    3.7039   -7.5975 C   0  0  0  0  0  0  0  0  0  0  0  0
    1.7815    3.8203   -8.1607 H   0  0  0  0  0  0  0  0  0  0  0  0
    2.7903    4.4975   -6.8574 H   0  0  0  0  0  0  0  0  0  0  0  0
    2.7010    2.3651   -6.8976 C   0  0  0  0  0  0  0  0  0  0  0  0
    3.5769    1.5430   -7.1298 O   0  0  0  0  0  0  0  0  0  0  0  0
    1.7139    2.1518   -6.0318 N   0  0  0  0  0  0  0  0  0  0  0  0
    1.0191    2.8721   -5.8978 H   0  0  0  0  0  0  0  0  0  0  0  0
    1.5427    0.9243   -5.2545 C   0  0  1  0  0  0  0  0  0  0  0  0
    1.8312    0.0704   -5.8700 H   0  0  0  0  0  0  0  0  0  0  0  0
    2.4882    0.9902   -4.0470 C   0  0  0  0  0  0  0  0  0  0  0  0
    3.5025    1.1112   -4.4303 H   0  0  0  0  0  0  0  0  0  0  0  0
    2.2559    1.8826   -3.4655 H   0  0  0  0  0  0  0  0  0  0  0  0
    2.5151   -0.4361   -2.9282 S   0  0  0  0  0  0  0  0  0  0  0  0
    0.0694    0.7460   -4.8470 C   0  0  0  0  0  0  0  0  0  0  0  0
   -0.6397    1.7352   -4.6567 O   0  0  0  0  0  0  0  0  0  0  0  0
   -0.3888   -0.5062   -4.7224 N   0  0  0  0  0  0  0  0  0  0  0  0
    0.2636   -1.2613   -4.8625 H   0  0  0  0  0  0  0  0  0  0  0  0
   -1.7571   -0.8468   -4.3349 C   0  0  0  0  0  0  0  0  0  0  0  0
   -1.8940   -0.6627   -3.2680 H   0  0  0  0  0  0  0  0  0  0  0  0
   -2.4673   -0.2285   -4.8891 H   0  0  0  0  0  0  0  0  0  0  0  0
   -1.9584   -1.8970   -4.5469 H   0  0  0  0  0  0  0  0  0  0  0  0
  5  6  2  0  0  0  0
  5  7  1  0  0  0  0
  2  3  1  0  0  0  0
  2  4  1  0  0  0  0
  2  5  1  0  0  0  0
  1  2  1  0  0  0  0
 15 16  2  0  0  0  0
 15 17  1  0  0  0  0
 14 36  1  0  0  0  0
 11 12  1  0  0  0  0
 11 13  1  0  0  0  0
 11 14  1  0  0  0  0
  9 10  1  0  0  0  0
  9 11  1  0  0  0  0
  9 15  1  0  0  0  0
  7  8  1  0  0  0  0
  7  9  1  0  0  0  0
 19 20  1  0  0  0  0
 19 21  1  0  0  0  0
 19 22  1  0  0  0  0
 17 18  1  0  0  0  0
 17 19  1  0  0  0  0
 27 28  2  0  0  0  0
 27 29  1  0  0  0  0
 24 25  1  0  0  0  0
 24 26  1  0  0  0  0
 24 27  1  0  0  0  0
 23 24  1  0  0  0  0
 37 38  2  0  0  0  0
 37 39  1  0  0  0  0
 33 34  1  0  0  0  0
 33 35  1  0  0  0  0
 33 36  1  0  0  0  0
 31 32  1  0  0  0  0
 31 33  1  0  0  0  0
 31 37  1  0  0  0  0
 29 30  1  0  0  0  0
 29 31  1  0  0  0  0
 41 42  1  0  0  0  0
 41 43  1  0  0  0  0
 41 44  1  0  0  0  0
 39 40  1  0  0  0  0
 39 41  1  0  0  0  0
M  END
$$$$
default_name
  -OEChem-01062215323D

 44 43  0     1  0  0  0  0  0999 V2000
    2.4488   -3.0448    2.0990 H   0  0  0  0  0  0  0  0  0  0  0  0
    2.2788   -2.0018    2.3640 C   0  0  0  0  0  0  0  0  0  0  0  0
    2.9228   -1.7258    3.1960 H   0  0  0  0  0  0  0  0  0  0  0  0
    1.2358   -1.8618    2.6430 H   0  0  0  0  0  0  0  0  0  0  0  0
    2.6018   -1.1318    1.1730 C   0  0  0  0  0  0  0  0  0  0  0  0
    3.0048   -1.6348    0.1320 O   0  0  0  0  0  0  0  0  0  0  0  0
    2.4088    0.1752    1.3190 N   0  0  0  0  0  0  0  0  0  0  0  0
    2.0708    0.5242    2.2050 H   0  0  0  0  0  0  0  0  0  0  0  0
    2.6638    1.1782    0.2840 C   0  0  1  0  0  0  0  0  0  0  0  0
    3.5002    0.8320   -0.3255 H   0  0  0  0  0  0  0  0  0  0  0  0
    1.4306    1.3076   -0.6271 C   0  0  0  0  0  0  0  0  0  0  0  0
    1.5708    2.1642   -1.2876 H   0  0  0  0  0  0  0  0  0  0  0  0
    0.5737    1.5431    0.0035 H   0  0  0  0  0  0  0  0  0  0  0  0
    0.9641   -0.1300   -1.6363 S   0  0  0  0  0  0  0  0  0  0  0  0
    3.0639    2.5286    0.9072 C   0  0  0  0  0  0  0  0  0  0  0  0
    3.4074    2.5952    2.0873 O   0  0  0  0  0  0  0  0  0  0  0  0
    3.0256    3.6050    0.1104 N   0  0  0  0  0  0  0  0  0  0  0  0
    2.7377    3.4785   -0.8466 H   0  0  0  0  0  0  0  0  0  0  0  0
    3.3729    4.9540    0.5523 C   0  0  0  0  0  0  0  0  0  0  0  0
    2.6847    5.2712    1.3387 H   0  0  0  0  0  0  0  0  0  0  0  0
    4.3867    4.9608    0.9568 H   0  0  0  0  0  0  0  0  0  0  0  0
    3.3135    5.6536   -0.2825 H   0  0  0  0  0  0  0  0  0  0  0  0
    3.5571    3.7450   -8.2758 H   0  0  0  0  0  0  0  0  0  0  0  0
    2.7061    3.7039   -7.5975 C   0  0  0  0  0  0  0  0  0  0  0  0
    1.7815    3.8203   -8.1607 H   0  0  0  0  0  0  0  0  0  0  0  0
    2.7903    4.4975   -6.8574 H   0  0  0  0  0  0  0  0  0  0  0  0
    2.7010    2.3651   -6.8976 C   0  0  0  0  0  0  0  0  0  0  0  0
    3.5769    1.5430   -7.1298 O   0  0  0  0  0  0  0  0  0  0  0  0
    1.7139    2.1518   -6.0318 N   0  0  0  0  0  0  0  0  0  0  0  0
    1.0191    2.8721   -5.8978 H   0  0  0  0  0  0  0  0  0  0  0  0
    1.5427    0.9243   -5.2545 C   0  0  1  0  0  0  0  0  0  0  0  0
    1.8312    0.0704   -5.8700 H   0  0  0  0  0  0  0  0  0  0  0  0
    2.4882    0.9902   -4.0470 C   0  0  0  0  0  0  0  0  0  0  0  0
    3.5025    1.1112   -4.4303 H   0  0  0  0  0  0  0  0  0  0  0  0
    2.2559    1.8826   -3.4655 H   0  0  0  0  0  0  0  0  0  0  0  0
    2.5151   -0.4361   -2.9282 S   0  0  0  0  0  0  0  0  0  0  0  0
    0.0694    0.7460   -4.8470 C   0  0  0  0  0  0  0  0  0  0  0  0
   -0.6397    1.7352   -4.6567 O   0  0  0  0  0  0  0  0  0  0  0  0
   -0.3888   -0.5062   -4.7224 N   0  0  0  0  0  0  0  0  0  0  0  0
    0.2636   -1.2613   -4.8625 H   0  0  0  0  0  0  0  0  0  0  0  0
   -1.7571   -0.8468   -4.3349 C   0  0  0  0  0  0  0  0  0  0  0  0
   -1.8940   -0.6627   -3.2680 H   0  0  0  0  0  0  0  0  0  0  0  0
   -2.4673   -0.2285   -4.8891 H   0  0  0  0  0  0  0  0  0  0  0  0
   -1.9584   -1.8970   -4.5469 H   0  0  0  0  0  0  0  0  0  0  0  0
  5  6  2  0  0  0  0
  5  7  1  0  0  0  0
  2  3  1  0  0  0  0
  2  4  1  0  0  0  0
  2  5  1  0  0  0  0
  1  2  1  0  0  0  0
 15 16  2  0  0  0  0
 15 17  1  0  0  0  0
 14 36  1  0  0  0  0
 11 12  1  0  0  0  0
 11 13  1  0  0  0  0
 11 14  1  0  0  0  0
  9 10  1  0  0  0  0
  9 11  1  0  0  0  0
  9 15  1  0  0  0  0
  7  8  1  0  0  0  0
  7  9  1  0  0  0  0
 19 20  1  0  0  0  0
 19 21  1  0  0  0  0
 19 22  1  0  0  0  0
 17 18  1  0  0  0  0
 17 19  1  0  0  0  0
 27 28  2  0  0  0  0
 27 29  1  0  0  0  0
 24 25  1  0  0  0  0
 24 26  1  0  0  0  0
 24 27  1  0  0  0  0
 23 24  1  0  0  0  0
 37 38  2  0  0  0  0
 37 39  1  0  0  0  0
 33 34  1  0  0  0  0
 33 35  1  0  0  0  0
 33 36  1  0  0  0  0
 31 32  1  0  0  0  0
 31 33  1  0  0  0  0
 31 37  1  0  0  0  0
 29 30  1  0  0  0  0
 29 31  1  0  0  0  0
 41 42  1  0  0  0  0
 41 43  1  0  0  0  0
 41 44  1  0  0  0  0
 39 40  1  0  0  0  0
 39 41  1  0  0  0  0
M  END
$$$$
default_name
  -OEChem-01062215323D

 44 43  0     1  0  0  0  0  0999 V2000
    2.4488   -3.0448    2.0990 H   0  0  0  0  0  0  0  0  0  0  0  0
    2.2788   -2.0018    2.3640 C   0  0  0  0  0  0  0  0  0  0  0  0
    2.9228   -1.7258    3.1960 H   0  0  0  0  0  0  0  0  0  0  0  0
    1.2358   -1.8618    2.6430 H   0  0  0  0  0  0  0  0  0  0  0  0
    2.6018   -1.1318    1.1730 C   0  0  0  0  0  0  0  0  0  0  0  0
    3.0048   -1.6348    0.1320 O   0  0  0  0  0  0  0  0  0  0  0  0
    2.4088    0.1752    1.3190 N   0  0  0  0  0  0  0  0  0  0  0  0
    2.0708    0.5242    2.2050 H   0  0  0  0  0  0  0  0  0  0  0  0
    2.6638    1.1782    0.2840 C   0  0  1  0  0  0  0  0  0  0  0  0
    3.5002    0.8320   -0.3255 H   0  0  0  0  0  0  0  0  0  0  0  0
    1.4306    1.3076   -0.6271 C   0  0  0  0  0  0  0  0  0  0  0  0
    1.5708    2.1642   -1.2876 H   0  0  0  0  0  0  0  0  0  0  0  0
    0.5737    1.5431    0.0035 H   0  0  0  0  0  0  0  0  0  0  0  0
    0.9641   -0.1300   -1.6363 S   0  0  0  0  0  0  0  0  0  0  0  0
    3.0639    2.5286    0.9072 C   0  0  0  0  0  0  0  0  0  0  0  0
    3.6620    2.5682    1.9823 O   0  0  0  0  0  0  0  0  0  0  0  0
    2.7388    3.6361    0.2271 N   0  0  0  0  0  0  0  0  0  0  0  0
    2.2517    3.5310   -0.6484 H   0  0  0  0  0  0  0  0  0  0  0  0
    3.0461    4.9893    0.6858 C   0  0  0  0  0  0  0  0  0  0  0  0
    2.5303    5.1832    1.6287 H   0  0  0  0  0  0  0  0  0  0  0  0
    4.1202    5.0877    0.8529 H   0  0  0  0  0  0  0  0  0  0  0  0
    2.7283    5.7226   -0.0564 H   0  0  0  0  0  0  0  0  0  0  0  0
    3.5571    3.7450   -8.2758 H   0  0  0  0  0  0  0  0  0  0  0  0
    2.7061    3.7039   -7.5975 C   0  0  0  0  0  0  0  0  0  0  0  0
    1.7815    3.8203   -8.1607 H   0  0  0  0  0  0  0  0  0  0  0  0
    2.7903    4.4975   -6.8574 H   0  0  0  0  0  0  0  0  0  0  0  0
    2.7010    2.3651   -6.8976 C   0  0  0  0  0  0  0  0  0  0  0  0
    3.5769    1.5430   -7.1298 O   0  0  0  0  0  0  0  0  0  0  0  0
    1.7139    2.1518   -6.0318 N   0  0  0  0  0  0  0  0  0  0  0  0
    1.0191    2.8721   -5.8978 H   0  0  0  0  0  0  0  0  0  0  0  0
    1.5427    0.9243   -5.2545 C   0  0  1  0  0  0  0  0  0  0  0  0
    1.8312    0.0704   -5.8700 H   0  0  0  0  0  0  0  0  0  0  0  0
    2.4882    0.9902   -4.0470 C   0  0  0  0  0  0  0  0  0  0  0  0
    3.5025    1.1112   -4.4303 H   0  0  0  0  0  0  0  0  0  0  0  0
    2.2559    1.8826   -3.4655 H   0  0  0  0  0  0  0  0  0  0  0  0
    2.5151   -0.4361   -2.9282 S   0  0  0  0  0  0  0  0  0  0  0  0
    0.0694    0.7460   -4.8470 C   0  0  0  0  0  0  0  0  0  0  0  0
   -0.6397    1.7352   -4.6567 O   0  0  0  0  0  0  0  0  0  0  0  0
   -0.3888   -0.5062   -4.7224 N   0  0  0  0  0  0  0  0  0  0  0  0
    0.2636   -1.2613   -4.8625 H   0  0  0  0  0  0  0  0  0  0  0  0
   -1.7571   -0.8468   -4.3349 C   0  0  0  0  0  0  0  0  0  0  0  0
   -1.8940   -0.6627   -3.2680 H   0  0  0  0  0  0  0  0  0  0  0  0
   -2.4673   -0.2285   -4.8891 H   0  0  0  0  0  0  0  0  0  0  0  0
   -1.9584   -1.8970   -4.5469 H   0  0  0  0  0  0  0  0  0  0  0  0
  5  6  2  0  0  0  0
  5  7  1  0  0  0  0
  2  3  1  0  0  0  0
  2  4  1  0  0  0  0
  2  5  1  0  0  0  0
  1  2  1  0  0  0  0
 15 16  2  0  0  0  0
 15 17  1  0  0  0  0
 14 36  1  0  0  0  0
 11 12  1  0  0  0  0
 11 13  1  0  0  0  0
 11 14  1  0  0  0  0
  9 10  1  0  0  0  0
  9 11  1  0  0  0  0
  9 15  1  0  0  0  0
  7  8  1  0  0  0  0
  7  9  1  0  0  0  0
 19 20  1  0  0  0  0
 19 21  1  0  0  0  0
 19 22  1  0  0  0  0
 17 18  1  0  0  0  0
 17 19  1  0  0  0  0
 27 28  2  0  0  0  0
 27 29  1  0  0  0  0
 24 25  1  0  0  0  0
 24 26  1  0  0  0  0
 24 27  1  0  0  0  0
 23 24  1  0  0  0  0
 37 38  2  0  0  0  0
 37 39  1  0  0  0  0
 33 34  1  0  0  0  0
 33 35  1  0  0  0  0
 33 36  1  0  0  0  0
 31 32  1  0  0  0  0
 31 33  1  0  0  0  0
 31 37  1  0  0  0  0
 29 30  1  0  0  0  0
 29 31  1  0  0  0  0
 41 42  1  0  0  0  0
 41 43  1  0  0  0  0
 41 44  1  0  0  0  0
 39 40  1  0  0  0  0
 39 41  1  0  0  0  0
M  END
$$$$
default_name
  -OEChem-01062215323D

 44 43  0     1  0  0  0  0  0999 V2000
    2.4488   -3.0448    2.0990 H   0  0  0  0  0  0  0  0  0  0  0  0
    2.2788   -2.0018    2.3640 C   0  0  0  0  0  0  0  0  0  0  0  0
    2.9228   -1.7258    3.1960 H   0  0  0  0  0  0  0  0  0  0  0  0
    1.2358   -1.8618    2.6430 H   0  0  0  0  0  0  0  0  0  0  0  0
    2.6018   -1.1318    1.1730 C   0  0  0  0  0  0  0  0  0  0  0  0
    3.0048   -1.6348    0.1320 O   0  0  0  0  0  0  0  0  0  0  0  0
    2.4088    0.1752    1.3190 N   0  0  0  0  0  0  0  0  0  0  0  0
    2.0708    0.5242    2.2050 H   0  0  0  0  0  0  0  0  0  0  0  0
    2.6638    1.1782    0.2840 C   0  0  1  0  0  0  0  0  0  0  0  0
    3.5002    0.8320   -0.3255 H   0  0  0  0  0  0  0  0  0  0  0  0
    1.4306    1.3076   -0.6271 C   0  0  0  0  0  0  0  0  0  0  0  0
    1.5708    2.1642   -1.2876 H   0  0  0  0  0  0  0  0  0  0  0  0
    0.5737    1.5431    0.0035 H   0  0  0  0  0  0  0  0  0  0  0  0
    0.9641   -0.1300   -1.6363 S   0  0  0  0  0  0  0  0  0  0  0  0
    3.0639    2.5286    0.9072 C   0  0  0  0  0  0  0  0  0  0  0  0
    3.8870    2.5759    1.8212 O   0  0  0  0  0  0  0  0  0  0  0  0
    2.4849    3.6283    0.4069 N   0  0  0  0  0  0  0  0  0  0  0  0
    1.8217    3.5176   -0.3431 H   0  0  0  0  0  0  0  0  0  0  0  0
    2.7570    4.9801    0.8913 C   0  0  0  0  0  0  0  0  0  0  0  0
    2.4562    5.0625    1.9379 H   0  0  0  0  0  0  0  0  0  0  0  0
    3.8260    5.1894    0.8215 H   0  0  0  0  0  0  0  0  0  0  0  0
    2.2071    5.7128    0.2994 H   0  0  0  0  0  0  0  0  0  0  0  0
    3.5571    3.7450   -8.2758 H   0  0  0  0  0  0  0  0  0  0  0  0
    2.7061    3.7039   -7.5975 C   0  0  0  0  0  0  0  0  0  0  0  0
    1.7815    3.8203   -8.1607 H   0  0  0  0  0  0  0  0  0  0  0  0
    2.7903    4.4975   -6.8574 H   0  0  0  0  0  0  0  0  0  0  0  0
    2.7010    2.3651   -6.8976 C   0  0  0  0  0  0  0  0  0  0  0  0
    3.5769    1.5430   -7.1298 O   0  0  0  0  0  0  0  0  0  0  0  0
    1.7139    2.1518   -6.0318 N   0  0  0  0  0  0  0  0  0  0  0  0
    1.0191    2.8721   -5.8978 H   0  0  0  0  0  0  0  0  0  0  0  0
    1.5427    0.9243   -5.2545 C   0  0  1  0  0  0  0  0  0  0  0  0
    1.8312    0.0704   -5.8700 H   0  0  0  0  0  0  0  0  0  0  0  0
    2.4882    0.9902   -4.0470 C   0  0  0  0  0  0  0  0  0  0  0  0
    3.5025    1.1112   -4.4303 H   0  0  0  0  0  0  0  0  0  0  0  0
    2.2559    1.8826   -3.4655 H   0  0  0  0  0  0  0  0  0  0  0  0
    2.5151   -0.4361   -2.9282 S   0  0  0  0  0  0  0  0  0  0  0  0
    0.0694    0.7460   -4.8470 C   0  0  0  0  0  0  0  0  0  0  0  0
   -0.6397    1.7352   -4.6567 O   0  0  0  0  0  0  0  0  0  0  0  0
   -0.3888   -0.5062   -4.7224 N   0  0  0  0  0  0  0  0  0  0  0  0
    0.2636   -1.2613   -4.8625 H   0  0  0  0  0  0  0  0  0  0  0  0
   -1.7571   -0.8468   -4.3349 C   0  0  0  0  0  0  0  0  0  0  0  0
   -1.8940   -0.6627   -3.2680 H   0  0  0  0  0  0  0  0  0  0  0  0
   -2.4673   -0.2285   -4.8891 H   0  0  0  0  0  0  0  0  0  0  0  0
   -1.9584   -1.8970   -4.5469 H   0  0  0  0  0  0  0  0  0  0  0  0
  5  6  2  0  0  0  0
  5  7  1  0  0  0  0
  2  3  1  0  0  0  0
  2  4  1  0  0  0  0
  2  5  1  0  0  0  0
  1  2  1  0  0  0  0
 15 16  2  0  0  0  0
 15 17  1  0  0  0  0
 14 36  1  0  0  0  0
 11 12  1  0  0  0  0
 11 13  1  0  0  0  0
 11 14  1  0  0  0  0
  9 10  1  0  0  0  0
  9 11  1  0  0  0  0
  9 15  1  0  0  0  0
  7  8  1  0  0  0  0
  7  9  1  0  0  0  0
 19 20  1  0  0  0  0
 19 21  1  0  0  0  0
 19 22  1  0  0  0  0
 17 18  1  0  0  0  0
 17 19  1  0  0  0  0
 27 28  2  0  0  0  0
 27 29  1  0  0  0  0
 24 25  1  0  0  0  0
 24 26  1  0  0  0  0
 24 27  1  0  0  0  0
 23 24  1  0  0  0  0
 37 38  2  0  0  0  0
 37 39  1  0  0  0  0
 33 34  1  0  0  0  0
 33 35  1  0  0  0  0
 33 36  1  0  0  0  0
 31 32  1  0  0  0  0
 31 33  1  0  0  0  0
 31 37  1  0  0  0  0
 29 30  1  0  0  0  0
 29 31  1  0  0  0  0
 41 42  1  0  0  0  0
 41 43  1  0  0  0  0
 41 44  1  0  0  0  0
 39 40  1  0  0  0  0
 39 41  1  0  0  0  0
M  END
$$$$
default_name
  -OEChem-01062215323D

 44 43  0     1  0  0  0  0  0999 V2000
    2.4488   -3.0448    2.0990 H   0  0  0  0  0  0  0  0  0  0  0  0
    2.2788   -2.0018    2.3640 C   0  0  0  0  0  0  0  0  0  0  0  0
    2.9228   -1.7258    3.1960 H   0  0  0  0  0  0  0  0  0  0  0  0
    1.2358   -1.8618    2.6430 H   0  0  0  0  0  0  0  0  0  0  0  0
    2.6018   -1.1318    1.1730 C   0  0  0  0  0  0  0  0  0  0  0  0
    3.0048   -1.6348    0.1320 O   0  0  0  0  0  0  0  0  0  0  0  0
    2.4088    0.1752    1.3190 N   0  0  0  0  0  0  0  0  0  0  0  0
    2.0708    0.5242    2.2050 H   0  0  0  0  0  0  0  0  0  0  0  0
    2.6638    1.1782    0.2840 C   0  0  1  0  0  0  0  0  0  0  0  0
    3.5002    0.8320   -0.3255 H   0  0  0  0  0  0  0  0  0  0  0  0
    1.4306    1.3076   -0.6271 C   0  0  0  0  0  0  0  0  0  0  0  0
    1.5708    2.1642   -1.2876 H   0  0  0  0  0  0  0  0  0  0  0  0
    0.5737    1.5431    0.0035 H   0  0  0  0  0  0  0  0  0  0  0  0
    0.9641   -0.1300   -1.6363 S   0  0  0  0  0  0  0  0  0  0  0  0
    3.0639    2.5286    0.9072 C   0  0  0  0  0  0  0  0  0  0  0  0
    4.0670    2.6177    1.6150 O   0  0  0  0  0  0  0  0  0  0  0  0
    2.2814    3.5821    0.6377 N   0  0  0  0  0  0  0  0  0  0  0  0
    1.4771    3.4390    0.0484 H   0  0  0  0  0  0  0  0  0  0  0  0
    2.5254    4.9271    1.1547 C   0  0  0  0  0  0  0  0  0  0  0  0
    2.4674    4.9173    2.2452 H   0  0  0  0  0  0  0  0  0  0  0  0
    3.5240    5.2589    0.8648 H   0  0  0  0  0  0  0  0  0  0  0  0
    1.7854    5.6249    0.7606 H   0  0  0  0  0  0  0  0  0  0  0  0
    3.5571    3.7450   -8.2758 H   0  0  0  0  0  0  0  0  0  0  0  0
    2.7061    3.7039   -7.5975 C   0  0  0  0  0  0  0  0  0  0  0  0
    1.7815    3.8203   -8.1607 H   0  0  0  0  0  0  0  0  0  0  0  0
    2.7903    4.4975   -6.8574 H   0  0  0  0  0  0  0  0  0  0  0  0
    2.7010    2.3651   -6.8976 C   0  0  0  0  0  0  0  0  0  0  0  0
    3.5769    1.5430   -7.1298 O   0  0  0  0  0  0  0  0  0  0  0  0
    1.7139    2.1518   -6.0318 N   0  0  0  0  0  0  0  0  0  0  0  0
    1.0191    2.8721   -5.8978 H   0  0  0  0  0  0  0  0  0  0  0  0
    1.5427    0.9243   -5.2545 C   0  0  1  0  0  0  0  0  0  0  0  0
    1.8312    0.0704   -5.8700 H   0  0  0  0  0  0  0  0  0  0  0  0
    2.4882    0.9902   -4.0470 C   0  0  0  0  0  0  0  0  0  0  0  0
    3.5025    1.1112   -4.4303 H   0  0  0  0  0  0  0  0  0  0  0  0
    2.2559    1.8826   -3.4655 H   0  0  0  0  0  0  0  0  0  0  0  0
    2.5151   -0.4361   -2.9282 S   0  0  0  0  0  0  0  0  0  0  0  0
    0.0694    0.7460   -4.8470 C   0  0  0  0  0  0  0  0  0  0  0  0
   -0.6397    1.7352   -4.6567 O   0  0  0  0  0  0  0  0  0  0  0  0
   -0.3888   -0.5062   -4.7224 N   0  0  0  0  0  0  0  0  0  0  0  0
    0.2636   -1.2613   -4.8625 H   0  0  0  0  0  0  0  0  0  0  0  0
   -1.7571   -0.8468   -4.3349 C   0  0  0  0  0  0  0  0  0  0  0  0
   -1.8940   -0.6627   -3.2680 H   0  0  0  0  0  0  0  0  0  0  0  0
   -2.4673   -0.2285   -4.8891 H   0  0  0  0  0  0  0  0  0  0  0  0
   -1.9584   -1.8970   -4.5469 H   0  0  0  0  0  0  0  0  0  0  0  0
  5  6  2  0  0  0  0
  5  7  1  0  0  0  0
  2  3  1  0  0  0  0
  2  4  1  0  0  0  0
  2  5  1  0  0  0  0
  1  2  1  0  0  0  0
 15 16  2  0  0  0  0
 15 17  1  0  0  0  0
 14 36  1  0  0  0  0
 11 12  1  0  0  0  0
 11 13  1  0  0  0  0
 11 14  1  0  0  0  0
  9 10  1  0  0  0  0
  9 11  1  0  0  0  0
  9 15  1  0  0  0  0
  7  8  1  0  0  0  0
  7  9  1  0  0  0  0
 19 20  1  0  0  0  0
 19 21  1  0  0  0  0
 19 22  1  0  0  0  0
 17 18  1  0  0  0  0
 17 19  1  0  0  0  0
 27 28  2  0  0  0  0
 27 29  1  0  0  0  0
 24 25  1  0  0  0  0
 24 26  1  0  0  0  0
 24 27  1  0  0  0  0
 23 24  1  0  0  0  0
 37 38  2  0  0  0  0
 37 39  1  0  0  0  0
 33 34  1  0  0  0  0
 33 35  1  0  0  0  0
 33 36  1  0  0  0  0
 31 32  1  0  0  0  0
 31 33  1  0  0  0  0
 31 37  1  0  0  0  0
 29 30  1  0  0  0  0
 29 31  1  0  0  0  0
 41 42  1  0  0  0  0
 41 43  1  0  0  0  0
 41 44  1  0  0  0  0
 39 40  1  0  0  0  0
 39 41  1  0  0  0  0
M  END
$$$$
default_name
  -OEChem-01062215323D

 44 43  0     1  0  0  0  0  0999 V2000
    2.4488   -3.0448    2.0990 H   0  0  0  0  0  0  0  0  0  0  0  0
    2.2788   -2.0018    2.3640 C   0  0  0  0  0  0  0  0  0  0  0  0
    2.9228   -1.7258    3.1960 H   0  0  0  0  0  0  0  0  0  0  0  0
    1.2358   -1.8618    2.6430 H   0  0  0  0  0  0  0  0  0  0  0  0
    2.6018   -1.1318    1.1730 C   0  0  0  0  0  0  0  0  0  0  0  0
    3.0048   -1.6348    0.1320 O   0  0  0  0  0  0  0  0  0  0  0  0
    2.4088    0.1752    1.3190 N   0  0  0  0  0  0  0  0  0  0  0  0
    2.0708    0.5242    2.2050 H   0  0  0  0  0  0  0  0  0  0  0  0
    2.6638    1.1782    0.2840 C   0  0  1  0  0  0  0  0  0  0  0  0
    3.5002    0.8320   -0.3255 H   0  0  0  0  0  0  0  0  0  0  0  0
    1.4306    1.3076   -0.6271 C   0  0  0  0  0  0  0  0  0  0  0  0
    1.5708    2.1642   -1.2876 H   0  0  0  0  0  0  0  0  0  0  0  0
    0.5737    1.5431    0.0035 H   0  0  0  0  0  0  0  0  0  0  0  0
    0.9641   -0.1300   -1.6363 S   0  0  0  0  0  0  0  0  0  0  0  0
    3.0639    2.5286    0.9072 C   0  0  0  0  0  0  0  0  0  0  0  0
    4.1896    2.6908    1.3779 O   0  0  0  0  0  0  0  0  0  0  0  0
    2.1420    3.5007    0.9037 N   0  0  0  0  0  0  0  0  0  0  0  0
    1.2413    3.3007    0.4995 H   0  0  0  0  0  0  0  0  0  0  0  0
    2.3670    4.8340    1.4582 C   0  0  0  0  0  0  0  0  0  0  0  0
    2.5631    4.7576    2.5298 H   0  0  0  0  0  0  0  0  0  0  0  0
    3.2349    5.2915    0.9798 H   0  0  0  0  0  0  0  0  0  0  0  0
    1.4920    5.4648    1.2960 H   0  0  0  0  0  0  0  0  0  0  0  0
    3.5571    3.7450   -8.2758 H   0  0  0  0  0  0  0  0  0  0  0  0
    2.7061    3.7039   -7.5975 C   0  0  0  0  0  0  0  0  0  0  0  0
    1.7815    3.8203   -8.1607 H   0  0  0  0  0  0  0  0  0  0  0  0
    2.7903    4.4975   -6.8574 H   0  0  0  0  0  0  0  0  0  0  0  0
    2.7010    2.3651   -6.8976 C   0  0  0  0  0  0  0  0  0  0  0  0
    3.5769    1.5430   -7.1298 O   0  0  0  0  0  0  0  0  0  0  0  0
    1.7139    2.1518   -6.0318 N   0  0  0  0  0  0  0  0  0  0  0  0
    1.0191    2.8721   -5.8978 H   0  0  0  0  0  0  0  0  0  0  0  0
    1.5427    0.9243   -5.2545 C   0  0  1  0  0  0  0  0  0  0  0  0
    1.8312    0.0704   -5.8700 H   0  0  0  0  0  0  0  0  0  0  0  0
    2.4882    0.9902   -4.0470 C   0  0  0  0  0  0  0  0  0  0  0  0
    3.5025    1.1112   -4.4303 H   0  0  0  0  0  0  0  0  0  0  0  0
    2.2559    1.8826   -3.4655 H   0  0  0  0  0  0  0  0  0  0  0  0
    2.5151   -0.4361   -2.9282 S   0  0  0  0  0  0  0  0  0  0  0  0
    0.0694    0.7460   -4.8470 C   0  0  0  0  0  0  0  0  0  0  0  0
   -0.6397    1.7352   -4.6567 O   0  0  0  0  0  0  0  0  0  0  0  0
   -0.3888   -0.5062   -4.7224 N   0  0  0  0  0  0  0  0  0  0  0  0
    0.2636   -1.2613   -4.8625 H   0  0  0  0  0  0  0  0  0  0  0  0
   -1.7571   -0.8468   -4.3349 C   0  0  0  0  0  0  0  0  0  0  0  0
   -1.8940   -0.6627   -3.2680 H   0  0  0  0  0  0  0  0  0  0  0  0
   -2.4673   -0.2285   -4.8891 H   0  0  0  0  0  0  0  0  0  0  0  0
   -1.9584   -1.8970   -4.5469 H   0  0  0  0  0  0  0  0  0  0  0  0
  5  6  2  0  0  0  0
  5  7  1  0  0  0  0
  2  3  1  0  0  0  0
  2  4  1  0  0  0  0
  2  5  1  0  0  0  0
  1  2  1  0  0  0  0
 15 16  2  0  0  0  0
 15 17  1  0  0  0  0
 14 36  1  0  0  0  0
 11 12  1  0  0  0  0
 11 13  1  0  0  0  0
 11 14  1  0  0  0  0
  9 10  1  0  0  0  0
  9 11  1  0  0  0  0
  9 15  1  0  0  0  0
  7  8  1  0  0  0  0
  7  9  1  0  0  0  0
 19 20  1  0  0  0  0
 19 21  1  0  0  0  0
 19 22  1  0  0  0  0
 17 18  1  0  0  0  0
 17 19  1  0  0  0  0
 27 28  2  0  0  0  0
 27 29  1  0  0  0  0
 24 25  1  0  0  0  0
 24 26  1  0  0  0  0
 24 27  1  0  0  0  0
 23 24  1  0  0  0  0
 37 38  2  0  0  0  0
 37 39  1  0  0  0  0
 33 34  1  0  0  0  0
 33 35  1  0  0  0  0
 33 36  1  0  0  0  0
 31 32  1  0  0  0  0
 31 33  1  0  0  0  0
 31 37  1  0  0  0  0
 29 30  1  0  0  0  0
 29 31  1  0  0  0  0
 41 42  1  0  0  0  0
 41 43  1  0  0  0  0
 41 44  1  0  0  0  0
 39 40  1  0  0  0  0
 39 41  1  0  0  0  0
M  END
$$$$
default_name
  -OEChem-01062215323D

 44 43  0     1  0  0  0  0  0999 V2000
    2.4488   -3.0448    2.0990 H   0  0  0  0  0  0  0  0  0  0  0  0
    2.2788   -2.0018    2.3640 C   0  0  0  0  0  0  0  0  0  0  0  0
    2.9228   -1.7258    3.1960 H   0  0  0  0  0  0  0  0  0  0  0  0
    1.2358   -1.8618    2.6430 H   0  0  0  0  0  0  0  0  0  0  0  0
    2.6018   -1.1318    1.1730 C   0  0  0  0  0  0  0  0  0  0  0  0
    3.0048   -1.6348    0.1320 O   0  0  0  0  0  0  0  0  0  0  0  0
    2.4088    0.1752    1.3190 N   0  0  0  0  0  0  0  0  0  0  0  0
    2.0708    0.5242    2.2050 H   0  0  0  0  0  0  0  0  0  0  0  0
    2.6638    1.1782    0.2840 C   0  0  1  0  0  0  0  0  0  0  0  0
    3.5002    0.8320   -0.3255 H   0  0  0  0  0  0  0  0  0  0  0  0
    1.4306    1.3076   -0.6271 C   0  0  0  0  0  0  0  0  0  0  0  0
    1.5708    2.1642   -1.2876 H   0  0  0  0  0  0  0  0  0  0  0  0
    0.5737    1.5431    0.0035 H   0  0  0  0  0  0  0  0  0  0  0  0
    0.9641   -0.1300   -1.6363 S   0  0  0  0  0  0  0  0  0  0  0  0
    3.0639    2.5286    0.9072 C   0  0  0  0  0  0  0  0  0  0  0  0
    4.2466    2.7902    1.1259 O   0  0  0  0  0  0  0  0  0  0  0  0
    2.0762    3.3895    1.1869 N   0  0  0  0  0  0  0  0  0  0  0  0
    1.1303    3.1120    0.9794 H   0  0  0  0  0  0  0  0  0  0  0  0
    2.2926    4.7070    1.7810 C   0  0  0  0  0  0  0  0  0  0  0  0
    2.7369    4.5942    2.7722 H   0  0  0  0  0  0  0  0  0  0  0  0
    2.9783    5.2849    1.1587 H   0  0  0  0  0  0  0  0  0  0  0  0
    1.3469    5.2434    1.8689 H   0  0  0  0  0  0  0  0  0  0  0  0
    3.5571    3.7450   -8.2758 H   0  0  0  0  0  0  0  0  0  0  0  0
    2.7061    3.7039   -7.5975 C   0  0  0  0  0  0  0  0  0  0  0  0
    1.7815    3.8203   -8.1607 H   0  0  0  0  0  0  0  0  0  0  0  0
    2.7903    4.4975   -6.8574 H   0  0  0  0  0  0  0  0  0  0  0  0
    2.7010    2.3651   -6.8976 C   0  0  0  0  0  0  0  0  0  0  0  0
    3.5769    1.5430   -7.1298 O   0  0  0  0  0  0  0  0  0  0  0  0
    1.7139    2.1518   -6.0318 N   0  0  0  0  0  0  0  0  0  0  0  0
    1.0191    2.8721   -5.8978 H   0  0  0  0  0  0  0  0  0  0  0  0
    1.5427    0.9243   -5.2545 C   0  0  1  0  0  0  0  0  0  0  0  0
    1.8312    0.0704   -5.8700 H   0  0  0  0  0  0  0  0  0  0  0  0
    2.4882    0.9902   -4.0470 C   0  0  0  0  0  0  0  0  0  0  0  0
    3.5025    1.1112   -4.4303 H   0  0  0  0  0  0  0  0  0  0  0  0
    2.2559    1.8826   -3.4655 H   0  0  0  0  0  0  0  0  0  0  0  0
    2.5151   -0.4361   -2.9282 S   0  0  0  0  0  0  0  0  0  0  0  0
    0.0694    0.7460   -4.8470 C   0  0  0  0  0  0  0  0  0  0  0  0
   -0.6397    1.7352   -4.6567 O   0  0  0  0  0  0  0  0  0  0  0  0
   -0.3888   -0.5062   -4.7224 N   0  0  0  0  0  0  0  0  0  0  0  0
    0.2636   -1.2613   -4.8625 H   0  0  0  0  0  0  0  0  0  0  0  0
   -1.7571   -0.8468   -4.3349 C   0  0  0  0  0  0  0  0  0  0  0  0
   -1.8940   -0.6627   -3.2680 H   0  0  0  0  0  0  0  0  0  0  0  0
   -2.4673   -0.2285   -4.8891 H   0  0  0  0  0  0  0  0  0  0  0  0
   -1.9584   -1.8970   -4.5469 H   0  0  0  0  0  0  0  0  0  0  0  0
  5  6  2  0  0  0  0
  5  7  1  0  0  0  0
  2  3  1  0  0  0  0
  2  4  1  0  0  0  0
  2  5  1  0  0  0  0
  1  2  1  0  0  0  0
 15 16  2  0  0  0  0
 15 17  1  0  0  0  0
 14 36  1  0  0  0  0
 11 12  1  0  0  0  0
 11 13  1  0  0  0  0
 11 14  1  0  0  0  0
  9 10  1  0  0  0  0
  9 11  1  0  0  0  0
  9 15  1  0  0  0  0
  7  8  1  0  0  0  0
  7  9  1  0  0  0  0
 19 20  1  0  0  0  0
 19 21  1  0  0  0  0
 19 22  1  0  0  0  0
 17 18  1  0  0  0  0
 17 19  1  0  0  0  0
 27 28  2  0  0  0  0
 27 29  1  0  0  0  0
 24 25  1  0  0  0  0
 24 26  1  0  0  0  0
 24 27  1  0  0  0  0
 23 24  1  0  0  0  0
 37 38  2  0  0  0  0
 37 39  1  0  0  0  0
 33 34  1  0  0  0  0
 33 35  1  0  0  0  0
 33 36  1  0  0  0  0
 31 32  1  0  0  0  0
 31 33  1  0  0  0  0
 31 37  1  0  0  0  0
 29 30  1  0  0  0  0
 29 31  1  0  0  0  0
 41 42  1  0  0  0  0
 41 43  1  0  0  0  0
 41 44  1  0  0  0  0
 39 40  1  0  0  0  0
 39 41  1  0  0  0  0
M  END
$$$$
default_name
  -OEChem-01062215323D

 44 43  0     1  0  0  0  0  0999 V2000
    2.4488   -3.0448    2.0990 H   0  0  0  0  0  0  0  0  0  0  0  0
    2.2788   -2.0018    2.3640 C   0  0  0  0  0  0  0  0  0  0  0  0
    2.9228   -1.7258    3.1960 H   0  0  0  0  0  0  0  0  0  0  0  0
    1.2358   -1.8618    2.6430 H   0  0  0  0  0  0  0  0  0  0  0  0
    2.6018   -1.1318    1.1730 C   0  0  0  0  0  0  0  0  0  0  0  0
    3.0048   -1.6348    0.1320 O   0  0  0  0  0  0  0  0  0  0  0  0
    2.4088    0.1752    1.3190 N   0  0  0  0  0  0  0  0  0  0  0  0
    2.0708    0.5242    2.2050 H   0  0  0  0  0  0  0  0  0  0  0  0
    2.6638    1.1782    0.2840 C   0  0  1  0  0  0  0  0  0  0  0  0
    3.5002    0.8320   -0.3255 H   0  0  0  0  0  0  0  0  0  0  0  0
    1.4306    1.3076   -0.6271 C   0  0  0  0  0  0  0  0  0  0  0  0
    1.5708    2.1642   -1.2876 H   0  0  0  0  0  0  0  0  0  0  0  0
    0.5737    1.5431    0.0035 H   0  0  0  0  0  0  0  0  0  0  0  0
    0.9641   -0.1300   -1.6363 S   0  0  0  0  0  0  0  0  0  0  0  0
    3.0639    2.5286    0.9072 C   0  0  0  0  0  0  0  0  0  0  0  0
    4.2341    2.9092    0.8763 O   0  0  0  0  0  0  0  0  0  0  0  0
    2.0886    3.2562    1.4678 N   0  0  0  0  0  0  0  0  0  0  0  0
    1.1518    2.8860    1.4555 H   0  0  0  0  0  0  0  0  0  0  0  0
    2.3073    4.5549    2.1012 C   0  0  0  0  0  0  0  0  0  0  0  0
    2.9770    4.4383    2.9560 H   0  0  0  0  0  0  0  0  0  0  0  0
    2.7717    5.2397    1.3893 H   0  0  0  0  0  0  0  0  0  0  0  0
    1.3599    4.9758    2.4403 H   0  0  0  0  0  0  0  0  0  0  0  0
    3.5571    3.7450   -8.2758 H   0  0  0  0  0  0  0  0  0  0  0  0
    2.7061    3.7039   -7.5975 C   0  0  0  0  0  0  0  0  0  0  0  0
    1.7815    3.8203   -8.1607 H   0  0  0  0  0  0  0  0  0  0  0  0
    2.7903    4.4975   -6.8574 H   0  0  0  0  0  0  0  0  0  0  0  0
    2.7010    2.3651   -6.8976 C   0  0  0  0  0  0  0  0  0  0  0  0
    3.5769    1.5430   -7.1298 O   0  0  0  0  0  0  0  0  0  0  0  0
    1.7139    2.1518   -6.0318 N   0  0  0  0  0  0  0  0  0  0  0  0
    1.0191    2.8721   -5.8978 H   0  0  0  0  0  0  0  0  0  0  0  0
    1.5427    0.9243   -5.2545 C   0  0  1  0  0  0  0  0  0  0  0  0
    1.8312    0.0704   -5.8700 H   0  0  0  0  0  0  0  0  0  0  0  0
    2.4882    0.9902   -4.0470 C   0  0  0  0  0  0  0  0  0  0  0  0
    3.5025    1.1112   -4.4303 H   0  0  0  0  0  0  0  0  0  0  0  0
    2.2559    1.8826   -3.4655 H   0  0  0  0  0  0  0  0  0  0  0  0
    2.5151   -0.4361   -2.9282 S   0  0  0  0  0  0  0  0  0  0  0  0
    0.0694    0.7460   -4.8470 C   0  0  0  0  0  0  0  0  0  0  0  0
   -0.6397    1.7352   -4.6567 O   0  0  0  0  0  0  0  0  0  0  0  0
   -0.3888   -0.5062   -4.7224 N   0  0  0  0  0  0  0  0  0  0  0  0
    0.2636   -1.2613   -4.8625 H   0  0  0  0  0  0  0  0  0  0  0  0
   -1.7571   -0.8468   -4.3349 C   0  0  0  0  0  0  0  0  0  0  0  0
   -1.8940   -0.6627   -3.2680 H   0  0  0  0  0  0  0  0  0  0  0  0
   -2.4673   -0.2285   -4.8891 H   0  0  0  0  0  0  0  0  0  0  0  0
   -1.9584   -1.8970   -4.5469 H   0  0  0  0  0  0  0  0  0  0  0  0
  5  6  2  0  0  0  0
  5  7  1  0  0  0  0
  2  3  1  0  0  0  0
  2  4  1  0  0  0  0
  2  5  1  0  0  0  0
  1  2  1  0  0  0  0
 15 16  2  0  0  0  0
 15 17  1  0  0  0  0
 14 36  1  0  0  0  0
 11 12  1  0  0  0  0
 11 13  1  0  0  0  0
 11 14  1  0  0  0  0
  9 10  1  0  0  0  0
  9 11  1  0  0  0  0
  9 15  1  0  0  0  0
  7  8  1  0  0  0  0
  7  9  1  0  0  0  0
 19 20  1  0  0  0  0
 19 21  1  0  0  0  0
 19 22  1  0  0  0  0
 17 18  1  0  0  0  0
 17 19  1  0  0  0  0
 27 28  2  0  0  0  0
 27 29  1  0  0  0  0
 24 25  1  0  0  0  0
 24 26  1  0  0  0  0
 24 27  1  0  0  0  0
 23 24  1  0  0  0  0
 37 38  2  0  0  0  0
 37 39  1  0  0  0  0
 33 34  1  0  0  0  0
 33 35  1  0  0  0  0
 33 36  1  0  0  0  0
 31 32  1  0  0  0  0
 31 33  1  0  0  0  0
 31 37  1  0  0  0  0
 29 30  1  0  0  0  0
 29 31  1  0  0  0  0
 41 42  1  0  0  0  0
 41 43  1  0  0  0  0
 41 44  1  0  0  0  0
 39 40  1  0  0  0  0
 39 41  1  0  0  0  0
M  END
$$$$
default_name
  -OEChem-01062215323D

 44 43  0     1  0  0  0  0  0999 V2000
    2.4488   -3.0448    2.0990 H   0  0  0  0  0  0  0  0  0  0  0  0
    2.2788   -2.0018    2.3640 C   0  0  0  0  0  0  0  0  0  0  0  0
    2.9228   -1.7258    3.1960 H   0  0  0  0  0  0  0  0  0  0  0  0
    1.2358   -1.8618    2.6430 H   0  0  0  0  0  0  0  0  0  0  0  0
    2.6018   -1.1318    1.1730 C   0  0  0  0  0  0  0  0  0  0  0  0
    3.0048   -1.6348    0.1320 O   0  0  0  0  0  0  0  0  0  0  0  0
    2.4088    0.1752    1.3190 N   0  0  0  0  0  0  0  0  0  0  0  0
    2.0708    0.5242    2.2050 H   0  0  0  0  0  0  0  0  0  0  0  0
    2.6638    1.1782    0.2840 C   0  0  1  0  0  0  0  0  0  0  0  0
    3.5002    0.8320   -0.3255 H   0  0  0  0  0  0  0  0  0  0  0  0
    1.4306    1.3076   -0.6271 C   0  0  0  0  0  0  0  0  0  0  0  0
    1.5708    2.1642   -1.2876 H   0  0  0  0  0  0  0  0  0  0  0  0
    0.5737    1.5431    0.0035 H   0  0  0  0  0  0  0  0  0  0  0  0
    0.9641   -0.1300   -1.6363 S   0  0  0  0  0  0  0  0  0  0  0  0
    3.0639    2.5286    0.9072 C   0  0  0  0  0  0  0  0  0  0  0  0
    4.1529    3.0395    0.6460 O   0  0  0  0  0  0  0  0  0  0  0  0
    2.1782    3.1098    1.7274 N   0  0  0  0  0  0  0  0  0  0  0  0
    1.3043    2.6378    1.8953 H   0  0  0  0  0  0  0  0  0  0  0  0
    2.4101    4.3880    2.3969 C   0  0  0  0  0  0  0  0  0  0  0  0
    3.2668    4.3005    3.0685 H   0  0  0  0  0  0  0  0  0  0  0  0
    2.6292    5.1589    1.6559 H   0  0  0  0  0  0  0  0  0  0  0  0
    1.5301    4.6803    2.9713 H   0  0  0  0  0  0  0  0  0  0  0  0
    3.5571    3.7450   -8.2758 H   0  0  0  0  0  0  0  0  0  0  0  0
    2.7061    3.7039   -7.5975 C   0  0  0  0  0  0  0  0  0  0  0  0
    1.7815    3.8203   -8.1607 H   0  0  0  0  0  0  0  0  0  0  0  0
    2.7903    4.4975   -6.8574 H   0  0  0  0  0  0  0  0  0  0  0  0
    2.7010    2.3651   -6.8976 C   0  0  0  0  0  0  0  0  0  0  0  0
    3.5769    1.5430   -7.1298 O   0  0  0  0  0  0  0  0  0  0  0  0
    1.7139    2.1518   -6.0318 N   0  0  0  0  0  0  0  0  0  0  0  0
    1.0191    2.8721   -5.8978 H   0  0  0  0  0  0  0  0  0  0  0  0
    1.5427    0.9243   -5.2545 C   0  0  1  0  0  0  0  0  0  0  0  0
    1.8312    0.0704   -5.8700 H   0  0  0  0  0  0  0  0  0  0  0  0
    2.4882    0.9902   -4.0470 C   0  0  0  0  0  0  0  0  0  0  0  0
    3.5025    1.1112   -4.4303 H   0  0  0  0  0  0  0  0  0  0  0  0
    2.2559    1.8826   -3.4655 H   0  0  0  0  0  0  0  0  0  0  0  0
    2.5151   -0.4361   -2.9282 S   0  0  0  0  0  0  0  0  0  0  0  0
    0.0694    0.7460   -4.8470 C   0  0  0  0  0  0  0  0  0  0  0  0
   -0.6397    1.7352   -4.6567 O   0  0  0  0  0  0  0  0  0  0  0  0
   -0.3888   -0.5062   -4.7224 N   0  0  0  0  0  0  0  0  0  0  0  0
    0.2636   -1.2613   -4.8625 H   0  0  0  0  0  0  0  0  0  0  0  0
   -1.7571   -0.8468   -4.3349 C   0  0  0  0  0  0  0  0  0  0  0  0
   -1.8940   -0.6627   -3.2680 H   0  0  0  0  0  0  0  0  0  0  0  0
   -2.4673   -0.2285   -4.8891 H   0  0  0  0  0  0  0  0  0  0  0  0
   -1.9584   -1.8970   -4.5469 H   0  0  0  0  0  0  0  0  0  0  0  0
  5  6  2  0  0  0  0
  5  7  1  0  0  0  0
  2  3  1  0  0  0  0
  2  4  1  0  0  0  0
  2  5  1  0  0  0  0
  1  2  1  0  0  0  0
 15 16  2  0  0  0  0
 15 17  1  0  0  0  0
 14 36  1  0  0  0  0
 11 12  1  0  0  0  0
 11 13  1  0  0  0  0
 11 14  1  0  0  0  0
  9 10  1  0  0  0  0
  9 11  1  0  0  0  0
  9 15  1  0  0  0  0
  7  8  1  0  0  0  0
  7  9  1  0  0  0  0
 19 20  1  0  0  0  0
 19 21  1  0  0  0  0
 19 22  1  0  0  0  0
 17 18  1  0  0  0  0
 17 19  1  0  0  0  0
 27 28  2  0  0  0  0
 27 29  1  0  0  0  0
 24 25  1  0  0  0  0
 24 26  1  0  0  0  0
 24 27  1  0  0  0  0
 23 24  1  0  0  0  0
 37 38  2  0  0  0  0
 37 39  1  0  0  0  0
 33 34  1  0  0  0  0
 33 35  1  0  0  0  0
 33 36  1  0  0  0  0
 31 32  1  0  0  0  0
 31 33  1  0  0  0  0
 31 37  1  0  0  0  0
 29 30  1  0  0  0  0
 29 31  1  0  0  0  0
 41 42  1  0  0  0  0
 41 43  1  0  0  0  0
 41 44  1  0  0  0  0
 39 40  1  0  0  0  0
 39 41  1  0  0  0  0
M  END
$$$$
default_name
  -OEChem-01062215323D

 44 43  0     1  0  0  0  0  0999 V2000
    2.4488   -3.0448    2.0990 H   0  0  0  0  0  0  0  0  0  0  0  0
    2.2788   -2.0018    2.3640 C   0  0  0  0  0  0  0  0  0  0  0  0
    2.9228   -1.7258    3.1960 H   0  0  0  0  0  0  0  0  0  0  0  0
    1.2358   -1.8618    2.6430 H   0  0  0  0  0  0  0  0  0  0  0  0
    2.6018   -1.1318    1.1730 C   0  0  0  0  0  0  0  0  0  0  0  0
    3.0048   -1.6348    0.1320 O   0  0  0  0  0  0  0  0  0  0  0  0
    2.4088    0.1752    1.3190 N   0  0  0  0  0  0  0  0  0  0  0  0
    2.0708    0.5242    2.2050 H   0  0  0  0  0  0  0  0  0  0  0  0
    2.6638    1.1782    0.2840 C   0  0  1  0  0  0  0  0  0  0  0  0
    3.5002    0.8320   -0.3255 H   0  0  0  0  0  0  0  0  0  0  0  0
    1.4306    1.3076   -0.6271 C   0  0  0  0  0  0  0  0  0  0  0  0
    1.5708    2.1642   -1.2876 H   0  0  0  0  0  0  0  0  0  0  0  0
    0.5737    1.5431    0.0035 H   0  0  0  0  0  0  0  0  0  0  0  0
    0.9641   -0.1300   -1.6363 S   0  0  0  0  0  0  0  0  0  0  0  0
    3.0639    2.5286    0.9072 C   0  0  0  0  0  0  0  0  0  0  0  0
    4.0085    3.1724    0.4507 O   0  0  0  0  0  0  0  0  0  0  0  0
    2.3391    2.9604    1.9479 N   0  0  0  0  0  0  0  0  0  0  0  0
    1.5774    2.3845    2.2688 H   0  0  0  0  0  0  0  0  0  0  0  0
    2.5940    4.2177    2.6480 C   0  0  0  0  0  0  0  0  0  0  0  0
    3.5868    4.1902    3.1021 H   0  0  0  0  0  0  0  0  0  0  0  0
    2.5606    5.0480    1.9403 H   0  0  0  0  0  0  0  0  0  0  0  0
    1.8460    4.3770    3.4258 H   0  0  0  0  0  0  0  0  0  0  0  0
    3.5571    3.7450   -8.2758 H   0  0  0  0  0  0  0  0  0  0  0  0
    2.7061    3.7039   -7.5975 C   0  0  0  0  0  0  0  0  0  0  0  0
    1.7815    3.8203   -8.1607 H   0  0  0  0  0  0  0  0  0  0  0  0
    2.7903    4.4975   -6.8574 H   0  0  0  0  0  0  0  0  0  0  0  0
    2.7010    2.3651   -6.8976 C   0  0  0  0  0  0  0  0  0  0  0  0
    3.5769    1.5430   -7.1298 O   0  0  0  0  0  0  0  0  0  0  0  0
    1.7139    2.1518   -6.0318 N   0  0  0  0  0  0  0  0  0  0  0  0
    1.0191    2.8721   -5.8978 H   0  0  0  0  0  0  0  0  0  0  0  0
    1.5427    0.9243   -5.2545 C   0  0  1  0  0  0  0  0  0  0  0  0
    1.8312    0.0704   -5.8700 H   0  0  0  0  0  0  0  0  0  0  0  0
    2.4882    0.9902   -4.0470 C   0  0  0  0  0  0  0  0  0  0  0  0
    3.5025    1.1112   -4.4303 H   0  0  0  0  0  0  0  0  0  0  0  0
    2.2559    1.8826   -3.4655 H   0  0  0  0  0  0  0  0  0  0  0  0
    2.5151   -0.4361   -2.9282 S   0  0  0  0  0  0  0  0  0  0  0  0
    0.0694    0.7460   -4.8470 C   0  0  0  0  0  0  0  0  0  0  0  0
   -0.6397    1.7352   -4.6567 O   0  0  0  0  0  0  0  0  0  0  0  0
   -0.3888   -0.5062   -4.7224 N   0  0  0  0  0  0  0  0  0  0  0  0
    0.2636   -1.2613   -4.8625 H   0  0  0  0  0  0  0  0  0  0  0  0
   -1.7571   -0.8468   -4.3349 C   0  0  0  0  0  0  0  0  0  0  0  0
   -1.8940   -0.6627   -3.2680 H   0  0  0  0  0  0  0  0  0  0  0  0
   -2.4673   -0.2285   -4.8891 H   0  0  0  0  0  0  0  0  0  0  0  0
   -1.9584   -1.8970   -4.5469 H   0  0  0  0  0  0  0  0  0  0  0  0
  5  6  2  0  0  0  0
  5  7  1  0  0  0  0
  2  3  1  0  0  0  0
  2  4  1  0  0  0  0
  2  5  1  0  0  0  0
  1  2  1  0  0  0  0
 15 16  2  0  0  0  0
 15 17  1  0  0  0  0
 14 36  1  0  0  0  0
 11 12  1  0  0  0  0
 11 13  1  0  0  0  0
 11 14  1  0  0  0  0
  9 10  1  0  0  0  0
  9 11  1  0  0  0  0
  9 15  1  0  0  0  0
  7  8  1  0  0  0  0
  7  9  1  0  0  0  0
 19 20  1  0  0  0  0
 19 21  1  0  0  0  0
 19 22  1  0  0  0  0
 17 18  1  0  0  0  0
 17 19  1  0  0  0  0
 27 28  2  0  0  0  0
 27 29  1  0  0  0  0
 24 25  1  0  0  0  0
 24 26  1  0  0  0  0
 24 27  1  0  0  0  0
 23 24  1  0  0  0  0
 37 38  2  0  0  0  0
 37 39  1  0  0  0  0
 33 34  1  0  0  0  0
 33 35  1  0  0  0  0
 33 36  1  0  0  0  0
 31 32  1  0  0  0  0
 31 33  1  0  0  0  0
 31 37  1  0  0  0  0
 29 30  1  0  0  0  0
 29 31  1  0  0  0  0
 41 42  1  0  0  0  0
 41 43  1  0  0  0  0
 41 44  1  0  0  0  0
 39 40  1  0  0  0  0
 39 41  1  0  0  0  0
M  END
$$$$
default_name
  -OEChem-01062215323D

 44 43  0     1  0  0  0  0  0999 V2000
    2.4488   -3.0448    2.0990 H   0  0  0  0  0  0  0  0  0  0  0  0
    2.2788   -2.0018    2.3640 C   0  0  0  0  0  0  0  0  0  0  0  0
    2.9228   -1.7258    3.1960 H   0  0  0  0  0  0  0  0  0  0  0  0
    1.2358   -1.8618    2.6430 H   0  0  0  0  0  0  0  0  0  0  0  0
    2.6018   -1.1318    1.1730 C   0  0  0  0  0  0  0  0  0  0  0  0
    3.0048   -1.6348    0.1320 O   0  0  0  0  0  0  0  0  0  0  0  0
    2.4088    0.1752    1.3190 N   0  0  0  0  0  0  0  0  0  0  0  0
    2.0708    0.5242    2.2050 H   0  0  0  0  0  0  0  0  0  0  0  0
    2.6638    1.1782    0.2840 C   0  0  1  0  0  0  0  0  0  0  0  0
    3.5002    0.8320   -0.3255 H   0  0  0  0  0  0  0  0  0  0  0  0
    1.4306    1.3076   -0.6271 C   0  0  0  0  0  0  0  0  0  0  0  0
    1.5708    2.1642   -1.2876 H   0  0  0  0  0  0  0  0  0  0  0  0
    0.5737    1.5431    0.0035 H   0  0  0  0  0  0  0  0  0  0  0  0
    0.9641   -0.1300   -1.6363 S   0  0  0  0  0  0  0  0  0  0  0  0
    3.0639    2.5286    0.9072 C   0  0  0  0  0  0  0  0  0  0  0  0
    3.8109    3.2987    0.3038 O   0  0  0  0  0  0  0  0  0  0  0  0
    2.5601    2.8181    2.1144 N   0  0  0  0  0  0  0  0  0  0  0  0
    1.9525    2.1434    2.5506 H   0  0  0  0  0  0  0  0  0  0  0  0
    2.8464    4.0555    2.8373 C   0  0  0  0  0  0  0  0  0  0  0  0
    3.9150    4.1149    3.0546 H   0  0  0  0  0  0  0  0  0  0  0  0
    2.5704    4.9146    2.2231 H   0  0  0  0  0  0  0  0  0  0  0  0
    2.2861    4.0865    3.7726 H   0  0  0  0  0  0  0  0  0  0  0  0
    3.5571    3.7450   -8.2758 H   0  0  0  0  0  0  0  0  0  0  0  0
    2.7061    3.7039   -7.5975 C   0  0  0  0  0  0  0  0  0  0  0  0
    1.7815    3.8203   -8.1607 H   0  0  0  0  0  0  0  0  0  0  0  0
    2.7903    4.4975   -6.8574 H   0  0  0  0  0  0  0  0  0  0  0  0
    2.7010    2.3651   -6.8976 C   0  0  0  0  0  0  0  0  0  0  0  0
    3.5769    1.5430   -7.1298 O   0  0  0  0  0  0  0  0  0  0  0  0
    1.7139    2.1518   -6.0318 N   0  0  0  0  0  0  0  0  0  0  0  0
    1.0191    2.8721   -5.8978 H   0  0  0  0  0  0  0  0  0  0  0  0
    1.5427    0.9243   -5.2545 C   0  0  1  0  0  0  0  0  0  0  0  0
    1.8312    0.0704   -5.8700 H   0  0  0  0  0  0  0  0  0  0  0  0
    2.4882    0.9902   -4.0470 C   0  0  0  0  0  0  0  0  0  0  0  0
    3.5025    1.1112   -4.4303 H   0  0  0  0  0  0  0  0  0  0  0  0
    2.2559    1.8826   -3.4655 H   0  0  0  0  0  0  0  0  0  0  0  0
    2.5151   -0.4361   -2.9282 S   0  0  0  0  0  0  0  0  0  0  0  0
    0.0694    0.7460   -4.8470 C   0  0  0  0  0  0  0  0  0  0  0  0
   -0.6397    1.7352   -4.6567 O   0  0  0  0  0  0  0  0  0  0  0  0
   -0.3888   -0.5062   -4.7224 N   0  0  0  0  0  0  0  0  0  0  0  0
    0.2636   -1.2613   -4.8625 H   0  0  0  0  0  0  0  0  0  0  0  0
   -1.7571   -0.8468   -4.3349 C   0  0  0  0  0  0  0  0  0  0  0  0
   -1.8940   -0.6627   -3.2680 H   0  0  0  0  0  0  0  0  0  0  0  0
   -2.4673   -0.2285   -4.8891 H   0  0  0  0  0  0  0  0  0  0  0  0
   -1.9584   -1.8970   -4.5469 H   0  0  0  0  0  0  0  0  0  0  0  0
  5  6  2  0  0  0  0
  5  7  1  0  0  0  0
  2  3  1  0  0  0  0
  2  4  1  0  0  0  0
  2  5  1  0  0  0  0
  1  2  1  0  0  0  0
 15 16  2  0  0  0  0
 15 17  1  0  0  0  0
 14 36  1  0  0  0  0
 11 12  1  0  0  0  0
 11 13  1  0  0  0  0
 11 14  1  0  0  0  0
  9 10  1  0  0  0  0
  9 11  1  0  0  0  0
  9 15  1  0  0  0  0
  7  8  1  0  0  0  0
  7  9  1  0  0  0  0
 19 20  1  0  0  0  0
 19 21  1  0  0  0  0
 19 22  1  0  0  0  0
 17 18  1  0  0  0  0
 17 19  1  0  0  0  0
 27 28  2  0  0  0  0
 27 29  1  0  0  0  0
 24 25  1  0  0  0  0
 24 26  1  0  0  0  0
 24 27  1  0  0  0  0
 23 24  1  0  0  0  0
 37 38  2  0  0  0  0
 37 39  1  0  0  0  0
 33 34  1  0  0  0  0
 33 35  1  0  0  0  0
 33 36  1  0  0  0  0
 31 32  1  0  0  0  0
 31 33  1  0  0  0  0
 31 37  1  0  0  0  0
 29 30  1  0  0  0  0
 29 31  1  0  0  0  0
 41 42  1  0  0  0  0
 41 43  1  0  0  0  0
 41 44  1  0  0  0  0
 39 40  1  0  0  0  0
 39 41  1  0  0  0  0
M  END
$$$$
default_name
  -OEChem-01062215323D

 44 43  0     1  0  0  0  0  0999 V2000
    2.4488   -3.0448    2.0990 H   0  0  0  0  0  0  0  0  0  0  0  0
    2.2788   -2.0018    2.3640 C   0  0  0  0  0  0  0  0  0  0  0  0
    2.9228   -1.7258    3.1960 H   0  0  0  0  0  0  0  0  0  0  0  0
    1.2358   -1.8618    2.6430 H   0  0  0  0  0  0  0  0  0  0  0  0
    2.6018   -1.1318    1.1730 C   0  0  0  0  0  0  0  0  0  0  0  0
    3.0048   -1.6348    0.1320 O   0  0  0  0  0  0  0  0  0  0  0  0
    2.4088    0.1752    1.3190 N   0  0  0  0  0  0  0  0  0  0  0  0
    2.0708    0.5242    2.2050 H   0  0  0  0  0  0  0  0  0  0  0  0
    2.6638    1.1782    0.2840 C   0  0  1  0  0  0  0  0  0  0  0  0
    3.5002    0.8320   -0.3255 H   0  0  0  0  0  0  0  0  0  0  0  0
    1.4306    1.3076   -0.6271 C   0  0  0  0  0  0  0  0  0  0  0  0
    1.5708    2.1642   -1.2876 H   0  0  0  0  0  0  0  0  0  0  0  0
    0.5737    1.5431    0.0035 H   0  0  0  0  0  0  0  0  0  0  0  0
    0.9641   -0.1300   -1.6363 S   0  0  0  0  0  0  0  0  0  0  0  0
    3.0639    2.5286    0.9072 C   0  0  0  0  0  0  0  0  0  0  0  0
    3.5734    3.4100    0.2152 O   0  0  0  0  0  0  0  0  0  0  0  0
    2.8264    2.6925    2.2155 N   0  0  0  0  0  0  0  0  0  0  0  0
    2.4040    1.9308    2.7214 H   0  0  0  0  0  0  0  0  0  0  0  0
    3.1502    3.9126    2.9520 C   0  0  0  0  0  0  0  0  0  0  0  0
    4.2291    4.0797    2.9291 H   0  0  0  0  0  0  0  0  0  0  0  0
    2.6581    4.7677    2.4851 H   0  0  0  0  0  0  0  0  0  0  0  0
    2.8202    3.8287    3.9883 H   0  0  0  0  0  0  0  0  0  0  0  0
    3.5571    3.7450   -8.2758 H   0  0  0  0  0  0  0  0  0  0  0  0
    2.7061    3.7039   -7.5975 C   0  0  0  0  0  0  0  0  0  0  0  0
    1.7815    3.8203   -8.1607 H   0  0  0  0  0  0  0  0  0  0  0  0
    2.7903    4.4975   -6.8574 H   0  0  0  0  0  0  0  0  0  0  0  0
    2.7010    2.3651   -6.8976 C   0  0  0  0  0  0  0  0  0  0  0  0
    3.5769    1.5430   -7.1298 O   0  0  0  0  0  0  0  0  0  0  0  0
    1.7139    2.1518   -6.0318 N   0  0  0  0  0  0  0  0  0  0  0  0
    1.0191    2.8721   -5.8978 H   0  0  0  0  0  0  0  0  0  0  0  0
    1.5427    0.9243   -5.2545 C   0  0  1  0  0  0  0  0  0  0  0  0
    1.8312    0.0704   -5.8700 H   0  0  0  0  0  0  0  0  0  0  0  0
    2.4882    0.9902   -4.0470 C   0  0  0  0  0  0  0  0  0  0  0  0
    3.5025    1.1112   -4.4303 H   0  0  0  0  0  0  0  0  0  0  0  0
    2.2559    1.8826   -3.4655 H   0  0  0  0  0  0  0  0  0  0  0  0
    2.5151   -0.4361   -2.9282 S   0  0  0  0  0  0  0  0  0  0  0  0
    0.0694    0.7460   -4.8470 C   0  0  0  0  0  0  0  0  0  0  0  0
   -0.6397    1.7352   -4.6567 O   0  0  0  0  0  0  0  0  0  0  0  0
   -0.3888   -0.5062   -4.7224 N   0  0  0  0  0  0  0  0  0  0  0  0
    0.2636   -1.2613   -4.8625 H   0  0  0  0  0  0  0  0  0  0  0  0
   -1.7571   -0.8468   -4.3349 C   0  0  0  0  0  0  0  0  0  0  0  0
   -1.8940   -0.6627   -3.2680 H   0  0  0  0  0  0  0  0  0  0  0  0
   -2.4673   -0.2285   -4.8891 H   0  0  0  0  0  0  0  0  0  0  0  0
   -1.9584   -1.8970   -4.5469 H   0  0  0  0  0  0  0  0  0  0  0  0
  5  6  2  0  0  0  0
  5  7  1  0  0  0  0
  2  3  1  0  0  0  0
  2  4  1  0  0  0  0
  2  5  1  0  0  0  0
  1  2  1  0  0  0  0
 15 16  2  0  0  0  0
 15 17  1  0  0  0  0
 14 36  1  0  0  0  0
 11 12  1  0  0  0  0
 11 13  1  0  0  0  0
 11 14  1  0  0  0  0
  9 10  1  0  0  0  0
  9 11  1  0  0  0  0
  9 15  1  0  0  0  0
  7  8  1  0  0  0  0
  7  9  1  0  0  0  0
 19 20  1  0  0  0  0
 19 21  1  0  0  0  0
 19 22  1  0  0  0  0
 17 18  1  0  0  0  0
 17 19  1  0  0  0  0
 27 28  2  0  0  0  0
 27 29  1  0  0  0  0
 24 25  1  0  0  0  0
 24 26  1  0  0  0  0
 24 27  1  0  0  0  0
 23 24  1  0  0  0  0
 37 38  2  0  0  0  0
 37 39  1  0  0  0  0
 33 34  1  0  0  0  0
 33 35  1  0  0  0  0
 33 36  1  0  0  0  0
 31 32  1  0  0  0  0
 31 33  1  0  0  0  0
 31 37  1  0  0  0  0
 29 30  1  0  0  0  0
 29 31  1  0  0  0  0
 41 42  1  0  0  0  0
 41 43  1  0  0  0  0
 41 44  1  0  0  0  0
 39 40  1  0  0  0  0
 39 41  1  0  0  0  0
M  END
$$$$
default_name
  -OEChem-01062215323D

 44 43  0     1  0  0  0  0  0999 V2000
    2.4488   -3.0448    2.0990 H   0  0  0  0  0  0  0  0  0  0  0  0
    2.2788   -2.0018    2.3640 C   0  0  0  0  0  0  0  0  0  0  0  0
    2.9228   -1.7258    3.1960 H   0  0  0  0  0  0  0  0  0  0  0  0
    1.2358   -1.8618    2.6430 H   0  0  0  0  0  0  0  0  0  0  0  0
    2.6018   -1.1318    1.1730 C   0  0  0  0  0  0  0  0  0  0  0  0
    3.0048   -1.6348    0.1320 O   0  0  0  0  0  0  0  0  0  0  0  0
    2.4088    0.1752    1.3190 N   0  0  0  0  0  0  0  0  0  0  0  0
    2.0708    0.5242    2.2050 H   0  0  0  0  0  0  0  0  0  0  0  0
    2.6638    1.1782    0.2840 C   0  0  1  0  0  0  0  0  0  0  0  0
    3.5002    0.8320   -0.3255 H   0  0  0  0  0  0  0  0  0  0  0  0
    1.4306    1.3076   -0.6271 C   0  0  0  0  0  0  0  0  0  0  0  0
    1.5708    2.1642   -1.2876 H   0  0  0  0  0  0  0  0  0  0  0  0
    0.5737    1.5431    0.0035 H   0  0  0  0  0  0  0  0  0  0  0  0
    0.9641   -0.1300   -1.6363 S   0  0  0  0  0  0  0  0  0  0  0  0
    3.0639    2.5286    0.9072 C   0  0  0  0  0  0  0  0  0  0  0  0
    3.3122    3.4985    0.1911 O   0  0  0  0  0  0  0  0  0  0  0  0
    3.1196    2.5924    2.2442 N   0  0  0  0  0  0  0  0  0  0  0  0
    2.9012    1.7612    2.7697 H   0  0  0  0  0  0  0  0  0  0  0  0
    3.4846    3.7986    2.9843 C   0  0  0  0  0  0  0  0  0  0  0  0
    4.5078    4.0871    2.7343 H   0  0  0  0  0  0  0  0  0  0  0  0
    2.8176    4.6174    2.7084 H   0  0  0  0  0  0  0  0  0  0  0  0
    3.4121    3.6212    4.0580 H   0  0  0  0  0  0  0  0  0  0  0  0
    3.5571    3.7450   -8.2758 H   0  0  0  0  0  0  0  0  0  0  0  0
    2.7061    3.7039   -7.5975 C   0  0  0  0  0  0  0  0  0  0  0  0
    1.7815    3.8203   -8.1607 H   0  0  0  0  0  0  0  0  0  0  0  0
    2.7903    4.4975   -6.8574 H   0  0  0  0  0  0  0  0  0  0  0  0
    2.7010    2.3651   -6.8976 C   0  0  0  0  0  0  0  0  0  0  0  0
    3.5769    1.5430   -7.1298 O   0  0  0  0  0  0  0  0  0  0  0  0
    1.7139    2.1518   -6.0318 N   0  0  0  0  0  0  0  0  0  0  0  0
    1.0191    2.8721   -5.8978 H   0  0  0  0  0  0  0  0  0  0  0  0
    1.5427    0.9243   -5.2545 C   0  0  1  0  0  0  0  0  0  0  0  0
    1.8312    0.0704   -5.8700 H   0  0  0  0  0  0  0  0  0  0  0  0
    2.4882    0.9902   -4.0470 C   0  0  0  0  0  0  0  0  0  0  0  0
    3.5025    1.1112   -4.4303 H   0  0  0  0  0  0  0  0  0  0  0  0
    2.2559    1.8826   -3.4655 H   0  0  0  0  0  0  0  0  0  0  0  0
    2.5151   -0.4361   -2.9282 S   0  0  0  0  0  0  0  0  0  0  0  0
    0.0694    0.7460   -4.8470 C   0  0  0  0  0  0  0  0  0  0  0  0
   -0.6397    1.7352   -4.6567 O   0  0  0  0  0  0  0  0  0  0  0  0
   -0.3888   -0.5062   -4.7224 N   0  0  0  0  0  0  0  0  0  0  0  0
    0.2636   -1.2613   -4.8625 H   0  0  0  0  0  0  0  0  0  0  0  0
   -1.7571   -0.8468   -4.3349 C   0  0  0  0  0  0  0  0  0  0  0  0
   -1.8940   -0.6627   -3.2680 H   0  0  0  0  0  0  0  0  0  0  0  0
   -2.4673   -0.2285   -4.8891 H   0  0  0  0  0  0  0  0  0  0  0  0
   -1.9584   -1.8970   -4.5469 H   0  0  0  0  0  0  0  0  0  0  0  0
  5  6  2  0  0  0  0
  5  7  1  0  0  0  0
  2  3  1  0  0  0  0
  2  4  1  0  0  0  0
  2  5  1  0  0  0  0
  1  2  1  0  0  0  0
 15 16  2  0  0  0  0
 15 17  1  0  0  0  0
 14 36  1  0  0  0  0
 11 12  1  0  0  0  0
 11 13  1  0  0  0  0
 11 14  1  0  0  0  0
  9 10  1  0  0  0  0
  9 11  1  0  0  0  0
  9 15  1  0  0  0  0
  7  8  1  0  0  0  0
  7  9  1  0  0  0  0
 19 20  1  0  0  0  0
 19 21  1  0  0  0  0
 19 22  1  0  0  0  0
 17 18  1  0  0  0  0
 17 19  1  0  0  0  0
 27 28  2  0  0  0  0
 27 29  1  0  0  0  0
 24 25  1  0  0  0  0
 24 26  1  0  0  0  0
 24 27  1  0  0  0  0
 23 24  1  0  0  0  0
 37 38  2  0  0  0  0
 37 39  1  0  0  0  0
 33 34  1  0  0  0  0
 33 35  1  0  0  0  0
 33 36  1  0  0  0  0
 31 32  1  0  0  0  0
 31 33  1  0  0  0  0
 31 37  1  0  0  0  0
 29 30  1  0  0  0  0
 29 31  1  0  0  0  0
 41 42  1  0  0  0  0
 41 43  1  0  0  0  0
 41 44  1  0  0  0  0
 39 40  1  0  0  0  0
 39 41  1  0  0  0  0
M  END
$$$$
default_name
  -OEChem-01062215323D

 44 43  0     1  0  0  0  0  0999 V2000
    2.4488   -3.0448    2.0990 H   0  0  0  0  0  0  0  0  0  0  0  0
    2.2788   -2.0018    2.3640 C   0  0  0  0  0  0  0  0  0  0  0  0
    2.9228   -1.7258    3.1960 H   0  0  0  0  0  0  0  0  0  0  0  0
    1.2358   -1.8618    2.6430 H   0  0  0  0  0  0  0  0  0  0  0  0
    2.6018   -1.1318    1.1730 C   0  0  0  0  0  0  0  0  0  0  0  0
    3.0048   -1.6348    0.1320 O   0  0  0  0  0  0  0  0  0  0  0  0
    2.4088    0.1752    1.3190 N   0  0  0  0  0  0  0  0  0  0  0  0
    2.0708    0.5242    2.2050 H   0  0  0  0  0  0  0  0  0  0  0  0
    2.6638    1.1782    0.2840 C   0  0  1  0  0  0  0  0  0  0  0  0
    3.5002    0.8320   -0.3255 H   0  0  0  0  0  0  0  0  0  0  0  0
    1.4306    1.3076   -0.6271 C   0  0  0  0  0  0  0  0  0  0  0  0
    1.5708    2.1642   -1.2876 H   0  0  0  0  0  0  0  0  0  0  0  0
    0.5737    1.5431    0.0035 H   0  0  0  0  0  0  0  0  0  0  0  0
    0.9641   -0.1300   -1.6363 S   0  0  0  0  0  0  0  0  0  0  0  0
    3.0639    2.5286    0.9072 C   0  0  0  0  0  0  0  0  0  0  0  0
    3.0452    3.5583    0.2329 O   0  0  0  0  0  0  0  0  0  0  0  0
    3.4198    2.5244    2.1988 N   0  0  0  0  0  0  0  0  0  0  0  0
    3.4101    1.6462    2.6921 H   0  0  0  0  0  0  0  0  0  0  0  0
    3.8269    3.7214    2.9318 C   0  0  0  0  0  0  0  0  0  0  0  0
    4.7320    4.1364    2.4834 H   0  0  0  0  0  0  0  0  0  0  0  0
    3.0381    4.4739    2.8777 H   0  0  0  0  0  0  0  0  0  0  0  0
    4.0214    3.4780    3.9771 H   0  0  0  0  0  0  0  0  0  0  0  0
    3.5571    3.7450   -8.2758 H   0  0  0  0  0  0  0  0  0  0  0  0
    2.7061    3.7039   -7.5975 C   0  0  0  0  0  0  0  0  0  0  0  0
    1.7815    3.8203   -8.1607 H   0  0  0  0  0  0  0  0  0  0  0  0
    2.7903    4.4975   -6.8574 H   0  0  0  0  0  0  0  0  0  0  0  0
    2.7010    2.3651   -6.8976 C   0  0  0  0  0  0  0  0  0  0  0  0
    3.5769    1.5430   -7.1298 O   0  0  0  0  0  0  0  0  0  0  0  0
    1.7139    2.1518   -6.0318 N   0  0  0  0  0  0  0  0  0  0  0  0
    1.0191    2.8721   -5.8978 H   0  0  0  0  0  0  0  0  0  0  0  0
    1.5427    0.9243   -5.2545 C   0  0  1  0  0  0  0  0  0  0  0  0
    1.8312    0.0704   -5.8700 H   0  0  0  0  0  0  0  0  0  0  0  0
    2.4882    0.9902   -4.0470 C   0  0  0  0  0  0  0  0  0  0  0  0
    3.5025    1.1112   -4.4303 H   0  0  0  0  0  0  0  0  0  0  0  0
    2.2559    1.8826   -3.4655 H   0  0  0  0  0  0  0  0  0  0  0  0
    2.5151   -0.4361   -2.9282 S   0  0  0  0  0  0  0  0  0  0  0  0
    0.0694    0.7460   -4.8470 C   0  0  0  0  0  0  0  0  0  0  0  0
   -0.6397    1.7352   -4.6567 O   0  0  0  0  0  0  0  0  0  0  0  0
   -0.3888   -0.5062   -4.7224 N   0  0  0  0  0  0  0  0  0  0  0  0
    0.2636   -1.2613   -4.8625 H   0  0  0  0  0  0  0  0  0  0  0  0
   -1.7571   -0.8468   -4.3349 C   0  0  0  0  0  0  0  0  0  0  0  0
   -1.8940   -0.6627   -3.2680 H   0  0  0  0  0  0  0  0  0  0  0  0
   -2.4673   -0.2285   -4.8891 H   0  0  0  0  0  0  0  0  0  0  0  0
   -1.9584   -1.8970   -4.5469 H   0  0  0  0  0  0  0  0  0  0  0  0
  5  6  2  0  0  0  0
  5  7  1  0  0  0  0
  2  3  1  0  0  0  0
  2  4  1  0  0  0  0
  2  5  1  0  0  0  0
  1  2  1  0  0  0  0
 15 16  2  0  0  0  0
 15 17  1  0  0  0  0
 14 36  1  0  0  0  0
 11 12  1  0  0  0  0
 11 13  1  0  0  0  0
 11 14  1  0  0  0  0
  9 10  1  0  0  0  0
  9 11  1  0  0  0  0
  9 15  1  0  0  0  0
  7  8  1  0  0  0  0
  7  9  1  0  0  0  0
 19 20  1  0  0  0  0
 19 21  1  0  0  0  0
 19 22  1  0  0  0  0
 17 18  1  0  0  0  0
 17 19  1  0  0  0  0
 27 28  2  0  0  0  0
 27 29  1  0  0  0  0
 24 25  1  0  0  0  0
 24 26  1  0  0  0  0
 24 27  1  0  0  0  0
 23 24  1  0  0  0  0
 37 38  2  0  0  0  0
 37 39  1  0  0  0  0
 33 34  1  0  0  0  0
 33 35  1  0  0  0  0
 33 36  1  0  0  0  0
 31 32  1  0  0  0  0
 31 33  1  0  0  0  0
 31 37  1  0  0  0  0
 29 30  1  0  0  0  0
 29 31  1  0  0  0  0
 41 42  1  0  0  0  0
 41 43  1  0  0  0  0
 41 44  1  0  0  0  0
 39 40  1  0  0  0  0
 39 41  1  0  0  0  0
M  END
$$$$
default_name
  -OEChem-01062215323D

 44 43  0     1  0  0  0  0  0999 V2000
    2.4488   -3.0448    2.0990 H   0  0  0  0  0  0  0  0  0  0  0  0
    2.2788   -2.0018    2.3640 C   0  0  0  0  0  0  0  0  0  0  0  0
    2.9228   -1.7258    3.1960 H   0  0  0  0  0  0  0  0  0  0  0  0
    1.2358   -1.8618    2.6430 H   0  0  0  0  0  0  0  0  0  0  0  0
    2.6018   -1.1318    1.1730 C   0  0  0  0  0  0  0  0  0  0  0  0
    3.0048   -1.6348    0.1320 O   0  0  0  0  0  0  0  0  0  0  0  0
    2.4088    0.1752    1.3190 N   0  0  0  0  0  0  0  0  0  0  0  0
    2.0708    0.5242    2.2050 H   0  0  0  0  0  0  0  0  0  0  0  0
    2.6638    1.1782    0.2840 C   0  0  1  0  0  0  0  0  0  0  0  0
    3.5002    0.8320   -0.3255 H   0  0  0  0  0  0  0  0  0  0  0  0
    1.4306    1.3076   -0.6271 C   0  0  0  0  0  0  0  0  0  0  0  0
    1.5708    2.1642   -1.2876 H   0  0  0  0  0  0  0  0  0  0  0  0
    0.5737    1.5431    0.0035 H   0  0  0  0  0  0  0  0  0  0  0  0
    0.9641   -0.1300   -1.6363 S   0  0  0  0  0  0  0  0  0  0  0  0
    3.0639    2.5286    0.9072 C   0  0  0  0  0  0  0  0  0  0  0  0
    2.7905    3.5853    0.3380 O   0  0  0  0  0  0  0  0  0  0  0  0
    3.7067    2.4933    2.0821 N   0  0  0  0  0  0  0  0  0  0  0  0
    3.8961    1.5937    2.4939 H   0  0  0  0  0  0  0  0  0  0  0  0
    4.1537    3.6862    2.7984 C   0  0  0  0  0  0  0  0  0  0  0  0
    4.8864    4.2245    2.1934 H   0  0  0  0  0  0  0  0  0  0  0  0
    3.3045    4.3470    2.9817 H   0  0  0  0  0  0  0  0  0  0  0  0
    4.6066    3.4089    3.7511 H   0  0  0  0  0  0  0  0  0  0  0  0
    3.5571    3.7450   -8.2758 H   0  0  0  0  0  0  0  0  0  0  0  0
    2.7061    3.7039   -7.5975 C   0  0  0  0  0  0  0  0  0  0  0  0
    1.7815    3.8203   -8.1607 H   0  0  0  0  0  0  0  0  0  0  0  0
    2.7903    4.4975   -6.8574 H   0  0  0  0  0  0  0  0  0  0  0  0
    2.7010    2.3651   -6.8976 C   0  0  0  0  0  0  0  0  0  0  0  0
    3.5769    1.5430   -7.1298 O   0  0  0  0  0  0  0  0  0  0  0  0
    1.7139    2.1518   -6.0318 N   0  0  0  0  0  0  0  0  0  0  0  0
    1.0191    2.8721   -5.8978 H   0  0  0  0  0  0  0  0  0  0  0  0
    1.5427    0.9243   -5.2545 C   0  0  1  0  0  0  0  0  0  0  0  0
    1.8312    0.0704   -5.8700 H   0  0  0  0  0  0  0  0  0  0  0  0
    2.4882    0.9902   -4.0470 C   0  0  0  0  0  0  0  0  0  0  0  0
    3.5025    1.1112   -4.4303 H   0  0  0  0  0  0  0  0  0  0  0  0
    2.2559    1.8826   -3.4655 H   0  0  0  0  0  0  0  0  0  0  0  0
    2.5151   -0.4361   -2.9282 S   0  0  0  0  0  0  0  0  0  0  0  0
    0.0694    0.7460   -4.8470 C   0  0  0  0  0  0  0  0  0  0  0  0
   -0.6397    1.7352   -4.6567 O   0  0  0  0  0  0  0  0  0  0  0  0
   -0.3888   -0.5062   -4.7224 N   0  0  0  0  0  0  0  0  0  0  0  0
    0.2636   -1.2613   -4.8625 H   0  0  0  0  0  0  0  0  0  0  0  0
   -1.7571   -0.8468   -4.3349 C   0  0  0  0  0  0  0  0  0  0  0  0
   -1.8940   -0.6627   -3.2680 H   0  0  0  0  0  0  0  0  0  0  0  0
   -2.4673   -0.2285   -4.8891 H   0  0  0  0  0  0  0  0  0  0  0  0
   -1.9584   -1.8970   -4.5469 H   0  0  0  0  0  0  0  0  0  0  0  0
  5  6  2  0  0  0  0
  5  7  1  0  0  0  0
  2  3  1  0  0  0  0
  2  4  1  0  0  0  0
  2  5  1  0  0  0  0
  1  2  1  0  0  0  0
 15 16  2  0  0  0  0
 15 17  1  0  0  0  0
 14 36  1  0  0  0  0
 11 12  1  0  0  0  0
 11 13  1  0  0  0  0
 11 14  1  0  0  0  0
  9 10  1  0  0  0  0
  9 11  1  0  0  0  0
  9 15  1  0  0  0  0
  7  8  1  0  0  0  0
  7  9  1  0  0  0  0
 19 20  1  0  0  0  0
 19 21  1  0  0  0  0
 19 22  1  0  0  0  0
 17 18  1  0  0  0  0
 17 19  1  0  0  0  0
 27 28  2  0  0  0  0
 27 29  1  0  0  0  0
 24 25  1  0  0  0  0
 24 26  1  0  0  0  0
 24 27  1  0  0  0  0
 23 24  1  0  0  0  0
 37 38  2  0  0  0  0
 37 39  1  0  0  0  0
 33 34  1  0  0  0  0
 33 35  1  0  0  0  0
 33 36  1  0  0  0  0
 31 32  1  0  0  0  0
 31 33  1  0  0  0  0
 31 37  1  0  0  0  0
 29 30  1  0  0  0  0
 29 31  1  0  0  0  0
 41 42  1  0  0  0  0
 41 43  1  0  0  0  0
 41 44  1  0  0  0  0
 39 40  1  0  0  0  0
 39 41  1  0  0  0  0
M  END
$$$$
default_name
  -OEChem-01062215323D

 44 43  0     1  0  0  0  0  0999 V2000
    2.4488   -3.0448    2.0990 H   0  0  0  0  0  0  0  0  0  0  0  0
    2.2788   -2.0018    2.3640 C   0  0  0  0  0  0  0  0  0  0  0  0
    2.9228   -1.7258    3.1960 H   0  0  0  0  0  0  0  0  0  0  0  0
    1.2358   -1.8618    2.6430 H   0  0  0  0  0  0  0  0  0  0  0  0
    2.6018   -1.1318    1.1730 C   0  0  0  0  0  0  0  0  0  0  0  0
    3.0048   -1.6348    0.1320 O   0  0  0  0  0  0  0  0  0  0  0  0
    2.4088    0.1752    1.3190 N   0  0  0  0  0  0  0  0  0  0  0  0
    2.0708    0.5242    2.2050 H   0  0  0  0  0  0  0  0  0  0  0  0
    2.6638    1.1782    0.2840 C   0  0  1  0  0  0  0  0  0  0  0  0
    3.5002    0.8320   -0.3255 H   0  0  0  0  0  0  0  0  0  0  0  0
    1.4306    1.3076   -0.6271 C   0  0  0  0  0  0  0  0  0  0  0  0
    1.5708    2.1642   -1.2876 H   0  0  0  0  0  0  0  0  0  0  0  0
    0.5737    1.5431    0.0035 H   0  0  0  0  0  0  0  0  0  0  0  0
    0.9641   -0.1300   -1.6363 S   0  0  0  0  0  0  0  0  0  0  0  0
    3.0639    2.5286    0.9072 C   0  0  0  0  0  0  0  0  0  0  0  0
    2.5655    3.5776    0.4991 O   0  0  0  0  0  0  0  0  0  0  0  0
    3.9605    2.5011    1.9023 N   0  0  0  0  0  0  0  0  0  0  0  0
    4.3261    1.6072    2.1887 H   0  0  0  0  0  0  0  0  0  0  0  0
    4.4428    3.6953    2.5929 C   0  0  0  0  0  0  0  0  0  0  0  0
    4.9605    4.3452    1.8842 H   0  0  0  0  0  0  0  0  0  0  0  0
    3.5987    4.2453    3.0130 H   0  0  0  0  0  0  0  0  0  0  0  0
    5.1278    3.4187    3.3953 H   0  0  0  0  0  0  0  0  0  0  0  0
    3.5571    3.7450   -8.2758 H   0  0  0  0  0  0  0  0  0  0  0  0
    2.7061    3.7039   -7.5975 C   0  0  0  0  0  0  0  0  0  0  0  0
    1.7815    3.8203   -8.1607 H   0  0  0  0  0  0  0  0  0  0  0  0
    2.7903    4.4975   -6.8574 H   0  0  0  0  0  0  0  0  0  0  0  0
    2.7010    2.3651   -6.8976 C   0  0  0  0  0  0  0  0  0  0  0  0
    3.5769    1.5430   -7.1298 O   0  0  0  0  0  0  0  0  0  0  0  0
    1.7139    2.1518   -6.0318 N   0  0  0  0  0  0  0  0  0  0  0  0
    1.0191    2.8721   -5.8978 H   0  0  0  0  0  0  0  0  0  0  0  0
    1.5427    0.9243   -5.2545 C   0  0  1  0  0  0  0  0  0  0  0  0
    1.8312    0.0704   -5.8700 H   0  0  0  0  0  0  0  0  0  0  0  0
    2.4882    0.9902   -4.0470 C   0  0  0  0  0  0  0  0  0  0  0  0
    3.5025    1.1112   -4.4303 H   0  0  0  0  0  0  0  0  0  0  0  0
    2.2559    1.8826   -3.4655 H   0  0  0  0  0  0  0  0  0  0  0  0
    2.5151   -0.4361   -2.9282 S   0  0  0  0  0  0  0  0  0  0  0  0
    0.0694    0.7460   -4.8470 C   0  0  0  0  0  0  0  0  0  0  0  0
   -0.6397    1.7352   -4.6567 O   0  0  0  0  0  0  0  0  0  0  0  0
   -0.3888   -0.5062   -4.7224 N   0  0  0  0  0  0  0  0  0  0  0  0
    0.2636   -1.2613   -4.8625 H   0  0  0  0  0  0  0  0  0  0  0  0
   -1.7571   -0.8468   -4.3349 C   0  0  0  0  0  0  0  0  0  0  0  0
   -1.8940   -0.6627   -3.2680 H   0  0  0  0  0  0  0  0  0  0  0  0
   -2.4673   -0.2285   -4.8891 H   0  0  0  0  0  0  0  0  0  0  0  0
   -1.9584   -1.8970   -4.5469 H   0  0  0  0  0  0  0  0  0  0  0  0
  5  6  2  0  0  0  0
  5  7  1  0  0  0  0
  2  3  1  0  0  0  0
  2  4  1  0  0  0  0
  2  5  1  0  0  0  0
  1  2  1  0  0  0  0
 15 16  2  0  0  0  0
 15 17  1  0  0  0  0
 14 36  1  0  0  0  0
 11 12  1  0  0  0  0
 11 13  1  0  0  0  0
 11 14  1  0  0  0  0
  9 10  1  0  0  0  0
  9 11  1  0  0  0  0
  9 15  1  0  0  0  0
  7  8  1  0  0  0  0
  7  9  1  0  0  0  0
 19 20  1  0  0  0  0
 19 21  1  0  0  0  0
 19 22  1  0  0  0  0
 17 18  1  0  0  0  0
 17 19  1  0  0  0  0
 27 28  2  0  0  0  0
 27 29  1  0  0  0  0
 24 25  1  0  0  0  0
 24 26  1  0  0  0  0
 24 27  1  0  0  0  0
 23 24  1  0  0  0  0
 37 38  2  0  0  0  0
 37 39  1  0  0  0  0
 33 34  1  0  0  0  0
 33 35  1  0  0  0  0
 33 36  1  0  0  0  0
 31 32  1  0  0  0  0
 31 33  1  0  0  0  0
 31 37  1  0  0  0  0
 29 30  1  0  0  0  0
 29 31  1  0  0  0  0
 41 42  1  0  0  0  0
 41 43  1  0  0  0  0
 41 44  1  0  0  0  0
 39 40  1  0  0  0  0
 39 41  1  0  0  0  0
M  END
$$$$
default_name
  -OEChem-01062215323D

 44 43  0     1  0  0  0  0  0999 V2000
    2.4488   -3.0448    2.0990 H   0  0  0  0  0  0  0  0  0  0  0  0
    2.2788   -2.0018    2.3640 C   0  0  0  0  0  0  0  0  0  0  0  0
    2.9228   -1.7258    3.1960 H   0  0  0  0  0  0  0  0  0  0  0  0
    1.2358   -1.8618    2.6430 H   0  0  0  0  0  0  0  0  0  0  0  0
    2.6018   -1.1318    1.1730 C   0  0  0  0  0  0  0  0  0  0  0  0
    3.0048   -1.6348    0.1320 O   0  0  0  0  0  0  0  0  0  0  0  0
    2.4088    0.1752    1.3190 N   0  0  0  0  0  0  0  0  0  0  0  0
    2.0708    0.5242    2.2050 H   0  0  0  0  0  0  0  0  0  0  0  0
    2.6638    1.1782    0.2840 C   0  0  1  0  0  0  0  0  0  0  0  0
    3.5002    0.8320   -0.3255 H   0  0  0  0  0  0  0  0  0  0  0  0
    1.4306    1.3076   -0.6271 C   0  0  0  0  0  0  0  0  0  0  0  0
    1.5708    2.1642   -1.2876 H   0  0  0  0  0  0  0  0  0  0  0  0
    0.5737    1.5431    0.0035 H   0  0  0  0  0  0  0  0  0  0  0  0
    0.9641   -0.1300   -1.6363 S   0  0  0  0  0  0  0  0  0  0  0  0
    3.0639    2.5286    0.9072 C   0  0  0  0  0  0  0  0  0  0  0  0
    2.3856    3.5358    0.7052 O   0  0  0  0  0  0  0  0  0  0  0  0
    4.1641    2.5473    1.6715 N   0  0  0  0  0  0  0  0  0  0  0  0
    4.6707    1.6858    1.7971 H   0  0  0  0  0  0  0  0  0  0  0  0
    4.6744    3.7483    2.3294 C   0  0  0  0  0  0  0  0  0  0  0  0
    4.9493    4.4904    1.5769 H   0  0  0  0  0  0  0  0  0  0  0  0
    3.9007    4.1758    2.9698 H   0  0  0  0  0  0  0  0  0  0  0  0
    5.5495    3.5067    2.9340 H   0  0  0  0  0  0  0  0  0  0  0  0
    3.5571    3.7450   -8.2758 H   0  0  0  0  0  0  0  0  0  0  0  0
    2.7061    3.7039   -7.5975 C   0  0  0  0  0  0  0  0  0  0  0  0
    1.7815    3.8203   -8.1607 H   0  0  0  0  0  0  0  0  0  0  0  0
    2.7903    4.4975   -6.8574 H   0  0  0  0  0  0  0  0  0  0  0  0
    2.7010    2.3651   -6.8976 C   0  0  0  0  0  0  0  0  0  0  0  0
    3.5769    1.5430   -7.1298 O   0  0  0  0  0  0  0  0  0  0  0  0
    1.7139    2.1518   -6.0318 N   0  0  0  0  0  0  0  0  0  0  0  0
    1.0191    2.8721   -5.8978 H   0  0  0  0  0  0  0  0  0  0  0  0
    1.5427    0.9243   -5.2545 C   0  0  1  0  0  0  0  0  0  0  0  0
    1.8312    0.0704   -5.8700 H   0  0  0  0  0  0  0  0  0  0  0  0
    2.4882    0.9902   -4.0470 C   0  0  0  0  0  0  0  0  0  0  0  0
    3.5025    1.1112   -4.4303 H   0  0  0  0  0  0  0  0  0  0  0  0
    2.2559    1.8826   -3.4655 H   0  0  0  0  0  0  0  0  0  0  0  0
    2.5151   -0.4361   -2.9282 S   0  0  0  0  0  0  0  0  0  0  0  0
    0.0694    0.7460   -4.8470 C   0  0  0  0  0  0  0  0  0  0  0  0
   -0.6397    1.7352   -4.6567 O   0  0  0  0  0  0  0  0  0  0  0  0
   -0.3888   -0.5062   -4.7224 N   0  0  0  0  0  0  0  0  0  0  0  0
    0.2636   -1.2613   -4.8625 H   0  0  0  0  0  0  0  0  0  0  0  0
   -1.7571   -0.8468   -4.3349 C   0  0  0  0  0  0  0  0  0  0  0  0
   -1.8940   -0.6627   -3.2680 H   0  0  0  0  0  0  0  0  0  0  0  0
   -2.4673   -0.2285   -4.8891 H   0  0  0  0  0  0  0  0  0  0  0  0
   -1.9584   -1.8970   -4.5469 H   0  0  0  0  0  0  0  0  0  0  0  0
  5  6  2  0  0  0  0
  5  7  1  0  0  0  0
  2  3  1  0  0  0  0
  2  4  1  0  0  0  0
  2  5  1  0  0  0  0
  1  2  1  0  0  0  0
 15 16  2  0  0  0  0
 15 17  1  0  0  0  0
 14 36  1  0  0  0  0
 11 12  1  0  0  0  0
 11 13  1  0  0  0  0
 11 14  1  0  0  0  0
  9 10  1  0  0  0  0
  9 11  1  0  0  0  0
  9 15  1  0  0  0  0
  7  8  1  0  0  0  0
  7  9  1  0  0  0  0
 19 20  1  0  0  0  0
 19 21  1  0  0  0  0
 19 22  1  0  0  0  0
 17 18  1  0  0  0  0
 17 19  1  0  0  0  0
 27 28  2  0  0  0  0
 27 29  1  0  0  0  0
 24 25  1  0  0  0  0
 24 26  1  0  0  0  0
 24 27  1  0  0  0  0
 23 24  1  0  0  0  0
 37 38  2  0  0  0  0
 37 39  1  0  0  0  0
 33 34  1  0  0  0  0
 33 35  1  0  0  0  0
 33 36  1  0  0  0  0
 31 32  1  0  0  0  0
 31 33  1  0  0  0  0
 31 37  1  0  0  0  0
 29 30  1  0  0  0  0
 29 31  1  0  0  0  0
 41 42  1  0  0  0  0
 41 43  1  0  0  0  0
 41 44  1  0  0  0  0
 39 40  1  0  0  0  0
 39 41  1  0  0  0  0
M  END
$$$$
default_name
  -OEChem-01062215323D

 44 43  0     1  0  0  0  0  0999 V2000
    2.4488   -3.0448    2.0990 H   0  0  0  0  0  0  0  0  0  0  0  0
    2.2788   -2.0018    2.3640 C   0  0  0  0  0  0  0  0  0  0  0  0
    2.9228   -1.7258    3.1960 H   0  0  0  0  0  0  0  0  0  0  0  0
    1.2358   -1.8618    2.6430 H   0  0  0  0  0  0  0  0  0  0  0  0
    2.6018   -1.1318    1.1730 C   0  0  0  0  0  0  0  0  0  0  0  0
    3.0048   -1.6348    0.1320 O   0  0  0  0  0  0  0  0  0  0  0  0
    2.4088    0.1752    1.3190 N   0  0  0  0  0  0  0  0  0  0  0  0
    2.0708    0.5242    2.2050 H   0  0  0  0  0  0  0  0  0  0  0  0
    2.6638    1.1782    0.2840 C   0  0  1  0  0  0  0  0  0  0  0  0
    3.5002    0.8320   -0.3255 H   0  0  0  0  0  0  0  0  0  0  0  0
    1.4306    1.3076   -0.6271 C   0  0  0  0  0  0  0  0  0  0  0  0
    1.5708    2.1642   -1.2876 H   0  0  0  0  0  0  0  0  0  0  0  0
    0.5737    1.5431    0.0035 H   0  0  0  0  0  0  0  0  0  0  0  0
    0.9641   -0.1300   -1.6363 S   0  0  0  0  0  0  0  0  0  0  0  0
    3.0639    2.5286    0.9072 C   0  0  0  0  0  0  0  0  0  0  0  0
    2.2629    3.4626    0.9424 O   0  0  0  0  0  0  0  0  0  0  0  0
    4.3035    2.6287    1.4054 N   0  0  0  0  0  0  0  0  0  0  0  0
    4.9065    1.8241    1.3460 H   0  0  0  0  0  0  0  0  0  0  0  0
    4.8328    3.8414    2.0259 C   0  0  0  0  0  0  0  0  0  0  0  0
    4.8536    4.6501    1.2923 H   0  0  0  0  0  0  0  0  0  0  0  0
    4.1898    4.1433    2.8548 H   0  0  0  0  0  0  0  0  0  0  0  0
    5.8429    3.6668    2.3987 H   0  0  0  0  0  0  0  0  0  0  0  0
    3.5571    3.7450   -8.2758 H   0  0  0  0  0  0  0  0  0  0  0  0
    2.7061    3.7039   -7.5975 C   0  0  0  0  0  0  0  0  0  0  0  0
    1.7815    3.8203   -8.1607 H   0  0  0  0  0  0  0  0  0  0  0  0
    2.7903    4.4975   -6.8574 H   0  0  0  0  0  0  0  0  0  0  0  0
    2.7010    2.3651   -6.8976 C   0  0  0  0  0  0  0  0  0  0  0  0
    3.5769    1.5430   -7.1298 O   0  0  0  0  0  0  0  0  0  0  0  0
    1.7139    2.1518   -6.0318 N   0  0  0  0  0  0  0  0  0  0  0  0
    1.0191    2.8721   -5.8978 H   0  0  0  0  0  0  0  0  0  0  0  0
    1.5427    0.9243   -5.2545 C   0  0  1  0  0  0  0  0  0  0  0  0
    1.8312    0.0704   -5.8700 H   0  0  0  0  0  0  0  0  0  0  0  0
    2.4882    0.9902   -4.0470 C   0  0  0  0  0  0  0  0  0  0  0  0
    3.5025    1.1112   -4.4303 H   0  0  0  0  0  0  0  0  0  0  0  0
    2.2559    1.8826   -3.4655 H   0  0  0  0  0  0  0  0  0  0  0  0
    2.5151   -0.4361   -2.9282 S   0  0  0  0  0  0  0  0  0  0  0  0
    0.0694    0.7460   -4.8470 C   0  0  0  0  0  0  0  0  0  0  0  0
   -0.6397    1.7352   -4.6567 O   0  0  0  0  0  0  0  0  0  0  0  0
   -0.3888   -0.5062   -4.7224 N   0  0  0  0  0  0  0  0  0  0  0  0
    0.2636   -1.2613   -4.8625 H   0  0  0  0  0  0  0  0  0  0  0  0
   -1.7571   -0.8468   -4.3349 C   0  0  0  0  0  0  0  0  0  0  0  0
   -1.8940   -0.6627   -3.2680 H   0  0  0  0  0  0  0  0  0  0  0  0
   -2.4673   -0.2285   -4.8891 H   0  0  0  0  0  0  0  0  0  0  0  0
   -1.9584   -1.8970   -4.5469 H   0  0  0  0  0  0  0  0  0  0  0  0
  5  6  2  0  0  0  0
  5  7  1  0  0  0  0
  2  3  1  0  0  0  0
  2  4  1  0  0  0  0
  2  5  1  0  0  0  0
  1  2  1  0  0  0  0
 15 16  2  0  0  0  0
 15 17  1  0  0  0  0
 14 36  1  0  0  0  0
 11 12  1  0  0  0  0
 11 13  1  0  0  0  0
 11 14  1  0  0  0  0
  9 10  1  0  0  0  0
  9 11  1  0  0  0  0
  9 15  1  0  0  0  0
  7  8  1  0  0  0  0
  7  9  1  0  0  0  0
 19 20  1  0  0  0  0
 19 21  1  0  0  0  0
 19 22  1  0  0  0  0
 17 18  1  0  0  0  0
 17 19  1  0  0  0  0
 27 28  2  0  0  0  0
 27 29  1  0  0  0  0
 24 25  1  0  0  0  0
 24 26  1  0  0  0  0
 24 27  1  0  0  0  0
 23 24  1  0  0  0  0
 37 38  2  0  0  0  0
 37 39  1  0  0  0  0
 33 34  1  0  0  0  0
 33 35  1  0  0  0  0
 33 36  1  0  0  0  0
 31 32  1  0  0  0  0
 31 33  1  0  0  0  0
 31 37  1  0  0  0  0
 29 30  1  0  0  0  0
 29 31  1  0  0  0  0
 41 42  1  0  0  0  0
 41 43  1  0  0  0  0
 41 44  1  0  0  0  0
 39 40  1  0  0  0  0
 39 41  1  0  0  0  0
M  END
$$$$
default_name
  -OEChem-01062215323D

 44 43  0     1  0  0  0  0  0999 V2000
    2.4488   -3.0448    2.0990 H   0  0  0  0  0  0  0  0  0  0  0  0
    2.2788   -2.0018    2.3640 C   0  0  0  0  0  0  0  0  0  0  0  0
    2.9228   -1.7258    3.1960 H   0  0  0  0  0  0  0  0  0  0  0  0
    1.2358   -1.8618    2.6430 H   0  0  0  0  0  0  0  0  0  0  0  0
    2.6018   -1.1318    1.1730 C   0  0  0  0  0  0  0  0  0  0  0  0
    3.0048   -1.6348    0.1320 O   0  0  0  0  0  0  0  0  0  0  0  0
    2.4088    0.1752    1.3190 N   0  0  0  0  0  0  0  0  0  0  0  0
    2.0708    0.5242    2.2050 H   0  0  0  0  0  0  0  0  0  0  0  0
    2.6638    1.1782    0.2840 C   0  0  1  0  0  0  0  0  0  0  0  0
    3.5002    0.8320   -0.3255 H   0  0  0  0  0  0  0  0  0  0  0  0
    1.4306    1.3076   -0.6271 C   0  0  0  0  0  0  0  0  0  0  0  0
    1.5708    2.1642   -1.2876 H   0  0  0  0  0  0  0  0  0  0  0  0
    0.5737    1.5431    0.0035 H   0  0  0  0  0  0  0  0  0  0  0  0
    0.9641   -0.1300   -1.6363 S   0  0  0  0  0  0  0  0  0  0  0  0
    3.0639    2.5286    0.9072 C   0  0  0  0  0  0  0  0  0  0  0  0
    2.2059    3.3633    1.1944 O   0  0  0  0  0  0  0  0  0  0  0  0
    4.3692    2.7399    1.1223 N   0  0  0  0  0  0  0  0  0  0  0  0
    5.0175    2.0127    0.8661 H   0  0  0  0  0  0  0  0  0  0  0  0
    4.9072    3.9684    1.7031 C   0  0  0  0  0  0  0  0  0  0  0  0
    4.6798    4.8135    1.0499 H   0  0  0  0  0  0  0  0  0  0  0  0
    4.4464    4.1498    2.6759 H   0  0  0  0  0  0  0  0  0  0  0  0
    5.9880    3.8882    1.8258 H   0  0  0  0  0  0  0  0  0  0  0  0
    3.5571    3.7450   -8.2758 H   0  0  0  0  0  0  0  0  0  0  0  0
    2.7061    3.7039   -7.5975 C   0  0  0  0  0  0  0  0  0  0  0  0
    1.7815    3.8203   -8.1607 H   0  0  0  0  0  0  0  0  0  0  0  0
    2.7903    4.4975   -6.8574 H   0  0  0  0  0  0  0  0  0  0  0  0
    2.7010    2.3651   -6.8976 C   0  0  0  0  0  0  0  0  0  0  0  0
    3.5769    1.5430   -7.1298 O   0  0  0  0  0  0  0  0  0  0  0  0
    1.7139    2.1518   -6.0318 N   0  0  0  0  0  0  0  0  0  0  0  0
    1.0191    2.8721   -5.8978 H   0  0  0  0  0  0  0  0  0  0  0  0
    1.5427    0.9243   -5.2545 C   0  0  1  0  0  0  0  0  0  0  0  0
    1.8312    0.0704   -5.8700 H   0  0  0  0  0  0  0  0  0  0  0  0
    2.4882    0.9902   -4.0470 C   0  0  0  0  0  0  0  0  0  0  0  0
    3.5025    1.1112   -4.4303 H   0  0  0  0  0  0  0  0  0  0  0  0
    2.2559    1.8826   -3.4655 H   0  0  0  0  0  0  0  0  0  0  0  0
    2.5151   -0.4361   -2.9282 S   0  0  0  0  0  0  0  0  0  0  0  0
    0.0694    0.7460   -4.8470 C   0  0  0  0  0  0  0  0  0  0  0  0
   -0.6397    1.7352   -4.6567 O   0  0  0  0  0  0  0  0  0  0  0  0
   -0.3888   -0.5062   -4.7224 N   0  0  0  0  0  0  0  0  0  0  0  0
    0.2636   -1.2613   -4.8625 H   0  0  0  0  0  0  0  0  0  0  0  0
   -1.7571   -0.8468   -4.3349 C   0  0  0  0  0  0  0  0  0  0  0  0
   -1.8940   -0.6627   -3.2680 H   0  0  0  0  0  0  0  0  0  0  0  0
   -2.4673   -0.2285   -4.8891 H   0  0  0  0  0  0  0  0  0  0  0  0
   -1.9584   -1.8970   -4.5469 H   0  0  0  0  0  0  0  0  0  0  0  0
  5  6  2  0  0  0  0
  5  7  1  0  0  0  0
  2  3  1  0  0  0  0
  2  4  1  0  0  0  0
  2  5  1  0  0  0  0
  1  2  1  0  0  0  0
 15 16  2  0  0  0  0
 15 17  1  0  0  0  0
 14 36  1  0  0  0  0
 11 12  1  0  0  0  0
 11 13  1  0  0  0  0
 11 14  1  0  0  0  0
  9 10  1  0  0  0  0
  9 11  1  0  0  0  0
  9 15  1  0  0  0  0
  7  8  1  0  0  0  0
  7  9  1  0  0  0  0
 19 20  1  0  0  0  0
 19 21  1  0  0  0  0
 19 22  1  0  0  0  0
 17 18  1  0  0  0  0
 17 19  1  0  0  0  0
 27 28  2  0  0  0  0
 27 29  1  0  0  0  0
 24 25  1  0  0  0  0
 24 26  1  0  0  0  0
 24 27  1  0  0  0  0
 23 24  1  0  0  0  0
 37 38  2  0  0  0  0
 37 39  1  0  0  0  0
 33 34  1  0  0  0  0
 33 35  1  0  0  0  0
 33 36  1  0  0  0  0
 31 32  1  0  0  0  0
 31 33  1  0  0  0  0
 31 37  1  0  0  0  0
 29 30  1  0  0  0  0
 29 31  1  0  0  0  0
 41 42  1  0  0  0  0
 41 43  1  0  0  0  0
 41 44  1  0  0  0  0
 39 40  1  0  0  0  0
 39 41  1  0  0  0  0
M  END
$$$$
default_name
  -OEChem-01062215323D

 44 43  0     1  0  0  0  0  0999 V2000
    2.4488   -3.0448    2.0990 H   0  0  0  0  0  0  0  0  0  0  0  0
    2.2788   -2.0018    2.3640 C   0  0  0  0  0  0  0  0  0  0  0  0
    2.9228   -1.7258    3.1960 H   0  0  0  0  0  0  0  0  0  0  0  0
    1.2358   -1.8618    2.6430 H   0  0  0  0  0  0  0  0  0  0  0  0
    2.6018   -1.1318    1.1730 C   0  0  0  0  0  0  0  0  0  0  0  0
    3.0048   -1.6348    0.1320 O   0  0  0  0  0  0  0  0  0  0  0  0
    2.4088    0.1752    1.3190 N   0  0  0  0  0  0  0  0  0  0  0  0
    2.0708    0.5242    2.2050 H   0  0  0  0  0  0  0  0  0  0  0  0
    2.6638    1.1782    0.2840 C   0  0  1  0  0  0  0  0  0  0  0  0
    3.5002    0.8320   -0.3255 H   0  0  0  0  0  0  0  0  0  0  0  0
    1.4306    1.3076   -0.6271 C   0  0  0  0  0  0  0  0  0  0  0  0
    1.5708    2.1642   -1.2876 H   0  0  0  0  0  0  0  0  0  0  0  0
    0.5737    1.5431    0.0035 H   0  0  0  0  0  0  0  0  0  0  0  0
    0.9641   -0.1300   -1.6363 S   0  0  0  0  0  0  0  0  0  0  0  0
    3.0639    2.5286    0.9072 C   0  0  0  0  0  0  0  0  0  0  0  0
    2.2185    3.2443    1.4440 O   0  0  0  0  0  0  0  0  0  0  0  0
    4.3569    2.8732    0.8414 N   0  0  0  0  0  0  0  0  0  0  0  0
    4.9959    2.2388    0.3900 H   0  0  0  0  0  0  0  0  0  0  0  0
    4.8925    4.1205    1.3829 C   0  0  0  0  0  0  0  0  0  0  0  0
    4.4397    4.9694    0.8661 H   0  0  0  0  0  0  0  0  0  0  0  0
    4.6530    4.1950    2.4453 H   0  0  0  0  0  0  0  0  0  0  0  0
    5.9750    4.1558    1.2544 H   0  0  0  0  0  0  0  0  0  0  0  0
    3.5571    3.7450   -8.2758 H   0  0  0  0  0  0  0  0  0  0  0  0
    2.7061    3.7039   -7.5975 C   0  0  0  0  0  0  0  0  0  0  0  0
    1.7815    3.8203   -8.1607 H   0  0  0  0  0  0  0  0  0  0  0  0
    2.7903    4.4975   -6.8574 H   0  0  0  0  0  0  0  0  0  0  0  0
    2.7010    2.3651   -6.8976 C   0  0  0  0  0  0  0  0  0  0  0  0
    3.5769    1.5430   -7.1298 O   0  0  0  0  0  0  0  0  0  0  0  0
    1.7139    2.1518   -6.0318 N   0  0  0  0  0  0  0  0  0  0  0  0
    1.0191    2.8721   -5.8978 H   0  0  0  0  0  0  0  0  0  0  0  0
    1.5427    0.9243   -5.2545 C   0  0  1  0  0  0  0  0  0  0  0  0
    1.8312    0.0704   -5.8700 H   0  0  0  0  0  0  0  0  0  0  0  0
    2.4882    0.9902   -4.0470 C   0  0  0  0  0  0  0  0  0  0  0  0
    3.5025    1.1112   -4.4303 H   0  0  0  0  0  0  0  0  0  0  0  0
    2.2559    1.8826   -3.4655 H   0  0  0  0  0  0  0  0  0  0  0  0
    2.5151   -0.4361   -2.9282 S   0  0  0  0  0  0  0  0  0  0  0  0
    0.0694    0.7460   -4.8470 C   0  0  0  0  0  0  0  0  0  0  0  0
   -0.6397    1.7352   -4.6567 O   0  0  0  0  0  0  0  0  0  0  0  0
   -0.3888   -0.5062   -4.7224 N   0  0  0  0  0  0  0  0  0  0  0  0
    0.2636   -1.2613   -4.8625 H   0  0  0  0  0  0  0  0  0  0  0  0
   -1.7571   -0.8468   -4.3349 C   0  0  0  0  0  0  0  0  0  0  0  0
   -1.8940   -0.6627   -3.2680 H   0  0  0  0  0  0  0  0  0  0  0  0
   -2.4673   -0.2285   -4.8891 H   0  0  0  0  0  0  0  0  0  0  0  0
   -1.9584   -1.8970   -4.5469 H   0  0  0  0  0  0  0  0  0  0  0  0
  5  6  2  0  0  0  0
  5  7  1  0  0  0  0
  2  3  1  0  0  0  0
  2  4  1  0  0  0  0
  2  5  1  0  0  0  0
  1  2  1  0  0  0  0
 15 16  2  0  0  0  0
 15 17  1  0  0  0  0
 14 36  1  0  0  0  0
 11 12  1  0  0  0  0
 11 13  1  0  0  0  0
 11 14  1  0  0  0  0
  9 10  1  0  0  0  0
  9 11  1  0  0  0  0
  9 15  1  0  0  0  0
  7  8  1  0  0  0  0
  7  9  1  0  0  0  0
 19 20  1  0  0  0  0
 19 21  1  0  0  0  0
 19 22  1  0  0  0  0
 17 18  1  0  0  0  0
 17 19  1  0  0  0  0
 27 28  2  0  0  0  0
 27 29  1  0  0  0  0
 24 25  1  0  0  0  0
 24 26  1  0  0  0  0
 24 27  1  0  0  0  0
 23 24  1  0  0  0  0
 37 38  2  0  0  0  0
 37 39  1  0  0  0  0
 33 34  1  0  0  0  0
 33 35  1  0  0  0  0
 33 36  1  0  0  0  0
 31 32  1  0  0  0  0
 31 33  1  0  0  0  0
 31 37  1  0  0  0  0
 29 30  1  0  0  0  0
 29 31  1  0  0  0  0
 41 42  1  0  0  0  0
 41 43  1  0  0  0  0
 41 44  1  0  0  0  0
 39 40  1  0  0  0  0
 39 41  1  0  0  0  0
M  END
$$$$
default_name
  -OEChem-01062215323D

 44 43  0     1  0  0  0  0  0999 V2000
    2.4488   -3.0448    2.0990 H   0  0  0  0  0  0  0  0  0  0  0  0
    2.2788   -2.0018    2.3640 C   0  0  0  0  0  0  0  0  0  0  0  0
    2.9228   -1.7258    3.1960 H   0  0  0  0  0  0  0  0  0  0  0  0
    1.2358   -1.8618    2.6430 H   0  0  0  0  0  0  0  0  0  0  0  0
    2.6018   -1.1318    1.1730 C   0  0  0  0  0  0  0  0  0  0  0  0
    3.0048   -1.6348    0.1320 O   0  0  0  0  0  0  0  0  0  0  0  0
    2.4088    0.1752    1.3190 N   0  0  0  0  0  0  0  0  0  0  0  0
    2.0708    0.5242    2.2050 H   0  0  0  0  0  0  0  0  0  0  0  0
    2.6638    1.1782    0.2840 C   0  0  1  0  0  0  0  0  0  0  0  0
    3.5002    0.8320   -0.3255 H   0  0  0  0  0  0  0  0  0  0  0  0
    1.4306    1.3076   -0.6271 C   0  0  0  0  0  0  0  0  0  0  0  0
    1.5708    2.1642   -1.2876 H   0  0  0  0  0  0  0  0  0  0  0  0
    0.5737    1.5431    0.0035 H   0  0  0  0  0  0  0  0  0  0  0  0
    0.9641   -0.1300   -1.6363 S   0  0  0  0  0  0  0  0  0  0  0  0
    3.0639    2.5286    0.9072 C   0  0  0  0  0  0  0  0  0  0  0  0
    2.2997    3.1140    1.6743 O   0  0  0  0  0  0  0  0  0  0  0  0
    4.2672    3.0196    0.5818 N   0  0  0  0  0  0  0  0  0  0  0  0
    4.8434    2.4869   -0.0498 H   0  0  0  0  0  0  0  0  0  0  0  0
    4.7897    4.2874    1.0872 C   0  0  0  0  0  0  0  0  0  0  0  0
    4.1499    5.1072    0.7536 H   0  0  0  0  0  0  0  0  0  0  0  0
    4.7955    4.2758    2.1787 H   0  0  0  0  0  0  0  0  0  0  0  0
    5.8048    4.4513    0.7233 H   0  0  0  0  0  0  0  0  0  0  0  0
    3.5571    3.7450   -8.2758 H   0  0  0  0  0  0  0  0  0  0  0  0
    2.7061    3.7039   -7.5975 C   0  0  0  0  0  0  0  0  0  0  0  0
    1.7815    3.8203   -8.1607 H   0  0  0  0  0  0  0  0  0  0  0  0
    2.7903    4.4975   -6.8574 H   0  0  0  0  0  0  0  0  0  0  0  0
    2.7010    2.3651   -6.8976 C   0  0  0  0  0  0  0  0  0  0  0  0
    3.5769    1.5430   -7.1298 O   0  0  0  0  0  0  0  0  0  0  0  0
    1.7139    2.1518   -6.0318 N   0  0  0  0  0  0  0  0  0  0  0  0
    1.0191    2.8721   -5.8978 H   0  0  0  0  0  0  0  0  0  0  0  0
    1.5427    0.9243   -5.2545 C   0  0  1  0  0  0  0  0  0  0  0  0
    1.8312    0.0704   -5.8700 H   0  0  0  0  0  0  0  0  0  0  0  0
    2.4882    0.9902   -4.0470 C   0  0  0  0  0  0  0  0  0  0  0  0
    3.5025    1.1112   -4.4303 H   0  0  0  0  0  0  0  0  0  0  0  0
    2.2559    1.8826   -3.4655 H   0  0  0  0  0  0  0  0  0  0  0  0
    2.5151   -0.4361   -2.9282 S   0  0  0  0  0  0  0  0  0  0  0  0
    0.0694    0.7460   -4.8470 C   0  0  0  0  0  0  0  0  0  0  0  0
   -0.6397    1.7352   -4.6567 O   0  0  0  0  0  0  0  0  0  0  0  0
   -0.3888   -0.5062   -4.7224 N   0  0  0  0  0  0  0  0  0  0  0  0
    0.2636   -1.2613   -4.8625 H   0  0  0  0  0  0  0  0  0  0  0  0
   -1.7571   -0.8468   -4.3349 C   0  0  0  0  0  0  0  0  0  0  0  0
   -1.8940   -0.6627   -3.2680 H   0  0  0  0  0  0  0  0  0  0  0  0
   -2.4673   -0.2285   -4.8891 H   0  0  0  0  0  0  0  0  0  0  0  0
   -1.9584   -1.8970   -4.5469 H   0  0  0  0  0  0  0  0  0  0  0  0
  5  6  2  0  0  0  0
  5  7  1  0  0  0  0
  2  3  1  0  0  0  0
  2  4  1  0  0  0  0
  2  5  1  0  0  0  0
  1  2  1  0  0  0  0
 15 16  2  0  0  0  0
 15 17  1  0  0  0  0
 14 36  1  0  0  0  0
 11 12  1  0  0  0  0
 11 13  1  0  0  0  0
 11 14  1  0  0  0  0
  9 10  1  0  0  0  0
  9 11  1  0  0  0  0
  9 15  1  0  0  0  0
  7  8  1  0  0  0  0
  7  9  1  0  0  0  0
 19 20  1  0  0  0  0
 19 21  1  0  0  0  0
 19 22  1  0  0  0  0
 17 18  1  0  0  0  0
 17 19  1  0  0  0  0
 27 28  2  0  0  0  0
 27 29  1  0  0  0  0
 24 25  1  0  0  0  0
 24 26  1  0  0  0  0
 24 27  1  0  0  0  0
 23 24  1  0  0  0  0
 37 38  2  0  0  0  0
 37 39  1  0  0  0  0
 33 34  1  0  0  0  0
 33 35  1  0  0  0  0
 33 36  1  0  0  0  0
 31 32  1  0  0  0  0
 31 33  1  0  0  0  0
 31 37  1  0  0  0  0
 29 30  1  0  0  0  0
 29 31  1  0  0  0  0
 41 42  1  0  0  0  0
 41 43  1  0  0  0  0
 41 44  1  0  0  0  0
 39 40  1  0  0  0  0
 39 41  1  0  0  0  0
M  END
$$$$
default_name
  -OEChem-01062215323D

 44 43  0     1  0  0  0  0  0999 V2000
    2.4488   -3.0448    2.0990 H   0  0  0  0  0  0  0  0  0  0  0  0
    2.2788   -2.0018    2.3640 C   0  0  0  0  0  0  0  0  0  0  0  0
    2.9228   -1.7258    3.1960 H   0  0  0  0  0  0  0  0  0  0  0  0
    1.2358   -1.8618    2.6430 H   0  0  0  0  0  0  0  0  0  0  0  0
    2.6018   -1.1318    1.1730 C   0  0  0  0  0  0  0  0  0  0  0  0
    3.0048   -1.6348    0.1320 O   0  0  0  0  0  0  0  0  0  0  0  0
    2.4088    0.1752    1.3190 N   0  0  0  0  0  0  0  0  0  0  0  0
    2.0708    0.5242    2.2050 H   0  0  0  0  0  0  0  0  0  0  0  0
    2.6638    1.1782    0.2840 C   0  0  1  0  0  0  0  0  0  0  0  0
    3.5002    0.8320   -0.3255 H   0  0  0  0  0  0  0  0  0  0  0  0
    1.4306    1.3076   -0.6271 C   0  0  0  0  0  0  0  0  0  0  0  0
    1.5708    2.1642   -1.2876 H   0  0  0  0  0  0  0  0  0  0  0  0
    0.5737    1.5431    0.0035 H   0  0  0  0  0  0  0  0  0  0  0  0
    0.9641   -0.1300   -1.6363 S   0  0  0  0  0  0  0  0  0  0  0  0
    3.0639    2.5286    0.9072 C   0  0  0  0  0  0  0  0  0  0  0  0
    2.4440    2.9811    1.8696 O   0  0  0  0  0  0  0  0  0  0  0  0
    4.1064    3.1690    0.3613 N   0  0  0  0  0  0  0  0  0  0  0  0
    4.5703    2.7402   -0.4233 H   0  0  0  0  0  0  0  0  0  0  0  0
    4.6058    4.4578    0.8362 C   0  0  0  0  0  0  0  0  0  0  0  0
    3.8299    5.2175    0.7200 H   0  0  0  0  0  0  0  0  0  0  0  0
    4.8641    4.3867    1.8943 H   0  0  0  0  0  0  0  0  0  0  0  0
    5.4889    4.7546    0.2689 H   0  0  0  0  0  0  0  0  0  0  0  0
    3.5571    3.7450   -8.2758 H   0  0  0  0  0  0  0  0  0  0  0  0
    2.7061    3.7039   -7.5975 C   0  0  0  0  0  0  0  0  0  0  0  0
    1.7815    3.8203   -8.1607 H   0  0  0  0  0  0  0  0  0  0  0  0
    2.7903    4.4975   -6.8574 H   0  0  0  0  0  0  0  0  0  0  0  0
    2.7010    2.3651   -6.8976 C   0  0  0  0  0  0  0  0  0  0  0  0
    3.5769    1.5430   -7.1298 O   0  0  0  0  0  0  0  0  0  0  0  0
    1.7139    2.1518   -6.0318 N   0  0  0  0  0  0  0  0  0  0  0  0
    1.0191    2.8721   -5.8978 H   0  0  0  0  0  0  0  0  0  0  0  0
    1.5427    0.9243   -5.2545 C   0  0  1  0  0  0  0  0  0  0  0  0
    1.8312    0.0704   -5.8700 H   0  0  0  0  0  0  0  0  0  0  0  0
    2.4882    0.9902   -4.0470 C   0  0  0  0  0  0  0  0  0  0  0  0
    3.5025    1.1112   -4.4303 H   0  0  0  0  0  0  0  0  0  0  0  0
    2.2559    1.8826   -3.4655 H   0  0  0  0  0  0  0  0  0  0  0  0
    2.5151   -0.4361   -2.9282 S   0  0  0  0  0  0  0  0  0  0  0  0
    0.0694    0.7460   -4.8470 C   0  0  0  0  0  0  0  0  0  0  0  0
   -0.6397    1.7352   -4.6567 O   0  0  0  0  0  0  0  0  0  0  0  0
   -0.3888   -0.5062   -4.7224 N   0  0  0  0  0  0  0  0  0  0  0  0
    0.2636   -1.2613   -4.8625 H   0  0  0  0  0  0  0  0  0  0  0  0
   -1.7571   -0.8468   -4.3349 C   0  0  0  0  0  0  0  0  0  0  0  0
   -1.8940   -0.6627   -3.2680 H   0  0  0  0  0  0  0  0  0  0  0  0
   -2.4673   -0.2285   -4.8891 H   0  0  0  0  0  0  0  0  0  0  0  0
   -1.9584   -1.8970   -4.5469 H   0  0  0  0  0  0  0  0  0  0  0  0
  5  6  2  0  0  0  0
  5  7  1  0  0  0  0
  2  3  1  0  0  0  0
  2  4  1  0  0  0  0
  2  5  1  0  0  0  0
  1  2  1  0  0  0  0
 15 16  2  0  0  0  0
 15 17  1  0  0  0  0
 14 36  1  0  0  0  0
 11 12  1  0  0  0  0
 11 13  1  0  0  0  0
 11 14  1  0  0  0  0
  9 10  1  0  0  0  0
  9 11  1  0  0  0  0
  9 15  1  0  0  0  0
  7  8  1  0  0  0  0
  7  9  1  0  0  0  0
 19 20  1  0  0  0  0
 19 21  1  0  0  0  0
 19 22  1  0  0  0  0
 17 18  1  0  0  0  0
 17 19  1  0  0  0  0
 27 28  2  0  0  0  0
 27 29  1  0  0  0  0
 24 25  1  0  0  0  0
 24 26  1  0  0  0  0
 24 27  1  0  0  0  0
 23 24  1  0  0  0  0
 37 38  2  0  0  0  0
 37 39  1  0  0  0  0
 33 34  1  0  0  0  0
 33 35  1  0  0  0  0
 33 36  1  0  0  0  0
 31 32  1  0  0  0  0
 31 33  1  0  0  0  0
 31 37  1  0  0  0  0
 29 30  1  0  0  0  0
 29 31  1  0  0  0  0
 41 42  1  0  0  0  0
 41 43  1  0  0  0  0
 41 44  1  0  0  0  0
 39 40  1  0  0  0  0
 39 41  1  0  0  0  0
M  END
$$$$
default_name
  -OEChem-01062215323D

 44 43  0     1  0  0  0  0  0999 V2000
    2.4488   -3.0448    2.0990 H   0  0  0  0  0  0  0  0  0  0  0  0
    2.2788   -2.0018    2.3640 C   0  0  0  0  0  0  0  0  0  0  0  0
    2.9228   -1.7258    3.1960 H   0  0  0  0  0  0  0  0  0  0  0  0
    1.2358   -1.8618    2.6430 H   0  0  0  0  0  0  0  0  0  0  0  0
    2.6018   -1.1318    1.1730 C   0  0  0  0  0  0  0  0  0  0  0  0
    3.0048   -1.6348    0.1320 O   0  0  0  0  0  0  0  0  0  0  0  0
    2.4088    0.1752    1.3190 N   0  0  0  0  0  0  0  0  0  0  0  0
    2.0708    0.5242    2.2050 H   0  0  0  0  0  0  0  0  0  0  0  0
    2.6638    1.1782    0.2840 C   0  0  1  0  0  0  0  0  0  0  0  0
    3.5002    0.8320   -0.3255 H   0  0  0  0  0  0  0  0  0  0  0  0
    1.4306    1.3076   -0.6271 C   0  0  0  0  0  0  0  0  0  0  0  0
    1.5708    2.1642   -1.2876 H   0  0  0  0  0  0  0  0  0  0  0  0
    0.5737    1.5431    0.0035 H   0  0  0  0  0  0  0  0  0  0  0  0
    0.9641   -0.1300   -1.6363 S   0  0  0  0  0  0  0  0  0  0  0  0
    3.0639    2.5286    0.9072 C   0  0  0  0  0  0  0  0  0  0  0  0
    2.6417    2.8547    2.0165 O   0  0  0  0  0  0  0  0  0  0  0  0
    3.8853    3.3114    0.1948 N   0  0  0  0  0  0  0  0  0  0  0  0
    4.1953    2.9814   -0.7050 H   0  0  0  0  0  0  0  0  0  0  0  0
    4.3534    4.6199    0.6468 C   0  0  0  0  0  0  0  0  0  0  0  0
    3.5017    5.2928    0.7675 H   0  0  0  0  0  0  0  0  0  0  0  0
    4.8543    4.5202    1.6115 H   0  0  0  0  0  0  0  0  0  0  0  0
    5.0488    5.0450   -0.0780 H   0  0  0  0  0  0  0  0  0  0  0  0
    3.5571    3.7450   -8.2758 H   0  0  0  0  0  0  0  0  0  0  0  0
    2.7061    3.7039   -7.5975 C   0  0  0  0  0  0  0  0  0  0  0  0
    1.7815    3.8203   -8.1607 H   0  0  0  0  0  0  0  0  0  0  0  0
    2.7903    4.4975   -6.8574 H   0  0  0  0  0  0  0  0  0  0  0  0
    2.7010    2.3651   -6.8976 C   0  0  0  0  0  0  0  0  0  0  0  0
    3.5769    1.5430   -7.1298 O   0  0  0  0  0  0  0  0  0  0  0  0
    1.7139    2.1518   -6.0318 N   0  0  0  0  0  0  0  0  0  0  0  0
    1.0191    2.8721   -5.8978 H   0  0  0  0  0  0  0  0  0  0  0  0
    1.5427    0.9243   -5.2545 C   0  0  1  0  0  0  0  0  0  0  0  0
    1.8312    0.0704   -5.8700 H   0  0  0  0  0  0  0  0  0  0  0  0
    2.4882    0.9902   -4.0470 C   0  0  0  0  0  0  0  0  0  0  0  0
    3.5025    1.1112   -4.4303 H   0  0  0  0  0  0  0  0  0  0  0  0
    2.2559    1.8826   -3.4655 H   0  0  0  0  0  0  0  0  0  0  0  0
    2.5151   -0.4361   -2.9282 S   0  0  0  0  0  0  0  0  0  0  0  0
    0.0694    0.7460   -4.8470 C   0  0  0  0  0  0  0  0  0  0  0  0
   -0.6397    1.7352   -4.6567 O   0  0  0  0  0  0  0  0  0  0  0  0
   -0.3888   -0.5062   -4.7224 N   0  0  0  0  0  0  0  0  0  0  0  0
    0.2636   -1.2613   -4.8625 H   0  0  0  0  0  0  0  0  0  0  0  0
   -1.7571   -0.8468   -4.3349 C   0  0  0  0  0  0  0  0  0  0  0  0
   -1.8940   -0.6627   -3.2680 H   0  0  0  0  0  0  0  0  0  0  0  0
   -2.4673   -0.2285   -4.8891 H   0  0  0  0  0  0  0  0  0  0  0  0
   -1.9584   -1.8970   -4.5469 H   0  0  0  0  0  0  0  0  0  0  0  0
  5  6  2  0  0  0  0
  5  7  1  0  0  0  0
  2  3  1  0  0  0  0
  2  4  1  0  0  0  0
  2  5  1  0  0  0  0
  1  2  1  0  0  0  0
 15 16  2  0  0  0  0
 15 17  1  0  0  0  0
 14 36  1  0  0  0  0
 11 12  1  0  0  0  0
 11 13  1  0  0  0  0
 11 14  1  0  0  0  0
  9 10  1  0  0  0  0
  9 11  1  0  0  0  0
  9 15  1  0  0  0  0
  7  8  1  0  0  0  0
  7  9  1  0  0  0  0
 19 20  1  0  0  0  0
 19 21  1  0  0  0  0
 19 22  1  0  0  0  0
 17 18  1  0  0  0  0
 17 19  1  0  0  0  0
 27 28  2  0  0  0  0
 27 29  1  0  0  0  0
 24 25  1  0  0  0  0
 24 26  1  0  0  0  0
 24 27  1  0  0  0  0
 23 24  1  0  0  0  0
 37 38  2  0  0  0  0
 37 39  1  0  0  0  0
 33 34  1  0  0  0  0
 33 35  1  0  0  0  0
 33 36  1  0  0  0  0
 31 32  1  0  0  0  0
 31 33  1  0  0  0  0
 31 37  1  0  0  0  0
 29 30  1  0  0  0  0
 29 31  1  0  0  0  0
 41 42  1  0  0  0  0
 41 43  1  0  0  0  0
 41 44  1  0  0  0  0
 39 40  1  0  0  0  0
 39 41  1  0  0  0  0
M  END
$$$$
default_name
  -OEChem-01062215323D

 44 43  0     1  0  0  0  0  0999 V2000
    2.4488   -3.0448    2.0990 H   0  0  0  0  0  0  0  0  0  0  0  0
    2.2788   -2.0018    2.3640 C   0  0  0  0  0  0  0  0  0  0  0  0
    2.9228   -1.7258    3.1960 H   0  0  0  0  0  0  0  0  0  0  0  0
    1.2358   -1.8618    2.6430 H   0  0  0  0  0  0  0  0  0  0  0  0
    2.6018   -1.1318    1.1730 C   0  0  0  0  0  0  0  0  0  0  0  0
    3.0048   -1.6348    0.1320 O   0  0  0  0  0  0  0  0  0  0  0  0
    2.4088    0.1752    1.3190 N   0  0  0  0  0  0  0  0  0  0  0  0
    2.0708    0.5242    2.2050 H   0  0  0  0  0  0  0  0  0  0  0  0
    2.6638    1.1782    0.2840 C   0  0  1  0  0  0  0  0  0  0  0  0
    3.5002    0.8320   -0.3255 H   0  0  0  0  0  0  0  0  0  0  0  0
    1.4306    1.3076   -0.6271 C   0  0  0  0  0  0  0  0  0  0  0  0
    1.5708    2.1642   -1.2876 H   0  0  0  0  0  0  0  0  0  0  0  0
    0.5737    1.5431    0.0035 H   0  0  0  0  0  0  0  0  0  0  0  0
    0.9641   -0.1300   -1.6363 S   0  0  0  0  0  0  0  0  0  0  0  0
    3.0639    2.5286    0.9072 C   0  0  0  0  0  0  0  0  0  0  0  0
    2.8792    2.7435    2.1051 O   0  0  0  0  0  0  0  0  0  0  0  0
    3.6191    3.4369    0.0937 N   0  0  0  0  0  0  0  0  0  0  0  0
    3.7438    3.1940   -0.8759 H   0  0  0  0  0  0  0  0  0  0  0  0
    4.0496    4.7629    0.5321 C   0  0  0  0  0  0  0  0  0  0  0  0
    3.1876    5.3280    0.8929 H   0  0  0  0  0  0  0  0  0  0  0  0
    4.7666    4.6670    1.3495 H   0  0  0  0  0  0  0  0  0  0  0  0
    4.5147    5.3028   -0.2936 H   0  0  0  0  0  0  0  0  0  0  0  0
    3.5571    3.7450   -8.2758 H   0  0  0  0  0  0  0  0  0  0  0  0
    2.7061    3.7039   -7.5975 C   0  0  0  0  0  0  0  0  0  0  0  0
    1.7815    3.8203   -8.1607 H   0  0  0  0  0  0  0  0  0  0  0  0
    2.7903    4.4975   -6.8574 H   0  0  0  0  0  0  0  0  0  0  0  0
    2.7010    2.3651   -6.8976 C   0  0  0  0  0  0  0  0  0  0  0  0
    3.5769    1.5430   -7.1298 O   0  0  0  0  0  0  0  0  0  0  0  0
    1.7139    2.1518   -6.0318 N   0  0  0  0  0  0  0  0  0  0  0  0
    1.0191    2.8721   -5.8978 H   0  0  0  0  0  0  0  0  0  0  0  0
    1.5427    0.9243   -5.2545 C   0  0  1  0  0  0  0  0  0  0  0  0
    1.8312    0.0704   -5.8700 H   0  0  0  0  0  0  0  0  0  0  0  0
    2.4882    0.9902   -4.0470 C   0  0  0  0  0  0  0  0  0  0  0  0
    3.5025    1.1112   -4.4303 H   0  0  0  0  0  0  0  0  0  0  0  0
    2.2559    1.8826   -3.4655 H   0  0  0  0  0  0  0  0  0  0  0  0
    2.5151   -0.4361   -2.9282 S   0  0  0  0  0  0  0  0  0  0  0  0
    0.0694    0.7460   -4.8470 C   0  0  0  0  0  0  0  0  0  0  0  0
   -0.6397    1.7352   -4.6567 O   0  0  0  0  0  0  0  0  0  0  0  0
   -0.3888   -0.5062   -4.7224 N   0  0  0  0  0  0  0  0  0  0  0  0
    0.2636   -1.2613   -4.8625 H   0  0  0  0  0  0  0  0  0  0  0  0
   -1.7571   -0.8468   -4.3349 C   0  0  0  0  0  0  0  0  0  0  0  0
   -1.8940   -0.6627   -3.2680 H   0  0  0  0  0  0  0  0  0  0  0  0
   -2.4673   -0.2285   -4.8891 H   0  0  0  0  0  0  0  0  0  0  0  0
   -1.9584   -1.8970   -4.5469 H   0  0  0  0  0  0  0  0  0  0  0  0
  5  6  2  0  0  0  0
  5  7  1  0  0  0  0
  2  3  1  0  0  0  0
  2  4  1  0  0  0  0
  2  5  1  0  0  0  0
  1  2  1  0  0  0  0
 15 16  2  0  0  0  0
 15 17  1  0  0  0  0
 14 36  1  0  0  0  0
 11 12  1  0  0  0  0
 11 13  1  0  0  0  0
 11 14  1  0  0  0  0
  9 10  1  0  0  0  0
  9 11  1  0  0  0  0
  9 15  1  0  0  0  0
  7  8  1  0  0  0  0
  7  9  1  0  0  0  0
 19 20  1  0  0  0  0
 19 21  1  0  0  0  0
 19 22  1  0  0  0  0
 17 18  1  0  0  0  0
 17 19  1  0  0  0  0
 27 28  2  0  0  0  0
 27 29  1  0  0  0  0
 24 25  1  0  0  0  0
 24 26  1  0  0  0  0
 24 27  1  0  0  0  0
 23 24  1  0  0  0  0
 37 38  2  0  0  0  0
 37 39  1  0  0  0  0
 33 34  1  0  0  0  0
 33 35  1  0  0  0  0
 33 36  1  0  0  0  0
 31 32  1  0  0  0  0
 31 33  1  0  0  0  0
 31 37  1  0  0  0  0
 29 30  1  0  0  0  0
 29 31  1  0  0  0  0
 41 42  1  0  0  0  0
 41 43  1  0  0  0  0
 41 44  1  0  0  0  0
 39 40  1  0  0  0  0
 39 41  1  0  0  0  0
M  END
$$$$
default_name
  -OEChem-01062215323D

 44 43  0     1  0  0  0  0  0999 V2000
    2.4488   -3.0448    2.0990 H   0  0  0  0  0  0  0  0  0  0  0  0
    2.2788   -2.0018    2.3640 C   0  0  0  0  0  0  0  0  0  0  0  0
    2.9228   -1.7258    3.1960 H   0  0  0  0  0  0  0  0  0  0  0  0
    1.2358   -1.8618    2.6430 H   0  0  0  0  0  0  0  0  0  0  0  0
    2.6018   -1.1318    1.1730 C   0  0  0  0  0  0  0  0  0  0  0  0
    3.0048   -1.6348    0.1320 O   0  0  0  0  0  0  0  0  0  0  0  0
    2.4088    0.1752    1.3190 N   0  0  0  0  0  0  0  0  0  0  0  0
    2.0708    0.5242    2.2050 H   0  0  0  0  0  0  0  0  0  0  0  0
    2.6638    1.1782    0.2840 C   0  0  1  0  0  0  0  0  0  0  0  0
    3.3023    0.7261   -0.4769 H   0  0  0  0  0  0  0  0  0  0  0  0
    1.3378    1.5821   -0.3840 C   0  0  0  0  0  0  0  0  0  0  0  0
    1.5192    2.4388   -1.0342 H   0  0  0  0  0  0  0  0  0  0  0  0
    0.6624    1.9278    0.3982 H   0  0  0  0  0  0  0  0  0  0  0  0
    0.4430    0.3161   -1.3323 S   0  0  0  0  0  0  0  0  0  0  0  0
    3.4113    2.3942    0.8625 C   0  0  0  0  0  0  0  0  0  0  0  0
    3.7204    2.4293    2.0535 O   0  0  0  0  0  0  0  0  0  0  0  0
    3.7074    3.3894    0.0159 N   0  0  0  0  0  0  0  0  0  0  0  0
    3.4270    3.2942   -0.9469 H   0  0  0  0  0  0  0  0  0  0  0  0
    4.4098    4.6085    0.4110 C   0  0  0  0  0  0  0  0  0  0  0  0
    3.8150    5.1524    1.1480 H   0  0  0  0  0  0  0  0  0  0  0  0
    5.3696    4.3519    0.8630 H   0  0  0  0  0  0  0  0  0  0  0  0
    4.5796    5.2467   -0.4571 H   0  0  0  0  0  0  0  0  0  0  0  0
    2.5255    4.0661   -8.2188 H   0  0  0  0  0  0  0  0  0  0  0  0
    1.8125    4.1362   -7.3988 C   0  0  0  0  0  0  0  0  0  0  0  0
    0.8427    4.4507   -7.7811 H   0  0  0  0  0  0  0  0  0  0  0  0
    2.1705    4.8548   -6.6638 H   0  0  0  0  0  0  0  0  0  0  0  0
    1.6783    2.7794   -6.7481 C   0  0  0  0  0  0  0  0  0  0  0  0
    2.3312    1.8297   -7.1589 O   0  0  0  0  0  0  0  0  0  0  0  0
    0.8337    2.6933   -5.7239 N   0  0  0  0  0  0  0  0  0  0  0  0
    0.3199    3.5166   -5.4455 H   0  0  0  0  0  0  0  0  0  0  0  0
    0.5732    1.4707   -4.9639 C   0  0  1  0  0  0  0  0  0  0  0  0
    0.5858    0.6185   -5.6457 H   0  0  0  0  0  0  0  0  0  0  0  0
    1.7089    1.2919   -3.9467 C   0  0  0  0  0  0  0  0  0  0  0  0
    2.6459    1.2527   -4.5042 H   0  0  0  0  0  0  0  0  0  0  0  0
    1.7519    2.1739   -3.3074 H   0  0  0  0  0  0  0  0  0  0  0  0
    1.6618   -0.1825   -2.8926 S   0  0  0  0  0  0  0  0  0  0  0  0
   -0.8142    1.5342   -4.3009 C   0  0  0  0  0  0  0  0  0  0  0  0
   -1.2819    2.6206   -3.9569 O   0  0  0  0  0  0  0  0  0  0  0  0
   -1.4700    0.3789   -4.1310 N   0  0  0  0  0  0  0  0  0  0  0  0
   -1.0047   -0.4706   -4.4087 H   0  0  0  0  0  0  0  0  0  0  0  0
   -2.7897    0.2655   -3.5114 C   0  0  0  0  0  0  0  0  0  0  0  0
   -2.7029    0.4050   -2.4326 H   0  0  0  0  0  0  0  0  0  0  0  0
   -3.4567    1.0339   -3.9095 H   0  0  0  0  0  0  0  0  0  0  0  0
   -3.2175   -0.7167   -3.7132 H   0  0  0  0  0  0  0  0  0  0  0  0
  5  6  2  0  0  0  0
  5  7  1  0  0  0  0
  2  3  1  0  0  0  0
  2  4  1  0  0  0  0
  2  5  1  0  0  0  0
  1  2  1  0  0  0  0
 15 16  2  0  0  0  0
 15 17  1  0  0  0  0
 14 36  1  0  0  0  0
 11 12  1  0  0  0  0
 11 13  1  0  0  0  0
 11 14  1  0  0  0  0
  9 10  1  0  0  0  0
  9 11  1  0  0  0  0
  9 15  1  0  0  0  0
  7  8  1  0  0  0  0
  7  9  1  0  0  0  0
 19 20  1  0  0  0  0
 19 21  1  0  0  0  0
 19 22  1  0  0  0  0
 17 18  1  0  0  0  0
 17 19  1  0  0  0  0
 27 28  2  0  0  0  0
 27 29  1  0  0  0  0
 24 25  1  0  0  0  0
 24 26  1  0  0  0  0
 24 27  1  0  0  0  0
 23 24  1  0  0  0  0
 37 38  2  0  0  0  0
 37 39  1  0  0  0  0
 33 34  1  0  0  0  0
 33 35  1  0  0  0  0
 33 36  1  0  0  0  0
 31 32  1  0  0  0  0
 31 33  1  0  0  0  0
 31 37  1  0  0  0  0
 29 30  1  0  0  0  0
 29 31  1  0  0  0  0
 41 42  1  0  0  0  0
 41 43  1  0  0  0  0
 41 44  1  0  0  0  0
 39 40  1  0  0  0  0
 39 41  1  0  0  0  0
M  END
$$$$
default_name
  -OEChem-01062215323D

 44 43  0     1  0  0  0  0  0999 V2000
    2.4488   -3.0448    2.0990 H   0  0  0  0  0  0  0  0  0  0  0  0
    2.2788   -2.0018    2.3640 C   0  0  0  0  0  0  0  0  0  0  0  0
    2.9228   -1.7258    3.1960 H   0  0  0  0  0  0  0  0  0  0  0  0
    1.2358   -1.8618    2.6430 H   0  0  0  0  0  0  0  0  0  0  0  0
    2.6018   -1.1318    1.1730 C   0  0  0  0  0  0  0  0  0  0  0  0
    3.0048   -1.6348    0.1320 O   0  0  0  0  0  0  0  0  0  0  0  0
    2.4088    0.1752    1.3190 N   0  0  0  0  0  0  0  0  0  0  0  0
    2.0708    0.5242    2.2050 H   0  0  0  0  0  0  0  0  0  0  0  0
    2.6638    1.1782    0.2840 C   0  0  1  0  0  0  0  0  0  0  0  0
    3.3023    0.7261   -0.4769 H   0  0  0  0  0  0  0  0  0  0  0  0
    1.3378    1.5821   -0.3840 C   0  0  0  0  0  0  0  0  0  0  0  0
    1.5192    2.4388   -1.0342 H   0  0  0  0  0  0  0  0  0  0  0  0
    0.6624    1.9278    0.3982 H   0  0  0  0  0  0  0  0  0  0  0  0
    0.4430    0.3161   -1.3323 S   0  0  0  0  0  0  0  0  0  0  0  0
    3.4113    2.3942    0.8625 C   0  0  0  0  0  0  0  0  0  0  0  0
    3.9602    2.3254    1.9621 O   0  0  0  0  0  0  0  0  0  0  0  0
    3.4376    3.5071    0.1170 N   0  0  0  0  0  0  0  0  0  0  0  0
    2.9699    3.4934   -0.7750 H   0  0  0  0  0  0  0  0  0  0  0  0
    4.1023    4.7424    0.5269 C   0  0  0  0  0  0  0  0  0  0  0  0
    3.6324    5.1285    1.4339 H   0  0  0  0  0  0  0  0  0  0  0  0
    5.1539    4.5427    0.7407 H   0  0  0  0  0  0  0  0  0  0  0  0
    4.0312    5.4913   -0.2629 H   0  0  0  0  0  0  0  0  0  0  0  0
    2.5255    4.0661   -8.2188 H   0  0  0  0  0  0  0  0  0  0  0  0
    1.8125    4.1362   -7.3988 C   0  0  0  0  0  0  0  0  0  0  0  0
    0.8427    4.4507   -7.7811 H   0  0  0  0  0  0  0  0  0  0  0  0
    2.1705    4.8548   -6.6638 H   0  0  0  0  0  0  0  0  0  0  0  0
    1.6783    2.7794   -6.7481 C   0  0  0  0  0  0  0  0  0  0  0  0
    2.3312    1.8297   -7.1589 O   0  0  0  0  0  0  0  0  0  0  0  0
    0.8337    2.6933   -5.7239 N   0  0  0  0  0  0  0  0  0  0  0  0
    0.3199    3.5166   -5.4455 H   0  0  0  0  0  0  0  0  0  0  0  0
    0.5732    1.4707   -4.9639 C   0  0  1  0  0  0  0  0  0  0  0  0
    0.5858    0.6185   -5.6457 H   0  0  0  0  0  0  0  0  0  0  0  0
    1.7089    1.2919   -3.9467 C   0  0  0  0  0  0  0  0  0  0  0  0
    2.6459    1.2527   -4.5042 H   0  0  0  0  0  0  0  0  0  0  0  0
    1.7519    2.1739   -3.3074 H   0  0  0  0  0  0  0  0  0  0  0  0
    1.6618   -0.1825   -2.8926 S   0  0  0  0  0  0  0  0  0  0  0  0
   -0.8142    1.5342   -4.3009 C   0  0  0  0  0  0  0  0  0  0  0  0
   -1.2819    2.6206   -3.9569 O   0  0  0  0  0  0  0  0  0  0  0  0
   -1.4700    0.3789   -4.1310 N   0  0  0  0  0  0  0  0  0  0  0  0
   -1.0047   -0.4706   -4.4087 H   0  0  0  0  0  0  0  0  0  0  0  0
   -2.7897    0.2655   -3.5114 C   0  0  0  0  0  0  0  0  0  0  0  0
   -2.7029    0.4050   -2.4326 H   0  0  0  0  0  0  0  0  0  0  0  0
   -3.4567    1.0339   -3.9095 H   0  0  0  0  0  0  0  0  0  0  0  0
   -3.2175   -0.7167   -3.7132 H   0  0  0  0  0  0  0  0  0  0  0  0
  5  6  2  0  0  0  0
  5  7  1  0  0  0  0
  2  3  1  0  0  0  0
  2  4  1  0  0  0  0
  2  5  1  0  0  0  0
  1  2  1  0  0  0  0
 15 16  2  0  0  0  0
 15 17  1  0  0  0  0
 14 36  1  0  0  0  0
 11 12  1  0  0  0  0
 11 13  1  0  0  0  0
 11 14  1  0  0  0  0
  9 10  1  0  0  0  0
  9 11  1  0  0  0  0
  9 15  1  0  0  0  0
  7  8  1  0  0  0  0
  7  9  1  0  0  0  0
 19 20  1  0  0  0  0
 19 21  1  0  0  0  0
 19 22  1  0  0  0  0
 17 18  1  0  0  0  0
 17 19  1  0  0  0  0
 27 28  2  0  0  0  0
 27 29  1  0  0  0  0
 24 25  1  0  0  0  0
 24 26  1  0  0  0  0
 24 27  1  0  0  0  0
 23 24  1  0  0  0  0
 37 38  2  0  0  0  0
 37 39  1  0  0  0  0
 33 34  1  0  0  0  0
 33 35  1  0  0  0  0
 33 36  1  0  0  0  0
 31 32  1  0  0  0  0
 31 33  1  0  0  0  0
 31 37  1  0  0  0  0
 29 30  1  0  0  0  0
 29 31  1  0  0  0  0
 41 42  1  0  0  0  0
 41 43  1  0  0  0  0
 41 44  1  0  0  0  0
 39 40  1  0  0  0  0
 39 41  1  0  0  0  0
M  END
$$$$
default_name
  -OEChem-01062215323D

 44 43  0     1  0  0  0  0  0999 V2000
    2.4488   -3.0448    2.0990 H   0  0  0  0  0  0  0  0  0  0  0  0
    2.2788   -2.0018    2.3640 C   0  0  0  0  0  0  0  0  0  0  0  0
    2.9228   -1.7258    3.1960 H   0  0  0  0  0  0  0  0  0  0  0  0
    1.2358   -1.8618    2.6430 H   0  0  0  0  0  0  0  0  0  0  0  0
    2.6018   -1.1318    1.1730 C   0  0  0  0  0  0  0  0  0  0  0  0
    3.0048   -1.6348    0.1320 O   0  0  0  0  0  0  0  0  0  0  0  0
    2.4088    0.1752    1.3190 N   0  0  0  0  0  0  0  0  0  0  0  0
    2.0708    0.5242    2.2050 H   0  0  0  0  0  0  0  0  0  0  0  0
    2.6638    1.1782    0.2840 C   0  0  1  0  0  0  0  0  0  0  0  0
    3.3023    0.7261   -0.4769 H   0  0  0  0  0  0  0  0  0  0  0  0
    1.3378    1.5821   -0.3840 C   0  0  0  0  0  0  0  0  0  0  0  0
    1.5192    2.4388   -1.0342 H   0  0  0  0  0  0  0  0  0  0  0  0
    0.6624    1.9278    0.3982 H   0  0  0  0  0  0  0  0  0  0  0  0
    0.4430    0.3161   -1.3323 S   0  0  0  0  0  0  0  0  0  0  0  0
    3.4113    2.3942    0.8625 C   0  0  0  0  0  0  0  0  0  0  0  0
    4.1832    2.2598    1.8118 O   0  0  0  0  0  0  0  0  0  0  0  0
    3.1863    3.5818    0.2847 N   0  0  0  0  0  0  0  0  0  0  0  0
    2.5441    3.6197   -0.4904 H   0  0  0  0  0  0  0  0  0  0  0  0
    3.8160    4.8272    0.7185 C   0  0  0  0  0  0  0  0  0  0  0  0
    3.5169    5.0518    1.7445 H   0  0  0  0  0  0  0  0  0  0  0  0
    4.9021    4.7214    0.6905 H   0  0  0  0  0  0  0  0  0  0  0  0
    3.5174    5.6499    0.0675 H   0  0  0  0  0  0  0  0  0  0  0  0
    2.5255    4.0661   -8.2188 H   0  0  0  0  0  0  0  0  0  0  0  0
    1.8125    4.1362   -7.3988 C   0  0  0  0  0  0  0  0  0  0  0  0
    0.8427    4.4507   -7.7811 H   0  0  0  0  0  0  0  0  0  0  0  0
    2.1705    4.8548   -6.6638 H   0  0  0  0  0  0  0  0  0  0  0  0
    1.6783    2.7794   -6.7481 C   0  0  0  0  0  0  0  0  0  0  0  0
    2.3312    1.8297   -7.1589 O   0  0  0  0  0  0  0  0  0  0  0  0
    0.8337    2.6933   -5.7239 N   0  0  0  0  0  0  0  0  0  0  0  0
    0.3199    3.5166   -5.4455 H   0  0  0  0  0  0  0  0  0  0  0  0
    0.5732    1.4707   -4.9639 C   0  0  1  0  0  0  0  0  0  0  0  0
    0.5858    0.6185   -5.6457 H   0  0  0  0  0  0  0  0  0  0  0  0
    1.7089    1.2919   -3.9467 C   0  0  0  0  0  0  0  0  0  0  0  0
    2.6459    1.2527   -4.5042 H   0  0  0  0  0  0  0  0  0  0  0  0
    1.7519    2.1739   -3.3074 H   0  0  0  0  0  0  0  0  0  0  0  0
    1.6618   -0.1825   -2.8926 S   0  0  0  0  0  0  0  0  0  0  0  0
   -0.8142    1.5342   -4.3009 C   0  0  0  0  0  0  0  0  0  0  0  0
   -1.2819    2.6206   -3.9569 O   0  0  0  0  0  0  0  0  0  0  0  0
   -1.4700    0.3789   -4.1310 N   0  0  0  0  0  0  0  0  0  0  0  0
   -1.0047   -0.4706   -4.4087 H   0  0  0  0  0  0  0  0  0  0  0  0
   -2.7897    0.2655   -3.5114 C   0  0  0  0  0  0  0  0  0  0  0  0
   -2.7029    0.4050   -2.4326 H   0  0  0  0  0  0  0  0  0  0  0  0
   -3.4567    1.0339   -3.9095 H   0  0  0  0  0  0  0  0  0  0  0  0
   -3.2175   -0.7167   -3.7132 H   0  0  0  0  0  0  0  0  0  0  0  0
  5  6  2  0  0  0  0
  5  7  1  0  0  0  0
  2  3  1  0  0  0  0
  2  4  1  0  0  0  0
  2  5  1  0  0  0  0
  1  2  1  0  0  0  0
 15 16  2  0  0  0  0
 15 17  1  0  0  0  0
 14 36  1  0  0  0  0
 11 12  1  0  0  0  0
 11 13  1  0  0  0  0
 11 14  1  0  0  0  0
  9 10  1  0  0  0  0
  9 11  1  0  0  0  0
  9 15  1  0  0  0  0
  7  8  1  0  0  0  0
  7  9  1  0  0  0  0
 19 20  1  0  0  0  0
 19 21  1  0  0  0  0
 19 22  1  0  0  0  0
 17 18  1  0  0  0  0
 17 19  1  0  0  0  0
 27 28  2  0  0  0  0
 27 29  1  0  0  0  0
 24 25  1  0  0  0  0
 24 26  1  0  0  0  0
 24 27  1  0  0  0  0
 23 24  1  0  0  0  0
 37 38  2  0  0  0  0
 37 39  1  0  0  0  0
 33 34  1  0  0  0  0
 33 35  1  0  0  0  0
 33 36  1  0  0  0  0
 31 32  1  0  0  0  0
 31 33  1  0  0  0  0
 31 37  1  0  0  0  0
 29 30  1  0  0  0  0
 29 31  1  0  0  0  0
 41 42  1  0  0  0  0
 41 43  1  0  0  0  0
 41 44  1  0  0  0  0
 39 40  1  0  0  0  0
 39 41  1  0  0  0  0
M  END
$$$$
default_name
  -OEChem-01062215323D

 44 43  0     1  0  0  0  0  0999 V2000
    2.4488   -3.0448    2.0990 H   0  0  0  0  0  0  0  0  0  0  0  0
    2.2788   -2.0018    2.3640 C   0  0  0  0  0  0  0  0  0  0  0  0
    2.9228   -1.7258    3.1960 H   0  0  0  0  0  0  0  0  0  0  0  0
    1.2358   -1.8618    2.6430 H   0  0  0  0  0  0  0  0  0  0  0  0
    2.6018   -1.1318    1.1730 C   0  0  0  0  0  0  0  0  0  0  0  0
    3.0048   -1.6348    0.1320 O   0  0  0  0  0  0  0  0  0  0  0  0
    2.4088    0.1752    1.3190 N   0  0  0  0  0  0  0  0  0  0  0  0
    2.0708    0.5242    2.2050 H   0  0  0  0  0  0  0  0  0  0  0  0
    2.6638    1.1782    0.2840 C   0  0  1  0  0  0  0  0  0  0  0  0
    3.3023    0.7261   -0.4769 H   0  0  0  0  0  0  0  0  0  0  0  0
    1.3378    1.5821   -0.3840 C   0  0  0  0  0  0  0  0  0  0  0  0
    1.5192    2.4388   -1.0342 H   0  0  0  0  0  0  0  0  0  0  0  0
    0.6624    1.9278    0.3982 H   0  0  0  0  0  0  0  0  0  0  0  0
    0.4430    0.3161   -1.3323 S   0  0  0  0  0  0  0  0  0  0  0  0
    3.4113    2.3942    0.8625 C   0  0  0  0  0  0  0  0  0  0  0  0
    4.3743    2.2371    1.6129 O   0  0  0  0  0  0  0  0  0  0  0  0
    2.9705    3.6085    0.5073 N   0  0  0  0  0  0  0  0  0  0  0  0
    2.1786    3.6646   -0.1127 H   0  0  0  0  0  0  0  0  0  0  0  0
    3.5704    4.8573    0.9727 C   0  0  0  0  0  0  0  0  0  0  0  0
    3.4761    4.9275    2.0584 H   0  0  0  0  0  0  0  0  0  0  0  0
    4.6311    4.8758    0.7160 H   0  0  0  0  0  0  0  0  0  0  0  0
    3.0732    5.7117    0.5116 H   0  0  0  0  0  0  0  0  0  0  0  0
    2.5255    4.0661   -8.2188 H   0  0  0  0  0  0  0  0  0  0  0  0
    1.8125    4.1362   -7.3988 C   0  0  0  0  0  0  0  0  0  0  0  0
    0.8427    4.4507   -7.7811 H   0  0  0  0  0  0  0  0  0  0  0  0
    2.1705    4.8548   -6.6638 H   0  0  0  0  0  0  0  0  0  0  0  0
    1.6783    2.7794   -6.7481 C   0  0  0  0  0  0  0  0  0  0  0  0
    2.3312    1.8297   -7.1589 O   0  0  0  0  0  0  0  0  0  0  0  0
    0.8337    2.6933   -5.7239 N   0  0  0  0  0  0  0  0  0  0  0  0
    0.3199    3.5166   -5.4455 H   0  0  0  0  0  0  0  0  0  0  0  0
    0.5732    1.4707   -4.9639 C   0  0  1  0  0  0  0  0  0  0  0  0
    0.5858    0.6185   -5.6457 H   0  0  0  0  0  0  0  0  0  0  0  0
    1.7089    1.2919   -3.9467 C   0  0  0  0  0  0  0  0  0  0  0  0
    2.6459    1.2527   -4.5042 H   0  0  0  0  0  0  0  0  0  0  0  0
    1.7519    2.1739   -3.3074 H   0  0  0  0  0  0  0  0  0  0  0  0
    1.6618   -0.1825   -2.8926 S   0  0  0  0  0  0  0  0  0  0  0  0
   -0.8142    1.5342   -4.3009 C   0  0  0  0  0  0  0  0  0  0  0  0
   -1.2819    2.6206   -3.9569 O   0  0  0  0  0  0  0  0  0  0  0  0
   -1.4700    0.3789   -4.1310 N   0  0  0  0  0  0  0  0  0  0  0  0
   -1.0047   -0.4706   -4.4087 H   0  0  0  0  0  0  0  0  0  0  0  0
   -2.7897    0.2655   -3.5114 C   0  0  0  0  0  0  0  0  0  0  0  0
   -2.7029    0.4050   -2.4326 H   0  0  0  0  0  0  0  0  0  0  0  0
   -3.4567    1.0339   -3.9095 H   0  0  0  0  0  0  0  0  0  0  0  0
   -3.2175   -0.7167   -3.7132 H   0  0  0  0  0  0  0  0  0  0  0  0
  5  6  2  0  0  0  0
  5  7  1  0  0  0  0
  2  3  1  0  0  0  0
  2  4  1  0  0  0  0
  2  5  1  0  0  0  0
  1  2  1  0  0  0  0
 15 16  2  0  0  0  0
 15 17  1  0  0  0  0
 14 36  1  0  0  0  0
 11 12  1  0  0  0  0
 11 13  1  0  0  0  0
 11 14  1  0  0  0  0
  9 10  1  0  0  0  0
  9 11  1  0  0  0  0
  9 15  1  0  0  0  0
  7  8  1  0  0  0  0
  7  9  1  0  0  0  0
 19 20  1  0  0  0  0
 19 21  1  0  0  0  0
 19 22  1  0  0  0  0
 17 18  1  0  0  0  0
 17 19  1  0  0  0  0
 27 28  2  0  0  0  0
 27 29  1  0  0  0  0
 24 25  1  0  0  0  0
 24 26  1  0  0  0  0
 24 27  1  0  0  0  0
 23 24  1  0  0  0  0
 37 38  2  0  0  0  0
 37 39  1  0  0  0  0
 33 34  1  0  0  0  0
 33 35  1  0  0  0  0
 33 36  1  0  0  0  0
 31 32  1  0  0  0  0
 31 33  1  0  0  0  0
 31 37  1  0  0  0  0
 29 30  1  0  0  0  0
 29 31  1  0  0  0  0
 41 42  1  0  0  0  0
 41 43  1  0  0  0  0
 41 44  1  0  0  0  0
 39 40  1  0  0  0  0
 39 41  1  0  0  0  0
M  END
$$$$
default_name
  -OEChem-01062215323D

 44 43  0     1  0  0  0  0  0999 V2000
    2.4488   -3.0448    2.0990 H   0  0  0  0  0  0  0  0  0  0  0  0
    2.2788   -2.0018    2.3640 C   0  0  0  0  0  0  0  0  0  0  0  0
    2.9228   -1.7258    3.1960 H   0  0  0  0  0  0  0  0  0  0  0  0
    1.2358   -1.8618    2.6430 H   0  0  0  0  0  0  0  0  0  0  0  0
    2.6018   -1.1318    1.1730 C   0  0  0  0  0  0  0  0  0  0  0  0
    3.0048   -1.6348    0.1320 O   0  0  0  0  0  0  0  0  0  0  0  0
    2.4088    0.1752    1.3190 N   0  0  0  0  0  0  0  0  0  0  0  0
    2.0708    0.5242    2.2050 H   0  0  0  0  0  0  0  0  0  0  0  0
    2.6638    1.1782    0.2840 C   0  0  1  0  0  0  0  0  0  0  0  0
    3.3023    0.7261   -0.4769 H   0  0  0  0  0  0  0  0  0  0  0  0
    1.3378    1.5821   -0.3840 C   0  0  0  0  0  0  0  0  0  0  0  0
    1.5192    2.4388   -1.0342 H   0  0  0  0  0  0  0  0  0  0  0  0
    0.6624    1.9278    0.3982 H   0  0  0  0  0  0  0  0  0  0  0  0
    0.4430    0.3161   -1.3323 S   0  0  0  0  0  0  0  0  0  0  0  0
    3.4113    2.3942    0.8625 C   0  0  0  0  0  0  0  0  0  0  0  0
    4.5204    2.2586    1.3787 O   0  0  0  0  0  0  0  0  0  0  0  0
    2.8050    3.5853    0.7698 N   0  0  0  0  0  0  0  0  0  0  0  0
    1.8985    3.6250    0.3325 H   0  0  0  0  0  0  0  0  0  0  0  0
    3.3821    4.8305    1.2722 C   0  0  0  0  0  0  0  0  0  0  0  0
    3.5130    4.7640    2.3544 H   0  0  0  0  0  0  0  0  0  0  0  0
    4.3596    4.9954    0.8154 H   0  0  0  0  0  0  0  0  0  0  0  0
    2.7289    5.6723    1.0391 H   0  0  0  0  0  0  0  0  0  0  0  0
    2.5255    4.0661   -8.2188 H   0  0  0  0  0  0  0  0  0  0  0  0
    1.8125    4.1362   -7.3988 C   0  0  0  0  0  0  0  0  0  0  0  0
    0.8427    4.4507   -7.7811 H   0  0  0  0  0  0  0  0  0  0  0  0
    2.1705    4.8548   -6.6638 H   0  0  0  0  0  0  0  0  0  0  0  0
    1.6783    2.7794   -6.7481 C   0  0  0  0  0  0  0  0  0  0  0  0
    2.3312    1.8297   -7.1589 O   0  0  0  0  0  0  0  0  0  0  0  0
    0.8337    2.6933   -5.7239 N   0  0  0  0  0  0  0  0  0  0  0  0
    0.3199    3.5166   -5.4455 H   0  0  0  0  0  0  0  0  0  0  0  0
    0.5732    1.4707   -4.9639 C   0  0  1  0  0  0  0  0  0  0  0  0
    0.5858    0.6185   -5.6457 H   0  0  0  0  0  0  0  0  0  0  0  0
    1.7089    1.2919   -3.9467 C   0  0  0  0  0  0  0  0  0  0  0  0
    2.6459    1.2527   -4.5042 H   0  0  0  0  0  0  0  0  0  0  0  0
    1.7519    2.1739   -3.3074 H   0  0  0  0  0  0  0  0  0  0  0  0
    1.6618   -0.1825   -2.8926 S   0  0  0  0  0  0  0  0  0  0  0  0
   -0.8142    1.5342   -4.3009 C   0  0  0  0  0  0  0  0  0  0  0  0
   -1.2819    2.6206   -3.9569 O   0  0  0  0  0  0  0  0  0  0  0  0
   -1.4700    0.3789   -4.1310 N   0  0  0  0  0  0  0  0  0  0  0  0
   -1.0047   -0.4706   -4.4087 H   0  0  0  0  0  0  0  0  0  0  0  0
   -2.7897    0.2655   -3.5114 C   0  0  0  0  0  0  0  0  0  0  0  0
   -2.7029    0.4050   -2.4326 H   0  0  0  0  0  0  0  0  0  0  0  0
   -3.4567    1.0339   -3.9095 H   0  0  0  0  0  0  0  0  0  0  0  0
   -3.2175   -0.7167   -3.7132 H   0  0  0  0  0  0  0  0  0  0  0  0
  5  6  2  0  0  0  0
  5  7  1  0  0  0  0
  2  3  1  0  0  0  0
  2  4  1  0  0  0  0
  2  5  1  0  0  0  0
  1  2  1  0  0  0  0
 15 16  2  0  0  0  0
 15 17  1  0  0  0  0
 14 36  1  0  0  0  0
 11 12  1  0  0  0  0
 11 13  1  0  0  0  0
 11 14  1  0  0  0  0
  9 10  1  0  0  0  0
  9 11  1  0  0  0  0
  9 15  1  0  0  0  0
  7  8  1  0  0  0  0
  7  9  1  0  0  0  0
 19 20  1  0  0  0  0
 19 21  1  0  0  0  0
 19 22  1  0  0  0  0
 17 18  1  0  0  0  0
 17 19  1  0  0  0  0
 27 28  2  0  0  0  0
 27 29  1  0  0  0  0
 24 25  1  0  0  0  0
 24 26  1  0  0  0  0
 24 27  1  0  0  0  0
 23 24  1  0  0  0  0
 37 38  2  0  0  0  0
 37 39  1  0  0  0  0
 33 34  1  0  0  0  0
 33 35  1  0  0  0  0
 33 36  1  0  0  0  0
 31 32  1  0  0  0  0
 31 33  1  0  0  0  0
 31 37  1  0  0  0  0
 29 30  1  0  0  0  0
 29 31  1  0  0  0  0
 41 42  1  0  0  0  0
 41 43  1  0  0  0  0
 41 44  1  0  0  0  0
 39 40  1  0  0  0  0
 39 41  1  0  0  0  0
M  END
$$$$
default_name
  -OEChem-01062215323D

 44 43  0     1  0  0  0  0  0999 V2000
    2.4488   -3.0448    2.0990 H   0  0  0  0  0  0  0  0  0  0  0  0
    2.2788   -2.0018    2.3640 C   0  0  0  0  0  0  0  0  0  0  0  0
    2.9228   -1.7258    3.1960 H   0  0  0  0  0  0  0  0  0  0  0  0
    1.2358   -1.8618    2.6430 H   0  0  0  0  0  0  0  0  0  0  0  0
    2.6018   -1.1318    1.1730 C   0  0  0  0  0  0  0  0  0  0  0  0
    3.0048   -1.6348    0.1320 O   0  0  0  0  0  0  0  0  0  0  0  0
    2.4088    0.1752    1.3190 N   0  0  0  0  0  0  0  0  0  0  0  0
    2.0708    0.5242    2.2050 H   0  0  0  0  0  0  0  0  0  0  0  0
    2.6638    1.1782    0.2840 C   0  0  1  0  0  0  0  0  0  0  0  0
    3.3023    0.7261   -0.4769 H   0  0  0  0  0  0  0  0  0  0  0  0
    1.3378    1.5821   -0.3840 C   0  0  0  0  0  0  0  0  0  0  0  0
    1.5192    2.4388   -1.0342 H   0  0  0  0  0  0  0  0  0  0  0  0
    0.6624    1.9278    0.3982 H   0  0  0  0  0  0  0  0  0  0  0  0
    0.4430    0.3161   -1.3323 S   0  0  0  0  0  0  0  0  0  0  0  0
    3.4113    2.3942    0.8625 C   0  0  0  0  0  0  0  0  0  0  0  0
    4.6117    2.3231    1.1255 O   0  0  0  0  0  0  0  0  0  0  0  0
    2.7010    3.5139    1.0543 N   0  0  0  0  0  0  0  0  0  0  0  0
    1.7227    3.5036    0.8147 H   0  0  0  0  0  0  0  0  0  0  0  0
    3.2641    4.7487    1.5966 C   0  0  0  0  0  0  0  0  0  0  0  0
    3.6250    4.5726    2.6121 H   0  0  0  0  0  0  0  0  0  0  0  0
    4.1061    5.0721    0.9818 H   0  0  0  0  0  0  0  0  0  0  0  0
    2.5080    5.5346    1.6140 H   0  0  0  0  0  0  0  0  0  0  0  0
    2.5255    4.0661   -8.2188 H   0  0  0  0  0  0  0  0  0  0  0  0
    1.8125    4.1362   -7.3988 C   0  0  0  0  0  0  0  0  0  0  0  0
    0.8427    4.4507   -7.7811 H   0  0  0  0  0  0  0  0  0  0  0  0
    2.1705    4.8548   -6.6638 H   0  0  0  0  0  0  0  0  0  0  0  0
    1.6783    2.7794   -6.7481 C   0  0  0  0  0  0  0  0  0  0  0  0
    2.3312    1.8297   -7.1589 O   0  0  0  0  0  0  0  0  0  0  0  0
    0.8337    2.6933   -5.7239 N   0  0  0  0  0  0  0  0  0  0  0  0
    0.3199    3.5166   -5.4455 H   0  0  0  0  0  0  0  0  0  0  0  0
    0.5732    1.4707   -4.9639 C   0  0  1  0  0  0  0  0  0  0  0  0
    0.5858    0.6185   -5.6457 H   0  0  0  0  0  0  0  0  0  0  0  0
    1.7089    1.2919   -3.9467 C   0  0  0  0  0  0  0  0  0  0  0  0
    2.6459    1.2527   -4.5042 H   0  0  0  0  0  0  0  0  0  0  0  0
    1.7519    2.1739   -3.3074 H   0  0  0  0  0  0  0  0  0  0  0  0
    1.6618   -0.1825   -2.8926 S   0  0  0  0  0  0  0  0  0  0  0  0
   -0.8142    1.5342   -4.3009 C   0  0  0  0  0  0  0  0  0  0  0  0
   -1.2819    2.6206   -3.9569 O   0  0  0  0  0  0  0  0  0  0  0  0
   -1.4700    0.3789   -4.1310 N   0  0  0  0  0  0  0  0  0  0  0  0
   -1.0047   -0.4706   -4.4087 H   0  0  0  0  0  0  0  0  0  0  0  0
   -2.7897    0.2655   -3.5114 C   0  0  0  0  0  0  0  0  0  0  0  0
   -2.7029    0.4050   -2.4326 H   0  0  0  0  0  0  0  0  0  0  0  0
   -3.4567    1.0339   -3.9095 H   0  0  0  0  0  0  0  0  0  0  0  0
   -3.2175   -0.7167   -3.7132 H   0  0  0  0  0  0  0  0  0  0  0  0
  5  6  2  0  0  0  0
  5  7  1  0  0  0  0
  2  3  1  0  0  0  0
  2  4  1  0  0  0  0
  2  5  1  0  0  0  0
  1  2  1  0  0  0  0
 15 16  2  0  0  0  0
 15 17  1  0  0  0  0
 14 36  1  0  0  0  0
 11 12  1  0  0  0  0
 11 13  1  0  0  0  0
 11 14  1  0  0  0  0
  9 10  1  0  0  0  0
  9 11  1  0  0  0  0
  9 15  1  0  0  0  0
  7  8  1  0  0  0  0
  7  9  1  0  0  0  0
 19 20  1  0  0  0  0
 19 21  1  0  0  0  0
 19 22  1  0  0  0  0
 17 18  1  0  0  0  0
 17 19  1  0  0  0  0
 27 28  2  0  0  0  0
 27 29  1  0  0  0  0
 24 25  1  0  0  0  0
 24 26  1  0  0  0  0
 24 27  1  0  0  0  0
 23 24  1  0  0  0  0
 37 38  2  0  0  0  0
 37 39  1  0  0  0  0
 33 34  1  0  0  0  0
 33 35  1  0  0  0  0
 33 36  1  0  0  0  0
 31 32  1  0  0  0  0
 31 33  1  0  0  0  0
 31 37  1  0  0  0  0
 29 30  1  0  0  0  0
 29 31  1  0  0  0  0
 41 42  1  0  0  0  0
 41 43  1  0  0  0  0
 41 44  1  0  0  0  0
 39 40  1  0  0  0  0
 39 41  1  0  0  0  0
M  END
$$$$
default_name
  -OEChem-01062215323D

 44 43  0     1  0  0  0  0  0999 V2000
    2.4488   -3.0448    2.0990 H   0  0  0  0  0  0  0  0  0  0  0  0
    2.2788   -2.0018    2.3640 C   0  0  0  0  0  0  0  0  0  0  0  0
    2.9228   -1.7258    3.1960 H   0  0  0  0  0  0  0  0  0  0  0  0
    1.2358   -1.8618    2.6430 H   0  0  0  0  0  0  0  0  0  0  0  0
    2.6018   -1.1318    1.1730 C   0  0  0  0  0  0  0  0  0  0  0  0
    3.0048   -1.6348    0.1320 O   0  0  0  0  0  0  0  0  0  0  0  0
    2.4088    0.1752    1.3190 N   0  0  0  0  0  0  0  0  0  0  0  0
    2.0708    0.5242    2.2050 H   0  0  0  0  0  0  0  0  0  0  0  0
    2.6638    1.1782    0.2840 C   0  0  1  0  0  0  0  0  0  0  0  0
    3.3023    0.7261   -0.4769 H   0  0  0  0  0  0  0  0  0  0  0  0
    1.3378    1.5821   -0.3840 C   0  0  0  0  0  0  0  0  0  0  0  0
    1.5192    2.4388   -1.0342 H   0  0  0  0  0  0  0  0  0  0  0  0
    0.6624    1.9278    0.3982 H   0  0  0  0  0  0  0  0  0  0  0  0
    0.4430    0.3161   -1.3323 S   0  0  0  0  0  0  0  0  0  0  0  0
    3.4113    2.3942    0.8625 C   0  0  0  0  0  0  0  0  0  0  0  0
    4.6417    2.4260    0.8703 O   0  0  0  0  0  0  0  0  0  0  0  0
    2.6657    3.3991    1.3414 N   0  0  0  0  0  0  0  0  0  0  0  0
    1.6632    3.3087    1.3013 H   0  0  0  0  0  0  0  0  0  0  0  0
    3.2243    4.6175    1.9238 C   0  0  0  0  0  0  0  0  0  0  0  0
    3.8045    4.3661    2.8142 H   0  0  0  0  0  0  0  0  0  0  0  0
    3.8877    5.1005    1.2041 H   0  0  0  0  0  0  0  0  0  0  0  0
    2.4254    5.3079    2.1971 H   0  0  0  0  0  0  0  0  0  0  0  0
    2.5255    4.0661   -8.2188 H   0  0  0  0  0  0  0  0  0  0  0  0
    1.8125    4.1362   -7.3988 C   0  0  0  0  0  0  0  0  0  0  0  0
    0.8427    4.4507   -7.7811 H   0  0  0  0  0  0  0  0  0  0  0  0
    2.1705    4.8548   -6.6638 H   0  0  0  0  0  0  0  0  0  0  0  0
    1.6783    2.7794   -6.7481 C   0  0  0  0  0  0  0  0  0  0  0  0
    2.3312    1.8297   -7.1589 O   0  0  0  0  0  0  0  0  0  0  0  0
    0.8337    2.6933   -5.7239 N   0  0  0  0  0  0  0  0  0  0  0  0
    0.3199    3.5166   -5.4455 H   0  0  0  0  0  0  0  0  0  0  0  0
    0.5732    1.4707   -4.9639 C   0  0  1  0  0  0  0  0  0  0  0  0
    0.5858    0.6185   -5.6457 H   0  0  0  0  0  0  0  0  0  0  0  0
    1.7089    1.2919   -3.9467 C   0  0  0  0  0  0  0  0  0  0  0  0
    2.6459    1.2527   -4.5042 H   0  0  0  0  0  0  0  0  0  0  0  0
    1.7519    2.1739   -3.3074 H   0  0  0  0  0  0  0  0  0  0  0  0
    1.6618   -0.1825   -2.8926 S   0  0  0  0  0  0  0  0  0  0  0  0
   -0.8142    1.5342   -4.3009 C   0  0  0  0  0  0  0  0  0  0  0  0
   -1.2819    2.6206   -3.9569 O   0  0  0  0  0  0  0  0  0  0  0  0
   -1.4700    0.3789   -4.1310 N   0  0  0  0  0  0  0  0  0  0  0  0
   -1.0047   -0.4706   -4.4087 H   0  0  0  0  0  0  0  0  0  0  0  0
   -2.7897    0.2655   -3.5114 C   0  0  0  0  0  0  0  0  0  0  0  0
   -2.7029    0.4050   -2.4326 H   0  0  0  0  0  0  0  0  0  0  0  0
   -3.4567    1.0339   -3.9095 H   0  0  0  0  0  0  0  0  0  0  0  0
   -3.2175   -0.7167   -3.7132 H   0  0  0  0  0  0  0  0  0  0  0  0
  5  6  2  0  0  0  0
  5  7  1  0  0  0  0
  2  3  1  0  0  0  0
  2  4  1  0  0  0  0
  2  5  1  0  0  0  0
  1  2  1  0  0  0  0
 15 16  2  0  0  0  0
 15 17  1  0  0  0  0
 14 36  1  0  0  0  0
 11 12  1  0  0  0  0
 11 13  1  0  0  0  0
 11 14  1  0  0  0  0
  9 10  1  0  0  0  0
  9 11  1  0  0  0  0
  9 15  1  0  0  0  0
  7  8  1  0  0  0  0
  7  9  1  0  0  0  0
 19 20  1  0  0  0  0
 19 21  1  0  0  0  0
 19 22  1  0  0  0  0
 17 18  1  0  0  0  0
 17 19  1  0  0  0  0
 27 28  2  0  0  0  0
 27 29  1  0  0  0  0
 24 25  1  0  0  0  0
 24 26  1  0  0  0  0
 24 27  1  0  0  0  0
 23 24  1  0  0  0  0
 37 38  2  0  0  0  0
 37 39  1  0  0  0  0
 33 34  1  0  0  0  0
 33 35  1  0  0  0  0
 33 36  1  0  0  0  0
 31 32  1  0  0  0  0
 31 33  1  0  0  0  0
 31 37  1  0  0  0  0
 29 30  1  0  0  0  0
 29 31  1  0  0  0  0
 41 42  1  0  0  0  0
 41 43  1  0  0  0  0
 41 44  1  0  0  0  0
 39 40  1  0  0  0  0
 39 41  1  0  0  0  0
M  END
$$$$
default_name
  -OEChem-01062215323D

 44 43  0     1  0  0  0  0  0999 V2000
    2.4488   -3.0448    2.0990 H   0  0  0  0  0  0  0  0  0  0  0  0
    2.2788   -2.0018    2.3640 C   0  0  0  0  0  0  0  0  0  0  0  0
    2.9228   -1.7258    3.1960 H   0  0  0  0  0  0  0  0  0  0  0  0
    1.2358   -1.8618    2.6430 H   0  0  0  0  0  0  0  0  0  0  0  0
    2.6018   -1.1318    1.1730 C   0  0  0  0  0  0  0  0  0  0  0  0
    3.0048   -1.6348    0.1320 O   0  0  0  0  0  0  0  0  0  0  0  0
    2.4088    0.1752    1.3190 N   0  0  0  0  0  0  0  0  0  0  0  0
    2.0708    0.5242    2.2050 H   0  0  0  0  0  0  0  0  0  0  0  0
    2.6638    1.1782    0.2840 C   0  0  1  0  0  0  0  0  0  0  0  0
    3.3023    0.7261   -0.4769 H   0  0  0  0  0  0  0  0  0  0  0  0
    1.3378    1.5821   -0.3840 C   0  0  0  0  0  0  0  0  0  0  0  0
    1.5192    2.4388   -1.0342 H   0  0  0  0  0  0  0  0  0  0  0  0
    0.6624    1.9278    0.3982 H   0  0  0  0  0  0  0  0  0  0  0  0
    0.4430    0.3161   -1.3323 S   0  0  0  0  0  0  0  0  0  0  0  0
    3.4113    2.3942    0.8625 C   0  0  0  0  0  0  0  0  0  0  0  0
    4.6086    2.5604    0.6305 O   0  0  0  0  0  0  0  0  0  0  0  0
    2.7013    3.2486    1.6114 N   0  0  0  0  0  0  0  0  0  0  0  0
    1.7242    3.0535    1.7589 H   0  0  0  0  0  0  0  0  0  0  0  0
    3.2655    4.4457    2.2315 C   0  0  0  0  0  0  0  0  0  0  0  0
    4.0392    4.1587    2.9468 H   0  0  0  0  0  0  0  0  0  0  0  0
    3.7194    5.0789    1.4670 H   0  0  0  0  0  0  0  0  0  0  0  0
    2.4868    5.0077    2.7488 H   0  0  0  0  0  0  0  0  0  0  0  0
    2.5255    4.0661   -8.2188 H   0  0  0  0  0  0  0  0  0  0  0  0
    1.8125    4.1362   -7.3988 C   0  0  0  0  0  0  0  0  0  0  0  0
    0.8427    4.4507   -7.7811 H   0  0  0  0  0  0  0  0  0  0  0  0
    2.1705    4.8548   -6.6638 H   0  0  0  0  0  0  0  0  0  0  0  0
    1.6783    2.7794   -6.7481 C   0  0  0  0  0  0  0  0  0  0  0  0
    2.3312    1.8297   -7.1589 O   0  0  0  0  0  0  0  0  0  0  0  0
    0.8337    2.6933   -5.7239 N   0  0  0  0  0  0  0  0  0  0  0  0
    0.3199    3.5166   -5.4455 H   0  0  0  0  0  0  0  0  0  0  0  0
    0.5732    1.4707   -4.9639 C   0  0  1  0  0  0  0  0  0  0  0  0
    0.5858    0.6185   -5.6457 H   0  0  0  0  0  0  0  0  0  0  0  0
    1.7089    1.2919   -3.9467 C   0  0  0  0  0  0  0  0  0  0  0  0
    2.6459    1.2527   -4.5042 H   0  0  0  0  0  0  0  0  0  0  0  0
    1.7519    2.1739   -3.3074 H   0  0  0  0  0  0  0  0  0  0  0  0
    1.6618   -0.1825   -2.8926 S   0  0  0  0  0  0  0  0  0  0  0  0
   -0.8142    1.5342   -4.3009 C   0  0  0  0  0  0  0  0  0  0  0  0
   -1.2819    2.6206   -3.9569 O   0  0  0  0  0  0  0  0  0  0  0  0
   -1.4700    0.3789   -4.1310 N   0  0  0  0  0  0  0  0  0  0  0  0
   -1.0047   -0.4706   -4.4087 H   0  0  0  0  0  0  0  0  0  0  0  0
   -2.7897    0.2655   -3.5114 C   0  0  0  0  0  0  0  0  0  0  0  0
   -2.7029    0.4050   -2.4326 H   0  0  0  0  0  0  0  0  0  0  0  0
   -3.4567    1.0339   -3.9095 H   0  0  0  0  0  0  0  0  0  0  0  0
   -3.2175   -0.7167   -3.7132 H   0  0  0  0  0  0  0  0  0  0  0  0
  5  6  2  0  0  0  0
  5  7  1  0  0  0  0
  2  3  1  0  0  0  0
  2  4  1  0  0  0  0
  2  5  1  0  0  0  0
  1  2  1  0  0  0  0
 15 16  2  0  0  0  0
 15 17  1  0  0  0  0
 14 36  1  0  0  0  0
 11 12  1  0  0  0  0
 11 13  1  0  0  0  0
 11 14  1  0  0  0  0
  9 10  1  0  0  0  0
  9 11  1  0  0  0  0
  9 15  1  0  0  0  0
  7  8  1  0  0  0  0
  7  9  1  0  0  0  0
 19 20  1  0  0  0  0
 19 21  1  0  0  0  0
 19 22  1  0  0  0  0
 17 18  1  0  0  0  0
 17 19  1  0  0  0  0
 27 28  2  0  0  0  0
 27 29  1  0  0  0  0
 24 25  1  0  0  0  0
 24 26  1  0  0  0  0
 24 27  1  0  0  0  0
 23 24  1  0  0  0  0
 37 38  2  0  0  0  0
 37 39  1  0  0  0  0
 33 34  1  0  0  0  0
 33 35  1  0  0  0  0
 33 36  1  0  0  0  0
 31 32  1  0  0  0  0
 31 33  1  0  0  0  0
 31 37  1  0  0  0  0
 29 30  1  0  0  0  0
 29 31  1  0  0  0  0
 41 42  1  0  0  0  0
 41 43  1  0  0  0  0
 41 44  1  0  0  0  0
 39 40  1  0  0  0  0
 39 41  1  0  0  0  0
M  END
$$$$
default_name
  -OEChem-01062215323D

 44 43  0     1  0  0  0  0  0999 V2000
    2.4488   -3.0448    2.0990 H   0  0  0  0  0  0  0  0  0  0  0  0
    2.2788   -2.0018    2.3640 C   0  0  0  0  0  0  0  0  0  0  0  0
    2.9228   -1.7258    3.1960 H   0  0  0  0  0  0  0  0  0  0  0  0
    1.2358   -1.8618    2.6430 H   0  0  0  0  0  0  0  0  0  0  0  0
    2.6018   -1.1318    1.1730 C   0  0  0  0  0  0  0  0  0  0  0  0
    3.0048   -1.6348    0.1320 O   0  0  0  0  0  0  0  0  0  0  0  0
    2.4088    0.1752    1.3190 N   0  0  0  0  0  0  0  0  0  0  0  0
    2.0708    0.5242    2.2050 H   0  0  0  0  0  0  0  0  0  0  0  0
    2.6638    1.1782    0.2840 C   0  0  1  0  0  0  0  0  0  0  0  0
    3.3023    0.7261   -0.4769 H   0  0  0  0  0  0  0  0  0  0  0  0
    1.3378    1.5821   -0.3840 C   0  0  0  0  0  0  0  0  0  0  0  0
    1.5192    2.4388   -1.0342 H   0  0  0  0  0  0  0  0  0  0  0  0
    0.6624    1.9278    0.3982 H   0  0  0  0  0  0  0  0  0  0  0  0
    0.4430    0.3161   -1.3323 S   0  0  0  0  0  0  0  0  0  0  0  0
    3.4113    2.3942    0.8625 C   0  0  0  0  0  0  0  0  0  0  0  0
    4.5146    2.7171    0.4226 O   0  0  0  0  0  0  0  0  0  0  0  0
    2.8056    3.0729    1.8461 N   0  0  0  0  0  0  0  0  0  0  0  0
    1.9014    2.7555    2.1564 H   0  0  0  0  0  0  0  0  0  0  0  0
    3.3849    4.2452    2.4987 C   0  0  0  0  0  0  0  0  0  0  0  0
    4.3132    3.9646    3.0008 H   0  0  0  0  0  0  0  0  0  0  0  0
    3.6127    5.0086    1.7525 H   0  0  0  0  0  0  0  0  0  0  0  0
    2.6881    4.6543    3.2315 H   0  0  0  0  0  0  0  0  0  0  0  0
    2.5255    4.0661   -8.2188 H   0  0  0  0  0  0  0  0  0  0  0  0
    1.8125    4.1362   -7.3988 C   0  0  0  0  0  0  0  0  0  0  0  0
    0.8427    4.4507   -7.7811 H   0  0  0  0  0  0  0  0  0  0  0  0
    2.1705    4.8548   -6.6638 H   0  0  0  0  0  0  0  0  0  0  0  0
    1.6783    2.7794   -6.7481 C   0  0  0  0  0  0  0  0  0  0  0  0
    2.3312    1.8297   -7.1589 O   0  0  0  0  0  0  0  0  0  0  0  0
    0.8337    2.6933   -5.7239 N   0  0  0  0  0  0  0  0  0  0  0  0
    0.3199    3.5166   -5.4455 H   0  0  0  0  0  0  0  0  0  0  0  0
    0.5732    1.4707   -4.9639 C   0  0  1  0  0  0  0  0  0  0  0  0
    0.5858    0.6185   -5.6457 H   0  0  0  0  0  0  0  0  0  0  0  0
    1.7089    1.2919   -3.9467 C   0  0  0  0  0  0  0  0  0  0  0  0
    2.6459    1.2527   -4.5042 H   0  0  0  0  0  0  0  0  0  0  0  0
    1.7519    2.1739   -3.3074 H   0  0  0  0  0  0  0  0  0  0  0  0
    1.6618   -0.1825   -2.8926 S   0  0  0  0  0  0  0  0  0  0  0  0
   -0.8142    1.5342   -4.3009 C   0  0  0  0  0  0  0  0  0  0  0  0
   -1.2819    2.6206   -3.9569 O   0  0  0  0  0  0  0  0  0  0  0  0
   -1.4700    0.3789   -4.1310 N   0  0  0  0  0  0  0  0  0  0  0  0
   -1.0047   -0.4706   -4.4087 H   0  0  0  0  0  0  0  0  0  0  0  0
   -2.7897    0.2655   -3.5114 C   0  0  0  0  0  0  0  0  0  0  0  0
   -2.7029    0.4050   -2.4326 H   0  0  0  0  0  0  0  0  0  0  0  0
   -3.4567    1.0339   -3.9095 H   0  0  0  0  0  0  0  0  0  0  0  0
   -3.2175   -0.7167   -3.7132 H   0  0  0  0  0  0  0  0  0  0  0  0
  5  6  2  0  0  0  0
  5  7  1  0  0  0  0
  2  3  1  0  0  0  0
  2  4  1  0  0  0  0
  2  5  1  0  0  0  0
  1  2  1  0  0  0  0
 15 16  2  0  0  0  0
 15 17  1  0  0  0  0
 14 36  1  0  0  0  0
 11 12  1  0  0  0  0
 11 13  1  0  0  0  0
 11 14  1  0  0  0  0
  9 10  1  0  0  0  0
  9 11  1  0  0  0  0
  9 15  1  0  0  0  0
  7  8  1  0  0  0  0
  7  9  1  0  0  0  0
 19 20  1  0  0  0  0
 19 21  1  0  0  0  0
 19 22  1  0  0  0  0
 17 18  1  0  0  0  0
 17 19  1  0  0  0  0
 27 28  2  0  0  0  0
 27 29  1  0  0  0  0
 24 25  1  0  0  0  0
 24 26  1  0  0  0  0
 24 27  1  0  0  0  0
 23 24  1  0  0  0  0
 37 38  2  0  0  0  0
 37 39  1  0  0  0  0
 33 34  1  0  0  0  0
 33 35  1  0  0  0  0
 33 36  1  0  0  0  0
 31 32  1  0  0  0  0
 31 33  1  0  0  0  0
 31 37  1  0  0  0  0
 29 30  1  0  0  0  0
 29 31  1  0  0  0  0
 41 42  1  0  0  0  0
 41 43  1  0  0  0  0
 41 44  1  0  0  0  0
 39 40  1  0  0  0  0
 39 41  1  0  0  0  0
M  END
$$$$
default_name
  -OEChem-01062215323D

 44 43  0     1  0  0  0  0  0999 V2000
    2.4488   -3.0448    2.0990 H   0  0  0  0  0  0  0  0  0  0  0  0
    2.2788   -2.0018    2.3640 C   0  0  0  0  0  0  0  0  0  0  0  0
    2.9228   -1.7258    3.1960 H   0  0  0  0  0  0  0  0  0  0  0  0
    1.2358   -1.8618    2.6430 H   0  0  0  0  0  0  0  0  0  0  0  0
    2.6018   -1.1318    1.1730 C   0  0  0  0  0  0  0  0  0  0  0  0
    3.0048   -1.6348    0.1320 O   0  0  0  0  0  0  0  0  0  0  0  0
    2.4088    0.1752    1.3190 N   0  0  0  0  0  0  0  0  0  0  0  0
    2.0708    0.5242    2.2050 H   0  0  0  0  0  0  0  0  0  0  0  0
    2.6638    1.1782    0.2840 C   0  0  1  0  0  0  0  0  0  0  0  0
    3.3023    0.7261   -0.4769 H   0  0  0  0  0  0  0  0  0  0  0  0
    1.3378    1.5821   -0.3840 C   0  0  0  0  0  0  0  0  0  0  0  0
    1.5192    2.4388   -1.0342 H   0  0  0  0  0  0  0  0  0  0  0  0
    0.6624    1.9278    0.3982 H   0  0  0  0  0  0  0  0  0  0  0  0
    0.4430    0.3161   -1.3323 S   0  0  0  0  0  0  0  0  0  0  0  0
    3.4113    2.3942    0.8625 C   0  0  0  0  0  0  0  0  0  0  0  0
    4.3661    2.8854    0.2607 O   0  0  0  0  0  0  0  0  0  0  0  0
    2.9714    2.8838    2.0294 N   0  0  0  0  0  0  0  0  0  0  0  0
    2.1827    2.4349    2.4667 H   0  0  0  0  0  0  0  0  0  0  0  0
    3.5743    4.0296    2.7073 C   0  0  0  0  0  0  0  0  0  0  0  0
    4.6078    3.7970    2.9726 H   0  0  0  0  0  0  0  0  0  0  0  0
    3.5748    4.8945    2.0414 H   0  0  0  0  0  0  0  0  0  0  0  0
    3.0156    4.2720    3.6121 H   0  0  0  0  0  0  0  0  0  0  0  0
    2.5255    4.0661   -8.2188 H   0  0  0  0  0  0  0  0  0  0  0  0
    1.8125    4.1362   -7.3988 C   0  0  0  0  0  0  0  0  0  0  0  0
    0.8427    4.4507   -7.7811 H   0  0  0  0  0  0  0  0  0  0  0  0
    2.1705    4.8548   -6.6638 H   0  0  0  0  0  0  0  0  0  0  0  0
    1.6783    2.7794   -6.7481 C   0  0  0  0  0  0  0  0  0  0  0  0
    2.3312    1.8297   -7.1589 O   0  0  0  0  0  0  0  0  0  0  0  0
    0.8337    2.6933   -5.7239 N   0  0  0  0  0  0  0  0  0  0  0  0
    0.3199    3.5166   -5.4455 H   0  0  0  0  0  0  0  0  0  0  0  0
    0.5732    1.4707   -4.9639 C   0  0  1  0  0  0  0  0  0  0  0  0
    0.5858    0.6185   -5.6457 H   0  0  0  0  0  0  0  0  0  0  0  0
    1.7089    1.2919   -3.9467 C   0  0  0  0  0  0  0  0  0  0  0  0
    2.6459    1.2527   -4.5042 H   0  0  0  0  0  0  0  0  0  0  0  0
    1.7519    2.1739   -3.3074 H   0  0  0  0  0  0  0  0  0  0  0  0
    1.6618   -0.1825   -2.8926 S   0  0  0  0  0  0  0  0  0  0  0  0
   -0.8142    1.5342   -4.3009 C   0  0  0  0  0  0  0  0  0  0  0  0
   -1.2819    2.6206   -3.9569 O   0  0  0  0  0  0  0  0  0  0  0  0
   -1.4700    0.3789   -4.1310 N   0  0  0  0  0  0  0  0  0  0  0  0
   -1.0047   -0.4706   -4.4087 H   0  0  0  0  0  0  0  0  0  0  0  0
   -2.7897    0.2655   -3.5114 C   0  0  0  0  0  0  0  0  0  0  0  0
   -2.7029    0.4050   -2.4326 H   0  0  0  0  0  0  0  0  0  0  0  0
   -3.4567    1.0339   -3.9095 H   0  0  0  0  0  0  0  0  0  0  0  0
   -3.2175   -0.7167   -3.7132 H   0  0  0  0  0  0  0  0  0  0  0  0
  5  6  2  0  0  0  0
  5  7  1  0  0  0  0
  2  3  1  0  0  0  0
  2  4  1  0  0  0  0
  2  5  1  0  0  0  0
  1  2  1  0  0  0  0
 15 16  2  0  0  0  0
 15 17  1  0  0  0  0
 14 36  1  0  0  0  0
 11 12  1  0  0  0  0
 11 13  1  0  0  0  0
 11 14  1  0  0  0  0
  9 10  1  0  0  0  0
  9 11  1  0  0  0  0
  9 15  1  0  0  0  0
  7  8  1  0  0  0  0
  7  9  1  0  0  0  0
 19 20  1  0  0  0  0
 19 21  1  0  0  0  0
 19 22  1  0  0  0  0
 17 18  1  0  0  0  0
 17 19  1  0  0  0  0
 27 28  2  0  0  0  0
 27 29  1  0  0  0  0
 24 25  1  0  0  0  0
 24 26  1  0  0  0  0
 24 27  1  0  0  0  0
 23 24  1  0  0  0  0
 37 38  2  0  0  0  0
 37 39  1  0  0  0  0
 33 34  1  0  0  0  0
 33 35  1  0  0  0  0
 33 36  1  0  0  0  0
 31 32  1  0  0  0  0
 31 33  1  0  0  0  0
 31 37  1  0  0  0  0
 29 30  1  0  0  0  0
 29 31  1  0  0  0  0
 41 42  1  0  0  0  0
 41 43  1  0  0  0  0
 41 44  1  0  0  0  0
 39 40  1  0  0  0  0
 39 41  1  0  0  0  0
M  END
$$$$
default_name
  -OEChem-01062215323D

 44 43  0     1  0  0  0  0  0999 V2000
    2.4488   -3.0448    2.0990 H   0  0  0  0  0  0  0  0  0  0  0  0
    2.2788   -2.0018    2.3640 C   0  0  0  0  0  0  0  0  0  0  0  0
    2.9228   -1.7258    3.1960 H   0  0  0  0  0  0  0  0  0  0  0  0
    1.2358   -1.8618    2.6430 H   0  0  0  0  0  0  0  0  0  0  0  0
    2.6018   -1.1318    1.1730 C   0  0  0  0  0  0  0  0  0  0  0  0
    3.0048   -1.6348    0.1320 O   0  0  0  0  0  0  0  0  0  0  0  0
    2.4088    0.1752    1.3190 N   0  0  0  0  0  0  0  0  0  0  0  0
    2.0708    0.5242    2.2050 H   0  0  0  0  0  0  0  0  0  0  0  0
    2.6638    1.1782    0.2840 C   0  0  1  0  0  0  0  0  0  0  0  0
    3.3023    0.7261   -0.4769 H   0  0  0  0  0  0  0  0  0  0  0  0
    1.3378    1.5821   -0.3840 C   0  0  0  0  0  0  0  0  0  0  0  0
    1.5192    2.4388   -1.0342 H   0  0  0  0  0  0  0  0  0  0  0  0
    0.6624    1.9278    0.3982 H   0  0  0  0  0  0  0  0  0  0  0  0
    0.4430    0.3161   -1.3323 S   0  0  0  0  0  0  0  0  0  0  0  0
    3.4113    2.3942    0.8625 C   0  0  0  0  0  0  0  0  0  0  0  0
    4.1731    3.0539    0.1558 O   0  0  0  0  0  0  0  0  0  0  0  0
    3.1873    2.6942    2.1489 N   0  0  0  0  0  0  0  0  0  0  0  0
    2.5491    2.1136    2.6687 H   0  0  0  0  0  0  0  0  0  0  0  0
    3.8208    3.8135    2.8429 C   0  0  0  0  0  0  0  0  0  0  0  0
    4.9029    3.6672    2.8642 H   0  0  0  0  0  0  0  0  0  0  0  0
    3.6083    4.7443    2.3138 H   0  0  0  0  0  0  0  0  0  0  0  0
    3.4468    3.8867    3.8649 H   0  0  0  0  0  0  0  0  0  0  0  0
    2.5255    4.0661   -8.2188 H   0  0  0  0  0  0  0  0  0  0  0  0
    1.8125    4.1362   -7.3988 C   0  0  0  0  0  0  0  0  0  0  0  0
    0.8427    4.4507   -7.7811 H   0  0  0  0  0  0  0  0  0  0  0  0
    2.1705    4.8548   -6.6638 H   0  0  0  0  0  0  0  0  0  0  0  0
    1.6783    2.7794   -6.7481 C   0  0  0  0  0  0  0  0  0  0  0  0
    2.3312    1.8297   -7.1589 O   0  0  0  0  0  0  0  0  0  0  0  0
    0.8337    2.6933   -5.7239 N   0  0  0  0  0  0  0  0  0  0  0  0
    0.3199    3.5166   -5.4455 H   0  0  0  0  0  0  0  0  0  0  0  0
    0.5732    1.4707   -4.9639 C   0  0  1  0  0  0  0  0  0  0  0  0
    0.5858    0.6185   -5.6457 H   0  0  0  0  0  0  0  0  0  0  0  0
    1.7089    1.2919   -3.9467 C   0  0  0  0  0  0  0  0  0  0  0  0
    2.6459    1.2527   -4.5042 H   0  0  0  0  0  0  0  0  0  0  0  0
    1.7519    2.1739   -3.3074 H   0  0  0  0  0  0  0  0  0  0  0  0
    1.6618   -0.1825   -2.8926 S   0  0  0  0  0  0  0  0  0  0  0  0
   -0.8142    1.5342   -4.3009 C   0  0  0  0  0  0  0  0  0  0  0  0
   -1.2819    2.6206   -3.9569 O   0  0  0  0  0  0  0  0  0  0  0  0
   -1.4700    0.3789   -4.1310 N   0  0  0  0  0  0  0  0  0  0  0  0
   -1.0047   -0.4706   -4.4087 H   0  0  0  0  0  0  0  0  0  0  0  0
   -2.7897    0.2655   -3.5114 C   0  0  0  0  0  0  0  0  0  0  0  0
   -2.7029    0.4050   -2.4326 H   0  0  0  0  0  0  0  0  0  0  0  0
   -3.4567    1.0339   -3.9095 H   0  0  0  0  0  0  0  0  0  0  0  0
   -3.2175   -0.7167   -3.7132 H   0  0  0  0  0  0  0  0  0  0  0  0
  5  6  2  0  0  0  0
  5  7  1  0  0  0  0
  2  3  1  0  0  0  0
  2  4  1  0  0  0  0
  2  5  1  0  0  0  0
  1  2  1  0  0  0  0
 15 16  2  0  0  0  0
 15 17  1  0  0  0  0
 14 36  1  0  0  0  0
 11 12  1  0  0  0  0
 11 13  1  0  0  0  0
 11 14  1  0  0  0  0
  9 10  1  0  0  0  0
  9 11  1  0  0  0  0
  9 15  1  0  0  0  0
  7  8  1  0  0  0  0
  7  9  1  0  0  0  0
 19 20  1  0  0  0  0
 19 21  1  0  0  0  0
 19 22  1  0  0  0  0
 17 18  1  0  0  0  0
 17 19  1  0  0  0  0
 27 28  2  0  0  0  0
 27 29  1  0  0  0  0
 24 25  1  0  0  0  0
 24 26  1  0  0  0  0
 24 27  1  0  0  0  0
 23 24  1  0  0  0  0
 37 38  2  0  0  0  0
 37 39  1  0  0  0  0
 33 34  1  0  0  0  0
 33 35  1  0  0  0  0
 33 36  1  0  0  0  0
 31 32  1  0  0  0  0
 31 33  1  0  0  0  0
 31 37  1  0  0  0  0
 29 30  1  0  0  0  0
 29 31  1  0  0  0  0
 41 42  1  0  0  0  0
 41 43  1  0  0  0  0
 41 44  1  0  0  0  0
 39 40  1  0  0  0  0
 39 41  1  0  0  0  0
M  END
$$$$
default_name
  -OEChem-01062215323D

 44 43  0     1  0  0  0  0  0999 V2000
    2.4488   -3.0448    2.0990 H   0  0  0  0  0  0  0  0  0  0  0  0
    2.2788   -2.0018    2.3640 C   0  0  0  0  0  0  0  0  0  0  0  0
    2.9228   -1.7258    3.1960 H   0  0  0  0  0  0  0  0  0  0  0  0
    1.2358   -1.8618    2.6430 H   0  0  0  0  0  0  0  0  0  0  0  0
    2.6018   -1.1318    1.1730 C   0  0  0  0  0  0  0  0  0  0  0  0
    3.0048   -1.6348    0.1320 O   0  0  0  0  0  0  0  0  0  0  0  0
    2.4088    0.1752    1.3190 N   0  0  0  0  0  0  0  0  0  0  0  0
    2.0708    0.5242    2.2050 H   0  0  0  0  0  0  0  0  0  0  0  0
    2.6638    1.1782    0.2840 C   0  0  1  0  0  0  0  0  0  0  0  0
    3.3023    0.7261   -0.4769 H   0  0  0  0  0  0  0  0  0  0  0  0
    1.3378    1.5821   -0.3840 C   0  0  0  0  0  0  0  0  0  0  0  0
    1.5192    2.4388   -1.0342 H   0  0  0  0  0  0  0  0  0  0  0  0
    0.6624    1.9278    0.3982 H   0  0  0  0  0  0  0  0  0  0  0  0
    0.4430    0.3161   -1.3323 S   0  0  0  0  0  0  0  0  0  0  0  0
    3.4113    2.3942    0.8625 C   0  0  0  0  0  0  0  0  0  0  0  0
    3.9490    3.2111    0.1150 O   0  0  0  0  0  0  0  0  0  0  0  0
    3.4388    2.5171    2.1963 N   0  0  0  0  0  0  0  0  0  0  0  0
    2.9755    1.8135    2.7486 H   0  0  0  0  0  0  0  0  0  0  0  0
    4.1077    3.6117    2.8964 C   0  0  0  0  0  0  0  0  0  0  0  0
    5.1783    3.5842    2.6828 H   0  0  0  0  0  0  0  0  0  0  0  0
    3.7110    4.5682    2.5512 H   0  0  0  0  0  0  0  0  0  0  0  0
    3.9524    3.5247    3.9725 H   0  0  0  0  0  0  0  0  0  0  0  0
    2.5255    4.0661   -8.2188 H   0  0  0  0  0  0  0  0  0  0  0  0
    1.8125    4.1362   -7.3988 C   0  0  0  0  0  0  0  0  0  0  0  0
    0.8427    4.4507   -7.7811 H   0  0  0  0  0  0  0  0  0  0  0  0
    2.1705    4.8548   -6.6638 H   0  0  0  0  0  0  0  0  0  0  0  0
    1.6783    2.7794   -6.7481 C   0  0  0  0  0  0  0  0  0  0  0  0
    2.3312    1.8297   -7.1589 O   0  0  0  0  0  0  0  0  0  0  0  0
    0.8337    2.6933   -5.7239 N   0  0  0  0  0  0  0  0  0  0  0  0
    0.3199    3.5166   -5.4455 H   0  0  0  0  0  0  0  0  0  0  0  0
    0.5732    1.4707   -4.9639 C   0  0  1  0  0  0  0  0  0  0  0  0
    0.5858    0.6185   -5.6457 H   0  0  0  0  0  0  0  0  0  0  0  0
    1.7089    1.2919   -3.9467 C   0  0  0  0  0  0  0  0  0  0  0  0
    2.6459    1.2527   -4.5042 H   0  0  0  0  0  0  0  0  0  0  0  0
    1.7519    2.1739   -3.3074 H   0  0  0  0  0  0  0  0  0  0  0  0
    1.6618   -0.1825   -2.8926 S   0  0  0  0  0  0  0  0  0  0  0  0
   -0.8142    1.5342   -4.3009 C   0  0  0  0  0  0  0  0  0  0  0  0
   -1.2819    2.6206   -3.9569 O   0  0  0  0  0  0  0  0  0  0  0  0
   -1.4700    0.3789   -4.1310 N   0  0  0  0  0  0  0  0  0  0  0  0
   -1.0047   -0.4706   -4.4087 H   0  0  0  0  0  0  0  0  0  0  0  0
   -2.7897    0.2655   -3.5114 C   0  0  0  0  0  0  0  0  0  0  0  0
   -2.7029    0.4050   -2.4326 H   0  0  0  0  0  0  0  0  0  0  0  0
   -3.4567    1.0339   -3.9095 H   0  0  0  0  0  0  0  0  0  0  0  0
   -3.2175   -0.7167   -3.7132 H   0  0  0  0  0  0  0  0  0  0  0  0
  5  6  2  0  0  0  0
  5  7  1  0  0  0  0
  2  3  1  0  0  0  0
  2  4  1  0  0  0  0
  2  5  1  0  0  0  0
  1  2  1  0  0  0  0
 15 16  2  0  0  0  0
 15 17  1  0  0  0  0
 14 36  1  0  0  0  0
 11 12  1  0  0  0  0
 11 13  1  0  0  0  0
 11 14  1  0  0  0  0
  9 10  1  0  0  0  0
  9 11  1  0  0  0  0
  9 15  1  0  0  0  0
  7  8  1  0  0  0  0
  7  9  1  0  0  0  0
 19 20  1  0  0  0  0
 19 21  1  0  0  0  0
 19 22  1  0  0  0  0
 17 18  1  0  0  0  0
 17 19  1  0  0  0  0
 27 28  2  0  0  0  0
 27 29  1  0  0  0  0
 24 25  1  0  0  0  0
 24 26  1  0  0  0  0
 24 27  1  0  0  0  0
 23 24  1  0  0  0  0
 37 38  2  0  0  0  0
 37 39  1  0  0  0  0
 33 34  1  0  0  0  0
 33 35  1  0  0  0  0
 33 36  1  0  0  0  0
 31 32  1  0  0  0  0
 31 33  1  0  0  0  0
 31 37  1  0  0  0  0
 29 30  1  0  0  0  0
 29 31  1  0  0  0  0
 41 42  1  0  0  0  0
 41 43  1  0  0  0  0
 41 44  1  0  0  0  0
 39 40  1  0  0  0  0
 39 41  1  0  0  0  0
M  END
$$$$
default_name
  -OEChem-01062215323D

 44 43  0     1  0  0  0  0  0999 V2000
    2.4488   -3.0448    2.0990 H   0  0  0  0  0  0  0  0  0  0  0  0
    2.2788   -2.0018    2.3640 C   0  0  0  0  0  0  0  0  0  0  0  0
    2.9228   -1.7258    3.1960 H   0  0  0  0  0  0  0  0  0  0  0  0
    1.2358   -1.8618    2.6430 H   0  0  0  0  0  0  0  0  0  0  0  0
    2.6018   -1.1318    1.1730 C   0  0  0  0  0  0  0  0  0  0  0  0
    3.0048   -1.6348    0.1320 O   0  0  0  0  0  0  0  0  0  0  0  0
    2.4088    0.1752    1.3190 N   0  0  0  0  0  0  0  0  0  0  0  0
    2.0708    0.5242    2.2050 H   0  0  0  0  0  0  0  0  0  0  0  0
    2.6638    1.1782    0.2840 C   0  0  1  0  0  0  0  0  0  0  0  0
    3.3023    0.7261   -0.4769 H   0  0  0  0  0  0  0  0  0  0  0  0
    1.3378    1.5821   -0.3840 C   0  0  0  0  0  0  0  0  0  0  0  0
    1.5192    2.4388   -1.0342 H   0  0  0  0  0  0  0  0  0  0  0  0
    0.6624    1.9278    0.3982 H   0  0  0  0  0  0  0  0  0  0  0  0
    0.4430    0.3161   -1.3323 S   0  0  0  0  0  0  0  0  0  0  0  0
    3.4113    2.3942    0.8625 C   0  0  0  0  0  0  0  0  0  0  0  0
    3.7088    3.3463    0.1412 O   0  0  0  0  0  0  0  0  0  0  0  0
    3.7086    2.3645    2.1685 N   0  0  0  0  0  0  0  0  0  0  0  0
    3.4328    1.5551    2.7009 H   0  0  0  0  0  0  0  0  0  0  0  0
    4.4153    3.4380    2.8641 C   0  0  0  0  0  0  0  0  0  0  0  0
    5.4154    3.5535    2.4409 H   0  0  0  0  0  0  0  0  0  0  0  0
    3.8757    4.3784    2.7374 H   0  0  0  0  0  0  0  0  0  0  0  0
    4.4980    3.2106    3.9277 H   0  0  0  0  0  0  0  0  0  0  0  0
    2.5255    4.0661   -8.2188 H   0  0  0  0  0  0  0  0  0  0  0  0
    1.8125    4.1362   -7.3988 C   0  0  0  0  0  0  0  0  0  0  0  0
    0.8427    4.4507   -7.7811 H   0  0  0  0  0  0  0  0  0  0  0  0
    2.1705    4.8548   -6.6638 H   0  0  0  0  0  0  0  0  0  0  0  0
    1.6783    2.7794   -6.7481 C   0  0  0  0  0  0  0  0  0  0  0  0
    2.3312    1.8297   -7.1589 O   0  0  0  0  0  0  0  0  0  0  0  0
    0.8337    2.6933   -5.7239 N   0  0  0  0  0  0  0  0  0  0  0  0
    0.3199    3.5166   -5.4455 H   0  0  0  0  0  0  0  0  0  0  0  0
    0.5732    1.4707   -4.9639 C   0  0  1  0  0  0  0  0  0  0  0  0
    0.5858    0.6185   -5.6457 H   0  0  0  0  0  0  0  0  0  0  0  0
    1.7089    1.2919   -3.9467 C   0  0  0  0  0  0  0  0  0  0  0  0
    2.6459    1.2527   -4.5042 H   0  0  0  0  0  0  0  0  0  0  0  0
    1.7519    2.1739   -3.3074 H   0  0  0  0  0  0  0  0  0  0  0  0
    1.6618   -0.1825   -2.8926 S   0  0  0  0  0  0  0  0  0  0  0  0
   -0.8142    1.5342   -4.3009 C   0  0  0  0  0  0  0  0  0  0  0  0
   -1.2819    2.6206   -3.9569 O   0  0  0  0  0  0  0  0  0  0  0  0
   -1.4700    0.3789   -4.1310 N   0  0  0  0  0  0  0  0  0  0  0  0
   -1.0047   -0.4706   -4.4087 H   0  0  0  0  0  0  0  0  0  0  0  0
   -2.7897    0.2655   -3.5114 C   0  0  0  0  0  0  0  0  0  0  0  0
   -2.7029    0.4050   -2.4326 H   0  0  0  0  0  0  0  0  0  0  0  0
   -3.4567    1.0339   -3.9095 H   0  0  0  0  0  0  0  0  0  0  0  0
   -3.2175   -0.7167   -3.7132 H   0  0  0  0  0  0  0  0  0  0  0  0
  5  6  2  0  0  0  0
  5  7  1  0  0  0  0
  2  3  1  0  0  0  0
  2  4  1  0  0  0  0
  2  5  1  0  0  0  0
  1  2  1  0  0  0  0
 15 16  2  0  0  0  0
 15 17  1  0  0  0  0
 14 36  1  0  0  0  0
 11 12  1  0  0  0  0
 11 13  1  0  0  0  0
 11 14  1  0  0  0  0
  9 10  1  0  0  0  0
  9 11  1  0  0  0  0
  9 15  1  0  0  0  0
  7  8  1  0  0  0  0
  7  9  1  0  0  0  0
 19 20  1  0  0  0  0
 19 21  1  0  0  0  0
 19 22  1  0  0  0  0
 17 18  1  0  0  0  0
 17 19  1  0  0  0  0
 27 28  2  0  0  0  0
 27 29  1  0  0  0  0
 24 25  1  0  0  0  0
 24 26  1  0  0  0  0
 24 27  1  0  0  0  0
 23 24  1  0  0  0  0
 37 38  2  0  0  0  0
 37 39  1  0  0  0  0
 33 34  1  0  0  0  0
 33 35  1  0  0  0  0
 33 36  1  0  0  0  0
 31 32  1  0  0  0  0
 31 33  1  0  0  0  0
 31 37  1  0  0  0  0
 29 30  1  0  0  0  0
 29 31  1  0  0  0  0
 41 42  1  0  0  0  0
 41 43  1  0  0  0  0
 41 44  1  0  0  0  0
 39 40  1  0  0  0  0
 39 41  1  0  0  0  0
M  END
$$$$
default_name
  -OEChem-01062215323D

 44 43  0     1  0  0  0  0  0999 V2000
    2.4488   -3.0448    2.0990 H   0  0  0  0  0  0  0  0  0  0  0  0
    2.2788   -2.0018    2.3640 C   0  0  0  0  0  0  0  0  0  0  0  0
    2.9228   -1.7258    3.1960 H   0  0  0  0  0  0  0  0  0  0  0  0
    1.2358   -1.8618    2.6430 H   0  0  0  0  0  0  0  0  0  0  0  0
    2.6018   -1.1318    1.1730 C   0  0  0  0  0  0  0  0  0  0  0  0
    3.0048   -1.6348    0.1320 O   0  0  0  0  0  0  0  0  0  0  0  0
    2.4088    0.1752    1.3190 N   0  0  0  0  0  0  0  0  0  0  0  0
    2.0708    0.5242    2.2050 H   0  0  0  0  0  0  0  0  0  0  0  0
    2.6638    1.1782    0.2840 C   0  0  1  0  0  0  0  0  0  0  0  0
    3.3023    0.7261   -0.4769 H   0  0  0  0  0  0  0  0  0  0  0  0
    1.3378    1.5821   -0.3840 C   0  0  0  0  0  0  0  0  0  0  0  0
    1.5192    2.4388   -1.0342 H   0  0  0  0  0  0  0  0  0  0  0  0
    0.6624    1.9278    0.3982 H   0  0  0  0  0  0  0  0  0  0  0  0
    0.4430    0.3161   -1.3323 S   0  0  0  0  0  0  0  0  0  0  0  0
    3.4113    2.3942    0.8625 C   0  0  0  0  0  0  0  0  0  0  0  0
    3.4691    3.4502    0.2326 O   0  0  0  0  0  0  0  0  0  0  0  0
    3.9783    2.2468    2.0673 N   0  0  0  0  0  0  0  0  0  0  0  0
    3.8900    1.3559    2.5289 H   0  0  0  0  0  0  0  0  0  0  0  0
    4.7228    3.3042    2.7483 C   0  0  0  0  0  0  0  0  0  0  0  0
    5.5980    3.5774    2.1549 H   0  0  0  0  0  0  0  0  0  0  0  0
    4.0914    4.1876    2.8598 H   0  0  0  0  0  0  0  0  0  0  0  0
    5.0464    2.9660    3.7335 H   0  0  0  0  0  0  0  0  0  0  0  0
    2.5255    4.0661   -8.2188 H   0  0  0  0  0  0  0  0  0  0  0  0
    1.8125    4.1362   -7.3988 C   0  0  0  0  0  0  0  0  0  0  0  0
    0.8427    4.4507   -7.7811 H   0  0  0  0  0  0  0  0  0  0  0  0
    2.1705    4.8548   -6.6638 H   0  0  0  0  0  0  0  0  0  0  0  0
    1.6783    2.7794   -6.7481 C   0  0  0  0  0  0  0  0  0  0  0  0
    2.3312    1.8297   -7.1589 O   0  0  0  0  0  0  0  0  0  0  0  0
    0.8337    2.6933   -5.7239 N   0  0  0  0  0  0  0  0  0  0  0  0
    0.3199    3.5166   -5.4455 H   0  0  0  0  0  0  0  0  0  0  0  0
    0.5732    1.4707   -4.9639 C   0  0  1  0  0  0  0  0  0  0  0  0
    0.5858    0.6185   -5.6457 H   0  0  0  0  0  0  0  0  0  0  0  0
    1.7089    1.2919   -3.9467 C   0  0  0  0  0  0  0  0  0  0  0  0
    2.6459    1.2527   -4.5042 H   0  0  0  0  0  0  0  0  0  0  0  0
    1.7519    2.1739   -3.3074 H   0  0  0  0  0  0  0  0  0  0  0  0
    1.6618   -0.1825   -2.8926 S   0  0  0  0  0  0  0  0  0  0  0  0
   -0.8142    1.5342   -4.3009 C   0  0  0  0  0  0  0  0  0  0  0  0
   -1.2819    2.6206   -3.9569 O   0  0  0  0  0  0  0  0  0  0  0  0
   -1.4700    0.3789   -4.1310 N   0  0  0  0  0  0  0  0  0  0  0  0
   -1.0047   -0.4706   -4.4087 H   0  0  0  0  0  0  0  0  0  0  0  0
   -2.7897    0.2655   -3.5114 C   0  0  0  0  0  0  0  0  0  0  0  0
   -2.7029    0.4050   -2.4326 H   0  0  0  0  0  0  0  0  0  0  0  0
   -3.4567    1.0339   -3.9095 H   0  0  0  0  0  0  0  0  0  0  0  0
   -3.2175   -0.7167   -3.7132 H   0  0  0  0  0  0  0  0  0  0  0  0
  5  6  2  0  0  0  0
  5  7  1  0  0  0  0
  2  3  1  0  0  0  0
  2  4  1  0  0  0  0
  2  5  1  0  0  0  0
  1  2  1  0  0  0  0
 15 16  2  0  0  0  0
 15 17  1  0  0  0  0
 14 36  1  0  0  0  0
 11 12  1  0  0  0  0
 11 13  1  0  0  0  0
 11 14  1  0  0  0  0
  9 10  1  0  0  0  0
  9 11  1  0  0  0  0
  9 15  1  0  0  0  0
  7  8  1  0  0  0  0
  7  9  1  0  0  0  0
 19 20  1  0  0  0  0
 19 21  1  0  0  0  0
 19 22  1  0  0  0  0
 17 18  1  0  0  0  0
 17 19  1  0  0  0  0
 27 28  2  0  0  0  0
 27 29  1  0  0  0  0
 24 25  1  0  0  0  0
 24 26  1  0  0  0  0
 24 27  1  0  0  0  0
 23 24  1  0  0  0  0
 37 38  2  0  0  0  0
 37 39  1  0  0  0  0
 33 34  1  0  0  0  0
 33 35  1  0  0  0  0
 33 36  1  0  0  0  0
 31 32  1  0  0  0  0
 31 33  1  0  0  0  0
 31 37  1  0  0  0  0
 29 30  1  0  0  0  0
 29 31  1  0  0  0  0
 41 42  1  0  0  0  0
 41 43  1  0  0  0  0
 41 44  1  0  0  0  0
 39 40  1  0  0  0  0
 39 41  1  0  0  0  0
M  END
$$$$
default_name
  -OEChem-01062215323D

 44 43  0     1  0  0  0  0  0999 V2000
    2.4488   -3.0448    2.0990 H   0  0  0  0  0  0  0  0  0  0  0  0
    2.2788   -2.0018    2.3640 C   0  0  0  0  0  0  0  0  0  0  0  0
    2.9228   -1.7258    3.1960 H   0  0  0  0  0  0  0  0  0  0  0  0
    1.2358   -1.8618    2.6430 H   0  0  0  0  0  0  0  0  0  0  0  0
    2.6018   -1.1318    1.1730 C   0  0  0  0  0  0  0  0  0  0  0  0
    3.0048   -1.6348    0.1320 O   0  0  0  0  0  0  0  0  0  0  0  0
    2.4088    0.1752    1.3190 N   0  0  0  0  0  0  0  0  0  0  0  0
    2.0708    0.5242    2.2050 H   0  0  0  0  0  0  0  0  0  0  0  0
    2.6638    1.1782    0.2840 C   0  0  1  0  0  0  0  0  0  0  0  0
    3.3023    0.7261   -0.4769 H   0  0  0  0  0  0  0  0  0  0  0  0
    1.3378    1.5821   -0.3840 C   0  0  0  0  0  0  0  0  0  0  0  0
    1.5192    2.4388   -1.0342 H   0  0  0  0  0  0  0  0  0  0  0  0
    0.6624    1.9278    0.3982 H   0  0  0  0  0  0  0  0  0  0  0  0
    0.4430    0.3161   -1.3323 S   0  0  0  0  0  0  0  0  0  0  0  0
    3.4113    2.3942    0.8625 C   0  0  0  0  0  0  0  0  0  0  0  0
    3.2460    3.5157    0.3829 O   0  0  0  0  0  0  0  0  0  0  0  0
    4.2296    2.1721    1.8997 N   0  0  0  0  0  0  0  0  0  0  0  0
    4.3158    1.2295    2.2444 H   0  0  0  0  0  0  0  0  0  0  0  0
    5.0091    3.2193    2.5567 C   0  0  0  0  0  0  0  0  0  0  0  0
    5.7136    3.6541    1.8444 H   0  0  0  0  0  0  0  0  0  0  0  0
    4.3433    4.0089    2.9099 H   0  0  0  0  0  0  0  0  0  0  0  0
    5.5602    2.8074    3.4030 H   0  0  0  0  0  0  0  0  0  0  0  0
    2.5255    4.0661   -8.2188 H   0  0  0  0  0  0  0  0  0  0  0  0
    1.8125    4.1362   -7.3988 C   0  0  0  0  0  0  0  0  0  0  0  0
    0.8427    4.4507   -7.7811 H   0  0  0  0  0  0  0  0  0  0  0  0
    2.1705    4.8548   -6.6638 H   0  0  0  0  0  0  0  0  0  0  0  0
    1.6783    2.7794   -6.7481 C   0  0  0  0  0  0  0  0  0  0  0  0
    2.3312    1.8297   -7.1589 O   0  0  0  0  0  0  0  0  0  0  0  0
    0.8337    2.6933   -5.7239 N   0  0  0  0  0  0  0  0  0  0  0  0
    0.3199    3.5166   -5.4455 H   0  0  0  0  0  0  0  0  0  0  0  0
    0.5732    1.4707   -4.9639 C   0  0  1  0  0  0  0  0  0  0  0  0
    0.5858    0.6185   -5.6457 H   0  0  0  0  0  0  0  0  0  0  0  0
    1.7089    1.2919   -3.9467 C   0  0  0  0  0  0  0  0  0  0  0  0
    2.6459    1.2527   -4.5042 H   0  0  0  0  0  0  0  0  0  0  0  0
    1.7519    2.1739   -3.3074 H   0  0  0  0  0  0  0  0  0  0  0  0
    1.6618   -0.1825   -2.8926 S   0  0  0  0  0  0  0  0  0  0  0  0
   -0.8142    1.5342   -4.3009 C   0  0  0  0  0  0  0  0  0  0  0  0
   -1.2819    2.6206   -3.9569 O   0  0  0  0  0  0  0  0  0  0  0  0
   -1.4700    0.3789   -4.1310 N   0  0  0  0  0  0  0  0  0  0  0  0
   -1.0047   -0.4706   -4.4087 H   0  0  0  0  0  0  0  0  0  0  0  0
   -2.7897    0.2655   -3.5114 C   0  0  0  0  0  0  0  0  0  0  0  0
   -2.7029    0.4050   -2.4326 H   0  0  0  0  0  0  0  0  0  0  0  0
   -3.4567    1.0339   -3.9095 H   0  0  0  0  0  0  0  0  0  0  0  0
   -3.2175   -0.7167   -3.7132 H   0  0  0  0  0  0  0  0  0  0  0  0
  5  6  2  0  0  0  0
  5  7  1  0  0  0  0
  2  3  1  0  0  0  0
  2  4  1  0  0  0  0
  2  5  1  0  0  0  0
  1  2  1  0  0  0  0
 15 16  2  0  0  0  0
 15 17  1  0  0  0  0
 14 36  1  0  0  0  0
 11 12  1  0  0  0  0
 11 13  1  0  0  0  0
 11 14  1  0  0  0  0
  9 10  1  0  0  0  0
  9 11  1  0  0  0  0
  9 15  1  0  0  0  0
  7  8  1  0  0  0  0
  7  9  1  0  0  0  0
 19 20  1  0  0  0  0
 19 21  1  0  0  0  0
 19 22  1  0  0  0  0
 17 18  1  0  0  0  0
 17 19  1  0  0  0  0
 27 28  2  0  0  0  0
 27 29  1  0  0  0  0
 24 25  1  0  0  0  0
 24 26  1  0  0  0  0
 24 27  1  0  0  0  0
 23 24  1  0  0  0  0
 37 38  2  0  0  0  0
 37 39  1  0  0  0  0
 33 34  1  0  0  0  0
 33 35  1  0  0  0  0
 33 36  1  0  0  0  0
 31 32  1  0  0  0  0
 31 33  1  0  0  0  0
 31 37  1  0  0  0  0
 29 30  1  0  0  0  0
 29 31  1  0  0  0  0
 41 42  1  0  0  0  0
 41 43  1  0  0  0  0
 41 44  1  0  0  0  0
 39 40  1  0  0  0  0
 39 41  1  0  0  0  0
M  END
$$$$
default_name
  -OEChem-01062215323D

 44 43  0     1  0  0  0  0  0999 V2000
    2.4488   -3.0448    2.0990 H   0  0  0  0  0  0  0  0  0  0  0  0
    2.2788   -2.0018    2.3640 C   0  0  0  0  0  0  0  0  0  0  0  0
    2.9228   -1.7258    3.1960 H   0  0  0  0  0  0  0  0  0  0  0  0
    1.2358   -1.8618    2.6430 H   0  0  0  0  0  0  0  0  0  0  0  0
    2.6018   -1.1318    1.1730 C   0  0  0  0  0  0  0  0  0  0  0  0
    3.0048   -1.6348    0.1320 O   0  0  0  0  0  0  0  0  0  0  0  0
    2.4088    0.1752    1.3190 N   0  0  0  0  0  0  0  0  0  0  0  0
    2.0708    0.5242    2.2050 H   0  0  0  0  0  0  0  0  0  0  0  0
    2.6638    1.1782    0.2840 C   0  0  1  0  0  0  0  0  0  0  0  0
    3.3023    0.7261   -0.4769 H   0  0  0  0  0  0  0  0  0  0  0  0
    1.3378    1.5821   -0.3840 C   0  0  0  0  0  0  0  0  0  0  0  0
    1.5192    2.4388   -1.0342 H   0  0  0  0  0  0  0  0  0  0  0  0
    0.6624    1.9278    0.3982 H   0  0  0  0  0  0  0  0  0  0  0  0
    0.4430    0.3161   -1.3323 S   0  0  0  0  0  0  0  0  0  0  0  0
    3.4113    2.3942    0.8625 C   0  0  0  0  0  0  0  0  0  0  0  0
    3.0549    3.5385    0.5818 O   0  0  0  0  0  0  0  0  0  0  0  0
    4.4454    2.1454    1.6771 N   0  0  0  0  0  0  0  0  0  0  0  0
    4.6812    1.1846    1.8667 H   0  0  0  0  0  0  0  0  0  0  0  0
    5.2547    3.1893    2.3025 C   0  0  0  0  0  0  0  0  0  0  0  0
    5.7543    3.7784    1.5305 H   0  0  0  0  0  0  0  0  0  0  0  0
    4.6142    3.8545    2.8845 H   0  0  0  0  0  0  0  0  0  0  0  0
    6.0044    2.7456    2.9590 H   0  0  0  0  0  0  0  0  0  0  0  0
    2.5255    4.0661   -8.2188 H   0  0  0  0  0  0  0  0  0  0  0  0
    1.8125    4.1362   -7.3988 C   0  0  0  0  0  0  0  0  0  0  0  0
    0.8427    4.4507   -7.7811 H   0  0  0  0  0  0  0  0  0  0  0  0
    2.1705    4.8548   -6.6638 H   0  0  0  0  0  0  0  0  0  0  0  0
    1.6783    2.7794   -6.7481 C   0  0  0  0  0  0  0  0  0  0  0  0
    2.3312    1.8297   -7.1589 O   0  0  0  0  0  0  0  0  0  0  0  0
    0.8337    2.6933   -5.7239 N   0  0  0  0  0  0  0  0  0  0  0  0
    0.3199    3.5166   -5.4455 H   0  0  0  0  0  0  0  0  0  0  0  0
    0.5732    1.4707   -4.9639 C   0  0  1  0  0  0  0  0  0  0  0  0
    0.5858    0.6185   -5.6457 H   0  0  0  0  0  0  0  0  0  0  0  0
    1.7089    1.2919   -3.9467 C   0  0  0  0  0  0  0  0  0  0  0  0
    2.6459    1.2527   -4.5042 H   0  0  0  0  0  0  0  0  0  0  0  0
    1.7519    2.1739   -3.3074 H   0  0  0  0  0  0  0  0  0  0  0  0
    1.6618   -0.1825   -2.8926 S   0  0  0  0  0  0  0  0  0  0  0  0
   -0.8142    1.5342   -4.3009 C   0  0  0  0  0  0  0  0  0  0  0  0
   -1.2819    2.6206   -3.9569 O   0  0  0  0  0  0  0  0  0  0  0  0
   -1.4700    0.3789   -4.1310 N   0  0  0  0  0  0  0  0  0  0  0  0
   -1.0047   -0.4706   -4.4087 H   0  0  0  0  0  0  0  0  0  0  0  0
   -2.7897    0.2655   -3.5114 C   0  0  0  0  0  0  0  0  0  0  0  0
   -2.7029    0.4050   -2.4326 H   0  0  0  0  0  0  0  0  0  0  0  0
   -3.4567    1.0339   -3.9095 H   0  0  0  0  0  0  0  0  0  0  0  0
   -3.2175   -0.7167   -3.7132 H   0  0  0  0  0  0  0  0  0  0  0  0
  5  6  2  0  0  0  0
  5  7  1  0  0  0  0
  2  3  1  0  0  0  0
  2  4  1  0  0  0  0
  2  5  1  0  0  0  0
  1  2  1  0  0  0  0
 15 16  2  0  0  0  0
 15 17  1  0  0  0  0
 14 36  1  0  0  0  0
 11 12  1  0  0  0  0
 11 13  1  0  0  0  0
 11 14  1  0  0  0  0
  9 10  1  0  0  0  0
  9 11  1  0  0  0  0
  9 15  1  0  0  0  0
  7  8  1  0  0  0  0
  7  9  1  0  0  0  0
 19 20  1  0  0  0  0
 19 21  1  0  0  0  0
 19 22  1  0  0  0  0
 17 18  1  0  0  0  0
 17 19  1  0  0  0  0
 27 28  2  0  0  0  0
 27 29  1  0  0  0  0
 24 25  1  0  0  0  0
 24 26  1  0  0  0  0
 24 27  1  0  0  0  0
 23 24  1  0  0  0  0
 37 38  2  0  0  0  0
 37 39  1  0  0  0  0
 33 34  1  0  0  0  0
 33 35  1  0  0  0  0
 33 36  1  0  0  0  0
 31 32  1  0  0  0  0
 31 33  1  0  0  0  0
 31 37  1  0  0  0  0
 29 30  1  0  0  0  0
 29 31  1  0  0  0  0
 41 42  1  0  0  0  0
 41 43  1  0  0  0  0
 41 44  1  0  0  0  0
 39 40  1  0  0  0  0
 39 41  1  0  0  0  0
M  END
$$$$
default_name
  -OEChem-01062215323D

 44 43  0     1  0  0  0  0  0999 V2000
    2.4488   -3.0448    2.0990 H   0  0  0  0  0  0  0  0  0  0  0  0
    2.2788   -2.0018    2.3640 C   0  0  0  0  0  0  0  0  0  0  0  0
    2.9228   -1.7258    3.1960 H   0  0  0  0  0  0  0  0  0  0  0  0
    1.2358   -1.8618    2.6430 H   0  0  0  0  0  0  0  0  0  0  0  0
    2.6018   -1.1318    1.1730 C   0  0  0  0  0  0  0  0  0  0  0  0
    3.0048   -1.6348    0.1320 O   0  0  0  0  0  0  0  0  0  0  0  0
    2.4088    0.1752    1.3190 N   0  0  0  0  0  0  0  0  0  0  0  0
    2.0708    0.5242    2.2050 H   0  0  0  0  0  0  0  0  0  0  0  0
    2.6638    1.1782    0.2840 C   0  0  1  0  0  0  0  0  0  0  0  0
    3.3023    0.7261   -0.4769 H   0  0  0  0  0  0  0  0  0  0  0  0
    1.3378    1.5821   -0.3840 C   0  0  0  0  0  0  0  0  0  0  0  0
    1.5192    2.4388   -1.0342 H   0  0  0  0  0  0  0  0  0  0  0  0
    0.6624    1.9278    0.3982 H   0  0  0  0  0  0  0  0  0  0  0  0
    0.4430    0.3161   -1.3323 S   0  0  0  0  0  0  0  0  0  0  0  0
    3.4113    2.3942    0.8625 C   0  0  0  0  0  0  0  0  0  0  0  0
    2.9088    3.5170    0.8160 O   0  0  0  0  0  0  0  0  0  0  0  0
    4.6109    2.1686    1.4146 N   0  0  0  0  0  0  0  0  0  0  0  0
    4.9614    1.2242    1.4215 H   0  0  0  0  0  0  0  0  0  0  0  0
    5.4430    3.2160    2.0030 C   0  0  0  0  0  0  0  0  0  0  0  0
    5.7174    3.9419    1.2345 H   0  0  0  0  0  0  0  0  0  0  0  0
    4.8857    3.7349    2.7851 H   0  0  0  0  0  0  0  0  0  0  0  0
    6.3487    2.7849    2.4315 H   0  0  0  0  0  0  0  0  0  0  0  0
    2.5255    4.0661   -8.2188 H   0  0  0  0  0  0  0  0  0  0  0  0
    1.8125    4.1362   -7.3988 C   0  0  0  0  0  0  0  0  0  0  0  0
    0.8427    4.4507   -7.7811 H   0  0  0  0  0  0  0  0  0  0  0  0
    2.1705    4.8548   -6.6638 H   0  0  0  0  0  0  0  0  0  0  0  0
    1.6783    2.7794   -6.7481 C   0  0  0  0  0  0  0  0  0  0  0  0
    2.3312    1.8297   -7.1589 O   0  0  0  0  0  0  0  0  0  0  0  0
    0.8337    2.6933   -5.7239 N   0  0  0  0  0  0  0  0  0  0  0  0
    0.3199    3.5166   -5.4455 H   0  0  0  0  0  0  0  0  0  0  0  0
    0.5732    1.4707   -4.9639 C   0  0  1  0  0  0  0  0  0  0  0  0
    0.5858    0.6185   -5.6457 H   0  0  0  0  0  0  0  0  0  0  0  0
    1.7089    1.2919   -3.9467 C   0  0  0  0  0  0  0  0  0  0  0  0
    2.6459    1.2527   -4.5042 H   0  0  0  0  0  0  0  0  0  0  0  0
    1.7519    2.1739   -3.3074 H   0  0  0  0  0  0  0  0  0  0  0  0
    1.6618   -0.1825   -2.8926 S   0  0  0  0  0  0  0  0  0  0  0  0
   -0.8142    1.5342   -4.3009 C   0  0  0  0  0  0  0  0  0  0  0  0
   -1.2819    2.6206   -3.9569 O   0  0  0  0  0  0  0  0  0  0  0  0
   -1.4700    0.3789   -4.1310 N   0  0  0  0  0  0  0  0  0  0  0  0
   -1.0047   -0.4706   -4.4087 H   0  0  0  0  0  0  0  0  0  0  0  0
   -2.7897    0.2655   -3.5114 C   0  0  0  0  0  0  0  0  0  0  0  0
   -2.7029    0.4050   -2.4326 H   0  0  0  0  0  0  0  0  0  0  0  0
   -3.4567    1.0339   -3.9095 H   0  0  0  0  0  0  0  0  0  0  0  0
   -3.2175   -0.7167   -3.7132 H   0  0  0  0  0  0  0  0  0  0  0  0
  5  6  2  0  0  0  0
  5  7  1  0  0  0  0
  2  3  1  0  0  0  0
  2  4  1  0  0  0  0
  2  5  1  0  0  0  0
  1  2  1  0  0  0  0
 15 16  2  0  0  0  0
 15 17  1  0  0  0  0
 14 36  1  0  0  0  0
 11 12  1  0  0  0  0
 11 13  1  0  0  0  0
 11 14  1  0  0  0  0
  9 10  1  0  0  0  0
  9 11  1  0  0  0  0
  9 15  1  0  0  0  0
  7  8  1  0  0  0  0
  7  9  1  0  0  0  0
 19 20  1  0  0  0  0
 19 21  1  0  0  0  0
 19 22  1  0  0  0  0
 17 18  1  0  0  0  0
 17 19  1  0  0  0  0
 27 28  2  0  0  0  0
 27 29  1  0  0  0  0
 24 25  1  0  0  0  0
 24 26  1  0  0  0  0
 24 27  1  0  0  0  0
 23 24  1  0  0  0  0
 37 38  2  0  0  0  0
 37 39  1  0  0  0  0
 33 34  1  0  0  0  0
 33 35  1  0  0  0  0
 33 36  1  0  0  0  0
 31 32  1  0  0  0  0
 31 33  1  0  0  0  0
 31 37  1  0  0  0  0
 29 30  1  0  0  0  0
 29 31  1  0  0  0  0
 41 42  1  0  0  0  0
 41 43  1  0  0  0  0
 41 44  1  0  0  0  0
 39 40  1  0  0  0  0
 39 41  1  0  0  0  0
M  END
$$$$
default_name
  -OEChem-01062215323D

 44 43  0     1  0  0  0  0  0999 V2000
    2.4488   -3.0448    2.0990 H   0  0  0  0  0  0  0  0  0  0  0  0
    2.2788   -2.0018    2.3640 C   0  0  0  0  0  0  0  0  0  0  0  0
    2.9228   -1.7258    3.1960 H   0  0  0  0  0  0  0  0  0  0  0  0
    1.2358   -1.8618    2.6430 H   0  0  0  0  0  0  0  0  0  0  0  0
    2.6018   -1.1318    1.1730 C   0  0  0  0  0  0  0  0  0  0  0  0
    3.0048   -1.6348    0.1320 O   0  0  0  0  0  0  0  0  0  0  0  0
    2.4088    0.1752    1.3190 N   0  0  0  0  0  0  0  0  0  0  0  0
    2.0708    0.5242    2.2050 H   0  0  0  0  0  0  0  0  0  0  0  0
    2.6638    1.1782    0.2840 C   0  0  1  0  0  0  0  0  0  0  0  0
    3.3023    0.7261   -0.4769 H   0  0  0  0  0  0  0  0  0  0  0  0
    1.3378    1.5821   -0.3840 C   0  0  0  0  0  0  0  0  0  0  0  0
    1.5192    2.4388   -1.0342 H   0  0  0  0  0  0  0  0  0  0  0  0
    0.6624    1.9278    0.3982 H   0  0  0  0  0  0  0  0  0  0  0  0
    0.4430    0.3161   -1.3323 S   0  0  0  0  0  0  0  0  0  0  0  0
    3.4113    2.3942    0.8625 C   0  0  0  0  0  0  0  0  0  0  0  0
    2.8176    3.4525    1.0692 O   0  0  0  0  0  0  0  0  0  0  0  0
    4.7149    2.2400    1.1301 N   0  0  0  0  0  0  0  0  0  0  0  0
    5.1372    1.3456    0.9392 H   0  0  0  0  0  0  0  0  0  0  0  0
    5.5610    3.2978    1.6786 C   0  0  0  0  0  0  0  0  0  0  0  0
    5.6054    4.1334    0.9767 H   0  0  0  0  0  0  0  0  0  0  0  0
    5.1393    3.6582    2.6186 H   0  0  0  0  0  0  0  0  0  0  0  0
    6.5696    2.9226    1.8566 H   0  0  0  0  0  0  0  0  0  0  0  0
    2.5255    4.0661   -8.2188 H   0  0  0  0  0  0  0  0  0  0  0  0
    1.8125    4.1362   -7.3988 C   0  0  0  0  0  0  0  0  0  0  0  0
    0.8427    4.4507   -7.7811 H   0  0  0  0  0  0  0  0  0  0  0  0
    2.1705    4.8548   -6.6638 H   0  0  0  0  0  0  0  0  0  0  0  0
    1.6783    2.7794   -6.7481 C   0  0  0  0  0  0  0  0  0  0  0  0
    2.3312    1.8297   -7.1589 O   0  0  0  0  0  0  0  0  0  0  0  0
    0.8337    2.6933   -5.7239 N   0  0  0  0  0  0  0  0  0  0  0  0
    0.3199    3.5166   -5.4455 H   0  0  0  0  0  0  0  0  0  0  0  0
    0.5732    1.4707   -4.9639 C   0  0  1  0  0  0  0  0  0  0  0  0
    0.5858    0.6185   -5.6457 H   0  0  0  0  0  0  0  0  0  0  0  0
    1.7089    1.2919   -3.9467 C   0  0  0  0  0  0  0  0  0  0  0  0
    2.6459    1.2527   -4.5042 H   0  0  0  0  0  0  0  0  0  0  0  0
    1.7519    2.1739   -3.3074 H   0  0  0  0  0  0  0  0  0  0  0  0
    1.6618   -0.1825   -2.8926 S   0  0  0  0  0  0  0  0  0  0  0  0
   -0.8142    1.5342   -4.3009 C   0  0  0  0  0  0  0  0  0  0  0  0
   -1.2819    2.6206   -3.9569 O   0  0  0  0  0  0  0  0  0  0  0  0
   -1.4700    0.3789   -4.1310 N   0  0  0  0  0  0  0  0  0  0  0  0
   -1.0047   -0.4706   -4.4087 H   0  0  0  0  0  0  0  0  0  0  0  0
   -2.7897    0.2655   -3.5114 C   0  0  0  0  0  0  0  0  0  0  0  0
   -2.7029    0.4050   -2.4326 H   0  0  0  0  0  0  0  0  0  0  0  0
   -3.4567    1.0339   -3.9095 H   0  0  0  0  0  0  0  0  0  0  0  0
   -3.2175   -0.7167   -3.7132 H   0  0  0  0  0  0  0  0  0  0  0  0
  5  6  2  0  0  0  0
  5  7  1  0  0  0  0
  2  3  1  0  0  0  0
  2  4  1  0  0  0  0
  2  5  1  0  0  0  0
  1  2  1  0  0  0  0
 15 16  2  0  0  0  0
 15 17  1  0  0  0  0
 14 36  1  0  0  0  0
 11 12  1  0  0  0  0
 11 13  1  0  0  0  0
 11 14  1  0  0  0  0
  9 10  1  0  0  0  0
  9 11  1  0  0  0  0
  9 15  1  0  0  0  0
  7  8  1  0  0  0  0
  7  9  1  0  0  0  0
 19 20  1  0  0  0  0
 19 21  1  0  0  0  0
 19 22  1  0  0  0  0
 17 18  1  0  0  0  0
 17 19  1  0  0  0  0
 27 28  2  0  0  0  0
 27 29  1  0  0  0  0
 24 25  1  0  0  0  0
 24 26  1  0  0  0  0
 24 27  1  0  0  0  0
 23 24  1  0  0  0  0
 37 38  2  0  0  0  0
 37 39  1  0  0  0  0
 33 34  1  0  0  0  0
 33 35  1  0  0  0  0
 33 36  1  0  0  0  0
 31 32  1  0  0  0  0
 31 33  1  0  0  0  0
 31 37  1  0  0  0  0
 29 30  1  0  0  0  0
 29 31  1  0  0  0  0
 41 42  1  0  0  0  0
 41 43  1  0  0  0  0
 41 44  1  0  0  0  0
 39 40  1  0  0  0  0
 39 41  1  0  0  0  0
M  END
$$$$
default_name
  -OEChem-01062215323D

 44 43  0     1  0  0  0  0  0999 V2000
    2.4488   -3.0448    2.0990 H   0  0  0  0  0  0  0  0  0  0  0  0
    2.2788   -2.0018    2.3640 C   0  0  0  0  0  0  0  0  0  0  0  0
    2.9228   -1.7258    3.1960 H   0  0  0  0  0  0  0  0  0  0  0  0
    1.2358   -1.8618    2.6430 H   0  0  0  0  0  0  0  0  0  0  0  0
    2.6018   -1.1318    1.1730 C   0  0  0  0  0  0  0  0  0  0  0  0
    3.0048   -1.6348    0.1320 O   0  0  0  0  0  0  0  0  0  0  0  0
    2.4088    0.1752    1.3190 N   0  0  0  0  0  0  0  0  0  0  0  0
    2.0708    0.5242    2.2050 H   0  0  0  0  0  0  0  0  0  0  0  0
    2.6638    1.1782    0.2840 C   0  0  1  0  0  0  0  0  0  0  0  0
    3.3023    0.7261   -0.4769 H   0  0  0  0  0  0  0  0  0  0  0  0
    1.3378    1.5821   -0.3840 C   0  0  0  0  0  0  0  0  0  0  0  0
    1.5192    2.4388   -1.0342 H   0  0  0  0  0  0  0  0  0  0  0  0
    0.6624    1.9278    0.3982 H   0  0  0  0  0  0  0  0  0  0  0  0
    0.4430    0.3161   -1.3323 S   0  0  0  0  0  0  0  0  0  0  0  0
    3.4113    2.3942    0.8625 C   0  0  0  0  0  0  0  0  0  0  0  0
    2.7875    3.3496    1.3244 O   0  0  0  0  0  0  0  0  0  0  0  0
    4.7503    2.3549    0.8430 N   0  0  0  0  0  0  0  0  0  0  0  0
    5.1966    1.5406    0.4527 H   0  0  0  0  0  0  0  0  0  0  0  0
    5.6008    3.4291    1.3514 C   0  0  0  0  0  0  0  0  0  0  0  0
    5.4259    4.3398    0.7747 H   0  0  0  0  0  0  0  0  0  0  0  0
    5.3577    3.6297    2.3964 H   0  0  0  0  0  0  0  0  0  0  0  0
    6.6522    3.1494    1.2735 H   0  0  0  0  0  0  0  0  0  0  0  0
    2.5255    4.0661   -8.2188 H   0  0  0  0  0  0  0  0  0  0  0  0
    1.8125    4.1362   -7.3988 C   0  0  0  0  0  0  0  0  0  0  0  0
    0.8427    4.4507   -7.7811 H   0  0  0  0  0  0  0  0  0  0  0  0
    2.1705    4.8548   -6.6638 H   0  0  0  0  0  0  0  0  0  0  0  0
    1.6783    2.7794   -6.7481 C   0  0  0  0  0  0  0  0  0  0  0  0
    2.3312    1.8297   -7.1589 O   0  0  0  0  0  0  0  0  0  0  0  0
    0.8337    2.6933   -5.7239 N   0  0  0  0  0  0  0  0  0  0  0  0
    0.3199    3.5166   -5.4455 H   0  0  0  0  0  0  0  0  0  0  0  0
    0.5732    1.4707   -4.9639 C   0  0  1  0  0  0  0  0  0  0  0  0
    0.5858    0.6185   -5.6457 H   0  0  0  0  0  0  0  0  0  0  0  0
    1.7089    1.2919   -3.9467 C   0  0  0  0  0  0  0  0  0  0  0  0
    2.6459    1.2527   -4.5042 H   0  0  0  0  0  0  0  0  0  0  0  0
    1.7519    2.1739   -3.3074 H   0  0  0  0  0  0  0  0  0  0  0  0
    1.6618   -0.1825   -2.8926 S   0  0  0  0  0  0  0  0  0  0  0  0
   -0.8142    1.5342   -4.3009 C   0  0  0  0  0  0  0  0  0  0  0  0
   -1.2819    2.6206   -3.9569 O   0  0  0  0  0  0  0  0  0  0  0  0
   -1.4700    0.3789   -4.1310 N   0  0  0  0  0  0  0  0  0  0  0  0
   -1.0047   -0.4706   -4.4087 H   0  0  0  0  0  0  0  0  0  0  0  0
   -2.7897    0.2655   -3.5114 C   0  0  0  0  0  0  0  0  0  0  0  0
   -2.7029    0.4050   -2.4326 H   0  0  0  0  0  0  0  0  0  0  0  0
   -3.4567    1.0339   -3.9095 H   0  0  0  0  0  0  0  0  0  0  0  0
   -3.2175   -0.7167   -3.7132 H   0  0  0  0  0  0  0  0  0  0  0  0
  5  6  2  0  0  0  0
  5  7  1  0  0  0  0
  2  3  1  0  0  0  0
  2  4  1  0  0  0  0
  2  5  1  0  0  0  0
  1  2  1  0  0  0  0
 15 16  2  0  0  0  0
 15 17  1  0  0  0  0
 14 36  1  0  0  0  0
 11 12  1  0  0  0  0
 11 13  1  0  0  0  0
 11 14  1  0  0  0  0
  9 10  1  0  0  0  0
  9 11  1  0  0  0  0
  9 15  1  0  0  0  0
  7  8  1  0  0  0  0
  7  9  1  0  0  0  0
 19 20  1  0  0  0  0
 19 21  1  0  0  0  0
 19 22  1  0  0  0  0
 17 18  1  0  0  0  0
 17 19  1  0  0  0  0
 27 28  2  0  0  0  0
 27 29  1  0  0  0  0
 24 25  1  0  0  0  0
 24 26  1  0  0  0  0
 24 27  1  0  0  0  0
 23 24  1  0  0  0  0
 37 38  2  0  0  0  0
 37 39  1  0  0  0  0
 33 34  1  0  0  0  0
 33 35  1  0  0  0  0
 33 36  1  0  0  0  0
 31 32  1  0  0  0  0
 31 33  1  0  0  0  0
 31 37  1  0  0  0  0
 29 30  1  0  0  0  0
 29 31  1  0  0  0  0
 41 42  1  0  0  0  0
 41 43  1  0  0  0  0
 41 44  1  0  0  0  0
 39 40  1  0  0  0  0
 39 41  1  0  0  0  0
M  END
$$$$
default_name
  -OEChem-01062215323D

 44 43  0     1  0  0  0  0  0999 V2000
    2.4488   -3.0448    2.0990 H   0  0  0  0  0  0  0  0  0  0  0  0
    2.2788   -2.0018    2.3640 C   0  0  0  0  0  0  0  0  0  0  0  0
    2.9228   -1.7258    3.1960 H   0  0  0  0  0  0  0  0  0  0  0  0
    1.2358   -1.8618    2.6430 H   0  0  0  0  0  0  0  0  0  0  0  0
    2.6018   -1.1318    1.1730 C   0  0  0  0  0  0  0  0  0  0  0  0
    3.0048   -1.6348    0.1320 O   0  0  0  0  0  0  0  0  0  0  0  0
    2.4088    0.1752    1.3190 N   0  0  0  0  0  0  0  0  0  0  0  0
    2.0708    0.5242    2.2050 H   0  0  0  0  0  0  0  0  0  0  0  0
    2.6638    1.1782    0.2840 C   0  0  1  0  0  0  0  0  0  0  0  0
    3.3023    0.7261   -0.4769 H   0  0  0  0  0  0  0  0  0  0  0  0
    1.3378    1.5821   -0.3840 C   0  0  0  0  0  0  0  0  0  0  0  0
    1.5192    2.4388   -1.0342 H   0  0  0  0  0  0  0  0  0  0  0  0
    0.6624    1.9278    0.3982 H   0  0  0  0  0  0  0  0  0  0  0  0
    0.4430    0.3161   -1.3323 S   0  0  0  0  0  0  0  0  0  0  0  0
    3.4113    2.3942    0.8625 C   0  0  0  0  0  0  0  0  0  0  0  0
    2.8206    3.2152    1.5642 O   0  0  0  0  0  0  0  0  0  0  0  0
    4.7146    2.5053    0.5729 N   0  0  0  0  0  0  0  0  0  0  0  0
    5.1357    1.7957   -0.0049 H   0  0  0  0  0  0  0  0  0  0  0  0
    5.5596    3.6008    1.0437 C   0  0  0  0  0  0  0  0  0  0  0  0
    5.1912    4.5472    0.6421 H   0  0  0  0  0  0  0  0  0  0  0  0
    5.5260    3.6514    2.1335 H   0  0  0  0  0  0  0  0  0  0  0  0
    6.5907    3.4496    0.7218 H   0  0  0  0  0  0  0  0  0  0  0  0
    2.5255    4.0661   -8.2188 H   0  0  0  0  0  0  0  0  0  0  0  0
    1.8125    4.1362   -7.3988 C   0  0  0  0  0  0  0  0  0  0  0  0
    0.8427    4.4507   -7.7811 H   0  0  0  0  0  0  0  0  0  0  0  0
    2.1705    4.8548   -6.6638 H   0  0  0  0  0  0  0  0  0  0  0  0
    1.6783    2.7794   -6.7481 C   0  0  0  0  0  0  0  0  0  0  0  0
    2.3312    1.8297   -7.1589 O   0  0  0  0  0  0  0  0  0  0  0  0
    0.8337    2.6933   -5.7239 N   0  0  0  0  0  0  0  0  0  0  0  0
    0.3199    3.5166   -5.4455 H   0  0  0  0  0  0  0  0  0  0  0  0
    0.5732    1.4707   -4.9639 C   0  0  1  0  0  0  0  0  0  0  0  0
    0.5858    0.6185   -5.6457 H   0  0  0  0  0  0  0  0  0  0  0  0
    1.7089    1.2919   -3.9467 C   0  0  0  0  0  0  0  0  0  0  0  0
    2.6459    1.2527   -4.5042 H   0  0  0  0  0  0  0  0  0  0  0  0
    1.7519    2.1739   -3.3074 H   0  0  0  0  0  0  0  0  0  0  0  0
    1.6618   -0.1825   -2.8926 S   0  0  0  0  0  0  0  0  0  0  0  0
   -0.8142    1.5342   -4.3009 C   0  0  0  0  0  0  0  0  0  0  0  0
   -1.2819    2.6206   -3.9569 O   0  0  0  0  0  0  0  0  0  0  0  0
   -1.4700    0.3789   -4.1310 N   0  0  0  0  0  0  0  0  0  0  0  0
   -1.0047   -0.4706   -4.4087 H   0  0  0  0  0  0  0  0  0  0  0  0
   -2.7897    0.2655   -3.5114 C   0  0  0  0  0  0  0  0  0  0  0  0
   -2.7029    0.4050   -2.4326 H   0  0  0  0  0  0  0  0  0  0  0  0
   -3.4567    1.0339   -3.9095 H   0  0  0  0  0  0  0  0  0  0  0  0
   -3.2175   -0.7167   -3.7132 H   0  0  0  0  0  0  0  0  0  0  0  0
  5  6  2  0  0  0  0
  5  7  1  0  0  0  0
  2  3  1  0  0  0  0
  2  4  1  0  0  0  0
  2  5  1  0  0  0  0
  1  2  1  0  0  0  0
 15 16  2  0  0  0  0
 15 17  1  0  0  0  0
 14 36  1  0  0  0  0
 11 12  1  0  0  0  0
 11 13  1  0  0  0  0
 11 14  1  0  0  0  0
  9 10  1  0  0  0  0
  9 11  1  0  0  0  0
  9 15  1  0  0  0  0
  7  8  1  0  0  0  0
  7  9  1  0  0  0  0
 19 20  1  0  0  0  0
 19 21  1  0  0  0  0
 19 22  1  0  0  0  0
 17 18  1  0  0  0  0
 17 19  1  0  0  0  0
 27 28  2  0  0  0  0
 27 29  1  0  0  0  0
 24 25  1  0  0  0  0
 24 26  1  0  0  0  0
 24 27  1  0  0  0  0
 23 24  1  0  0  0  0
 37 38  2  0  0  0  0
 37 39  1  0  0  0  0
 33 34  1  0  0  0  0
 33 35  1  0  0  0  0
 33 36  1  0  0  0  0
 31 32  1  0  0  0  0
 31 33  1  0  0  0  0
 31 37  1  0  0  0  0
 29 30  1  0  0  0  0
 29 31  1  0  0  0  0
 41 42  1  0  0  0  0
 41 43  1  0  0  0  0
 41 44  1  0  0  0  0
 39 40  1  0  0  0  0
 39 41  1  0  0  0  0
M  END
$$$$
default_name
  -OEChem-01062215323D

 44 43  0     1  0  0  0  0  0999 V2000
    2.4488   -3.0448    2.0990 H   0  0  0  0  0  0  0  0  0  0  0  0
    2.2788   -2.0018    2.3640 C   0  0  0  0  0  0  0  0  0  0  0  0
    2.9228   -1.7258    3.1960 H   0  0  0  0  0  0  0  0  0  0  0  0
    1.2358   -1.8618    2.6430 H   0  0  0  0  0  0  0  0  0  0  0  0
    2.6018   -1.1318    1.1730 C   0  0  0  0  0  0  0  0  0  0  0  0
    3.0048   -1.6348    0.1320 O   0  0  0  0  0  0  0  0  0  0  0  0
    2.4088    0.1752    1.3190 N   0  0  0  0  0  0  0  0  0  0  0  0
    2.0708    0.5242    2.2050 H   0  0  0  0  0  0  0  0  0  0  0  0
    2.6638    1.1782    0.2840 C   0  0  1  0  0  0  0  0  0  0  0  0
    3.3023    0.7261   -0.4769 H   0  0  0  0  0  0  0  0  0  0  0  0
    1.3378    1.5821   -0.3840 C   0  0  0  0  0  0  0  0  0  0  0  0
    1.5192    2.4388   -1.0342 H   0  0  0  0  0  0  0  0  0  0  0  0
    0.6624    1.9278    0.3982 H   0  0  0  0  0  0  0  0  0  0  0  0
    0.4430    0.3161   -1.3323 S   0  0  0  0  0  0  0  0  0  0  0  0
    3.4113    2.3942    0.8625 C   0  0  0  0  0  0  0  0  0  0  0  0
    2.9146    3.0585    1.7721 O   0  0  0  0  0  0  0  0  0  0  0  0
    4.6103    2.6810    0.3383 N   0  0  0  0  0  0  0  0  0  0  0  0
    4.9585    2.0938   -0.4024 H   0  0  0  0  0  0  0  0  0  0  0  0
    5.4402    3.8013    0.7764 C   0  0  0  0  0  0  0  0  0  0  0  0
    4.9172    4.7413    0.5881 H   0  0  0  0  0  0  0  0  0  0  0  0
    5.6327    3.7217    1.8479 H   0  0  0  0  0  0  0  0  0  0  0  0
    6.3894    3.8030    0.2391 H   0  0  0  0  0  0  0  0  0  0  0  0
    2.5255    4.0661   -8.2188 H   0  0  0  0  0  0  0  0  0  0  0  0
    1.8125    4.1362   -7.3988 C   0  0  0  0  0  0  0  0  0  0  0  0
    0.8427    4.4507   -7.7811 H   0  0  0  0  0  0  0  0  0  0  0  0
    2.1705    4.8548   -6.6638 H   0  0  0  0  0  0  0  0  0  0  0  0
    1.6783    2.7794   -6.7481 C   0  0  0  0  0  0  0  0  0  0  0  0
    2.3312    1.8297   -7.1589 O   0  0  0  0  0  0  0  0  0  0  0  0
    0.8337    2.6933   -5.7239 N   0  0  0  0  0  0  0  0  0  0  0  0
    0.3199    3.5166   -5.4455 H   0  0  0  0  0  0  0  0  0  0  0  0
    0.5732    1.4707   -4.9639 C   0  0  1  0  0  0  0  0  0  0  0  0
    0.5858    0.6185   -5.6457 H   0  0  0  0  0  0  0  0  0  0  0  0
    1.7089    1.2919   -3.9467 C   0  0  0  0  0  0  0  0  0  0  0  0
    2.6459    1.2527   -4.5042 H   0  0  0  0  0  0  0  0  0  0  0  0
    1.7519    2.1739   -3.3074 H   0  0  0  0  0  0  0  0  0  0  0  0
    1.6618   -0.1825   -2.8926 S   0  0  0  0  0  0  0  0  0  0  0  0
   -0.8142    1.5342   -4.3009 C   0  0  0  0  0  0  0  0  0  0  0  0
   -1.2819    2.6206   -3.9569 O   0  0  0  0  0  0  0  0  0  0  0  0
   -1.4700    0.3789   -4.1310 N   0  0  0  0  0  0  0  0  0  0  0  0
   -1.0047   -0.4706   -4.4087 H   0  0  0  0  0  0  0  0  0  0  0  0
   -2.7897    0.2655   -3.5114 C   0  0  0  0  0  0  0  0  0  0  0  0
   -2.7029    0.4050   -2.4326 H   0  0  0  0  0  0  0  0  0  0  0  0
   -3.4567    1.0339   -3.9095 H   0  0  0  0  0  0  0  0  0  0  0  0
   -3.2175   -0.7167   -3.7132 H   0  0  0  0  0  0  0  0  0  0  0  0
  5  6  2  0  0  0  0
  5  7  1  0  0  0  0
  2  3  1  0  0  0  0
  2  4  1  0  0  0  0
  2  5  1  0  0  0  0
  1  2  1  0  0  0  0
 15 16  2  0  0  0  0
 15 17  1  0  0  0  0
 14 36  1  0  0  0  0
 11 12  1  0  0  0  0
 11 13  1  0  0  0  0
 11 14  1  0  0  0  0
  9 10  1  0  0  0  0
  9 11  1  0  0  0  0
  9 15  1  0  0  0  0
  7  8  1  0  0  0  0
  7  9  1  0  0  0  0
 19 20  1  0  0  0  0
 19 21  1  0  0  0  0
 19 22  1  0  0  0  0
 17 18  1  0  0  0  0
 17 19  1  0  0  0  0
 27 28  2  0  0  0  0
 27 29  1  0  0  0  0
 24 25  1  0  0  0  0
 24 26  1  0  0  0  0
 24 27  1  0  0  0  0
 23 24  1  0  0  0  0
 37 38  2  0  0  0  0
 37 39  1  0  0  0  0
 33 34  1  0  0  0  0
 33 35  1  0  0  0  0
 33 36  1  0  0  0  0
 31 32  1  0  0  0  0
 31 33  1  0  0  0  0
 31 37  1  0  0  0  0
 29 30  1  0  0  0  0
 29 31  1  0  0  0  0
 41 42  1  0  0  0  0
 41 43  1  0  0  0  0
 41 44  1  0  0  0  0
 39 40  1  0  0  0  0
 39 41  1  0  0  0  0
M  END
$$$$
default_name
  -OEChem-01062215323D

 44 43  0     1  0  0  0  0  0999 V2000
    2.4488   -3.0448    2.0990 H   0  0  0  0  0  0  0  0  0  0  0  0
    2.2788   -2.0018    2.3640 C   0  0  0  0  0  0  0  0  0  0  0  0
    2.9228   -1.7258    3.1960 H   0  0  0  0  0  0  0  0  0  0  0  0
    1.2358   -1.8618    2.6430 H   0  0  0  0  0  0  0  0  0  0  0  0
    2.6018   -1.1318    1.1730 C   0  0  0  0  0  0  0  0  0  0  0  0
    3.0048   -1.6348    0.1320 O   0  0  0  0  0  0  0  0  0  0  0  0
    2.4088    0.1752    1.3190 N   0  0  0  0  0  0  0  0  0  0  0  0
    2.0708    0.5242    2.2050 H   0  0  0  0  0  0  0  0  0  0  0  0
    2.6638    1.1782    0.2840 C   0  0  1  0  0  0  0  0  0  0  0  0
    3.3023    0.7261   -0.4769 H   0  0  0  0  0  0  0  0  0  0  0  0
    1.3378    1.5821   -0.3840 C   0  0  0  0  0  0  0  0  0  0  0  0
    1.5192    2.4388   -1.0342 H   0  0  0  0  0  0  0  0  0  0  0  0
    0.6624    1.9278    0.3982 H   0  0  0  0  0  0  0  0  0  0  0  0
    0.4430    0.3161   -1.3323 S   0  0  0  0  0  0  0  0  0  0  0  0
    3.4113    2.3942    0.8625 C   0  0  0  0  0  0  0  0  0  0  0  0
    3.0632    2.8902    1.9340 O   0  0  0  0  0  0  0  0  0  0  0  0
    4.4445    2.8701    0.1549 N   0  0  0  0  0  0  0  0  0  0  0  0
    4.6771    2.4144   -0.7127 H   0  0  0  0  0  0  0  0  0  0  0  0
    5.2508    4.0170    0.5679 C   0  0  0  0  0  0  0  0  0  0  0  0
    4.6226    4.9090    0.6163 H   0  0  0  0  0  0  0  0  0  0  0  0
    5.6706    3.8358    1.5591 H   0  0  0  0  0  0  0  0  0  0  0  0
    6.0620    4.1853   -0.1415 H   0  0  0  0  0  0  0  0  0  0  0  0
    2.5255    4.0661   -8.2188 H   0  0  0  0  0  0  0  0  0  0  0  0
    1.8125    4.1362   -7.3988 C   0  0  0  0  0  0  0  0  0  0  0  0
    0.8427    4.4507   -7.7811 H   0  0  0  0  0  0  0  0  0  0  0  0
    2.1705    4.8548   -6.6638 H   0  0  0  0  0  0  0  0  0  0  0  0
    1.6783    2.7794   -6.7481 C   0  0  0  0  0  0  0  0  0  0  0  0
    2.3312    1.8297   -7.1589 O   0  0  0  0  0  0  0  0  0  0  0  0
    0.8337    2.6933   -5.7239 N   0  0  0  0  0  0  0  0  0  0  0  0
    0.3199    3.5166   -5.4455 H   0  0  0  0  0  0  0  0  0  0  0  0
    0.5732    1.4707   -4.9639 C   0  0  1  0  0  0  0  0  0  0  0  0
    0.5858    0.6185   -5.6457 H   0  0  0  0  0  0  0  0  0  0  0  0
    1.7089    1.2919   -3.9467 C   0  0  0  0  0  0  0  0  0  0  0  0
    2.6459    1.2527   -4.5042 H   0  0  0  0  0  0  0  0  0  0  0  0
    1.7519    2.1739   -3.3074 H   0  0  0  0  0  0  0  0  0  0  0  0
    1.6618   -0.1825   -2.8926 S   0  0  0  0  0  0  0  0  0  0  0  0
   -0.8142    1.5342   -4.3009 C   0  0  0  0  0  0  0  0  0  0  0  0
   -1.2819    2.6206   -3.9569 O   0  0  0  0  0  0  0  0  0  0  0  0
   -1.4700    0.3789   -4.1310 N   0  0  0  0  0  0  0  0  0  0  0  0
   -1.0047   -0.4706   -4.4087 H   0  0  0  0  0  0  0  0  0  0  0  0
   -2.7897    0.2655   -3.5114 C   0  0  0  0  0  0  0  0  0  0  0  0
   -2.7029    0.4050   -2.4326 H   0  0  0  0  0  0  0  0  0  0  0  0
   -3.4567    1.0339   -3.9095 H   0  0  0  0  0  0  0  0  0  0  0  0
   -3.2175   -0.7167   -3.7132 H   0  0  0  0  0  0  0  0  0  0  0  0
  5  6  2  0  0  0  0
  5  7  1  0  0  0  0
  2  3  1  0  0  0  0
  2  4  1  0  0  0  0
  2  5  1  0  0  0  0
  1  2  1  0  0  0  0
 15 16  2  0  0  0  0
 15 17  1  0  0  0  0
 14 36  1  0  0  0  0
 11 12  1  0  0  0  0
 11 13  1  0  0  0  0
 11 14  1  0  0  0  0
  9 10  1  0  0  0  0
  9 11  1  0  0  0  0
  9 15  1  0  0  0  0
  7  8  1  0  0  0  0
  7  9  1  0  0  0  0
 19 20  1  0  0  0  0
 19 21  1  0  0  0  0
 19 22  1  0  0  0  0
 17 18  1  0  0  0  0
 17 19  1  0  0  0  0
 27 28  2  0  0  0  0
 27 29  1  0  0  0  0
 24 25  1  0  0  0  0
 24 26  1  0  0  0  0
 24 27  1  0  0  0  0
 23 24  1  0  0  0  0
 37 38  2  0  0  0  0
 37 39  1  0  0  0  0
 33 34  1  0  0  0  0
 33 35  1  0  0  0  0
 33 36  1  0  0  0  0
 31 32  1  0  0  0  0
 31 33  1  0  0  0  0
 31 37  1  0  0  0  0
 29 30  1  0  0  0  0
 29 31  1  0  0  0  0
 41 42  1  0  0  0  0
 41 43  1  0  0  0  0
 41 44  1  0  0  0  0
 39 40  1  0  0  0  0
 39 41  1  0  0  0  0
M  END
$$$$
default_name
  -OEChem-01062215323D

 44 43  0     1  0  0  0  0  0999 V2000
    2.4488   -3.0448    2.0990 H   0  0  0  0  0  0  0  0  0  0  0  0
    2.2788   -2.0018    2.3640 C   0  0  0  0  0  0  0  0  0  0  0  0
    2.9228   -1.7258    3.1960 H   0  0  0  0  0  0  0  0  0  0  0  0
    1.2358   -1.8618    2.6430 H   0  0  0  0  0  0  0  0  0  0  0  0
    2.6018   -1.1318    1.1730 C   0  0  0  0  0  0  0  0  0  0  0  0
    3.0048   -1.6348    0.1320 O   0  0  0  0  0  0  0  0  0  0  0  0
    2.4088    0.1752    1.3190 N   0  0  0  0  0  0  0  0  0  0  0  0
    2.0708    0.5242    2.2050 H   0  0  0  0  0  0  0  0  0  0  0  0
    2.6638    1.1782    0.2840 C   0  0  1  0  0  0  0  0  0  0  0  0
    3.3023    0.7261   -0.4769 H   0  0  0  0  0  0  0  0  0  0  0  0
    1.3378    1.5821   -0.3840 C   0  0  0  0  0  0  0  0  0  0  0  0
    1.5192    2.4388   -1.0342 H   0  0  0  0  0  0  0  0  0  0  0  0
    0.6624    1.9278    0.3982 H   0  0  0  0  0  0  0  0  0  0  0  0
    0.4430    0.3161   -1.3323 S   0  0  0  0  0  0  0  0  0  0  0  0
    3.4113    2.3942    0.8625 C   0  0  0  0  0  0  0  0  0  0  0  0
    3.2561    2.7217    2.0389 O   0  0  0  0  0  0  0  0  0  0  0  0
    4.2286    3.0597    0.0355 N   0  0  0  0  0  0  0  0  0  0  0  0
    4.3108    2.7356   -0.9147 H   0  0  0  0  0  0  0  0  0  0  0  0
    5.0043    4.2330    0.4323 C   0  0  0  0  0  0  0  0  0  0  0  0
    4.3276    5.0387    0.7247 H   0  0  0  0  0  0  0  0  0  0  0  0
    5.6370    3.9860    1.2867 H   0  0  0  0  0  0  0  0  0  0  0  0
    5.6308    4.5706   -0.3943 H   0  0  0  0  0  0  0  0  0  0  0  0
    2.5255    4.0661   -8.2188 H   0  0  0  0  0  0  0  0  0  0  0  0
    1.8125    4.1362   -7.3988 C   0  0  0  0  0  0  0  0  0  0  0  0
    0.8427    4.4507   -7.7811 H   0  0  0  0  0  0  0  0  0  0  0  0
    2.1705    4.8548   -6.6638 H   0  0  0  0  0  0  0  0  0  0  0  0
    1.6783    2.7794   -6.7481 C   0  0  0  0  0  0  0  0  0  0  0  0
    2.3312    1.8297   -7.1589 O   0  0  0  0  0  0  0  0  0  0  0  0
    0.8337    2.6933   -5.7239 N   0  0  0  0  0  0  0  0  0  0  0  0
    0.3199    3.5166   -5.4455 H   0  0  0  0  0  0  0  0  0  0  0  0
    0.5732    1.4707   -4.9639 C   0  0  1  0  0  0  0  0  0  0  0  0
    0.5858    0.6185   -5.6457 H   0  0  0  0  0  0  0  0  0  0  0  0
    1.7089    1.2919   -3.9467 C   0  0  0  0  0  0  0  0  0  0  0  0
    2.6459    1.2527   -4.5042 H   0  0  0  0  0  0  0  0  0  0  0  0
    1.7519    2.1739   -3.3074 H   0  0  0  0  0  0  0  0  0  0  0  0
    1.6618   -0.1825   -2.8926 S   0  0  0  0  0  0  0  0  0  0  0  0
   -0.8142    1.5342   -4.3009 C   0  0  0  0  0  0  0  0  0  0  0  0
   -1.2819    2.6206   -3.9569 O   0  0  0  0  0  0  0  0  0  0  0  0
   -1.4700    0.3789   -4.1310 N   0  0  0  0  0  0  0  0  0  0  0  0
   -1.0047   -0.4706   -4.4087 H   0  0  0  0  0  0  0  0  0  0  0  0
   -2.7897    0.2655   -3.5114 C   0  0  0  0  0  0  0  0  0  0  0  0
   -2.7029    0.4050   -2.4326 H   0  0  0  0  0  0  0  0  0  0  0  0
   -3.4567    1.0339   -3.9095 H   0  0  0  0  0  0  0  0  0  0  0  0
   -3.2175   -0.7167   -3.7132 H   0  0  0  0  0  0  0  0  0  0  0  0
  5  6  2  0  0  0  0
  5  7  1  0  0  0  0
  2  3  1  0  0  0  0
  2  4  1  0  0  0  0
  2  5  1  0  0  0  0
  1  2  1  0  0  0  0
 15 16  2  0  0  0  0
 15 17  1  0  0  0  0
 14 36  1  0  0  0  0
 11 12  1  0  0  0  0
 11 13  1  0  0  0  0
 11 14  1  0  0  0  0
  9 10  1  0  0  0  0
  9 11  1  0  0  0  0
  9 15  1  0  0  0  0
  7  8  1  0  0  0  0
  7  9  1  0  0  0  0
 19 20  1  0  0  0  0
 19 21  1  0  0  0  0
 19 22  1  0  0  0  0
 17 18  1  0  0  0  0
 17 19  1  0  0  0  0
 27 28  2  0  0  0  0
 27 29  1  0  0  0  0
 24 25  1  0  0  0  0
 24 26  1  0  0  0  0
 24 27  1  0  0  0  0
 23 24  1  0  0  0  0
 37 38  2  0  0  0  0
 37 39  1  0  0  0  0
 33 34  1  0  0  0  0
 33 35  1  0  0  0  0
 33 36  1  0  0  0  0
 31 32  1  0  0  0  0
 31 33  1  0  0  0  0
 31 37  1  0  0  0  0
 29 30  1  0  0  0  0
 29 31  1  0  0  0  0
 41 42  1  0  0  0  0
 41 43  1  0  0  0  0
 41 44  1  0  0  0  0
 39 40  1  0  0  0  0
 39 41  1  0  0  0  0
M  END
$$$$
default_name
  -OEChem-01062215323D

 44 43  0     1  0  0  0  0  0999 V2000
    2.4488   -3.0448    2.0990 H   0  0  0  0  0  0  0  0  0  0  0  0
    2.2788   -2.0018    2.3640 C   0  0  0  0  0  0  0  0  0  0  0  0
    2.9228   -1.7258    3.1960 H   0  0  0  0  0  0  0  0  0  0  0  0
    1.2358   -1.8618    2.6430 H   0  0  0  0  0  0  0  0  0  0  0  0
    2.6018   -1.1318    1.1730 C   0  0  0  0  0  0  0  0  0  0  0  0
    3.0048   -1.6348    0.1320 O   0  0  0  0  0  0  0  0  0  0  0  0
    2.4088    0.1752    1.3190 N   0  0  0  0  0  0  0  0  0  0  0  0
    2.0708    0.5242    2.2050 H   0  0  0  0  0  0  0  0  0  0  0  0
    2.6638    1.1782    0.2840 C   0  0  1  0  0  0  0  0  0  0  0  0
    3.3023    0.7261   -0.4769 H   0  0  0  0  0  0  0  0  0  0  0  0
    1.3378    1.5821   -0.3840 C   0  0  0  0  0  0  0  0  0  0  0  0
    1.5192    2.4388   -1.0342 H   0  0  0  0  0  0  0  0  0  0  0  0
    0.6624    1.9278    0.3982 H   0  0  0  0  0  0  0  0  0  0  0  0
    0.4430    0.3161   -1.3323 S   0  0  0  0  0  0  0  0  0  0  0  0
    3.4113    2.3942    0.8625 C   0  0  0  0  0  0  0  0  0  0  0  0
    3.4803    2.5645    2.0797 O   0  0  0  0  0  0  0  0  0  0  0  0
    3.9771    3.2368   -0.0119 N   0  0  0  0  0  0  0  0  0  0  0  0
    3.8844    3.0357   -0.9946 H   0  0  0  0  0  0  0  0  0  0  0  0
    4.7174    4.4348    0.3788 C   0  0  0  0  0  0  0  0  0  0  0  0
    4.0521    5.1217    0.9061 H   0  0  0  0  0  0  0  0  0  0  0  0
    5.5344    4.1620    1.0493 H   0  0  0  0  0  0  0  0  0  0  0  0
    5.1252    4.9326   -0.5019 H   0  0  0  0  0  0  0  0  0  0  0  0
    2.5255    4.0661   -8.2188 H   0  0  0  0  0  0  0  0  0  0  0  0
    1.8125    4.1362   -7.3988 C   0  0  0  0  0  0  0  0  0  0  0  0
    0.8427    4.4507   -7.7811 H   0  0  0  0  0  0  0  0  0  0  0  0
    2.1705    4.8548   -6.6638 H   0  0  0  0  0  0  0  0  0  0  0  0
    1.6783    2.7794   -6.7481 C   0  0  0  0  0  0  0  0  0  0  0  0
    2.3312    1.8297   -7.1589 O   0  0  0  0  0  0  0  0  0  0  0  0
    0.8337    2.6933   -5.7239 N   0  0  0  0  0  0  0  0  0  0  0  0
    0.3199    3.5166   -5.4455 H   0  0  0  0  0  0  0  0  0  0  0  0
    0.5732    1.4707   -4.9639 C   0  0  1  0  0  0  0  0  0  0  0  0
    0.5858    0.6185   -5.6457 H   0  0  0  0  0  0  0  0  0  0  0  0
    1.7089    1.2919   -3.9467 C   0  0  0  0  0  0  0  0  0  0  0  0
    2.6459    1.2527   -4.5042 H   0  0  0  0  0  0  0  0  0  0  0  0
    1.7519    2.1739   -3.3074 H   0  0  0  0  0  0  0  0  0  0  0  0
    1.6618   -0.1825   -2.8926 S   0  0  0  0  0  0  0  0  0  0  0  0
   -0.8142    1.5342   -4.3009 C   0  0  0  0  0  0  0  0  0  0  0  0
   -1.2819    2.6206   -3.9569 O   0  0  0  0  0  0  0  0  0  0  0  0
   -1.4700    0.3789   -4.1310 N   0  0  0  0  0  0  0  0  0  0  0  0
   -1.0047   -0.4706   -4.4087 H   0  0  0  0  0  0  0  0  0  0  0  0
   -2.7897    0.2655   -3.5114 C   0  0  0  0  0  0  0  0  0  0  0  0
   -2.7029    0.4050   -2.4326 H   0  0  0  0  0  0  0  0  0  0  0  0
   -3.4567    1.0339   -3.9095 H   0  0  0  0  0  0  0  0  0  0  0  0
   -3.2175   -0.7167   -3.7132 H   0  0  0  0  0  0  0  0  0  0  0  0
  5  6  2  0  0  0  0
  5  7  1  0  0  0  0
  2  3  1  0  0  0  0
  2  4  1  0  0  0  0
  2  5  1  0  0  0  0
  1  2  1  0  0  0  0
 15 16  2  0  0  0  0
 15 17  1  0  0  0  0
 14 36  1  0  0  0  0
 11 12  1  0  0  0  0
 11 13  1  0  0  0  0
 11 14  1  0  0  0  0
  9 10  1  0  0  0  0
  9 11  1  0  0  0  0
  9 15  1  0  0  0  0
  7  8  1  0  0  0  0
  7  9  1  0  0  0  0
 19 20  1  0  0  0  0
 19 21  1  0  0  0  0
 19 22  1  0  0  0  0
 17 18  1  0  0  0  0
 17 19  1  0  0  0  0
 27 28  2  0  0  0  0
 27 29  1  0  0  0  0
 24 25  1  0  0  0  0
 24 26  1  0  0  0  0
 24 27  1  0  0  0  0
 23 24  1  0  0  0  0
 37 38  2  0  0  0  0
 37 39  1  0  0  0  0
 33 34  1  0  0  0  0
 33 35  1  0  0  0  0
 33 36  1  0  0  0  0
 31 32  1  0  0  0  0
 31 33  1  0  0  0  0
 31 37  1  0  0  0  0
 29 30  1  0  0  0  0
 29 31  1  0  0  0  0
 41 42  1  0  0  0  0
 41 43  1  0  0  0  0
 41 44  1  0  0  0  0
 39 40  1  0  0  0  0
 39 41  1  0  0  0  0
M  END
$$$$
default_name
  -OEChem-01062215323D

 44 43  0     1  0  0  0  0  0999 V2000
    2.4488   -3.0448    2.0990 H   0  0  0  0  0  0  0  0  0  0  0  0
    2.2788   -2.0018    2.3640 C   0  0  0  0  0  0  0  0  0  0  0  0
    2.9228   -1.7258    3.1960 H   0  0  0  0  0  0  0  0  0  0  0  0
    1.2358   -1.8618    2.6430 H   0  0  0  0  0  0  0  0  0  0  0  0
    2.6018   -1.1318    1.1730 C   0  0  0  0  0  0  0  0  0  0  0  0
    3.0048   -1.6348    0.1320 O   0  0  0  0  0  0  0  0  0  0  0  0
    2.4088    0.1752    1.3190 N   0  0  0  0  0  0  0  0  0  0  0  0
    2.0708    0.5242    2.2050 H   0  0  0  0  0  0  0  0  0  0  0  0
    2.6638    1.1782    0.2840 C   0  0  1  0  0  0  0  0  0  0  0  0
    3.0649    0.6669   -0.5927 H   0  0  0  0  0  0  0  0  0  0  0  0
    1.3415    1.8533   -0.1203 C   0  0  0  0  0  0  0  0  0  0  0  0
    1.5646    2.7020   -0.7679 H   0  0  0  0  0  0  0  0  0  0  0  0
    0.8886    2.2654    0.7811 H   0  0  0  0  0  0  0  0  0  0  0  0
    0.0752    0.8286   -0.9263 S   0  0  0  0  0  0  0  0  0  0  0  0
    3.7143    2.2029    0.7517 C   0  0  0  0  0  0  0  0  0  0  0  0
    4.2260    2.1086    1.8672 O   0  0  0  0  0  0  0  0  0  0  0  0
    4.0402    3.1792   -0.1058 N   0  0  0  0  0  0  0  0  0  0  0  0
    3.5845    3.1952   -1.0041 H   0  0  0  0  0  0  0  0  0  0  0  0
    5.0159    4.2263    0.1899 C   0  0  0  0  0  0  0  0  0  0  0  0
    4.6701    4.8213    1.0378 H   0  0  0  0  0  0  0  0  0  0  0  0
    5.9743    3.7747    0.4526 H   0  0  0  0  0  0  0  0  0  0  0  0
    5.1491    4.8760   -0.6760 H   0  0  0  0  0  0  0  0  0  0  0  0
    1.5980    4.5624   -7.9663 H   0  0  0  0  0  0  0  0  0  0  0  0
    1.0637    4.7084   -7.0288 C   0  0  0  0  0  0  0  0  0  0  0  0
    0.1185    5.2143   -7.2196 H   0  0  0  0  0  0  0  0  0  0  0  0
    1.6715    5.3046   -6.3508 H   0  0  0  0  0  0  0  0  0  0  0  0
    0.7927    3.3600   -6.4036 C   0  0  0  0  0  0  0  0  0  0  0  0
    1.1752    2.3359   -6.9531 O   0  0  0  0  0  0  0  0  0  0  0  0
    0.1373    3.3635   -5.2460 N   0  0  0  0  0  0  0  0  0  0  0  0
   -0.1573    4.2468   -4.8555 H   0  0  0  0  0  0  0  0  0  0  0  0
   -0.2118    2.1628   -4.4866 C   0  0  1  0  0  0  0  0  0  0  0  0
   -0.4771    1.3658   -5.1834 H   0  0  0  0  0  0  0  0  0  0  0  0
    1.0291    1.7213   -3.6980 C   0  0  0  0  0  0  0  0  0  0  0  0
    1.8313    1.5495   -4.4172 H   0  0  0  0  0  0  0  0  0  0  0  0
    1.3464    2.5403   -3.0522 H   0  0  0  0  0  0  0  0  0  0  0  0
    0.8902    0.2171   -2.6954 S   0  0  0  0  0  0  0  0  0  0  0  0
   -1.4266    2.4326   -3.5811 C   0  0  0  0  0  0  0  0  0  0  0  0
   -1.6160    3.5619   -3.1270 O   0  0  0  0  0  0  0  0  0  0  0  0
   -2.2474    1.4051   -3.3281 N   0  0  0  0  0  0  0  0  0  0  0  0
   -2.0046    0.5047   -3.7099 H   0  0  0  0  0  0  0  0  0  0  0  0
   -3.4375    1.4917   -2.4827 C   0  0  0  0  0  0  0  0  0  0  0  0
   -3.1406    1.5467   -1.4340 H   0  0  0  0  0  0  0  0  0  0  0  0
   -4.0076    2.3901   -2.7310 H   0  0  0  0  0  0  0  0  0  0  0  0
   -4.0699    0.6163   -2.6315 H   0  0  0  0  0  0  0  0  0  0  0  0
  5  6  2  0  0  0  0
  5  7  1  0  0  0  0
  2  3  1  0  0  0  0
  2  4  1  0  0  0  0
  2  5  1  0  0  0  0
  1  2  1  0  0  0  0
 15 16  2  0  0  0  0
 15 17  1  0  0  0  0
 14 36  1  0  0  0  0
 11 12  1  0  0  0  0
 11 13  1  0  0  0  0
 11 14  1  0  0  0  0
  9 10  1  0  0  0  0
  9 11  1  0  0  0  0
  9 15  1  0  0  0  0
  7  8  1  0  0  0  0
  7  9  1  0  0  0  0
 19 20  1  0  0  0  0
 19 21  1  0  0  0  0
 19 22  1  0  0  0  0
 17 18  1  0  0  0  0
 17 19  1  0  0  0  0
 27 28  2  0  0  0  0
 27 29  1  0  0  0  0
 24 25  1  0  0  0  0
 24 26  1  0  0  0  0
 24 27  1  0  0  0  0
 23 24  1  0  0  0  0
 37 38  2  0  0  0  0
 37 39  1  0  0  0  0
 33 34  1  0  0  0  0
 33 35  1  0  0  0  0
 33 36  1  0  0  0  0
 31 32  1  0  0  0  0
 31 33  1  0  0  0  0
 31 37  1  0  0  0  0
 29 30  1  0  0  0  0
 29 31  1  0  0  0  0
 41 42  1  0  0  0  0
 41 43  1  0  0  0  0
 41 44  1  0  0  0  0
 39 40  1  0  0  0  0
 39 41  1  0  0  0  0
M  END
$$$$
default_name
  -OEChem-01062215323D

 44 43  0     1  0  0  0  0  0999 V2000
    2.4488   -3.0448    2.0990 H   0  0  0  0  0  0  0  0  0  0  0  0
    2.2788   -2.0018    2.3640 C   0  0  0  0  0  0  0  0  0  0  0  0
    2.9228   -1.7258    3.1960 H   0  0  0  0  0  0  0  0  0  0  0  0
    1.2358   -1.8618    2.6430 H   0  0  0  0  0  0  0  0  0  0  0  0
    2.6018   -1.1318    1.1730 C   0  0  0  0  0  0  0  0  0  0  0  0
    3.0048   -1.6348    0.1320 O   0  0  0  0  0  0  0  0  0  0  0  0
    2.4088    0.1752    1.3190 N   0  0  0  0  0  0  0  0  0  0  0  0
    2.0708    0.5242    2.2050 H   0  0  0  0  0  0  0  0  0  0  0  0
    2.6638    1.1782    0.2840 C   0  0  1  0  0  0  0  0  0  0  0  0
    3.0649    0.6669   -0.5927 H   0  0  0  0  0  0  0  0  0  0  0  0
    1.3415    1.8533   -0.1203 C   0  0  0  0  0  0  0  0  0  0  0  0
    1.5646    2.7020   -0.7679 H   0  0  0  0  0  0  0  0  0  0  0  0
    0.8886    2.2654    0.7811 H   0  0  0  0  0  0  0  0  0  0  0  0
    0.0752    0.8286   -0.9263 S   0  0  0  0  0  0  0  0  0  0  0  0
    3.7143    2.2029    0.7517 C   0  0  0  0  0  0  0  0  0  0  0  0
    4.4226    1.9693    1.7309 O   0  0  0  0  0  0  0  0  0  0  0  0
    3.8189    3.3368    0.0460 N   0  0  0  0  0  0  0  0  0  0  0  0
    3.2095    3.4620   -0.7463 H   0  0  0  0  0  0  0  0  0  0  0  0
    4.7637    4.4056    0.3635 C   0  0  0  0  0  0  0  0  0  0  0  0
    4.5386    4.8130    1.3514 H   0  0  0  0  0  0  0  0  0  0  0  0
    5.7802    4.0081    0.3769 H   0  0  0  0  0  0  0  0  0  0  0  0
    4.6983    5.2024   -0.3785 H   0  0  0  0  0  0  0  0  0  0  0  0
    1.5980    4.5624   -7.9663 H   0  0  0  0  0  0  0  0  0  0  0  0
    1.0637    4.7084   -7.0288 C   0  0  0  0  0  0  0  0  0  0  0  0
    0.1185    5.2143   -7.2196 H   0  0  0  0  0  0  0  0  0  0  0  0
    1.6715    5.3046   -6.3508 H   0  0  0  0  0  0  0  0  0  0  0  0
    0.7927    3.3600   -6.4036 C   0  0  0  0  0  0  0  0  0  0  0  0
    1.1752    2.3359   -6.9531 O   0  0  0  0  0  0  0  0  0  0  0  0
    0.1373    3.3635   -5.2460 N   0  0  0  0  0  0  0  0  0  0  0  0
   -0.1573    4.2468   -4.8555 H   0  0  0  0  0  0  0  0  0  0  0  0
   -0.2118    2.1628   -4.4866 C   0  0  1  0  0  0  0  0  0  0  0  0
   -0.4771    1.3658   -5.1834 H   0  0  0  0  0  0  0  0  0  0  0  0
    1.0291    1.7213   -3.6980 C   0  0  0  0  0  0  0  0  0  0  0  0
    1.8313    1.5495   -4.4172 H   0  0  0  0  0  0  0  0  0  0  0  0
    1.3464    2.5403   -3.0522 H   0  0  0  0  0  0  0  0  0  0  0  0
    0.8902    0.2171   -2.6954 S   0  0  0  0  0  0  0  0  0  0  0  0
   -1.4266    2.4326   -3.5811 C   0  0  0  0  0  0  0  0  0  0  0  0
   -1.6160    3.5619   -3.1270 O   0  0  0  0  0  0  0  0  0  0  0  0
   -2.2474    1.4051   -3.3281 N   0  0  0  0  0  0  0  0  0  0  0  0
   -2.0046    0.5047   -3.7099 H   0  0  0  0  0  0  0  0  0  0  0  0
   -3.4375    1.4917   -2.4827 C   0  0  0  0  0  0  0  0  0  0  0  0
   -3.1406    1.5467   -1.4340 H   0  0  0  0  0  0  0  0  0  0  0  0
   -4.0076    2.3901   -2.7310 H   0  0  0  0  0  0  0  0  0  0  0  0
   -4.0699    0.6163   -2.6315 H   0  0  0  0  0  0  0  0  0  0  0  0
  5  6  2  0  0  0  0
  5  7  1  0  0  0  0
  2  3  1  0  0  0  0
  2  4  1  0  0  0  0
  2  5  1  0  0  0  0
  1  2  1  0  0  0  0
 15 16  2  0  0  0  0
 15 17  1  0  0  0  0
 14 36  1  0  0  0  0
 11 12  1  0  0  0  0
 11 13  1  0  0  0  0
 11 14  1  0  0  0  0
  9 10  1  0  0  0  0
  9 11  1  0  0  0  0
  9 15  1  0  0  0  0
  7  8  1  0  0  0  0
  7  9  1  0  0  0  0
 19 20  1  0  0  0  0
 19 21  1  0  0  0  0
 19 22  1  0  0  0  0
 17 18  1  0  0  0  0
 17 19  1  0  0  0  0
 27 28  2  0  0  0  0
 27 29  1  0  0  0  0
 24 25  1  0  0  0  0
 24 26  1  0  0  0  0
 24 27  1  0  0  0  0
 23 24  1  0  0  0  0
 37 38  2  0  0  0  0
 37 39  1  0  0  0  0
 33 34  1  0  0  0  0
 33 35  1  0  0  0  0
 33 36  1  0  0  0  0
 31 32  1  0  0  0  0
 31 33  1  0  0  0  0
 31 37  1  0  0  0  0
 29 30  1  0  0  0  0
 29 31  1  0  0  0  0
 41 42  1  0  0  0  0
 41 43  1  0  0  0  0
 41 44  1  0  0  0  0
 39 40  1  0  0  0  0
 39 41  1  0  0  0  0
M  END
$$$$
default_name
  -OEChem-01062215323D

 44 43  0     1  0  0  0  0  0999 V2000
    2.4488   -3.0448    2.0990 H   0  0  0  0  0  0  0  0  0  0  0  0
    2.2788   -2.0018    2.3640 C   0  0  0  0  0  0  0  0  0  0  0  0
    2.9228   -1.7258    3.1960 H   0  0  0  0  0  0  0  0  0  0  0  0
    1.2358   -1.8618    2.6430 H   0  0  0  0  0  0  0  0  0  0  0  0
    2.6018   -1.1318    1.1730 C   0  0  0  0  0  0  0  0  0  0  0  0
    3.0048   -1.6348    0.1320 O   0  0  0  0  0  0  0  0  0  0  0  0
    2.4088    0.1752    1.3190 N   0  0  0  0  0  0  0  0  0  0  0  0
    2.0708    0.5242    2.2050 H   0  0  0  0  0  0  0  0  0  0  0  0
    2.6638    1.1782    0.2840 C   0  0  1  0  0  0  0  0  0  0  0  0
    3.0649    0.6669   -0.5927 H   0  0  0  0  0  0  0  0  0  0  0  0
    1.3415    1.8533   -0.1203 C   0  0  0  0  0  0  0  0  0  0  0  0
    1.5646    2.7020   -0.7679 H   0  0  0  0  0  0  0  0  0  0  0  0
    0.8886    2.2654    0.7811 H   0  0  0  0  0  0  0  0  0  0  0  0
    0.0752    0.8286   -0.9263 S   0  0  0  0  0  0  0  0  0  0  0  0
    3.7143    2.2029    0.7517 C   0  0  0  0  0  0  0  0  0  0  0  0
    4.6000    1.8743    1.5408 O   0  0  0  0  0  0  0  0  0  0  0  0
    3.6188    3.4448    0.2585 N   0  0  0  0  0  0  0  0  0  0  0  0
    2.8707    3.6447   -0.3857 H   0  0  0  0  0  0  0  0  0  0  0  0
    4.5359    4.5283    0.6062 C   0  0  0  0  0  0  0  0  0  0  0  0
    4.4663    4.7392    1.6754 H   0  0  0  0  0  0  0  0  0  0  0  0
    5.5614    4.2318    0.3785 H   0  0  0  0  0  0  0  0  0  0  0  0
    4.2883    5.4297    0.0441 H   0  0  0  0  0  0  0  0  0  0  0  0
    1.5980    4.5624   -7.9663 H   0  0  0  0  0  0  0  0  0  0  0  0
    1.0637    4.7084   -7.0288 C   0  0  0  0  0  0  0  0  0  0  0  0
    0.1185    5.2143   -7.2196 H   0  0  0  0  0  0  0  0  0  0  0  0
    1.6715    5.3046   -6.3508 H   0  0  0  0  0  0  0  0  0  0  0  0
    0.7927    3.3600   -6.4036 C   0  0  0  0  0  0  0  0  0  0  0  0
    1.1752    2.3359   -6.9531 O   0  0  0  0  0  0  0  0  0  0  0  0
    0.1373    3.3635   -5.2460 N   0  0  0  0  0  0  0  0  0  0  0  0
   -0.1573    4.2468   -4.8555 H   0  0  0  0  0  0  0  0  0  0  0  0
   -0.2118    2.1628   -4.4866 C   0  0  1  0  0  0  0  0  0  0  0  0
   -0.4771    1.3658   -5.1834 H   0  0  0  0  0  0  0  0  0  0  0  0
    1.0291    1.7213   -3.6980 C   0  0  0  0  0  0  0  0  0  0  0  0
    1.8313    1.5495   -4.4172 H   0  0  0  0  0  0  0  0  0  0  0  0
    1.3464    2.5403   -3.0522 H   0  0  0  0  0  0  0  0  0  0  0  0
    0.8902    0.2171   -2.6954 S   0  0  0  0  0  0  0  0  0  0  0  0
   -1.4266    2.4326   -3.5811 C   0  0  0  0  0  0  0  0  0  0  0  0
   -1.6160    3.5619   -3.1270 O   0  0  0  0  0  0  0  0  0  0  0  0
   -2.2474    1.4051   -3.3281 N   0  0  0  0  0  0  0  0  0  0  0  0
   -2.0046    0.5047   -3.7099 H   0  0  0  0  0  0  0  0  0  0  0  0
   -3.4375    1.4917   -2.4827 C   0  0  0  0  0  0  0  0  0  0  0  0
   -3.1406    1.5467   -1.4340 H   0  0  0  0  0  0  0  0  0  0  0  0
   -4.0076    2.3901   -2.7310 H   0  0  0  0  0  0  0  0  0  0  0  0
   -4.0699    0.6163   -2.6315 H   0  0  0  0  0  0  0  0  0  0  0  0
  5  6  2  0  0  0  0
  5  7  1  0  0  0  0
  2  3  1  0  0  0  0
  2  4  1  0  0  0  0
  2  5  1  0  0  0  0
  1  2  1  0  0  0  0
 15 16  2  0  0  0  0
 15 17  1  0  0  0  0
 14 36  1  0  0  0  0
 11 12  1  0  0  0  0
 11 13  1  0  0  0  0
 11 14  1  0  0  0  0
  9 10  1  0  0  0  0
  9 11  1  0  0  0  0
  9 15  1  0  0  0  0
  7  8  1  0  0  0  0
  7  9  1  0  0  0  0
 19 20  1  0  0  0  0
 19 21  1  0  0  0  0
 19 22  1  0  0  0  0
 17 18  1  0  0  0  0
 17 19  1  0  0  0  0
 27 28  2  0  0  0  0
 27 29  1  0  0  0  0
 24 25  1  0  0  0  0
 24 26  1  0  0  0  0
 24 27  1  0  0  0  0
 23 24  1  0  0  0  0
 37 38  2  0  0  0  0
 37 39  1  0  0  0  0
 33 34  1  0  0  0  0
 33 35  1  0  0  0  0
 33 36  1  0  0  0  0
 31 32  1  0  0  0  0
 31 33  1  0  0  0  0
 31 37  1  0  0  0  0
 29 30  1  0  0  0  0
 29 31  1  0  0  0  0
 41 42  1  0  0  0  0
 41 43  1  0  0  0  0
 41 44  1  0  0  0  0
 39 40  1  0  0  0  0
 39 41  1  0  0  0  0
M  END
$$$$
default_name
  -OEChem-01062215323D

 44 43  0     1  0  0  0  0  0999 V2000
    2.4488   -3.0448    2.0990 H   0  0  0  0  0  0  0  0  0  0  0  0
    2.2788   -2.0018    2.3640 C   0  0  0  0  0  0  0  0  0  0  0  0
    2.9228   -1.7258    3.1960 H   0  0  0  0  0  0  0  0  0  0  0  0
    1.2358   -1.8618    2.6430 H   0  0  0  0  0  0  0  0  0  0  0  0
    2.6018   -1.1318    1.1730 C   0  0  0  0  0  0  0  0  0  0  0  0
    3.0048   -1.6348    0.1320 O   0  0  0  0  0  0  0  0  0  0  0  0
    2.4088    0.1752    1.3190 N   0  0  0  0  0  0  0  0  0  0  0  0
    2.0708    0.5242    2.2050 H   0  0  0  0  0  0  0  0  0  0  0  0
    2.6638    1.1782    0.2840 C   0  0  1  0  0  0  0  0  0  0  0  0
    3.0649    0.6669   -0.5927 H   0  0  0  0  0  0  0  0  0  0  0  0
    1.3415    1.8533   -0.1203 C   0  0  0  0  0  0  0  0  0  0  0  0
    1.5646    2.7020   -0.7679 H   0  0  0  0  0  0  0  0  0  0  0  0
    0.8886    2.2654    0.7811 H   0  0  0  0  0  0  0  0  0  0  0  0
    0.0752    0.8286   -0.9263 S   0  0  0  0  0  0  0  0  0  0  0  0
    3.7143    2.2029    0.7517 C   0  0  0  0  0  0  0  0  0  0  0  0
    4.7460    1.8299    1.3099 O   0  0  0  0  0  0  0  0  0  0  0  0
    3.4538    3.4959    0.5173 N   0  0  0  0  0  0  0  0  0  0  0  0
    2.5912    3.7309    0.0532 H   0  0  0  0  0  0  0  0  0  0  0  0
    4.3480    4.5861    0.9015 C   0  0  0  0  0  0  0  0  0  0  0  0
    4.4580    4.6051    1.9879 H   0  0  0  0  0  0  0  0  0  0  0  0
    5.3327    4.4303    0.4571 H   0  0  0  0  0  0  0  0  0  0  0  0
    3.9473    5.5424    0.5630 H   0  0  0  0  0  0  0  0  0  0  0  0
    1.5980    4.5624   -7.9663 H   0  0  0  0  0  0  0  0  0  0  0  0
    1.0637    4.7084   -7.0288 C   0  0  0  0  0  0  0  0  0  0  0  0
    0.1185    5.2143   -7.2196 H   0  0  0  0  0  0  0  0  0  0  0  0
    1.6715    5.3046   -6.3508 H   0  0  0  0  0  0  0  0  0  0  0  0
    0.7927    3.3600   -6.4036 C   0  0  0  0  0  0  0  0  0  0  0  0
    1.1752    2.3359   -6.9531 O   0  0  0  0  0  0  0  0  0  0  0  0
    0.1373    3.3635   -5.2460 N   0  0  0  0  0  0  0  0  0  0  0  0
   -0.1573    4.2468   -4.8555 H   0  0  0  0  0  0  0  0  0  0  0  0
   -0.2118    2.1628   -4.4866 C   0  0  1  0  0  0  0  0  0  0  0  0
   -0.4771    1.3658   -5.1834 H   0  0  0  0  0  0  0  0  0  0  0  0
    1.0291    1.7213   -3.6980 C   0  0  0  0  0  0  0  0  0  0  0  0
    1.8313    1.5495   -4.4172 H   0  0  0  0  0  0  0  0  0  0  0  0
    1.3464    2.5403   -3.0522 H   0  0  0  0  0  0  0  0  0  0  0  0
    0.8902    0.2171   -2.6954 S   0  0  0  0  0  0  0  0  0  0  0  0
   -1.4266    2.4326   -3.5811 C   0  0  0  0  0  0  0  0  0  0  0  0
   -1.6160    3.5619   -3.1270 O   0  0  0  0  0  0  0  0  0  0  0  0
   -2.2474    1.4051   -3.3281 N   0  0  0  0  0  0  0  0  0  0  0  0
   -2.0046    0.5047   -3.7099 H   0  0  0  0  0  0  0  0  0  0  0  0
   -3.4375    1.4917   -2.4827 C   0  0  0  0  0  0  0  0  0  0  0  0
   -3.1406    1.5467   -1.4340 H   0  0  0  0  0  0  0  0  0  0  0  0
   -4.0076    2.3901   -2.7310 H   0  0  0  0  0  0  0  0  0  0  0  0
   -4.0699    0.6163   -2.6315 H   0  0  0  0  0  0  0  0  0  0  0  0
  5  6  2  0  0  0  0
  5  7  1  0  0  0  0
  2  3  1  0  0  0  0
  2  4  1  0  0  0  0
  2  5  1  0  0  0  0
  1  2  1  0  0  0  0
 15 16  2  0  0  0  0
 15 17  1  0  0  0  0
 14 36  1  0  0  0  0
 11 12  1  0  0  0  0
 11 13  1  0  0  0  0
 11 14  1  0  0  0  0
  9 10  1  0  0  0  0
  9 11  1  0  0  0  0
  9 15  1  0  0  0  0
  7  8  1  0  0  0  0
  7  9  1  0  0  0  0
 19 20  1  0  0  0  0
 19 21  1  0  0  0  0
 19 22  1  0  0  0  0
 17 18  1  0  0  0  0
 17 19  1  0  0  0  0
 27 28  2  0  0  0  0
 27 29  1  0  0  0  0
 24 25  1  0  0  0  0
 24 26  1  0  0  0  0
 24 27  1  0  0  0  0
 23 24  1  0  0  0  0
 37 38  2  0  0  0  0
 37 39  1  0  0  0  0
 33 34  1  0  0  0  0
 33 35  1  0  0  0  0
 33 36  1  0  0  0  0
 31 32  1  0  0  0  0
 31 33  1  0  0  0  0
 31 37  1  0  0  0  0
 29 30  1  0  0  0  0
 29 31  1  0  0  0  0
 41 42  1  0  0  0  0
 41 43  1  0  0  0  0
 41 44  1  0  0  0  0
 39 40  1  0  0  0  0
 39 41  1  0  0  0  0
M  END
$$$$
default_name
  -OEChem-01062215323D

 44 43  0     1  0  0  0  0  0999 V2000
    2.4488   -3.0448    2.0990 H   0  0  0  0  0  0  0  0  0  0  0  0
    2.2788   -2.0018    2.3640 C   0  0  0  0  0  0  0  0  0  0  0  0
    2.9228   -1.7258    3.1960 H   0  0  0  0  0  0  0  0  0  0  0  0
    1.2358   -1.8618    2.6430 H   0  0  0  0  0  0  0  0  0  0  0  0
    2.6018   -1.1318    1.1730 C   0  0  0  0  0  0  0  0  0  0  0  0
    3.0048   -1.6348    0.1320 O   0  0  0  0  0  0  0  0  0  0  0  0
    2.4088    0.1752    1.3190 N   0  0  0  0  0  0  0  0  0  0  0  0
    2.0708    0.5242    2.2050 H   0  0  0  0  0  0  0  0  0  0  0  0
    2.6638    1.1782    0.2840 C   0  0  1  0  0  0  0  0  0  0  0  0
    3.0649    0.6669   -0.5927 H   0  0  0  0  0  0  0  0  0  0  0  0
    1.3415    1.8533   -0.1203 C   0  0  0  0  0  0  0  0  0  0  0  0
    1.5646    2.7020   -0.7679 H   0  0  0  0  0  0  0  0  0  0  0  0
    0.8886    2.2654    0.7811 H   0  0  0  0  0  0  0  0  0  0  0  0
    0.0752    0.8286   -0.9263 S   0  0  0  0  0  0  0  0  0  0  0  0
    3.7143    2.2029    0.7517 C   0  0  0  0  0  0  0  0  0  0  0  0
    4.8508    1.8394    1.0539 O   0  0  0  0  0  0  0  0  0  0  0  0
    3.3348    3.4866    0.8047 N   0  0  0  0  0  0  0  0  0  0  0  0
    2.3899    3.7148    0.5405 H   0  0  0  0  0  0  0  0  0  0  0  0
    4.2128    4.5751    1.2293 C   0  0  0  0  0  0  0  0  0  0  0  0
    4.5143    4.4197    2.2674 H   0  0  0  0  0  0  0  0  0  0  0  0
    5.1098    4.5902    0.6075 H   0  0  0  0  0  0  0  0  0  0  0  0
    3.6983    5.5330    1.1428 H   0  0  0  0  0  0  0  0  0  0  0  0
    1.5980    4.5624   -7.9663 H   0  0  0  0  0  0  0  0  0  0  0  0
    1.0637    4.7084   -7.0288 C   0  0  0  0  0  0  0  0  0  0  0  0
    0.1185    5.2143   -7.2196 H   0  0  0  0  0  0  0  0  0  0  0  0
    1.6715    5.3046   -6.3508 H   0  0  0  0  0  0  0  0  0  0  0  0
    0.7927    3.3600   -6.4036 C   0  0  0  0  0  0  0  0  0  0  0  0
    1.1752    2.3359   -6.9531 O   0  0  0  0  0  0  0  0  0  0  0  0
    0.1373    3.3635   -5.2460 N   0  0  0  0  0  0  0  0  0  0  0  0
   -0.1573    4.2468   -4.8555 H   0  0  0  0  0  0  0  0  0  0  0  0
   -0.2118    2.1628   -4.4866 C   0  0  1  0  0  0  0  0  0  0  0  0
   -0.4771    1.3658   -5.1834 H   0  0  0  0  0  0  0  0  0  0  0  0
    1.0291    1.7213   -3.6980 C   0  0  0  0  0  0  0  0  0  0  0  0
    1.8313    1.5495   -4.4172 H   0  0  0  0  0  0  0  0  0  0  0  0
    1.3464    2.5403   -3.0522 H   0  0  0  0  0  0  0  0  0  0  0  0
    0.8902    0.2171   -2.6954 S   0  0  0  0  0  0  0  0  0  0  0  0
   -1.4266    2.4326   -3.5811 C   0  0  0  0  0  0  0  0  0  0  0  0
   -1.6160    3.5619   -3.1270 O   0  0  0  0  0  0  0  0  0  0  0  0
   -2.2474    1.4051   -3.3281 N   0  0  0  0  0  0  0  0  0  0  0  0
   -2.0046    0.5047   -3.7099 H   0  0  0  0  0  0  0  0  0  0  0  0
   -3.4375    1.4917   -2.4827 C   0  0  0  0  0  0  0  0  0  0  0  0
   -3.1406    1.5467   -1.4340 H   0  0  0  0  0  0  0  0  0  0  0  0
   -4.0076    2.3901   -2.7310 H   0  0  0  0  0  0  0  0  0  0  0  0
   -4.0699    0.6163   -2.6315 H   0  0  0  0  0  0  0  0  0  0  0  0
  5  6  2  0  0  0  0
  5  7  1  0  0  0  0
  2  3  1  0  0  0  0
  2  4  1  0  0  0  0
  2  5  1  0  0  0  0
  1  2  1  0  0  0  0
 15 16  2  0  0  0  0
 15 17  1  0  0  0  0
 14 36  1  0  0  0  0
 11 12  1  0  0  0  0
 11 13  1  0  0  0  0
 11 14  1  0  0  0  0
  9 10  1  0  0  0  0
  9 11  1  0  0  0  0
  9 15  1  0  0  0  0
  7  8  1  0  0  0  0
  7  9  1  0  0  0  0
 19 20  1  0  0  0  0
 19 21  1  0  0  0  0
 19 22  1  0  0  0  0
 17 18  1  0  0  0  0
 17 19  1  0  0  0  0
 27 28  2  0  0  0  0
 27 29  1  0  0  0  0
 24 25  1  0  0  0  0
 24 26  1  0  0  0  0
 24 27  1  0  0  0  0
 23 24  1  0  0  0  0
 37 38  2  0  0  0  0
 37 39  1  0  0  0  0
 33 34  1  0  0  0  0
 33 35  1  0  0  0  0
 33 36  1  0  0  0  0
 31 32  1  0  0  0  0
 31 33  1  0  0  0  0
 31 37  1  0  0  0  0
 29 30  1  0  0  0  0
 29 31  1  0  0  0  0
 41 42  1  0  0  0  0
 41 43  1  0  0  0  0
 41 44  1  0  0  0  0
 39 40  1  0  0  0  0
 39 41  1  0  0  0  0
M  END
$$$$
default_name
  -OEChem-01062215323D

 44 43  0     1  0  0  0  0  0999 V2000
    2.4488   -3.0448    2.0990 H   0  0  0  0  0  0  0  0  0  0  0  0
    2.2788   -2.0018    2.3640 C   0  0  0  0  0  0  0  0  0  0  0  0
    2.9228   -1.7258    3.1960 H   0  0  0  0  0  0  0  0  0  0  0  0
    1.2358   -1.8618    2.6430 H   0  0  0  0  0  0  0  0  0  0  0  0
    2.6018   -1.1318    1.1730 C   0  0  0  0  0  0  0  0  0  0  0  0
    3.0048   -1.6348    0.1320 O   0  0  0  0  0  0  0  0  0  0  0  0
    2.4088    0.1752    1.3190 N   0  0  0  0  0  0  0  0  0  0  0  0
    2.0708    0.5242    2.2050 H   0  0  0  0  0  0  0  0  0  0  0  0
    2.6638    1.1782    0.2840 C   0  0  1  0  0  0  0  0  0  0  0  0
    3.0649    0.6669   -0.5927 H   0  0  0  0  0  0  0  0  0  0  0  0
    1.3415    1.8533   -0.1203 C   0  0  0  0  0  0  0  0  0  0  0  0
    1.5646    2.7020   -0.7679 H   0  0  0  0  0  0  0  0  0  0  0  0
    0.8886    2.2654    0.7811 H   0  0  0  0  0  0  0  0  0  0  0  0
    0.0752    0.8286   -0.9263 S   0  0  0  0  0  0  0  0  0  0  0  0
    3.7143    2.2029    0.7517 C   0  0  0  0  0  0  0  0  0  0  0  0
    4.9072    1.9019    0.7902 O   0  0  0  0  0  0  0  0  0  0  0  0
    3.2702    3.4176    1.1012 N   0  0  0  0  0  0  0  0  0  0  0  0
    2.2807    3.5973    1.0430 H   0  0  0  0  0  0  0  0  0  0  0  0
    4.1395    4.4959    1.5673 C   0  0  0  0  0  0  0  0  0  0  0  0
    4.6315    4.1958    2.4950 H   0  0  0  0  0  0  0  0  0  0  0  0
    4.9078    4.7006    0.8194 H   0  0  0  0  0  0  0  0  0  0  0  0
    3.5585    5.4019    1.7441 H   0  0  0  0  0  0  0  0  0  0  0  0
    1.5980    4.5624   -7.9663 H   0  0  0  0  0  0  0  0  0  0  0  0
    1.0637    4.7084   -7.0288 C   0  0  0  0  0  0  0  0  0  0  0  0
    0.1185    5.2143   -7.2196 H   0  0  0  0  0  0  0  0  0  0  0  0
    1.6715    5.3046   -6.3508 H   0  0  0  0  0  0  0  0  0  0  0  0
    0.7927    3.3600   -6.4036 C   0  0  0  0  0  0  0  0  0  0  0  0
    1.1752    2.3359   -6.9531 O   0  0  0  0  0  0  0  0  0  0  0  0
    0.1373    3.3635   -5.2460 N   0  0  0  0  0  0  0  0  0  0  0  0
   -0.1573    4.2468   -4.8555 H   0  0  0  0  0  0  0  0  0  0  0  0
   -0.2118    2.1628   -4.4866 C   0  0  1  0  0  0  0  0  0  0  0  0
   -0.4771    1.3658   -5.1834 H   0  0  0  0  0  0  0  0  0  0  0  0
    1.0291    1.7213   -3.6980 C   0  0  0  0  0  0  0  0  0  0  0  0
    1.8313    1.5495   -4.4172 H   0  0  0  0  0  0  0  0  0  0  0  0
    1.3464    2.5403   -3.0522 H   0  0  0  0  0  0  0  0  0  0  0  0
    0.8902    0.2171   -2.6954 S   0  0  0  0  0  0  0  0  0  0  0  0
   -1.4266    2.4326   -3.5811 C   0  0  0  0  0  0  0  0  0  0  0  0
   -1.6160    3.5619   -3.1270 O   0  0  0  0  0  0  0  0  0  0  0  0
   -2.2474    1.4051   -3.3281 N   0  0  0  0  0  0  0  0  0  0  0  0
   -2.0046    0.5047   -3.7099 H   0  0  0  0  0  0  0  0  0  0  0  0
   -3.4375    1.4917   -2.4827 C   0  0  0  0  0  0  0  0  0  0  0  0
   -3.1406    1.5467   -1.4340 H   0  0  0  0  0  0  0  0  0  0  0  0
   -4.0076    2.3901   -2.7310 H   0  0  0  0  0  0  0  0  0  0  0  0
   -4.0699    0.6163   -2.6315 H   0  0  0  0  0  0  0  0  0  0  0  0
  5  6  2  0  0  0  0
  5  7  1  0  0  0  0
  2  3  1  0  0  0  0
  2  4  1  0  0  0  0
  2  5  1  0  0  0  0
  1  2  1  0  0  0  0
 15 16  2  0  0  0  0
 15 17  1  0  0  0  0
 14 36  1  0  0  0  0
 11 12  1  0  0  0  0
 11 13  1  0  0  0  0
 11 14  1  0  0  0  0
  9 10  1  0  0  0  0
  9 11  1  0  0  0  0
  9 15  1  0  0  0  0
  7  8  1  0  0  0  0
  7  9  1  0  0  0  0
 19 20  1  0  0  0  0
 19 21  1  0  0  0  0
 19 22  1  0  0  0  0
 17 18  1  0  0  0  0
 17 19  1  0  0  0  0
 27 28  2  0  0  0  0
 27 29  1  0  0  0  0
 24 25  1  0  0  0  0
 24 26  1  0  0  0  0
 24 27  1  0  0  0  0
 23 24  1  0  0  0  0
 37 38  2  0  0  0  0
 37 39  1  0  0  0  0
 33 34  1  0  0  0  0
 33 35  1  0  0  0  0
 33 36  1  0  0  0  0
 31 32  1  0  0  0  0
 31 33  1  0  0  0  0
 31 37  1  0  0  0  0
 29 30  1  0  0  0  0
 29 31  1  0  0  0  0
 41 42  1  0  0  0  0
 41 43  1  0  0  0  0
 41 44  1  0  0  0  0
 39 40  1  0  0  0  0
 39 41  1  0  0  0  0
M  END
$$$$
default_name
  -OEChem-01062215323D

 44 43  0     1  0  0  0  0  0999 V2000
    2.4488   -3.0448    2.0990 H   0  0  0  0  0  0  0  0  0  0  0  0
    2.2788   -2.0018    2.3640 C   0  0  0  0  0  0  0  0  0  0  0  0
    2.9228   -1.7258    3.1960 H   0  0  0  0  0  0  0  0  0  0  0  0
    1.2358   -1.8618    2.6430 H   0  0  0  0  0  0  0  0  0  0  0  0
    2.6018   -1.1318    1.1730 C   0  0  0  0  0  0  0  0  0  0  0  0
    3.0048   -1.6348    0.1320 O   0  0  0  0  0  0  0  0  0  0  0  0
    2.4088    0.1752    1.3190 N   0  0  0  0  0  0  0  0  0  0  0  0
    2.0708    0.5242    2.2050 H   0  0  0  0  0  0  0  0  0  0  0  0
    2.6638    1.1782    0.2840 C   0  0  1  0  0  0  0  0  0  0  0  0
    3.0649    0.6669   -0.5927 H   0  0  0  0  0  0  0  0  0  0  0  0
    1.3415    1.8533   -0.1203 C   0  0  0  0  0  0  0  0  0  0  0  0
    1.5646    2.7020   -0.7679 H   0  0  0  0  0  0  0  0  0  0  0  0
    0.8886    2.2654    0.7811 H   0  0  0  0  0  0  0  0  0  0  0  0
    0.0752    0.8286   -0.9263 S   0  0  0  0  0  0  0  0  0  0  0  0
    3.7143    2.2029    0.7517 C   0  0  0  0  0  0  0  0  0  0  0  0
    4.9114    2.0133    0.5368 O   0  0  0  0  0  0  0  0  0  0  0  0
    3.2642    3.2934    1.3865 N   0  0  0  0  0  0  0  0  0  0  0  0
    2.2710    3.3866    1.5265 H   0  0  0  0  0  0  0  0  0  0  0  0
    4.1332    4.3540    1.8924 C   0  0  0  0  0  0  0  0  0  0  0  0
    4.8014    3.9485    2.6551 H   0  0  0  0  0  0  0  0  0  0  0  0
    4.7404    4.7539    1.0783 H   0  0  0  0  0  0  0  0  0  0  0  0
    3.5372    5.1581    2.3259 H   0  0  0  0  0  0  0  0  0  0  0  0
    1.5980    4.5624   -7.9663 H   0  0  0  0  0  0  0  0  0  0  0  0
    1.0637    4.7084   -7.0288 C   0  0  0  0  0  0  0  0  0  0  0  0
    0.1185    5.2143   -7.2196 H   0  0  0  0  0  0  0  0  0  0  0  0
    1.6715    5.3046   -6.3508 H   0  0  0  0  0  0  0  0  0  0  0  0
    0.7927    3.3600   -6.4036 C   0  0  0  0  0  0  0  0  0  0  0  0
    1.1752    2.3359   -6.9531 O   0  0  0  0  0  0  0  0  0  0  0  0
    0.1373    3.3635   -5.2460 N   0  0  0  0  0  0  0  0  0  0  0  0
   -0.1573    4.2468   -4.8555 H   0  0  0  0  0  0  0  0  0  0  0  0
   -0.2118    2.1628   -4.4866 C   0  0  1  0  0  0  0  0  0  0  0  0
   -0.4771    1.3658   -5.1834 H   0  0  0  0  0  0  0  0  0  0  0  0
    1.0291    1.7213   -3.6980 C   0  0  0  0  0  0  0  0  0  0  0  0
    1.8313    1.5495   -4.4172 H   0  0  0  0  0  0  0  0  0  0  0  0
    1.3464    2.5403   -3.0522 H   0  0  0  0  0  0  0  0  0  0  0  0
    0.8902    0.2171   -2.6954 S   0  0  0  0  0  0  0  0  0  0  0  0
   -1.4266    2.4326   -3.5811 C   0  0  0  0  0  0  0  0  0  0  0  0
   -1.6160    3.5619   -3.1270 O   0  0  0  0  0  0  0  0  0  0  0  0
   -2.2474    1.4051   -3.3281 N   0  0  0  0  0  0  0  0  0  0  0  0
   -2.0046    0.5047   -3.7099 H   0  0  0  0  0  0  0  0  0  0  0  0
   -3.4375    1.4917   -2.4827 C   0  0  0  0  0  0  0  0  0  0  0  0
   -3.1406    1.5467   -1.4340 H   0  0  0  0  0  0  0  0  0  0  0  0
   -4.0076    2.3901   -2.7310 H   0  0  0  0  0  0  0  0  0  0  0  0
   -4.0699    0.6163   -2.6315 H   0  0  0  0  0  0  0  0  0  0  0  0
  5  6  2  0  0  0  0
  5  7  1  0  0  0  0
  2  3  1  0  0  0  0
  2  4  1  0  0  0  0
  2  5  1  0  0  0  0
  1  2  1  0  0  0  0
 15 16  2  0  0  0  0
 15 17  1  0  0  0  0
 14 36  1  0  0  0  0
 11 12  1  0  0  0  0
 11 13  1  0  0  0  0
 11 14  1  0  0  0  0
  9 10  1  0  0  0  0
  9 11  1  0  0  0  0
  9 15  1  0  0  0  0
  7  8  1  0  0  0  0
  7  9  1  0  0  0  0
 19 20  1  0  0  0  0
 19 21  1  0  0  0  0
 19 22  1  0  0  0  0
 17 18  1  0  0  0  0
 17 19  1  0  0  0  0
 27 28  2  0  0  0  0
 27 29  1  0  0  0  0
 24 25  1  0  0  0  0
 24 26  1  0  0  0  0
 24 27  1  0  0  0  0
 23 24  1  0  0  0  0
 37 38  2  0  0  0  0
 37 39  1  0  0  0  0
 33 34  1  0  0  0  0
 33 35  1  0  0  0  0
 33 36  1  0  0  0  0
 31 32  1  0  0  0  0
 31 33  1  0  0  0  0
 31 37  1  0  0  0  0
 29 30  1  0  0  0  0
 29 31  1  0  0  0  0
 41 42  1  0  0  0  0
 41 43  1  0  0  0  0
 41 44  1  0  0  0  0
 39 40  1  0  0  0  0
 39 41  1  0  0  0  0
M  END
$$$$
default_name
  -OEChem-01062215323D

 44 43  0     1  0  0  0  0  0999 V2000
    2.4488   -3.0448    2.0990 H   0  0  0  0  0  0  0  0  0  0  0  0
    2.2788   -2.0018    2.3640 C   0  0  0  0  0  0  0  0  0  0  0  0
    2.9228   -1.7258    3.1960 H   0  0  0  0  0  0  0  0  0  0  0  0
    1.2358   -1.8618    2.6430 H   0  0  0  0  0  0  0  0  0  0  0  0
    2.6018   -1.1318    1.1730 C   0  0  0  0  0  0  0  0  0  0  0  0
    3.0048   -1.6348    0.1320 O   0  0  0  0  0  0  0  0  0  0  0  0
    2.4088    0.1752    1.3190 N   0  0  0  0  0  0  0  0  0  0  0  0
    2.0708    0.5242    2.2050 H   0  0  0  0  0  0  0  0  0  0  0  0
    2.6638    1.1782    0.2840 C   0  0  1  0  0  0  0  0  0  0  0  0
    3.0649    0.6669   -0.5927 H   0  0  0  0  0  0  0  0  0  0  0  0
    1.3415    1.8533   -0.1203 C   0  0  0  0  0  0  0  0  0  0  0  0
    1.5646    2.7020   -0.7679 H   0  0  0  0  0  0  0  0  0  0  0  0
    0.8886    2.2654    0.7811 H   0  0  0  0  0  0  0  0  0  0  0  0
    0.0752    0.8286   -0.9263 S   0  0  0  0  0  0  0  0  0  0  0  0
    3.7143    2.2029    0.7517 C   0  0  0  0  0  0  0  0  0  0  0  0
    4.8630    2.1660    0.3110 O   0  0  0  0  0  0  0  0  0  0  0  0
    3.3173    3.1227    1.6412 N   0  0  0  0  0  0  0  0  0  0  0  0
    2.3615    3.0969    1.9579 H   0  0  0  0  0  0  0  0  0  0  0  0
    4.1942    4.1590    2.1825 C   0  0  0  0  0  0  0  0  0  0  0  0
    5.0125    3.6947    2.7369 H   0  0  0  0  0  0  0  0  0  0  0  0
    4.6192    4.7466    1.3666 H   0  0  0  0  0  0  0  0  0  0  0  0
    3.6360    4.8183    2.8484 H   0  0  0  0  0  0  0  0  0  0  0  0
    1.5980    4.5624   -7.9663 H   0  0  0  0  0  0  0  0  0  0  0  0
    1.0637    4.7084   -7.0288 C   0  0  0  0  0  0  0  0  0  0  0  0
    0.1185    5.2143   -7.2196 H   0  0  0  0  0  0  0  0  0  0  0  0
    1.6715    5.3046   -6.3508 H   0  0  0  0  0  0  0  0  0  0  0  0
    0.7927    3.3600   -6.4036 C   0  0  0  0  0  0  0  0  0  0  0  0
    1.1752    2.3359   -6.9531 O   0  0  0  0  0  0  0  0  0  0  0  0
    0.1373    3.3635   -5.2460 N   0  0  0  0  0  0  0  0  0  0  0  0
   -0.1573    4.2468   -4.8555 H   0  0  0  0  0  0  0  0  0  0  0  0
   -0.2118    2.1628   -4.4866 C   0  0  1  0  0  0  0  0  0  0  0  0
   -0.4771    1.3658   -5.1834 H   0  0  0  0  0  0  0  0  0  0  0  0
    1.0291    1.7213   -3.6980 C   0  0  0  0  0  0  0  0  0  0  0  0
    1.8313    1.5495   -4.4172 H   0  0  0  0  0  0  0  0  0  0  0  0
    1.3464    2.5403   -3.0522 H   0  0  0  0  0  0  0  0  0  0  0  0
    0.8902    0.2171   -2.6954 S   0  0  0  0  0  0  0  0  0  0  0  0
   -1.4266    2.4326   -3.5811 C   0  0  0  0  0  0  0  0  0  0  0  0
   -1.6160    3.5619   -3.1270 O   0  0  0  0  0  0  0  0  0  0  0  0
   -2.2474    1.4051   -3.3281 N   0  0  0  0  0  0  0  0  0  0  0  0
   -2.0046    0.5047   -3.7099 H   0  0  0  0  0  0  0  0  0  0  0  0
   -3.4375    1.4917   -2.4827 C   0  0  0  0  0  0  0  0  0  0  0  0
   -3.1406    1.5467   -1.4340 H   0  0  0  0  0  0  0  0  0  0  0  0
   -4.0076    2.3901   -2.7310 H   0  0  0  0  0  0  0  0  0  0  0  0
   -4.0699    0.6163   -2.6315 H   0  0  0  0  0  0  0  0  0  0  0  0
  5  6  2  0  0  0  0
  5  7  1  0  0  0  0
  2  3  1  0  0  0  0
  2  4  1  0  0  0  0
  2  5  1  0  0  0  0
  1  2  1  0  0  0  0
 15 16  2  0  0  0  0
 15 17  1  0  0  0  0
 14 36  1  0  0  0  0
 11 12  1  0  0  0  0
 11 13  1  0  0  0  0
 11 14  1  0  0  0  0
  9 10  1  0  0  0  0
  9 11  1  0  0  0  0
  9 15  1  0  0  0  0
  7  8  1  0  0  0  0
  7  9  1  0  0  0  0
 19 20  1  0  0  0  0
 19 21  1  0  0  0  0
 19 22  1  0  0  0  0
 17 18  1  0  0  0  0
 17 19  1  0  0  0  0
 27 28  2  0  0  0  0
 27 29  1  0  0  0  0
 24 25  1  0  0  0  0
 24 26  1  0  0  0  0
 24 27  1  0  0  0  0
 23 24  1  0  0  0  0
 37 38  2  0  0  0  0
 37 39  1  0  0  0  0
 33 34  1  0  0  0  0
 33 35  1  0  0  0  0
 33 36  1  0  0  0  0
 31 32  1  0  0  0  0
 31 33  1  0  0  0  0
 31 37  1  0  0  0  0
 29 30  1  0  0  0  0
 29 31  1  0  0  0  0
 41 42  1  0  0  0  0
 41 43  1  0  0  0  0
 41 44  1  0  0  0  0
 39 40  1  0  0  0  0
 39 41  1  0  0  0  0
M  END
$$$$
default_name
  -OEChem-01062215323D

 44 43  0     1  0  0  0  0  0999 V2000
    2.4488   -3.0448    2.0990 H   0  0  0  0  0  0  0  0  0  0  0  0
    2.2788   -2.0018    2.3640 C   0  0  0  0  0  0  0  0  0  0  0  0
    2.9228   -1.7258    3.1960 H   0  0  0  0  0  0  0  0  0  0  0  0
    1.2358   -1.8618    2.6430 H   0  0  0  0  0  0  0  0  0  0  0  0
    2.6018   -1.1318    1.1730 C   0  0  0  0  0  0  0  0  0  0  0  0
    3.0048   -1.6348    0.1320 O   0  0  0  0  0  0  0  0  0  0  0  0
    2.4088    0.1752    1.3190 N   0  0  0  0  0  0  0  0  0  0  0  0
    2.0708    0.5242    2.2050 H   0  0  0  0  0  0  0  0  0  0  0  0
    2.6638    1.1782    0.2840 C   0  0  1  0  0  0  0  0  0  0  0  0
    3.0649    0.6669   -0.5927 H   0  0  0  0  0  0  0  0  0  0  0  0
    1.3415    1.8533   -0.1203 C   0  0  0  0  0  0  0  0  0  0  0  0
    1.5646    2.7020   -0.7679 H   0  0  0  0  0  0  0  0  0  0  0  0
    0.8886    2.2654    0.7811 H   0  0  0  0  0  0  0  0  0  0  0  0
    0.0752    0.8286   -0.9263 S   0  0  0  0  0  0  0  0  0  0  0  0
    3.7143    2.2029    0.7517 C   0  0  0  0  0  0  0  0  0  0  0  0
    4.7654    2.3495    0.1282 O   0  0  0  0  0  0  0  0  0  0  0  0
    3.4259    2.9170    1.8479 N   0  0  0  0  0  0  0  0  0  0  0  0
    2.5459    2.7480    2.3080 H   0  0  0  0  0  0  0  0  0  0  0  0
    4.3184    3.9243    2.4177 C   0  0  0  0  0  0  0  0  0  0  0  0
    5.2505    3.4517    2.7347 H   0  0  0  0  0  0  0  0  0  0  0  0
    4.5523    4.6791    1.6647 H   0  0  0  0  0  0  0  0  0  0  0  0
    3.8481    4.4056    3.2762 H   0  0  0  0  0  0  0  0  0  0  0  0
    1.5980    4.5624   -7.9663 H   0  0  0  0  0  0  0  0  0  0  0  0
    1.0637    4.7084   -7.0288 C   0  0  0  0  0  0  0  0  0  0  0  0
    0.1185    5.2143   -7.2196 H   0  0  0  0  0  0  0  0  0  0  0  0
    1.6715    5.3046   -6.3508 H   0  0  0  0  0  0  0  0  0  0  0  0
    0.7927    3.3600   -6.4036 C   0  0  0  0  0  0  0  0  0  0  0  0
    1.1752    2.3359   -6.9531 O   0  0  0  0  0  0  0  0  0  0  0  0
    0.1373    3.3635   -5.2460 N   0  0  0  0  0  0  0  0  0  0  0  0
   -0.1573    4.2468   -4.8555 H   0  0  0  0  0  0  0  0  0  0  0  0
   -0.2118    2.1628   -4.4866 C   0  0  1  0  0  0  0  0  0  0  0  0
   -0.4771    1.3658   -5.1834 H   0  0  0  0  0  0  0  0  0  0  0  0
    1.0291    1.7213   -3.6980 C   0  0  0  0  0  0  0  0  0  0  0  0
    1.8313    1.5495   -4.4172 H   0  0  0  0  0  0  0  0  0  0  0  0
    1.3464    2.5403   -3.0522 H   0  0  0  0  0  0  0  0  0  0  0  0
    0.8902    0.2171   -2.6954 S   0  0  0  0  0  0  0  0  0  0  0  0
   -1.4266    2.4326   -3.5811 C   0  0  0  0  0  0  0  0  0  0  0  0
   -1.6160    3.5619   -3.1270 O   0  0  0  0  0  0  0  0  0  0  0  0
   -2.2474    1.4051   -3.3281 N   0  0  0  0  0  0  0  0  0  0  0  0
   -2.0046    0.5047   -3.7099 H   0  0  0  0  0  0  0  0  0  0  0  0
   -3.4375    1.4917   -2.4827 C   0  0  0  0  0  0  0  0  0  0  0  0
   -3.1406    1.5467   -1.4340 H   0  0  0  0  0  0  0  0  0  0  0  0
   -4.0076    2.3901   -2.7310 H   0  0  0  0  0  0  0  0  0  0  0  0
   -4.0699    0.6163   -2.6315 H   0  0  0  0  0  0  0  0  0  0  0  0
  5  6  2  0  0  0  0
  5  7  1  0  0  0  0
  2  3  1  0  0  0  0
  2  4  1  0  0  0  0
  2  5  1  0  0  0  0
  1  2  1  0  0  0  0
 15 16  2  0  0  0  0
 15 17  1  0  0  0  0
 14 36  1  0  0  0  0
 11 12  1  0  0  0  0
 11 13  1  0  0  0  0
 11 14  1  0  0  0  0
  9 10  1  0  0  0  0
  9 11  1  0  0  0  0
  9 15  1  0  0  0  0
  7  8  1  0  0  0  0
  7  9  1  0  0  0  0
 19 20  1  0  0  0  0
 19 21  1  0  0  0  0
 19 22  1  0  0  0  0
 17 18  1  0  0  0  0
 17 19  1  0  0  0  0
 27 28  2  0  0  0  0
 27 29  1  0  0  0  0
 24 25  1  0  0  0  0
 24 26  1  0  0  0  0
 24 27  1  0  0  0  0
 23 24  1  0  0  0  0
 37 38  2  0  0  0  0
 37 39  1  0  0  0  0
 33 34  1  0  0  0  0
 33 35  1  0  0  0  0
 33 36  1  0  0  0  0
 31 32  1  0  0  0  0
 31 33  1  0  0  0  0
 31 37  1  0  0  0  0
 29 30  1  0  0  0  0
 29 31  1  0  0  0  0
 41 42  1  0  0  0  0
 41 43  1  0  0  0  0
 41 44  1  0  0  0  0
 39 40  1  0  0  0  0
 39 41  1  0  0  0  0
M  END
$$$$
default_name
  -OEChem-01062215323D

 44 43  0     1  0  0  0  0  0999 V2000
    2.4488   -3.0448    2.0990 H   0  0  0  0  0  0  0  0  0  0  0  0
    2.2788   -2.0018    2.3640 C   0  0  0  0  0  0  0  0  0  0  0  0
    2.9228   -1.7258    3.1960 H   0  0  0  0  0  0  0  0  0  0  0  0
    1.2358   -1.8618    2.6430 H   0  0  0  0  0  0  0  0  0  0  0  0
    2.6018   -1.1318    1.1730 C   0  0  0  0  0  0  0  0  0  0  0  0
    3.0048   -1.6348    0.1320 O   0  0  0  0  0  0  0  0  0  0  0  0
    2.4088    0.1752    1.3190 N   0  0  0  0  0  0  0  0  0  0  0  0
    2.0708    0.5242    2.2050 H   0  0  0  0  0  0  0  0  0  0  0  0
    2.6638    1.1782    0.2840 C   0  0  1  0  0  0  0  0  0  0  0  0
    3.0649    0.6669   -0.5927 H   0  0  0  0  0  0  0  0  0  0  0  0
    1.3415    1.8533   -0.1203 C   0  0  0  0  0  0  0  0  0  0  0  0
    1.5646    2.7020   -0.7679 H   0  0  0  0  0  0  0  0  0  0  0  0
    0.8886    2.2654    0.7811 H   0  0  0  0  0  0  0  0  0  0  0  0
    0.0752    0.8286   -0.9263 S   0  0  0  0  0  0  0  0  0  0  0  0
    3.7143    2.2029    0.7517 C   0  0  0  0  0  0  0  0  0  0  0  0
    4.6252    2.5514    0.0008 O   0  0  0  0  0  0  0  0  0  0  0  0
    3.5826    2.6904    1.9926 N   0  0  0  0  0  0  0  0  0  0  0  0
    2.8117    2.3638    2.5528 H   0  0  0  0  0  0  0  0  0  0  0  0
    4.4973    3.6658    2.5822 C   0  0  0  0  0  0  0  0  0  0  0  0
    5.4991    3.2361    2.6487 H   0  0  0  0  0  0  0  0  0  0  0  0
    4.5443    4.5560    1.9523 H   0  0  0  0  0  0  0  0  0  0  0  0
    4.1591    3.9481    3.5800 H   0  0  0  0  0  0  0  0  0  0  0  0
    1.5980    4.5624   -7.9663 H   0  0  0  0  0  0  0  0  0  0  0  0
    1.0637    4.7084   -7.0288 C   0  0  0  0  0  0  0  0  0  0  0  0
    0.1185    5.2143   -7.2196 H   0  0  0  0  0  0  0  0  0  0  0  0
    1.6715    5.3046   -6.3508 H   0  0  0  0  0  0  0  0  0  0  0  0
    0.7927    3.3600   -6.4036 C   0  0  0  0  0  0  0  0  0  0  0  0
    1.1752    2.3359   -6.9531 O   0  0  0  0  0  0  0  0  0  0  0  0
    0.1373    3.3635   -5.2460 N   0  0  0  0  0  0  0  0  0  0  0  0
   -0.1573    4.2468   -4.8555 H   0  0  0  0  0  0  0  0  0  0  0  0
   -0.2118    2.1628   -4.4866 C   0  0  1  0  0  0  0  0  0  0  0  0
   -0.4771    1.3658   -5.1834 H   0  0  0  0  0  0  0  0  0  0  0  0
    1.0291    1.7213   -3.6980 C   0  0  0  0  0  0  0  0  0  0  0  0
    1.8313    1.5495   -4.4172 H   0  0  0  0  0  0  0  0  0  0  0  0
    1.3464    2.5403   -3.0522 H   0  0  0  0  0  0  0  0  0  0  0  0
    0.8902    0.2171   -2.6954 S   0  0  0  0  0  0  0  0  0  0  0  0
   -1.4266    2.4326   -3.5811 C   0  0  0  0  0  0  0  0  0  0  0  0
   -1.6160    3.5619   -3.1270 O   0  0  0  0  0  0  0  0  0  0  0  0
   -2.2474    1.4051   -3.3281 N   0  0  0  0  0  0  0  0  0  0  0  0
   -2.0046    0.5047   -3.7099 H   0  0  0  0  0  0  0  0  0  0  0  0
   -3.4375    1.4917   -2.4827 C   0  0  0  0  0  0  0  0  0  0  0  0
   -3.1406    1.5467   -1.4340 H   0  0  0  0  0  0  0  0  0  0  0  0
   -4.0076    2.3901   -2.7310 H   0  0  0  0  0  0  0  0  0  0  0  0
   -4.0699    0.6163   -2.6315 H   0  0  0  0  0  0  0  0  0  0  0  0
  5  6  2  0  0  0  0
  5  7  1  0  0  0  0
  2  3  1  0  0  0  0
  2  4  1  0  0  0  0
  2  5  1  0  0  0  0
  1  2  1  0  0  0  0
 15 16  2  0  0  0  0
 15 17  1  0  0  0  0
 14 36  1  0  0  0  0
 11 12  1  0  0  0  0
 11 13  1  0  0  0  0
 11 14  1  0  0  0  0
  9 10  1  0  0  0  0
  9 11  1  0  0  0  0
  9 15  1  0  0  0  0
  7  8  1  0  0  0  0
  7  9  1  0  0  0  0
 19 20  1  0  0  0  0
 19 21  1  0  0  0  0
 19 22  1  0  0  0  0
 17 18  1  0  0  0  0
 17 19  1  0  0  0  0
 27 28  2  0  0  0  0
 27 29  1  0  0  0  0
 24 25  1  0  0  0  0
 24 26  1  0  0  0  0
 24 27  1  0  0  0  0
 23 24  1  0  0  0  0
 37 38  2  0  0  0  0
 37 39  1  0  0  0  0
 33 34  1  0  0  0  0
 33 35  1  0  0  0  0
 33 36  1  0  0  0  0
 31 32  1  0  0  0  0
 31 33  1  0  0  0  0
 31 37  1  0  0  0  0
 29 30  1  0  0  0  0
 29 31  1  0  0  0  0
 41 42  1  0  0  0  0
 41 43  1  0  0  0  0
 41 44  1  0  0  0  0
 39 40  1  0  0  0  0
 39 41  1  0  0  0  0
M  END
$$$$
default_name
  -OEChem-01062215323D

 44 43  0     1  0  0  0  0  0999 V2000
    2.4488   -3.0448    2.0990 H   0  0  0  0  0  0  0  0  0  0  0  0
    2.2788   -2.0018    2.3640 C   0  0  0  0  0  0  0  0  0  0  0  0
    2.9228   -1.7258    3.1960 H   0  0  0  0  0  0  0  0  0  0  0  0
    1.2358   -1.8618    2.6430 H   0  0  0  0  0  0  0  0  0  0  0  0
    2.6018   -1.1318    1.1730 C   0  0  0  0  0  0  0  0  0  0  0  0
    3.0048   -1.6348    0.1320 O   0  0  0  0  0  0  0  0  0  0  0  0
    2.4088    0.1752    1.3190 N   0  0  0  0  0  0  0  0  0  0  0  0
    2.0708    0.5242    2.2050 H   0  0  0  0  0  0  0  0  0  0  0  0
    2.6638    1.1782    0.2840 C   0  0  1  0  0  0  0  0  0  0  0  0
    3.0649    0.6669   -0.5927 H   0  0  0  0  0  0  0  0  0  0  0  0
    1.3415    1.8533   -0.1203 C   0  0  0  0  0  0  0  0  0  0  0  0
    1.5646    2.7020   -0.7679 H   0  0  0  0  0  0  0  0  0  0  0  0
    0.8886    2.2654    0.7811 H   0  0  0  0  0  0  0  0  0  0  0  0
    0.0752    0.8286   -0.9263 S   0  0  0  0  0  0  0  0  0  0  0  0
    3.7143    2.2029    0.7517 C   0  0  0  0  0  0  0  0  0  0  0  0
    4.4520    2.7578   -0.0625 O   0  0  0  0  0  0  0  0  0  0  0  0
    3.7766    2.4582    2.0654 N   0  0  0  0  0  0  0  0  0  0  0  0
    3.1408    1.9703    2.6756 H   0  0  0  0  0  0  0  0  0  0  0  0
    4.7188    3.4012    2.6646 C   0  0  0  0  0  0  0  0  0  0  0  0
    5.7413    3.0626    2.4848 H   0  0  0  0  0  0  0  0  0  0  0  0
    4.5958    4.3858    2.2096 H   0  0  0  0  0  0  0  0  0  0  0  0
    4.5477    3.4770    3.7391 H   0  0  0  0  0  0  0  0  0  0  0  0
    1.5980    4.5624   -7.9663 H   0  0  0  0  0  0  0  0  0  0  0  0
    1.0637    4.7084   -7.0288 C   0  0  0  0  0  0  0  0  0  0  0  0
    0.1185    5.2143   -7.2196 H   0  0  0  0  0  0  0  0  0  0  0  0
    1.6715    5.3046   -6.3508 H   0  0  0  0  0  0  0  0  0  0  0  0
    0.7927    3.3600   -6.4036 C   0  0  0  0  0  0  0  0  0  0  0  0
    1.1752    2.3359   -6.9531 O   0  0  0  0  0  0  0  0  0  0  0  0
    0.1373    3.3635   -5.2460 N   0  0  0  0  0  0  0  0  0  0  0  0
   -0.1573    4.2468   -4.8555 H   0  0  0  0  0  0  0  0  0  0  0  0
   -0.2118    2.1628   -4.4866 C   0  0  1  0  0  0  0  0  0  0  0  0
   -0.4771    1.3658   -5.1834 H   0  0  0  0  0  0  0  0  0  0  0  0
    1.0291    1.7213   -3.6980 C   0  0  0  0  0  0  0  0  0  0  0  0
    1.8313    1.5495   -4.4172 H   0  0  0  0  0  0  0  0  0  0  0  0
    1.3464    2.5403   -3.0522 H   0  0  0  0  0  0  0  0  0  0  0  0
    0.8902    0.2171   -2.6954 S   0  0  0  0  0  0  0  0  0  0  0  0
   -1.4266    2.4326   -3.5811 C   0  0  0  0  0  0  0  0  0  0  0  0
   -1.6160    3.5619   -3.1270 O   0  0  0  0  0  0  0  0  0  0  0  0
   -2.2474    1.4051   -3.3281 N   0  0  0  0  0  0  0  0  0  0  0  0
   -2.0046    0.5047   -3.7099 H   0  0  0  0  0  0  0  0  0  0  0  0
   -3.4375    1.4917   -2.4827 C   0  0  0  0  0  0  0  0  0  0  0  0
   -3.1406    1.5467   -1.4340 H   0  0  0  0  0  0  0  0  0  0  0  0
   -4.0076    2.3901   -2.7310 H   0  0  0  0  0  0  0  0  0  0  0  0
   -4.0699    0.6163   -2.6315 H   0  0  0  0  0  0  0  0  0  0  0  0
  5  6  2  0  0  0  0
  5  7  1  0  0  0  0
  2  3  1  0  0  0  0
  2  4  1  0  0  0  0
  2  5  1  0  0  0  0
  1  2  1  0  0  0  0
 15 16  2  0  0  0  0
 15 17  1  0  0  0  0
 14 36  1  0  0  0  0
 11 12  1  0  0  0  0
 11 13  1  0  0  0  0
 11 14  1  0  0  0  0
  9 10  1  0  0  0  0
  9 11  1  0  0  0  0
  9 15  1  0  0  0  0
  7  8  1  0  0  0  0
  7  9  1  0  0  0  0
 19 20  1  0  0  0  0
 19 21  1  0  0  0  0
 19 22  1  0  0  0  0
 17 18  1  0  0  0  0
 17 19  1  0  0  0  0
 27 28  2  0  0  0  0
 27 29  1  0  0  0  0
 24 25  1  0  0  0  0
 24 26  1  0  0  0  0
 24 27  1  0  0  0  0
 23 24  1  0  0  0  0
 37 38  2  0  0  0  0
 37 39  1  0  0  0  0
 33 34  1  0  0  0  0
 33 35  1  0  0  0  0
 33 36  1  0  0  0  0
 31 32  1  0  0  0  0
 31 33  1  0  0  0  0
 31 37  1  0  0  0  0
 29 30  1  0  0  0  0
 29 31  1  0  0  0  0
 41 42  1  0  0  0  0
 41 43  1  0  0  0  0
 41 44  1  0  0  0  0
 39 40  1  0  0  0  0
 39 41  1  0  0  0  0
M  END
$$$$
default_name
  -OEChem-01062215323D

 44 43  0     1  0  0  0  0  0999 V2000
    2.4488   -3.0448    2.0990 H   0  0  0  0  0  0  0  0  0  0  0  0
    2.2788   -2.0018    2.3640 C   0  0  0  0  0  0  0  0  0  0  0  0
    2.9228   -1.7258    3.1960 H   0  0  0  0  0  0  0  0  0  0  0  0
    1.2358   -1.8618    2.6430 H   0  0  0  0  0  0  0  0  0  0  0  0
    2.6018   -1.1318    1.1730 C   0  0  0  0  0  0  0  0  0  0  0  0
    3.0048   -1.6348    0.1320 O   0  0  0  0  0  0  0  0  0  0  0  0
    2.4088    0.1752    1.3190 N   0  0  0  0  0  0  0  0  0  0  0  0
    2.0708    0.5242    2.2050 H   0  0  0  0  0  0  0  0  0  0  0  0
    2.6638    1.1782    0.2840 C   0  0  1  0  0  0  0  0  0  0  0  0
    3.0649    0.6669   -0.5927 H   0  0  0  0  0  0  0  0  0  0  0  0
    1.3415    1.8533   -0.1203 C   0  0  0  0  0  0  0  0  0  0  0  0
    1.5646    2.7020   -0.7679 H   0  0  0  0  0  0  0  0  0  0  0  0
    0.8886    2.2654    0.7811 H   0  0  0  0  0  0  0  0  0  0  0  0
    0.0752    0.8286   -0.9263 S   0  0  0  0  0  0  0  0  0  0  0  0
    3.7143    2.2029    0.7517 C   0  0  0  0  0  0  0  0  0  0  0  0
    4.2576    2.9548   -0.0573 O   0  0  0  0  0  0  0  0  0  0  0  0
    3.9948    2.2364    2.0613 N   0  0  0  0  0  0  0  0  0  0  0  0
    3.5108    1.5944    2.6681 H   0  0  0  0  0  0  0  0  0  0  0  0
    4.9677    3.1484    2.6593 C   0  0  0  0  0  0  0  0  0  0  0  0
    5.9608    2.9429    2.2542 H   0  0  0  0  0  0  0  0  0  0  0  0
    4.7032    4.1799    2.4193 H   0  0  0  0  0  0  0  0  0  0  0  0
    4.9876    3.0244    3.7428 H   0  0  0  0  0  0  0  0  0  0  0  0
    1.5980    4.5624   -7.9663 H   0  0  0  0  0  0  0  0  0  0  0  0
    1.0637    4.7084   -7.0288 C   0  0  0  0  0  0  0  0  0  0  0  0
    0.1185    5.2143   -7.2196 H   0  0  0  0  0  0  0  0  0  0  0  0
    1.6715    5.3046   -6.3508 H   0  0  0  0  0  0  0  0  0  0  0  0
    0.7927    3.3600   -6.4036 C   0  0  0  0  0  0  0  0  0  0  0  0
    1.1752    2.3359   -6.9531 O   0  0  0  0  0  0  0  0  0  0  0  0
    0.1373    3.3635   -5.2460 N   0  0  0  0  0  0  0  0  0  0  0  0
   -0.1573    4.2468   -4.8555 H   0  0  0  0  0  0  0  0  0  0  0  0
   -0.2118    2.1628   -4.4866 C   0  0  1  0  0  0  0  0  0  0  0  0
   -0.4771    1.3658   -5.1834 H   0  0  0  0  0  0  0  0  0  0  0  0
    1.0291    1.7213   -3.6980 C   0  0  0  0  0  0  0  0  0  0  0  0
    1.8313    1.5495   -4.4172 H   0  0  0  0  0  0  0  0  0  0  0  0
    1.3464    2.5403   -3.0522 H   0  0  0  0  0  0  0  0  0  0  0  0
    0.8902    0.2171   -2.6954 S   0  0  0  0  0  0  0  0  0  0  0  0
   -1.4266    2.4326   -3.5811 C   0  0  0  0  0  0  0  0  0  0  0  0
   -1.6160    3.5619   -3.1270 O   0  0  0  0  0  0  0  0  0  0  0  0
   -2.2474    1.4051   -3.3281 N   0  0  0  0  0  0  0  0  0  0  0  0
   -2.0046    0.5047   -3.7099 H   0  0  0  0  0  0  0  0  0  0  0  0
   -3.4375    1.4917   -2.4827 C   0  0  0  0  0  0  0  0  0  0  0  0
   -3.1406    1.5467   -1.4340 H   0  0  0  0  0  0  0  0  0  0  0  0
   -4.0076    2.3901   -2.7310 H   0  0  0  0  0  0  0  0  0  0  0  0
   -4.0699    0.6163   -2.6315 H   0  0  0  0  0  0  0  0  0  0  0  0
  5  6  2  0  0  0  0
  5  7  1  0  0  0  0
  2  3  1  0  0  0  0
  2  4  1  0  0  0  0
  2  5  1  0  0  0  0
  1  2  1  0  0  0  0
 15 16  2  0  0  0  0
 15 17  1  0  0  0  0
 14 36  1  0  0  0  0
 11 12  1  0  0  0  0
 11 13  1  0  0  0  0
 11 14  1  0  0  0  0
  9 10  1  0  0  0  0
  9 11  1  0  0  0  0
  9 15  1  0  0  0  0
  7  8  1  0  0  0  0
  7  9  1  0  0  0  0
 19 20  1  0  0  0  0
 19 21  1  0  0  0  0
 19 22  1  0  0  0  0
 17 18  1  0  0  0  0
 17 19  1  0  0  0  0
 27 28  2  0  0  0  0
 27 29  1  0  0  0  0
 24 25  1  0  0  0  0
 24 26  1  0  0  0  0
 24 27  1  0  0  0  0
 23 24  1  0  0  0  0
 37 38  2  0  0  0  0
 37 39  1  0  0  0  0
 33 34  1  0  0  0  0
 33 35  1  0  0  0  0
 33 36  1  0  0  0  0
 31 32  1  0  0  0  0
 31 33  1  0  0  0  0
 31 37  1  0  0  0  0
 29 30  1  0  0  0  0
 29 31  1  0  0  0  0
 41 42  1  0  0  0  0
 41 43  1  0  0  0  0
 41 44  1  0  0  0  0
 39 40  1  0  0  0  0
 39 41  1  0  0  0  0
M  END
$$$$
default_name
  -OEChem-01062215323D

 44 43  0     1  0  0  0  0  0999 V2000
    2.4488   -3.0448    2.0990 H   0  0  0  0  0  0  0  0  0  0  0  0
    2.2788   -2.0018    2.3640 C   0  0  0  0  0  0  0  0  0  0  0  0
    2.9228   -1.7258    3.1960 H   0  0  0  0  0  0  0  0  0  0  0  0
    1.2358   -1.8618    2.6430 H   0  0  0  0  0  0  0  0  0  0  0  0
    2.6018   -1.1318    1.1730 C   0  0  0  0  0  0  0  0  0  0  0  0
    3.0048   -1.6348    0.1320 O   0  0  0  0  0  0  0  0  0  0  0  0
    2.4088    0.1752    1.3190 N   0  0  0  0  0  0  0  0  0  0  0  0
    2.0708    0.5242    2.2050 H   0  0  0  0  0  0  0  0  0  0  0  0
    2.6638    1.1782    0.2840 C   0  0  1  0  0  0  0  0  0  0  0  0
    3.0649    0.6669   -0.5927 H   0  0  0  0  0  0  0  0  0  0  0  0
    1.3415    1.8533   -0.1203 C   0  0  0  0  0  0  0  0  0  0  0  0
    1.5646    2.7020   -0.7679 H   0  0  0  0  0  0  0  0  0  0  0  0
    0.8886    2.2654    0.7811 H   0  0  0  0  0  0  0  0  0  0  0  0
    0.0752    0.8286   -0.9263 S   0  0  0  0  0  0  0  0  0  0  0  0
    3.7143    2.2029    0.7517 C   0  0  0  0  0  0  0  0  0  0  0  0
    4.0552    3.1289    0.0159 O   0  0  0  0  0  0  0  0  0  0  0  0
    4.2223    2.0400    1.9806 N   0  0  0  0  0  0  0  0  0  0  0  0
    3.8965    1.2617    2.5309 H   0  0  0  0  0  0  0  0  0  0  0  0
    5.2270    2.9248    2.5667 C   0  0  0  0  0  0  0  0  0  0  0  0
    6.1424    2.8853    1.9725 H   0  0  0  0  0  0  0  0  0  0  0  0
    4.8593    3.9525    2.5670 H   0  0  0  0  0  0  0  0  0  0  0  0
    5.4486    2.6212    3.5907 H   0  0  0  0  0  0  0  0  0  0  0  0
    1.5980    4.5624   -7.9663 H   0  0  0  0  0  0  0  0  0  0  0  0
    1.0637    4.7084   -7.0288 C   0  0  0  0  0  0  0  0  0  0  0  0
    0.1185    5.2143   -7.2196 H   0  0  0  0  0  0  0  0  0  0  0  0
    1.6715    5.3046   -6.3508 H   0  0  0  0  0  0  0  0  0  0  0  0
    0.7927    3.3600   -6.4036 C   0  0  0  0  0  0  0  0  0  0  0  0
    1.1752    2.3359   -6.9531 O   0  0  0  0  0  0  0  0  0  0  0  0
    0.1373    3.3635   -5.2460 N   0  0  0  0  0  0  0  0  0  0  0  0
   -0.1573    4.2468   -4.8555 H   0  0  0  0  0  0  0  0  0  0  0  0
   -0.2118    2.1628   -4.4866 C   0  0  1  0  0  0  0  0  0  0  0  0
   -0.4771    1.3658   -5.1834 H   0  0  0  0  0  0  0  0  0  0  0  0
    1.0291    1.7213   -3.6980 C   0  0  0  0  0  0  0  0  0  0  0  0
    1.8313    1.5495   -4.4172 H   0  0  0  0  0  0  0  0  0  0  0  0
    1.3464    2.5403   -3.0522 H   0  0  0  0  0  0  0  0  0  0  0  0
    0.8902    0.2171   -2.6954 S   0  0  0  0  0  0  0  0  0  0  0  0
   -1.4266    2.4326   -3.5811 C   0  0  0  0  0  0  0  0  0  0  0  0
   -1.6160    3.5619   -3.1270 O   0  0  0  0  0  0  0  0  0  0  0  0
   -2.2474    1.4051   -3.3281 N   0  0  0  0  0  0  0  0  0  0  0  0
   -2.0046    0.5047   -3.7099 H   0  0  0  0  0  0  0  0  0  0  0  0
   -3.4375    1.4917   -2.4827 C   0  0  0  0  0  0  0  0  0  0  0  0
   -3.1406    1.5467   -1.4340 H   0  0  0  0  0  0  0  0  0  0  0  0
   -4.0076    2.3901   -2.7310 H   0  0  0  0  0  0  0  0  0  0  0  0
   -4.0699    0.6163   -2.6315 H   0  0  0  0  0  0  0  0  0  0  0  0
  5  6  2  0  0  0  0
  5  7  1  0  0  0  0
  2  3  1  0  0  0  0
  2  4  1  0  0  0  0
  2  5  1  0  0  0  0
  1  2  1  0  0  0  0
 15 16  2  0  0  0  0
 15 17  1  0  0  0  0
 14 36  1  0  0  0  0
 11 12  1  0  0  0  0
 11 13  1  0  0  0  0
 11 14  1  0  0  0  0
  9 10  1  0  0  0  0
  9 11  1  0  0  0  0
  9 15  1  0  0  0  0
  7  8  1  0  0  0  0
  7  9  1  0  0  0  0
 19 20  1  0  0  0  0
 19 21  1  0  0  0  0
 19 22  1  0  0  0  0
 17 18  1  0  0  0  0
 17 19  1  0  0  0  0
 27 28  2  0  0  0  0
 27 29  1  0  0  0  0
 24 25  1  0  0  0  0
 24 26  1  0  0  0  0
 24 27  1  0  0  0  0
 23 24  1  0  0  0  0
 37 38  2  0  0  0  0
 37 39  1  0  0  0  0
 33 34  1  0  0  0  0
 33 35  1  0  0  0  0
 33 36  1  0  0  0  0
 31 32  1  0  0  0  0
 31 33  1  0  0  0  0
 31 37  1  0  0  0  0
 29 30  1  0  0  0  0
 29 31  1  0  0  0  0
 41 42  1  0  0  0  0
 41 43  1  0  0  0  0
 41 44  1  0  0  0  0
 39 40  1  0  0  0  0
 39 41  1  0  0  0  0
M  END
$$$$
default_name
  -OEChem-01062215323D

 44 43  0     1  0  0  0  0  0999 V2000
    2.4488   -3.0448    2.0990 H   0  0  0  0  0  0  0  0  0  0  0  0
    2.2788   -2.0018    2.3640 C   0  0  0  0  0  0  0  0  0  0  0  0
    2.9228   -1.7258    3.1960 H   0  0  0  0  0  0  0  0  0  0  0  0
    1.2358   -1.8618    2.6430 H   0  0  0  0  0  0  0  0  0  0  0  0
    2.6018   -1.1318    1.1730 C   0  0  0  0  0  0  0  0  0  0  0  0
    3.0048   -1.6348    0.1320 O   0  0  0  0  0  0  0  0  0  0  0  0
    2.4088    0.1752    1.3190 N   0  0  0  0  0  0  0  0  0  0  0  0
    2.0708    0.5242    2.2050 H   0  0  0  0  0  0  0  0  0  0  0  0
    2.6638    1.1782    0.2840 C   0  0  1  0  0  0  0  0  0  0  0  0
    3.0649    0.6669   -0.5927 H   0  0  0  0  0  0  0  0  0  0  0  0
    1.3415    1.8533   -0.1203 C   0  0  0  0  0  0  0  0  0  0  0  0
    1.5646    2.7020   -0.7679 H   0  0  0  0  0  0  0  0  0  0  0  0
    0.8886    2.2654    0.7811 H   0  0  0  0  0  0  0  0  0  0  0  0
    0.0752    0.8286   -0.9263 S   0  0  0  0  0  0  0  0  0  0  0  0
    3.7143    2.2029    0.7517 C   0  0  0  0  0  0  0  0  0  0  0  0
    3.8586    3.2682    0.1522 O   0  0  0  0  0  0  0  0  0  0  0  0
    4.4436    1.8824    1.8288 N   0  0  0  0  0  0  0  0  0  0  0  0
    4.2715    0.9949    2.2731 H   0  0  0  0  0  0  0  0  0  0  0  0
    5.4792    2.7455    2.3932 C   0  0  0  0  0  0  0  0  0  0  0  0
    6.2739    2.8937    1.6589 H   0  0  0  0  0  0  0  0  0  0  0  0
    5.0533    3.7190    2.6427 H   0  0  0  0  0  0  0  0  0  0  0  0
    5.8995    2.2948    3.2932 H   0  0  0  0  0  0  0  0  0  0  0  0
    1.5980    4.5624   -7.9663 H   0  0  0  0  0  0  0  0  0  0  0  0
    1.0637    4.7084   -7.0288 C   0  0  0  0  0  0  0  0  0  0  0  0
    0.1185    5.2143   -7.2196 H   0  0  0  0  0  0  0  0  0  0  0  0
    1.6715    5.3046   -6.3508 H   0  0  0  0  0  0  0  0  0  0  0  0
    0.7927    3.3600   -6.4036 C   0  0  0  0  0  0  0  0  0  0  0  0
    1.1752    2.3359   -6.9531 O   0  0  0  0  0  0  0  0  0  0  0  0
    0.1373    3.3635   -5.2460 N   0  0  0  0  0  0  0  0  0  0  0  0
   -0.1573    4.2468   -4.8555 H   0  0  0  0  0  0  0  0  0  0  0  0
   -0.2118    2.1628   -4.4866 C   0  0  1  0  0  0  0  0  0  0  0  0
   -0.4771    1.3658   -5.1834 H   0  0  0  0  0  0  0  0  0  0  0  0
    1.0291    1.7213   -3.6980 C   0  0  0  0  0  0  0  0  0  0  0  0
    1.8313    1.5495   -4.4172 H   0  0  0  0  0  0  0  0  0  0  0  0
    1.3464    2.5403   -3.0522 H   0  0  0  0  0  0  0  0  0  0  0  0
    0.8902    0.2171   -2.6954 S   0  0  0  0  0  0  0  0  0  0  0  0
   -1.4266    2.4326   -3.5811 C   0  0  0  0  0  0  0  0  0  0  0  0
   -1.6160    3.5619   -3.1270 O   0  0  0  0  0  0  0  0  0  0  0  0
   -2.2474    1.4051   -3.3281 N   0  0  0  0  0  0  0  0  0  0  0  0
   -2.0046    0.5047   -3.7099 H   0  0  0  0  0  0  0  0  0  0  0  0
   -3.4375    1.4917   -2.4827 C   0  0  0  0  0  0  0  0  0  0  0  0
   -3.1406    1.5467   -1.4340 H   0  0  0  0  0  0  0  0  0  0  0  0
   -4.0076    2.3901   -2.7310 H   0  0  0  0  0  0  0  0  0  0  0  0
   -4.0699    0.6163   -2.6315 H   0  0  0  0  0  0  0  0  0  0  0  0
  5  6  2  0  0  0  0
  5  7  1  0  0  0  0
  2  3  1  0  0  0  0
  2  4  1  0  0  0  0
  2  5  1  0  0  0  0
  1  2  1  0  0  0  0
 15 16  2  0  0  0  0
 15 17  1  0  0  0  0
 14 36  1  0  0  0  0
 11 12  1  0  0  0  0
 11 13  1  0  0  0  0
 11 14  1  0  0  0  0
  9 10  1  0  0  0  0
  9 11  1  0  0  0  0
  9 15  1  0  0  0  0
  7  8  1  0  0  0  0
  7  9  1  0  0  0  0
 19 20  1  0  0  0  0
 19 21  1  0  0  0  0
 19 22  1  0  0  0  0
 17 18  1  0  0  0  0
 17 19  1  0  0  0  0
 27 28  2  0  0  0  0
 27 29  1  0  0  0  0
 24 25  1  0  0  0  0
 24 26  1  0  0  0  0
 24 27  1  0  0  0  0
 23 24  1  0  0  0  0
 37 38  2  0  0  0  0
 37 39  1  0  0  0  0
 33 34  1  0  0  0  0
 33 35  1  0  0  0  0
 33 36  1  0  0  0  0
 31 32  1  0  0  0  0
 31 33  1  0  0  0  0
 31 37  1  0  0  0  0
 29 30  1  0  0  0  0
 29 31  1  0  0  0  0
 41 42  1  0  0  0  0
 41 43  1  0  0  0  0
 41 44  1  0  0  0  0
 39 40  1  0  0  0  0
 39 41  1  0  0  0  0
M  END
$$$$
default_name
  -OEChem-01062215323D

 44 43  0     1  0  0  0  0  0999 V2000
    2.4488   -3.0448    2.0990 H   0  0  0  0  0  0  0  0  0  0  0  0
    2.2788   -2.0018    2.3640 C   0  0  0  0  0  0  0  0  0  0  0  0
    2.9228   -1.7258    3.1960 H   0  0  0  0  0  0  0  0  0  0  0  0
    1.2358   -1.8618    2.6430 H   0  0  0  0  0  0  0  0  0  0  0  0
    2.6018   -1.1318    1.1730 C   0  0  0  0  0  0  0  0  0  0  0  0
    3.0048   -1.6348    0.1320 O   0  0  0  0  0  0  0  0  0  0  0  0
    2.4088    0.1752    1.3190 N   0  0  0  0  0  0  0  0  0  0  0  0
    2.0708    0.5242    2.2050 H   0  0  0  0  0  0  0  0  0  0  0  0
    2.6638    1.1782    0.2840 C   0  0  1  0  0  0  0  0  0  0  0  0
    3.0649    0.6669   -0.5927 H   0  0  0  0  0  0  0  0  0  0  0  0
    1.3415    1.8533   -0.1203 C   0  0  0  0  0  0  0  0  0  0  0  0
    1.5646    2.7020   -0.7679 H   0  0  0  0  0  0  0  0  0  0  0  0
    0.8886    2.2654    0.7811 H   0  0  0  0  0  0  0  0  0  0  0  0
    0.0752    0.8286   -0.9263 S   0  0  0  0  0  0  0  0  0  0  0  0
    3.7143    2.2029    0.7517 C   0  0  0  0  0  0  0  0  0  0  0  0
    3.6813    3.3632    0.3423 O   0  0  0  0  0  0  0  0  0  0  0  0
    4.6436    1.7744    1.6163 N   0  0  0  0  0  0  0  0  0  0  0  0
    4.6103    0.8122    1.9125 H   0  0  0  0  0  0  0  0  0  0  0  0
    5.7070    2.6227    2.1505 C   0  0  0  0  0  0  0  0  0  0  0  0
    6.3462    2.9674    1.3349 H   0  0  0  0  0  0  0  0  0  0  0  0
    5.2721    3.4954    2.6412 H   0  0  0  0  0  0  0  0  0  0  0  0
    6.3094    2.0675    2.8706 H   0  0  0  0  0  0  0  0  0  0  0  0
    1.5980    4.5624   -7.9663 H   0  0  0  0  0  0  0  0  0  0  0  0
    1.0637    4.7084   -7.0288 C   0  0  0  0  0  0  0  0  0  0  0  0
    0.1185    5.2143   -7.2196 H   0  0  0  0  0  0  0  0  0  0  0  0
    1.6715    5.3046   -6.3508 H   0  0  0  0  0  0  0  0  0  0  0  0
    0.7927    3.3600   -6.4036 C   0  0  0  0  0  0  0  0  0  0  0  0
    1.1752    2.3359   -6.9531 O   0  0  0  0  0  0  0  0  0  0  0  0
    0.1373    3.3635   -5.2460 N   0  0  0  0  0  0  0  0  0  0  0  0
   -0.1573    4.2468   -4.8555 H   0  0  0  0  0  0  0  0  0  0  0  0
   -0.2118    2.1628   -4.4866 C   0  0  1  0  0  0  0  0  0  0  0  0
   -0.4771    1.3658   -5.1834 H   0  0  0  0  0  0  0  0  0  0  0  0
    1.0291    1.7213   -3.6980 C   0  0  0  0  0  0  0  0  0  0  0  0
    1.8313    1.5495   -4.4172 H   0  0  0  0  0  0  0  0  0  0  0  0
    1.3464    2.5403   -3.0522 H   0  0  0  0  0  0  0  0  0  0  0  0
    0.8902    0.2171   -2.6954 S   0  0  0  0  0  0  0  0  0  0  0  0
   -1.4266    2.4326   -3.5811 C   0  0  0  0  0  0  0  0  0  0  0  0
   -1.6160    3.5619   -3.1270 O   0  0  0  0  0  0  0  0  0  0  0  0
   -2.2474    1.4051   -3.3281 N   0  0  0  0  0  0  0  0  0  0  0  0
   -2.0046    0.5047   -3.7099 H   0  0  0  0  0  0  0  0  0  0  0  0
   -3.4375    1.4917   -2.4827 C   0  0  0  0  0  0  0  0  0  0  0  0
   -3.1406    1.5467   -1.4340 H   0  0  0  0  0  0  0  0  0  0  0  0
   -4.0076    2.3901   -2.7310 H   0  0  0  0  0  0  0  0  0  0  0  0
   -4.0699    0.6163   -2.6315 H   0  0  0  0  0  0  0  0  0  0  0  0
  5  6  2  0  0  0  0
  5  7  1  0  0  0  0
  2  3  1  0  0  0  0
  2  4  1  0  0  0  0
  2  5  1  0  0  0  0
  1  2  1  0  0  0  0
 15 16  2  0  0  0  0
 15 17  1  0  0  0  0
 14 36  1  0  0  0  0
 11 12  1  0  0  0  0
 11 13  1  0  0  0  0
 11 14  1  0  0  0  0
  9 10  1  0  0  0  0
  9 11  1  0  0  0  0
  9 15  1  0  0  0  0
  7  8  1  0  0  0  0
  7  9  1  0  0  0  0
 19 20  1  0  0  0  0
 19 21  1  0  0  0  0
 19 22  1  0  0  0  0
 17 18  1  0  0  0  0
 17 19  1  0  0  0  0
 27 28  2  0  0  0  0
 27 29  1  0  0  0  0
 24 25  1  0  0  0  0
 24 26  1  0  0  0  0
 24 27  1  0  0  0  0
 23 24  1  0  0  0  0
 37 38  2  0  0  0  0
 37 39  1  0  0  0  0
 33 34  1  0  0  0  0
 33 35  1  0  0  0  0
 33 36  1  0  0  0  0
 31 32  1  0  0  0  0
 31 33  1  0  0  0  0
 31 37  1  0  0  0  0
 29 30  1  0  0  0  0
 29 31  1  0  0  0  0
 41 42  1  0  0  0  0
 41 43  1  0  0  0  0
 41 44  1  0  0  0  0
 39 40  1  0  0  0  0
 39 41  1  0  0  0  0
M  END
$$$$
default_name
  -OEChem-01062215323D

 44 43  0     1  0  0  0  0  0999 V2000
    2.4488   -3.0448    2.0990 H   0  0  0  0  0  0  0  0  0  0  0  0
    2.2788   -2.0018    2.3640 C   0  0  0  0  0  0  0  0  0  0  0  0
    2.9228   -1.7258    3.1960 H   0  0  0  0  0  0  0  0  0  0  0  0
    1.2358   -1.8618    2.6430 H   0  0  0  0  0  0  0  0  0  0  0  0
    2.6018   -1.1318    1.1730 C   0  0  0  0  0  0  0  0  0  0  0  0
    3.0048   -1.6348    0.1320 O   0  0  0  0  0  0  0  0  0  0  0  0
    2.4088    0.1752    1.3190 N   0  0  0  0  0  0  0  0  0  0  0  0
    2.0708    0.5242    2.2050 H   0  0  0  0  0  0  0  0  0  0  0  0
    2.6638    1.1782    0.2840 C   0  0  1  0  0  0  0  0  0  0  0  0
    3.0649    0.6669   -0.5927 H   0  0  0  0  0  0  0  0  0  0  0  0
    1.3415    1.8533   -0.1203 C   0  0  0  0  0  0  0  0  0  0  0  0
    1.5646    2.7020   -0.7679 H   0  0  0  0  0  0  0  0  0  0  0  0
    0.8886    2.2654    0.7811 H   0  0  0  0  0  0  0  0  0  0  0  0
    0.0752    0.8286   -0.9263 S   0  0  0  0  0  0  0  0  0  0  0  0
    3.7143    2.2029    0.7517 C   0  0  0  0  0  0  0  0  0  0  0  0
    3.5352    3.4075    0.5732 O   0  0  0  0  0  0  0  0  0  0  0  0
    4.8087    1.7233    1.3575 N   0  0  0  0  0  0  0  0  0  0  0  0
    4.8898    0.7260    1.4736 H   0  0  0  0  0  0  0  0  0  0  0  0
    5.8949    2.5649    1.8552 C   0  0  0  0  0  0  0  0  0  0  0  0
    6.3545    3.1016    1.0224 H   0  0  0  0  0  0  0  0  0  0  0  0
    5.5008    3.2969    2.5625 H   0  0  0  0  0  0  0  0  0  0  0  0
    6.6505    1.9547    2.3517 H   0  0  0  0  0  0  0  0  0  0  0  0
    1.5980    4.5624   -7.9663 H   0  0  0  0  0  0  0  0  0  0  0  0
    1.0637    4.7084   -7.0288 C   0  0  0  0  0  0  0  0  0  0  0  0
    0.1185    5.2143   -7.2196 H   0  0  0  0  0  0  0  0  0  0  0  0
    1.6715    5.3046   -6.3508 H   0  0  0  0  0  0  0  0  0  0  0  0
    0.7927    3.3600   -6.4036 C   0  0  0  0  0  0  0  0  0  0  0  0
    1.1752    2.3359   -6.9531 O   0  0  0  0  0  0  0  0  0  0  0  0
    0.1373    3.3635   -5.2460 N   0  0  0  0  0  0  0  0  0  0  0  0
   -0.1573    4.2468   -4.8555 H   0  0  0  0  0  0  0  0  0  0  0  0
   -0.2118    2.1628   -4.4866 C   0  0  1  0  0  0  0  0  0  0  0  0
   -0.4771    1.3658   -5.1834 H   0  0  0  0  0  0  0  0  0  0  0  0
    1.0291    1.7213   -3.6980 C   0  0  0  0  0  0  0  0  0  0  0  0
    1.8313    1.5495   -4.4172 H   0  0  0  0  0  0  0  0  0  0  0  0
    1.3464    2.5403   -3.0522 H   0  0  0  0  0  0  0  0  0  0  0  0
    0.8902    0.2171   -2.6954 S   0  0  0  0  0  0  0  0  0  0  0  0
   -1.4266    2.4326   -3.5811 C   0  0  0  0  0  0  0  0  0  0  0  0
   -1.6160    3.5619   -3.1270 O   0  0  0  0  0  0  0  0  0  0  0  0
   -2.2474    1.4051   -3.3281 N   0  0  0  0  0  0  0  0  0  0  0  0
   -2.0046    0.5047   -3.7099 H   0  0  0  0  0  0  0  0  0  0  0  0
   -3.4375    1.4917   -2.4827 C   0  0  0  0  0  0  0  0  0  0  0  0
   -3.1406    1.5467   -1.4340 H   0  0  0  0  0  0  0  0  0  0  0  0
   -4.0076    2.3901   -2.7310 H   0  0  0  0  0  0  0  0  0  0  0  0
   -4.0699    0.6163   -2.6315 H   0  0  0  0  0  0  0  0  0  0  0  0
  5  6  2  0  0  0  0
  5  7  1  0  0  0  0
  2  3  1  0  0  0  0
  2  4  1  0  0  0  0
  2  5  1  0  0  0  0
  1  2  1  0  0  0  0
 15 16  2  0  0  0  0
 15 17  1  0  0  0  0
 14 36  1  0  0  0  0
 11 12  1  0  0  0  0
 11 13  1  0  0  0  0
 11 14  1  0  0  0  0
  9 10  1  0  0  0  0
  9 11  1  0  0  0  0
  9 15  1  0  0  0  0
  7  8  1  0  0  0  0
  7  9  1  0  0  0  0
 19 20  1  0  0  0  0
 19 21  1  0  0  0  0
 19 22  1  0  0  0  0
 17 18  1  0  0  0  0
 17 19  1  0  0  0  0
 27 28  2  0  0  0  0
 27 29  1  0  0  0  0
 24 25  1  0  0  0  0
 24 26  1  0  0  0  0
 24 27  1  0  0  0  0
 23 24  1  0  0  0  0
 37 38  2  0  0  0  0
 37 39  1  0  0  0  0
 33 34  1  0  0  0  0
 33 35  1  0  0  0  0
 33 36  1  0  0  0  0
 31 32  1  0  0  0  0
 31 33  1  0  0  0  0
 31 37  1  0  0  0  0
 29 30  1  0  0  0  0
 29 31  1  0  0  0  0
 41 42  1  0  0  0  0
 41 43  1  0  0  0  0
 41 44  1  0  0  0  0
 39 40  1  0  0  0  0
 39 41  1  0  0  0  0
M  END
$$$$
default_name
  -OEChem-01062215323D

 44 43  0     1  0  0  0  0  0999 V2000
    2.4488   -3.0448    2.0990 H   0  0  0  0  0  0  0  0  0  0  0  0
    2.2788   -2.0018    2.3640 C   0  0  0  0  0  0  0  0  0  0  0  0
    2.9228   -1.7258    3.1960 H   0  0  0  0  0  0  0  0  0  0  0  0
    1.2358   -1.8618    2.6430 H   0  0  0  0  0  0  0  0  0  0  0  0
    2.6018   -1.1318    1.1730 C   0  0  0  0  0  0  0  0  0  0  0  0
    3.0048   -1.6348    0.1320 O   0  0  0  0  0  0  0  0  0  0  0  0
    2.4088    0.1752    1.3190 N   0  0  0  0  0  0  0  0  0  0  0  0
    2.0708    0.5242    2.2050 H   0  0  0  0  0  0  0  0  0  0  0  0
    2.6638    1.1782    0.2840 C   0  0  1  0  0  0  0  0  0  0  0  0
    3.0649    0.6669   -0.5927 H   0  0  0  0  0  0  0  0  0  0  0  0
    1.3415    1.8533   -0.1203 C   0  0  0  0  0  0  0  0  0  0  0  0
    1.5646    2.7020   -0.7679 H   0  0  0  0  0  0  0  0  0  0  0  0
    0.8886    2.2654    0.7811 H   0  0  0  0  0  0  0  0  0  0  0  0
    0.0752    0.8286   -0.9263 S   0  0  0  0  0  0  0  0  0  0  0  0
    3.7143    2.2029    0.7517 C   0  0  0  0  0  0  0  0  0  0  0  0
    3.4304    3.3981    0.8292 O   0  0  0  0  0  0  0  0  0  0  0  0
    4.9277    1.7326    1.0701 N   0  0  0  0  0  0  0  0  0  0  0  0
    5.0911    0.7422    0.9863 H   0  0  0  0  0  0  0  0  0  0  0  0
    6.0301    2.5760    1.5273 C   0  0  0  0  0  0  0  0  0  0  0  0
    6.2982    3.2869    0.7429 H   0  0  0  0  0  0  0  0  0  0  0  0
    5.7238    3.1370    2.4122 H   0  0  0  0  0  0  0  0  0  0  0  0
    6.8994    1.9642    1.7718 H   0  0  0  0  0  0  0  0  0  0  0  0
    1.5980    4.5624   -7.9663 H   0  0  0  0  0  0  0  0  0  0  0  0
    1.0637    4.7084   -7.0288 C   0  0  0  0  0  0  0  0  0  0  0  0
    0.1185    5.2143   -7.2196 H   0  0  0  0  0  0  0  0  0  0  0  0
    1.6715    5.3046   -6.3508 H   0  0  0  0  0  0  0  0  0  0  0  0
    0.7927    3.3600   -6.4036 C   0  0  0  0  0  0  0  0  0  0  0  0
    1.1752    2.3359   -6.9531 O   0  0  0  0  0  0  0  0  0  0  0  0
    0.1373    3.3635   -5.2460 N   0  0  0  0  0  0  0  0  0  0  0  0
   -0.1573    4.2468   -4.8555 H   0  0  0  0  0  0  0  0  0  0  0  0
   -0.2118    2.1628   -4.4866 C   0  0  1  0  0  0  0  0  0  0  0  0
   -0.4771    1.3658   -5.1834 H   0  0  0  0  0  0  0  0  0  0  0  0
    1.0291    1.7213   -3.6980 C   0  0  0  0  0  0  0  0  0  0  0  0
    1.8313    1.5495   -4.4172 H   0  0  0  0  0  0  0  0  0  0  0  0
    1.3464    2.5403   -3.0522 H   0  0  0  0  0  0  0  0  0  0  0  0
    0.8902    0.2171   -2.6954 S   0  0  0  0  0  0  0  0  0  0  0  0
   -1.4266    2.4326   -3.5811 C   0  0  0  0  0  0  0  0  0  0  0  0
   -1.6160    3.5619   -3.1270 O   0  0  0  0  0  0  0  0  0  0  0  0
   -2.2474    1.4051   -3.3281 N   0  0  0  0  0  0  0  0  0  0  0  0
   -2.0046    0.5047   -3.7099 H   0  0  0  0  0  0  0  0  0  0  0  0
   -3.4375    1.4917   -2.4827 C   0  0  0  0  0  0  0  0  0  0  0  0
   -3.1406    1.5467   -1.4340 H   0  0  0  0  0  0  0  0  0  0  0  0
   -4.0076    2.3901   -2.7310 H   0  0  0  0  0  0  0  0  0  0  0  0
   -4.0699    0.6163   -2.6315 H   0  0  0  0  0  0  0  0  0  0  0  0
  5  6  2  0  0  0  0
  5  7  1  0  0  0  0
  2  3  1  0  0  0  0
  2  4  1  0  0  0  0
  2  5  1  0  0  0  0
  1  2  1  0  0  0  0
 15 16  2  0  0  0  0
 15 17  1  0  0  0  0
 14 36  1  0  0  0  0
 11 12  1  0  0  0  0
 11 13  1  0  0  0  0
 11 14  1  0  0  0  0
  9 10  1  0  0  0  0
  9 11  1  0  0  0  0
  9 15  1  0  0  0  0
  7  8  1  0  0  0  0
  7  9  1  0  0  0  0
 19 20  1  0  0  0  0
 19 21  1  0  0  0  0
 19 22  1  0  0  0  0
 17 18  1  0  0  0  0
 17 19  1  0  0  0  0
 27 28  2  0  0  0  0
 27 29  1  0  0  0  0
 24 25  1  0  0  0  0
 24 26  1  0  0  0  0
 24 27  1  0  0  0  0
 23 24  1  0  0  0  0
 37 38  2  0  0  0  0
 37 39  1  0  0  0  0
 33 34  1  0  0  0  0
 33 35  1  0  0  0  0
 33 36  1  0  0  0  0
 31 32  1  0  0  0  0
 31 33  1  0  0  0  0
 31 37  1  0  0  0  0
 29 30  1  0  0  0  0
 29 31  1  0  0  0  0
 41 42  1  0  0  0  0
 41 43  1  0  0  0  0
 41 44  1  0  0  0  0
 39 40  1  0  0  0  0
 39 41  1  0  0  0  0
M  END
$$$$
default_name
  -OEChem-01062215323D

 44 43  0     1  0  0  0  0  0999 V2000
    2.4488   -3.0448    2.0990 H   0  0  0  0  0  0  0  0  0  0  0  0
    2.2788   -2.0018    2.3640 C   0  0  0  0  0  0  0  0  0  0  0  0
    2.9228   -1.7258    3.1960 H   0  0  0  0  0  0  0  0  0  0  0  0
    1.2358   -1.8618    2.6430 H   0  0  0  0  0  0  0  0  0  0  0  0
    2.6018   -1.1318    1.1730 C   0  0  0  0  0  0  0  0  0  0  0  0
    3.0048   -1.6348    0.1320 O   0  0  0  0  0  0  0  0  0  0  0  0
    2.4088    0.1752    1.3190 N   0  0  0  0  0  0  0  0  0  0  0  0
    2.0708    0.5242    2.2050 H   0  0  0  0  0  0  0  0  0  0  0  0
    2.6638    1.1782    0.2840 C   0  0  1  0  0  0  0  0  0  0  0  0
    3.0649    0.6669   -0.5927 H   0  0  0  0  0  0  0  0  0  0  0  0
    1.3415    1.8533   -0.1203 C   0  0  0  0  0  0  0  0  0  0  0  0
    1.5646    2.7020   -0.7679 H   0  0  0  0  0  0  0  0  0  0  0  0
    0.8886    2.2654    0.7811 H   0  0  0  0  0  0  0  0  0  0  0  0
    0.0752    0.8286   -0.9263 S   0  0  0  0  0  0  0  0  0  0  0  0
    3.7143    2.2029    0.7517 C   0  0  0  0  0  0  0  0  0  0  0  0
    3.3740    3.3355    1.0929 O   0  0  0  0  0  0  0  0  0  0  0  0
    4.9923    1.8016    0.7736 N   0  0  0  0  0  0  0  0  0  0  0  0
    5.2003    0.8596    0.4838 H   0  0  0  0  0  0  0  0  0  0  0  0
    6.1034    2.6551    1.1894 C   0  0  0  0  0  0  0  0  0  0  0  0
    6.1811    3.5109    0.5153 H   0  0  0  0  0  0  0  0  0  0  0  0
    5.9258    3.0266    2.2003 H   0  0  0  0  0  0  0  0  0  0  0  0
    7.0393    2.0953    1.1705 H   0  0  0  0  0  0  0  0  0  0  0  0
    1.5980    4.5624   -7.9663 H   0  0  0  0  0  0  0  0  0  0  0  0
    1.0637    4.7084   -7.0288 C   0  0  0  0  0  0  0  0  0  0  0  0
    0.1185    5.2143   -7.2196 H   0  0  0  0  0  0  0  0  0  0  0  0
    1.6715    5.3046   -6.3508 H   0  0  0  0  0  0  0  0  0  0  0  0
    0.7927    3.3600   -6.4036 C   0  0  0  0  0  0  0  0  0  0  0  0
    1.1752    2.3359   -6.9531 O   0  0  0  0  0  0  0  0  0  0  0  0
    0.1373    3.3635   -5.2460 N   0  0  0  0  0  0  0  0  0  0  0  0
   -0.1573    4.2468   -4.8555 H   0  0  0  0  0  0  0  0  0  0  0  0
   -0.2118    2.1628   -4.4866 C   0  0  1  0  0  0  0  0  0  0  0  0
   -0.4771    1.3658   -5.1834 H   0  0  0  0  0  0  0  0  0  0  0  0
    1.0291    1.7213   -3.6980 C   0  0  0  0  0  0  0  0  0  0  0  0
    1.8313    1.5495   -4.4172 H   0  0  0  0  0  0  0  0  0  0  0  0
    1.3464    2.5403   -3.0522 H   0  0  0  0  0  0  0  0  0  0  0  0
    0.8902    0.2171   -2.6954 S   0  0  0  0  0  0  0  0  0  0  0  0
   -1.4266    2.4326   -3.5811 C   0  0  0  0  0  0  0  0  0  0  0  0
   -1.6160    3.5619   -3.1270 O   0  0  0  0  0  0  0  0  0  0  0  0
   -2.2474    1.4051   -3.3281 N   0  0  0  0  0  0  0  0  0  0  0  0
   -2.0046    0.5047   -3.7099 H   0  0  0  0  0  0  0  0  0  0  0  0
   -3.4375    1.4917   -2.4827 C   0  0  0  0  0  0  0  0  0  0  0  0
   -3.1406    1.5467   -1.4340 H   0  0  0  0  0  0  0  0  0  0  0  0
   -4.0076    2.3901   -2.7310 H   0  0  0  0  0  0  0  0  0  0  0  0
   -4.0699    0.6163   -2.6315 H   0  0  0  0  0  0  0  0  0  0  0  0
  5  6  2  0  0  0  0
  5  7  1  0  0  0  0
  2  3  1  0  0  0  0
  2  4  1  0  0  0  0
  2  5  1  0  0  0  0
  1  2  1  0  0  0  0
 15 16  2  0  0  0  0
 15 17  1  0  0  0  0
 14 36  1  0  0  0  0
 11 12  1  0  0  0  0
 11 13  1  0  0  0  0
 11 14  1  0  0  0  0
  9 10  1  0  0  0  0
  9 11  1  0  0  0  0
  9 15  1  0  0  0  0
  7  8  1  0  0  0  0
  7  9  1  0  0  0  0
 19 20  1  0  0  0  0
 19 21  1  0  0  0  0
 19 22  1  0  0  0  0
 17 18  1  0  0  0  0
 17 19  1  0  0  0  0
 27 28  2  0  0  0  0
 27 29  1  0  0  0  0
 24 25  1  0  0  0  0
 24 26  1  0  0  0  0
 24 27  1  0  0  0  0
 23 24  1  0  0  0  0
 37 38  2  0  0  0  0
 37 39  1  0  0  0  0
 33 34  1  0  0  0  0
 33 35  1  0  0  0  0
 33 36  1  0  0  0  0
 31 32  1  0  0  0  0
 31 33  1  0  0  0  0
 31 37  1  0  0  0  0
 29 30  1  0  0  0  0
 29 31  1  0  0  0  0
 41 42  1  0  0  0  0
 41 43  1  0  0  0  0
 41 44  1  0  0  0  0
 39 40  1  0  0  0  0
 39 41  1  0  0  0  0
M  END
$$$$
default_name
  -OEChem-01062215323D

 44 43  0     1  0  0  0  0  0999 V2000
    2.4488   -3.0448    2.0990 H   0  0  0  0  0  0  0  0  0  0  0  0
    2.2788   -2.0018    2.3640 C   0  0  0  0  0  0  0  0  0  0  0  0
    2.9228   -1.7258    3.1960 H   0  0  0  0  0  0  0  0  0  0  0  0
    1.2358   -1.8618    2.6430 H   0  0  0  0  0  0  0  0  0  0  0  0
    2.6018   -1.1318    1.1730 C   0  0  0  0  0  0  0  0  0  0  0  0
    3.0048   -1.6348    0.1320 O   0  0  0  0  0  0  0  0  0  0  0  0
    2.4088    0.1752    1.3190 N   0  0  0  0  0  0  0  0  0  0  0  0
    2.0708    0.5242    2.2050 H   0  0  0  0  0  0  0  0  0  0  0  0
    2.6638    1.1782    0.2840 C   0  0  1  0  0  0  0  0  0  0  0  0
    3.0649    0.6669   -0.5927 H   0  0  0  0  0  0  0  0  0  0  0  0
    1.3415    1.8533   -0.1203 C   0  0  0  0  0  0  0  0  0  0  0  0
    1.5646    2.7020   -0.7679 H   0  0  0  0  0  0  0  0  0  0  0  0
    0.8886    2.2654    0.7811 H   0  0  0  0  0  0  0  0  0  0  0  0
    0.0752    0.8286   -0.9263 S   0  0  0  0  0  0  0  0  0  0  0  0
    3.7143    2.2029    0.7517 C   0  0  0  0  0  0  0  0  0  0  0  0
    3.3698    3.2241    1.3463 O   0  0  0  0  0  0  0  0  0  0  0  0
    4.9983    1.9258    0.4883 N   0  0  0  0  0  0  0  0  0  0  0  0
    5.2100    1.0704    0.0003 H   0  0  0  0  0  0  0  0  0  0  0  0
    6.1097    2.7970    0.8643 C   0  0  0  0  0  0  0  0  0  0  0  0
    6.0111    3.7582    0.3552 H   0  0  0  0  0  0  0  0  0  0  0  0
    6.0931    2.9732    1.9414 H   0  0  0  0  0  0  0  0  0  0  0  0
    7.0606    2.3390    0.5888 H   0  0  0  0  0  0  0  0  0  0  0  0
    1.5980    4.5624   -7.9663 H   0  0  0  0  0  0  0  0  0  0  0  0
    1.0637    4.7084   -7.0288 C   0  0  0  0  0  0  0  0  0  0  0  0
    0.1185    5.2143   -7.2196 H   0  0  0  0  0  0  0  0  0  0  0  0
    1.6715    5.3046   -6.3508 H   0  0  0  0  0  0  0  0  0  0  0  0
    0.7927    3.3600   -6.4036 C   0  0  0  0  0  0  0  0  0  0  0  0
    1.1752    2.3359   -6.9531 O   0  0  0  0  0  0  0  0  0  0  0  0
    0.1373    3.3635   -5.2460 N   0  0  0  0  0  0  0  0  0  0  0  0
   -0.1573    4.2468   -4.8555 H   0  0  0  0  0  0  0  0  0  0  0  0
   -0.2118    2.1628   -4.4866 C   0  0  1  0  0  0  0  0  0  0  0  0
   -0.4771    1.3658   -5.1834 H   0  0  0  0  0  0  0  0  0  0  0  0
    1.0291    1.7213   -3.6980 C   0  0  0  0  0  0  0  0  0  0  0  0
    1.8313    1.5495   -4.4172 H   0  0  0  0  0  0  0  0  0  0  0  0
    1.3464    2.5403   -3.0522 H   0  0  0  0  0  0  0  0  0  0  0  0
    0.8902    0.2171   -2.6954 S   0  0  0  0  0  0  0  0  0  0  0  0
   -1.4266    2.4326   -3.5811 C   0  0  0  0  0  0  0  0  0  0  0  0
   -1.6160    3.5619   -3.1270 O   0  0  0  0  0  0  0  0  0  0  0  0
   -2.2474    1.4051   -3.3281 N   0  0  0  0  0  0  0  0  0  0  0  0
   -2.0046    0.5047   -3.7099 H   0  0  0  0  0  0  0  0  0  0  0  0
   -3.4375    1.4917   -2.4827 C   0  0  0  0  0  0  0  0  0  0  0  0
   -3.1406    1.5467   -1.4340 H   0  0  0  0  0  0  0  0  0  0  0  0
   -4.0076    2.3901   -2.7310 H   0  0  0  0  0  0  0  0  0  0  0  0
   -4.0699    0.6163   -2.6315 H   0  0  0  0  0  0  0  0  0  0  0  0
  5  6  2  0  0  0  0
  5  7  1  0  0  0  0
  2  3  1  0  0  0  0
  2  4  1  0  0  0  0
  2  5  1  0  0  0  0
  1  2  1  0  0  0  0
 15 16  2  0  0  0  0
 15 17  1  0  0  0  0
 14 36  1  0  0  0  0
 11 12  1  0  0  0  0
 11 13  1  0  0  0  0
 11 14  1  0  0  0  0
  9 10  1  0  0  0  0
  9 11  1  0  0  0  0
  9 15  1  0  0  0  0
  7  8  1  0  0  0  0
  7  9  1  0  0  0  0
 19 20  1  0  0  0  0
 19 21  1  0  0  0  0
 19 22  1  0  0  0  0
 17 18  1  0  0  0  0
 17 19  1  0  0  0  0
 27 28  2  0  0  0  0
 27 29  1  0  0  0  0
 24 25  1  0  0  0  0
 24 26  1  0  0  0  0
 24 27  1  0  0  0  0
 23 24  1  0  0  0  0
 37 38  2  0  0  0  0
 37 39  1  0  0  0  0
 33 34  1  0  0  0  0
 33 35  1  0  0  0  0
 33 36  1  0  0  0  0
 31 32  1  0  0  0  0
 31 33  1  0  0  0  0
 31 37  1  0  0  0  0
 29 30  1  0  0  0  0
 29 31  1  0  0  0  0
 41 42  1  0  0  0  0
 41 43  1  0  0  0  0
 41 44  1  0  0  0  0
 39 40  1  0  0  0  0
 39 41  1  0  0  0  0
M  END
$$$$
default_name
  -OEChem-01062215323D

 44 43  0     1  0  0  0  0  0999 V2000
    2.4488   -3.0448    2.0990 H   0  0  0  0  0  0  0  0  0  0  0  0
    2.2788   -2.0018    2.3640 C   0  0  0  0  0  0  0  0  0  0  0  0
    2.9228   -1.7258    3.1960 H   0  0  0  0  0  0  0  0  0  0  0  0
    1.2358   -1.8618    2.6430 H   0  0  0  0  0  0  0  0  0  0  0  0
    2.6018   -1.1318    1.1730 C   0  0  0  0  0  0  0  0  0  0  0  0
    3.0048   -1.6348    0.1320 O   0  0  0  0  0  0  0  0  0  0  0  0
    2.4088    0.1752    1.3190 N   0  0  0  0  0  0  0  0  0  0  0  0
    2.0708    0.5242    2.2050 H   0  0  0  0  0  0  0  0  0  0  0  0
    2.6638    1.1782    0.2840 C   0  0  1  0  0  0  0  0  0  0  0  0
    3.0649    0.6669   -0.5927 H   0  0  0  0  0  0  0  0  0  0  0  0
    1.3415    1.8533   -0.1203 C   0  0  0  0  0  0  0  0  0  0  0  0
    1.5646    2.7020   -0.7679 H   0  0  0  0  0  0  0  0  0  0  0  0
    0.8886    2.2654    0.7811 H   0  0  0  0  0  0  0  0  0  0  0  0
    0.0752    0.8286   -0.9263 S   0  0  0  0  0  0  0  0  0  0  0  0
    3.7143    2.2029    0.7517 C   0  0  0  0  0  0  0  0  0  0  0  0
    3.4182    3.0715    1.5721 O   0  0  0  0  0  0  0  0  0  0  0  0
    4.9452    2.0965    0.2336 N   0  0  0  0  0  0  0  0  0  0  0  0
    5.1195    1.3600   -0.4311 H   0  0  0  0  0  0  0  0  0  0  0  0
    6.0487    2.9920    0.5742 C   0  0  0  0  0  0  0  0  0  0  0  0
    5.8000    4.0120    0.2734 H   0  0  0  0  0  0  0  0  0  0  0  0
    6.2144    2.9805    1.6530 H   0  0  0  0  0  0  0  0  0  0  0  0
    6.9618    2.6789    0.0662 H   0  0  0  0  0  0  0  0  0  0  0  0
    1.5980    4.5624   -7.9663 H   0  0  0  0  0  0  0  0  0  0  0  0
    1.0637    4.7084   -7.0288 C   0  0  0  0  0  0  0  0  0  0  0  0
    0.1185    5.2143   -7.2196 H   0  0  0  0  0  0  0  0  0  0  0  0
    1.6715    5.3046   -6.3508 H   0  0  0  0  0  0  0  0  0  0  0  0
    0.7927    3.3600   -6.4036 C   0  0  0  0  0  0  0  0  0  0  0  0
    1.1752    2.3359   -6.9531 O   0  0  0  0  0  0  0  0  0  0  0  0
    0.1373    3.3635   -5.2460 N   0  0  0  0  0  0  0  0  0  0  0  0
   -0.1573    4.2468   -4.8555 H   0  0  0  0  0  0  0  0  0  0  0  0
   -0.2118    2.1628   -4.4866 C   0  0  1  0  0  0  0  0  0  0  0  0
   -0.4771    1.3658   -5.1834 H   0  0  0  0  0  0  0  0  0  0  0  0
    1.0291    1.7213   -3.6980 C   0  0  0  0  0  0  0  0  0  0  0  0
    1.8313    1.5495   -4.4172 H   0  0  0  0  0  0  0  0  0  0  0  0
    1.3464    2.5403   -3.0522 H   0  0  0  0  0  0  0  0  0  0  0  0
    0.8902    0.2171   -2.6954 S   0  0  0  0  0  0  0  0  0  0  0  0
   -1.4266    2.4326   -3.5811 C   0  0  0  0  0  0  0  0  0  0  0  0
   -1.6160    3.5619   -3.1270 O   0  0  0  0  0  0  0  0  0  0  0  0
   -2.2474    1.4051   -3.3281 N   0  0  0  0  0  0  0  0  0  0  0  0
   -2.0046    0.5047   -3.7099 H   0  0  0  0  0  0  0  0  0  0  0  0
   -3.4375    1.4917   -2.4827 C   0  0  0  0  0  0  0  0  0  0  0  0
   -3.1406    1.5467   -1.4340 H   0  0  0  0  0  0  0  0  0  0  0  0
   -4.0076    2.3901   -2.7310 H   0  0  0  0  0  0  0  0  0  0  0  0
   -4.0699    0.6163   -2.6315 H   0  0  0  0  0  0  0  0  0  0  0  0
  5  6  2  0  0  0  0
  5  7  1  0  0  0  0
  2  3  1  0  0  0  0
  2  4  1  0  0  0  0
  2  5  1  0  0  0  0
  1  2  1  0  0  0  0
 15 16  2  0  0  0  0
 15 17  1  0  0  0  0
 14 36  1  0  0  0  0
 11 12  1  0  0  0  0
 11 13  1  0  0  0  0
 11 14  1  0  0  0  0
  9 10  1  0  0  0  0
  9 11  1  0  0  0  0
  9 15  1  0  0  0  0
  7  8  1  0  0  0  0
  7  9  1  0  0  0  0
 19 20  1  0  0  0  0
 19 21  1  0  0  0  0
 19 22  1  0  0  0  0
 17 18  1  0  0  0  0
 17 19  1  0  0  0  0
 27 28  2  0  0  0  0
 27 29  1  0  0  0  0
 24 25  1  0  0  0  0
 24 26  1  0  0  0  0
 24 27  1  0  0  0  0
 23 24  1  0  0  0  0
 37 38  2  0  0  0  0
 37 39  1  0  0  0  0
 33 34  1  0  0  0  0
 33 35  1  0  0  0  0
 33 36  1  0  0  0  0
 31 32  1  0  0  0  0
 31 33  1  0  0  0  0
 31 37  1  0  0  0  0
 29 30  1  0  0  0  0
 29 31  1  0  0  0  0
 41 42  1  0  0  0  0
 41 43  1  0  0  0  0
 41 44  1  0  0  0  0
 39 40  1  0  0  0  0
 39 41  1  0  0  0  0
M  END
$$$$
default_name
  -OEChem-01062215323D

 44 43  0     1  0  0  0  0  0999 V2000
    2.4488   -3.0448    2.0990 H   0  0  0  0  0  0  0  0  0  0  0  0
    2.2788   -2.0018    2.3640 C   0  0  0  0  0  0  0  0  0  0  0  0
    2.9228   -1.7258    3.1960 H   0  0  0  0  0  0  0  0  0  0  0  0
    1.2358   -1.8618    2.6430 H   0  0  0  0  0  0  0  0  0  0  0  0
    2.6018   -1.1318    1.1730 C   0  0  0  0  0  0  0  0  0  0  0  0
    3.0048   -1.6348    0.1320 O   0  0  0  0  0  0  0  0  0  0  0  0
    2.4088    0.1752    1.3190 N   0  0  0  0  0  0  0  0  0  0  0  0
    2.0708    0.5242    2.2050 H   0  0  0  0  0  0  0  0  0  0  0  0
    2.6638    1.1782    0.2840 C   0  0  1  0  0  0  0  0  0  0  0  0
    3.0649    0.6669   -0.5927 H   0  0  0  0  0  0  0  0  0  0  0  0
    1.3415    1.8533   -0.1203 C   0  0  0  0  0  0  0  0  0  0  0  0
    1.5646    2.7020   -0.7679 H   0  0  0  0  0  0  0  0  0  0  0  0
    0.8886    2.2654    0.7811 H   0  0  0  0  0  0  0  0  0  0  0  0
    0.0752    0.8286   -0.9263 S   0  0  0  0  0  0  0  0  0  0  0  0
    3.7143    2.2029    0.7517 C   0  0  0  0  0  0  0  0  0  0  0  0
    3.5158    2.8880    1.7549 O   0  0  0  0  0  0  0  0  0  0  0  0
    4.8366    2.3022    0.0269 N   0  0  0  0  0  0  0  0  0  0  0  0
    4.9351    1.7089   -0.7812 H   0  0  0  0  0  0  0  0  0  0  0  0
    5.9245    3.2267    0.3389 C   0  0  0  0  0  0  0  0  0  0  0  0
    5.5620    4.2549    0.2756 H   0  0  0  0  0  0  0  0  0  0  0  0
    6.2813    3.0480    1.3549 H   0  0  0  0  0  0  0  0  0  0  0  0
    6.7497    3.0916   -0.3615 H   0  0  0  0  0  0  0  0  0  0  0  0
    1.5980    4.5624   -7.9663 H   0  0  0  0  0  0  0  0  0  0  0  0
    1.0637    4.7084   -7.0288 C   0  0  0  0  0  0  0  0  0  0  0  0
    0.1185    5.2143   -7.2196 H   0  0  0  0  0  0  0  0  0  0  0  0
    1.6715    5.3046   -6.3508 H   0  0  0  0  0  0  0  0  0  0  0  0
    0.7927    3.3600   -6.4036 C   0  0  0  0  0  0  0  0  0  0  0  0
    1.1752    2.3359   -6.9531 O   0  0  0  0  0  0  0  0  0  0  0  0
    0.1373    3.3635   -5.2460 N   0  0  0  0  0  0  0  0  0  0  0  0
   -0.1573    4.2468   -4.8555 H   0  0  0  0  0  0  0  0  0  0  0  0
   -0.2118    2.1628   -4.4866 C   0  0  1  0  0  0  0  0  0  0  0  0
   -0.4771    1.3658   -5.1834 H   0  0  0  0  0  0  0  0  0  0  0  0
    1.0291    1.7213   -3.6980 C   0  0  0  0  0  0  0  0  0  0  0  0
    1.8313    1.5495   -4.4172 H   0  0  0  0  0  0  0  0  0  0  0  0
    1.3464    2.5403   -3.0522 H   0  0  0  0  0  0  0  0  0  0  0  0
    0.8902    0.2171   -2.6954 S   0  0  0  0  0  0  0  0  0  0  0  0
   -1.4266    2.4326   -3.5811 C   0  0  0  0  0  0  0  0  0  0  0  0
   -1.6160    3.5619   -3.1270 O   0  0  0  0  0  0  0  0  0  0  0  0
   -2.2474    1.4051   -3.3281 N   0  0  0  0  0  0  0  0  0  0  0  0
   -2.0046    0.5047   -3.7099 H   0  0  0  0  0  0  0  0  0  0  0  0
   -3.4375    1.4917   -2.4827 C   0  0  0  0  0  0  0  0  0  0  0  0
   -3.1406    1.5467   -1.4340 H   0  0  0  0  0  0  0  0  0  0  0  0
   -4.0076    2.3901   -2.7310 H   0  0  0  0  0  0  0  0  0  0  0  0
   -4.0699    0.6163   -2.6315 H   0  0  0  0  0  0  0  0  0  0  0  0
  5  6  2  0  0  0  0
  5  7  1  0  0  0  0
  2  3  1  0  0  0  0
  2  4  1  0  0  0  0
  2  5  1  0  0  0  0
  1  2  1  0  0  0  0
 15 16  2  0  0  0  0
 15 17  1  0  0  0  0
 14 36  1  0  0  0  0
 11 12  1  0  0  0  0
 11 13  1  0  0  0  0
 11 14  1  0  0  0  0
  9 10  1  0  0  0  0
  9 11  1  0  0  0  0
  9 15  1  0  0  0  0
  7  8  1  0  0  0  0
  7  9  1  0  0  0  0
 19 20  1  0  0  0  0
 19 21  1  0  0  0  0
 19 22  1  0  0  0  0
 17 18  1  0  0  0  0
 17 19  1  0  0  0  0
 27 28  2  0  0  0  0
 27 29  1  0  0  0  0
 24 25  1  0  0  0  0
 24 26  1  0  0  0  0
 24 27  1  0  0  0  0
 23 24  1  0  0  0  0
 37 38  2  0  0  0  0
 37 39  1  0  0  0  0
 33 34  1  0  0  0  0
 33 35  1  0  0  0  0
 33 36  1  0  0  0  0
 31 32  1  0  0  0  0
 31 33  1  0  0  0  0
 31 37  1  0  0  0  0
 29 30  1  0  0  0  0
 29 31  1  0  0  0  0
 41 42  1  0  0  0  0
 41 43  1  0  0  0  0
 41 44  1  0  0  0  0
 39 40  1  0  0  0  0
 39 41  1  0  0  0  0
M  END
$$$$
default_name
  -OEChem-01062215323D

 44 43  0     1  0  0  0  0  0999 V2000
    2.4488   -3.0448    2.0990 H   0  0  0  0  0  0  0  0  0  0  0  0
    2.2788   -2.0018    2.3640 C   0  0  0  0  0  0  0  0  0  0  0  0
    2.9228   -1.7258    3.1960 H   0  0  0  0  0  0  0  0  0  0  0  0
    1.2358   -1.8618    2.6430 H   0  0  0  0  0  0  0  0  0  0  0  0
    2.6018   -1.1318    1.1730 C   0  0  0  0  0  0  0  0  0  0  0  0
    3.0048   -1.6348    0.1320 O   0  0  0  0  0  0  0  0  0  0  0  0
    2.4088    0.1752    1.3190 N   0  0  0  0  0  0  0  0  0  0  0  0
    2.0708    0.5242    2.2050 H   0  0  0  0  0  0  0  0  0  0  0  0
    2.6638    1.1782    0.2840 C   0  0  1  0  0  0  0  0  0  0  0  0
    3.0649    0.6669   -0.5927 H   0  0  0  0  0  0  0  0  0  0  0  0
    1.3415    1.8533   -0.1203 C   0  0  0  0  0  0  0  0  0  0  0  0
    1.5646    2.7020   -0.7679 H   0  0  0  0  0  0  0  0  0  0  0  0
    0.8886    2.2654    0.7811 H   0  0  0  0  0  0  0  0  0  0  0  0
    0.0752    0.8286   -0.9263 S   0  0  0  0  0  0  0  0  0  0  0  0
    3.7143    2.2029    0.7517 C   0  0  0  0  0  0  0  0  0  0  0  0
    3.6560    2.6861    1.8823 O   0  0  0  0  0  0  0  0  0  0  0  0
    4.6799    2.5288   -0.1178 N   0  0  0  0  0  0  0  0  0  0  0  0
    4.6693    2.0931   -1.0260 H   0  0  0  0  0  0  0  0  0  0  0  0
    5.7456    3.4852    0.1745 C   0  0  0  0  0  0  0  0  0  0  0  0
    5.3134    4.4705    0.3616 H   0  0  0  0  0  0  0  0  0  0  0  0
    6.2892    3.1711    1.0674 H   0  0  0  0  0  0  0  0  0  0  0  0
    6.4387    3.5491   -0.6653 H   0  0  0  0  0  0  0  0  0  0  0  0
    1.5980    4.5624   -7.9663 H   0  0  0  0  0  0  0  0  0  0  0  0
    1.0637    4.7084   -7.0288 C   0  0  0  0  0  0  0  0  0  0  0  0
    0.1185    5.2143   -7.2196 H   0  0  0  0  0  0  0  0  0  0  0  0
    1.6715    5.3046   -6.3508 H   0  0  0  0  0  0  0  0  0  0  0  0
    0.7927    3.3600   -6.4036 C   0  0  0  0  0  0  0  0  0  0  0  0
    1.1752    2.3359   -6.9531 O   0  0  0  0  0  0  0  0  0  0  0  0
    0.1373    3.3635   -5.2460 N   0  0  0  0  0  0  0  0  0  0  0  0
   -0.1573    4.2468   -4.8555 H   0  0  0  0  0  0  0  0  0  0  0  0
   -0.2118    2.1628   -4.4866 C   0  0  1  0  0  0  0  0  0  0  0  0
   -0.4771    1.3658   -5.1834 H   0  0  0  0  0  0  0  0  0  0  0  0
    1.0291    1.7213   -3.6980 C   0  0  0  0  0  0  0  0  0  0  0  0
    1.8313    1.5495   -4.4172 H   0  0  0  0  0  0  0  0  0  0  0  0
    1.3464    2.5403   -3.0522 H   0  0  0  0  0  0  0  0  0  0  0  0
    0.8902    0.2171   -2.6954 S   0  0  0  0  0  0  0  0  0  0  0  0
   -1.4266    2.4326   -3.5811 C   0  0  0  0  0  0  0  0  0  0  0  0
   -1.6160    3.5619   -3.1270 O   0  0  0  0  0  0  0  0  0  0  0  0
   -2.2474    1.4051   -3.3281 N   0  0  0  0  0  0  0  0  0  0  0  0
   -2.0046    0.5047   -3.7099 H   0  0  0  0  0  0  0  0  0  0  0  0
   -3.4375    1.4917   -2.4827 C   0  0  0  0  0  0  0  0  0  0  0  0
   -3.1406    1.5467   -1.4340 H   0  0  0  0  0  0  0  0  0  0  0  0
   -4.0076    2.3901   -2.7310 H   0  0  0  0  0  0  0  0  0  0  0  0
   -4.0699    0.6163   -2.6315 H   0  0  0  0  0  0  0  0  0  0  0  0
  5  6  2  0  0  0  0
  5  7  1  0  0  0  0
  2  3  1  0  0  0  0
  2  4  1  0  0  0  0
  2  5  1  0  0  0  0
  1  2  1  0  0  0  0
 15 16  2  0  0  0  0
 15 17  1  0  0  0  0
 14 36  1  0  0  0  0
 11 12  1  0  0  0  0
 11 13  1  0  0  0  0
 11 14  1  0  0  0  0
  9 10  1  0  0  0  0
  9 11  1  0  0  0  0
  9 15  1  0  0  0  0
  7  8  1  0  0  0  0
  7  9  1  0  0  0  0
 19 20  1  0  0  0  0
 19 21  1  0  0  0  0
 19 22  1  0  0  0  0
 17 18  1  0  0  0  0
 17 19  1  0  0  0  0
 27 28  2  0  0  0  0
 27 29  1  0  0  0  0
 24 25  1  0  0  0  0
 24 26  1  0  0  0  0
 24 27  1  0  0  0  0
 23 24  1  0  0  0  0
 37 38  2  0  0  0  0
 37 39  1  0  0  0  0
 33 34  1  0  0  0  0
 33 35  1  0  0  0  0
 33 36  1  0  0  0  0
 31 32  1  0  0  0  0
 31 33  1  0  0  0  0
 31 37  1  0  0  0  0
 29 30  1  0  0  0  0
 29 31  1  0  0  0  0
 41 42  1  0  0  0  0
 41 43  1  0  0  0  0
 41 44  1  0  0  0  0
 39 40  1  0  0  0  0
 39 41  1  0  0  0  0
M  END
$$$$
default_name
  -OEChem-01062215323D

 44 43  0     1  0  0  0  0  0999 V2000
    2.4488   -3.0448    2.0990 H   0  0  0  0  0  0  0  0  0  0  0  0
    2.2788   -2.0018    2.3640 C   0  0  0  0  0  0  0  0  0  0  0  0
    2.9228   -1.7258    3.1960 H   0  0  0  0  0  0  0  0  0  0  0  0
    1.2358   -1.8618    2.6430 H   0  0  0  0  0  0  0  0  0  0  0  0
    2.6018   -1.1318    1.1730 C   0  0  0  0  0  0  0  0  0  0  0  0
    3.0048   -1.6348    0.1320 O   0  0  0  0  0  0  0  0  0  0  0  0
    2.4088    0.1752    1.3190 N   0  0  0  0  0  0  0  0  0  0  0  0
    2.0708    0.5242    2.2050 H   0  0  0  0  0  0  0  0  0  0  0  0
    2.6638    1.1782    0.2840 C   0  0  1  0  0  0  0  0  0  0  0  0
    3.0649    0.6669   -0.5927 H   0  0  0  0  0  0  0  0  0  0  0  0
    1.3415    1.8533   -0.1203 C   0  0  0  0  0  0  0  0  0  0  0  0
    1.5646    2.7020   -0.7679 H   0  0  0  0  0  0  0  0  0  0  0  0
    0.8886    2.2654    0.7811 H   0  0  0  0  0  0  0  0  0  0  0  0
    0.0752    0.8286   -0.9263 S   0  0  0  0  0  0  0  0  0  0  0  0
    3.7143    2.2029    0.7517 C   0  0  0  0  0  0  0  0  0  0  0  0
    3.8292    2.4797    1.9456 O   0  0  0  0  0  0  0  0  0  0  0  0
    4.4859    2.7610   -0.1906 N   0  0  0  0  0  0  0  0  0  0  0  0
    4.3402    2.4866   -1.1488 H   0  0  0  0  0  0  0  0  0  0  0  0
    5.5242    3.7498    0.0921 C   0  0  0  0  0  0  0  0  0  0  0  0
    5.0712    4.6441    0.5255 H   0  0  0  0  0  0  0  0  0  0  0  0
    6.2378    3.3414    0.8100 H   0  0  0  0  0  0  0  0  0  0  0  0
    6.0500    4.0201   -0.8245 H   0  0  0  0  0  0  0  0  0  0  0  0
    1.5980    4.5624   -7.9663 H   0  0  0  0  0  0  0  0  0  0  0  0
    1.0637    4.7084   -7.0288 C   0  0  0  0  0  0  0  0  0  0  0  0
    0.1185    5.2143   -7.2196 H   0  0  0  0  0  0  0  0  0  0  0  0
    1.6715    5.3046   -6.3508 H   0  0  0  0  0  0  0  0  0  0  0  0
    0.7927    3.3600   -6.4036 C   0  0  0  0  0  0  0  0  0  0  0  0
    1.1752    2.3359   -6.9531 O   0  0  0  0  0  0  0  0  0  0  0  0
    0.1373    3.3635   -5.2460 N   0  0  0  0  0  0  0  0  0  0  0  0
   -0.1573    4.2468   -4.8555 H   0  0  0  0  0  0  0  0  0  0  0  0
   -0.2118    2.1628   -4.4866 C   0  0  1  0  0  0  0  0  0  0  0  0
   -0.4771    1.3658   -5.1834 H   0  0  0  0  0  0  0  0  0  0  0  0
    1.0291    1.7213   -3.6980 C   0  0  0  0  0  0  0  0  0  0  0  0
    1.8313    1.5495   -4.4172 H   0  0  0  0  0  0  0  0  0  0  0  0
    1.3464    2.5403   -3.0522 H   0  0  0  0  0  0  0  0  0  0  0  0
    0.8902    0.2171   -2.6954 S   0  0  0  0  0  0  0  0  0  0  0  0
   -1.4266    2.4326   -3.5811 C   0  0  0  0  0  0  0  0  0  0  0  0
   -1.6160    3.5619   -3.1270 O   0  0  0  0  0  0  0  0  0  0  0  0
   -2.2474    1.4051   -3.3281 N   0  0  0  0  0  0  0  0  0  0  0  0
   -2.0046    0.5047   -3.7099 H   0  0  0  0  0  0  0  0  0  0  0  0
   -3.4375    1.4917   -2.4827 C   0  0  0  0  0  0  0  0  0  0  0  0
   -3.1406    1.5467   -1.4340 H   0  0  0  0  0  0  0  0  0  0  0  0
   -4.0076    2.3901   -2.7310 H   0  0  0  0  0  0  0  0  0  0  0  0
   -4.0699    0.6163   -2.6315 H   0  0  0  0  0  0  0  0  0  0  0  0
  5  6  2  0  0  0  0
  5  7  1  0  0  0  0
  2  3  1  0  0  0  0
  2  4  1  0  0  0  0
  2  5  1  0  0  0  0
  1  2  1  0  0  0  0
 15 16  2  0  0  0  0
 15 17  1  0  0  0  0
 14 36  1  0  0  0  0
 11 12  1  0  0  0  0
 11 13  1  0  0  0  0
 11 14  1  0  0  0  0
  9 10  1  0  0  0  0
  9 11  1  0  0  0  0
  9 15  1  0  0  0  0
  7  8  1  0  0  0  0
  7  9  1  0  0  0  0
 19 20  1  0  0  0  0
 19 21  1  0  0  0  0
 19 22  1  0  0  0  0
 17 18  1  0  0  0  0
 17 19  1  0  0  0  0
 27 28  2  0  0  0  0
 27 29  1  0  0  0  0
 24 25  1  0  0  0  0
 24 26  1  0  0  0  0
 24 27  1  0  0  0  0
 23 24  1  0  0  0  0
 37 38  2  0  0  0  0
 37 39  1  0  0  0  0
 33 34  1  0  0  0  0
 33 35  1  0  0  0  0
 33 36  1  0  0  0  0
 31 32  1  0  0  0  0
 31 33  1  0  0  0  0
 31 37  1  0  0  0  0
 29 30  1  0  0  0  0
 29 31  1  0  0  0  0
 41 42  1  0  0  0  0
 41 43  1  0  0  0  0
 41 44  1  0  0  0  0
 39 40  1  0  0  0  0
 39 41  1  0  0  0  0
M  END
$$$$
default_name
  -OEChem-01062215323D

 44 43  0     1  0  0  0  0  0999 V2000
    2.4488   -3.0448    2.0990 H   0  0  0  0  0  0  0  0  0  0  0  0
    2.2788   -2.0018    2.3640 C   0  0  0  0  0  0  0  0  0  0  0  0
    2.9228   -1.7258    3.1960 H   0  0  0  0  0  0  0  0  0  0  0  0
    1.2358   -1.8618    2.6430 H   0  0  0  0  0  0  0  0  0  0  0  0
    2.6018   -1.1318    1.1730 C   0  0  0  0  0  0  0  0  0  0  0  0
    3.0048   -1.6348    0.1320 O   0  0  0  0  0  0  0  0  0  0  0  0
    2.4088    0.1752    1.3190 N   0  0  0  0  0  0  0  0  0  0  0  0
    2.0708    0.5242    2.2050 H   0  0  0  0  0  0  0  0  0  0  0  0
    2.6638    1.1782    0.2840 C   0  0  1  0  0  0  0  0  0  0  0  0
    3.0649    0.6669   -0.5927 H   0  0  0  0  0  0  0  0  0  0  0  0
    1.3415    1.8533   -0.1203 C   0  0  0  0  0  0  0  0  0  0  0  0
    1.5646    2.7020   -0.7679 H   0  0  0  0  0  0  0  0  0  0  0  0
    0.8886    2.2654    0.7811 H   0  0  0  0  0  0  0  0  0  0  0  0
    0.0752    0.8286   -0.9263 S   0  0  0  0  0  0  0  0  0  0  0  0
    3.7143    2.2029    0.7517 C   0  0  0  0  0  0  0  0  0  0  0  0
    4.0236    2.2827    1.9404 O   0  0  0  0  0  0  0  0  0  0  0  0
    4.2677    2.9828   -0.1865 N   0  0  0  0  0  0  0  0  0  0  0  0
    3.9702    2.8625   -1.1413 H   0  0  0  0  0  0  0  0  0  0  0  0
    5.2753    4.0026    0.0974 C   0  0  0  0  0  0  0  0  0  0  0  0
    4.8517    4.7637    0.7561 H   0  0  0  0  0  0  0  0  0  0  0  0
    6.1303    3.5473    0.6003 H   0  0  0  0  0  0  0  0  0  0  0  0
    5.6102    4.4727   -0.8281 H   0  0  0  0  0  0  0  0  0  0  0  0
    1.5980    4.5624   -7.9663 H   0  0  0  0  0  0  0  0  0  0  0  0
    1.0637    4.7084   -7.0288 C   0  0  0  0  0  0  0  0  0  0  0  0
    0.1185    5.2143   -7.2196 H   0  0  0  0  0  0  0  0  0  0  0  0
    1.6715    5.3046   -6.3508 H   0  0  0  0  0  0  0  0  0  0  0  0
    0.7927    3.3600   -6.4036 C   0  0  0  0  0  0  0  0  0  0  0  0
    1.1752    2.3359   -6.9531 O   0  0  0  0  0  0  0  0  0  0  0  0
    0.1373    3.3635   -5.2460 N   0  0  0  0  0  0  0  0  0  0  0  0
   -0.1573    4.2468   -4.8555 H   0  0  0  0  0  0  0  0  0  0  0  0
   -0.2118    2.1628   -4.4866 C   0  0  1  0  0  0  0  0  0  0  0  0
   -0.4771    1.3658   -5.1834 H   0  0  0  0  0  0  0  0  0  0  0  0
    1.0291    1.7213   -3.6980 C   0  0  0  0  0  0  0  0  0  0  0  0
    1.8313    1.5495   -4.4172 H   0  0  0  0  0  0  0  0  0  0  0  0
    1.3464    2.5403   -3.0522 H   0  0  0  0  0  0  0  0  0  0  0  0
    0.8902    0.2171   -2.6954 S   0  0  0  0  0  0  0  0  0  0  0  0
   -1.4266    2.4326   -3.5811 C   0  0  0  0  0  0  0  0  0  0  0  0
   -1.6160    3.5619   -3.1270 O   0  0  0  0  0  0  0  0  0  0  0  0
   -2.2474    1.4051   -3.3281 N   0  0  0  0  0  0  0  0  0  0  0  0
   -2.0046    0.5047   -3.7099 H   0  0  0  0  0  0  0  0  0  0  0  0
   -3.4375    1.4917   -2.4827 C   0  0  0  0  0  0  0  0  0  0  0  0
   -3.1406    1.5467   -1.4340 H   0  0  0  0  0  0  0  0  0  0  0  0
   -4.0076    2.3901   -2.7310 H   0  0  0  0  0  0  0  0  0  0  0  0
   -4.0699    0.6163   -2.6315 H   0  0  0  0  0  0  0  0  0  0  0  0
  5  6  2  0  0  0  0
  5  7  1  0  0  0  0
  2  3  1  0  0  0  0
  2  4  1  0  0  0  0
  2  5  1  0  0  0  0
  1  2  1  0  0  0  0
 15 16  2  0  0  0  0
 15 17  1  0  0  0  0
 14 36  1  0  0  0  0
 11 12  1  0  0  0  0
 11 13  1  0  0  0  0
 11 14  1  0  0  0  0
  9 10  1  0  0  0  0
  9 11  1  0  0  0  0
  9 15  1  0  0  0  0
  7  8  1  0  0  0  0
  7  9  1  0  0  0  0
 19 20  1  0  0  0  0
 19 21  1  0  0  0  0
 19 22  1  0  0  0  0
 17 18  1  0  0  0  0
 17 19  1  0  0  0  0
 27 28  2  0  0  0  0
 27 29  1  0  0  0  0
 24 25  1  0  0  0  0
 24 26  1  0  0  0  0
 24 27  1  0  0  0  0
 23 24  1  0  0  0  0
 37 38  2  0  0  0  0
 37 39  1  0  0  0  0
 33 34  1  0  0  0  0
 33 35  1  0  0  0  0
 33 36  1  0  0  0  0
 31 32  1  0  0  0  0
 31 33  1  0  0  0  0
 31 37  1  0  0  0  0
 29 30  1  0  0  0  0
 29 31  1  0  0  0  0
 41 42  1  0  0  0  0
 41 43  1  0  0  0  0
 41 44  1  0  0  0  0
 39 40  1  0  0  0  0
 39 41  1  0  0  0  0
M  END
$$$$
default_name
  -OEChem-01062215323D

 44 43  0     1  0  0  0  0  0999 V2000
    2.4488   -3.0448    2.0990 H   0  0  0  0  0  0  0  0  0  0  0  0
    2.2788   -2.0018    2.3640 C   0  0  0  0  0  0  0  0  0  0  0  0
    2.9228   -1.7258    3.1960 H   0  0  0  0  0  0  0  0  0  0  0  0
    1.2358   -1.8618    2.6430 H   0  0  0  0  0  0  0  0  0  0  0  0
    2.6018   -1.1318    1.1730 C   0  0  0  0  0  0  0  0  0  0  0  0
    3.0048   -1.6348    0.1320 O   0  0  0  0  0  0  0  0  0  0  0  0
    2.4088    0.1752    1.3190 N   0  0  0  0  0  0  0  0  0  0  0  0
    2.0708    0.5242    2.2050 H   0  0  0  0  0  0  0  0  0  0  0  0
    2.6638    1.1782    0.2840 C   0  0  1  0  0  0  0  0  0  0  0  0
    2.8041    0.6583   -0.6652 H   0  0  0  0  0  0  0  0  0  0  0  0
    1.4415    2.1026    0.1460 C   0  0  0  0  0  0  0  0  0  0  0  0
    1.7039    2.9360   -0.5069 H   0  0  0  0  0  0  0  0  0  0  0  0
    1.2367    2.5328    1.1260 H   0  0  0  0  0  0  0  0  0  0  0  0
   -0.1142    1.3727   -0.4456 S   0  0  0  0  0  0  0  0  0  0  0  0
    3.9523    1.9675    0.5823 C   0  0  0  0  0  0  0  0  0  0  0  0
    4.6226    1.7147    1.5832 O   0  0  0  0  0  0  0  0  0  0  0  0
    4.3016    2.9208   -0.2919 N   0  0  0  0  0  0  0  0  0  0  0  0
    3.7084    3.0733   -1.0916 H   0  0  0  0  0  0  0  0  0  0  0  0
    5.4921    3.7561   -0.1484 C   0  0  0  0  0  0  0  0  0  0  0  0
    5.4160    4.3500    0.7649 H   0  0  0  0  0  0  0  0  0  0  0  0
    6.3799    3.1249   -0.0771 H   0  0  0  0  0  0  0  0  0  0  0  0
    5.5926    4.4235   -1.0052 H   0  0  0  0  0  0  0  0  0  0  0  0
    0.8377    5.2002   -7.5356 H   0  0  0  0  0  0  0  0  0  0  0  0
    0.5107    5.3815   -6.5128 C   0  0  0  0  0  0  0  0  0  0  0  0
   -0.3416    6.0591   -6.5143 H   0  0  0  0  0  0  0  0  0  0  0  0
    1.3274    5.8163   -5.9397 H   0  0  0  0  0  0  0  0  0  0  0  0
    0.1047    4.0674   -5.8876 C   0  0  0  0  0  0  0  0  0  0  0  0
    0.1878    3.0272   -6.5265 O   0  0  0  0  0  0  0  0  0  0  0  0
   -0.3279    4.1168   -4.6306 N   0  0  0  0  0  0  0  0  0  0  0  0
   -0.3799    5.0128   -4.1680 H   0  0  0  0  0  0  0  0  0  0  0  0
   -0.7586    2.9535   -3.8551 C   0  0  1  0  0  0  0  0  0  0  0  0
   -1.2850    2.2613   -4.5146 H   0  0  0  0  0  0  0  0  0  0  0  0
    0.4952    2.2493   -3.3179 C   0  0  0  0  0  0  0  0  0  0  0  0
    1.1142    1.9814   -4.1754 H   0  0  0  0  0  0  0  0  0  0  0  0
    1.0671    2.9570   -2.7173 H   0  0  0  0  0  0  0  0  0  0  0  0
    0.2531    0.7354   -2.3501 S   0  0  0  0  0  0  0  0  0  0  0  0
   -1.7261    3.3800   -2.7368 C   0  0  0  0  0  0  0  0  0  0  0  0
   -1.6193    4.4948   -2.2238 O   0  0  0  0  0  0  0  0  0  0  0  0
   -2.6682    2.5024   -2.3684 N   0  0  0  0  0  0  0  0  0  0  0  0
   -2.6679    1.5983   -2.8135 H   0  0  0  0  0  0  0  0  0  0  0  0
   -3.6564    2.7483   -1.3189 C   0  0  0  0  0  0  0  0  0  0  0  0
   -3.1774    2.6846   -0.3404 H   0  0  0  0  0  0  0  0  0  0  0  0
   -4.0825    3.7478   -1.4337 H   0  0  0  0  0  0  0  0  0  0  0  0
   -4.4574    2.0110   -1.3753 H   0  0  0  0  0  0  0  0  0  0  0  0
  5  6  2  0  0  0  0
  5  7  1  0  0  0  0
  2  3  1  0  0  0  0
  2  4  1  0  0  0  0
  2  5  1  0  0  0  0
  1  2  1  0  0  0  0
 15 16  2  0  0  0  0
 15 17  1  0  0  0  0
 14 36  1  0  0  0  0
 11 12  1  0  0  0  0
 11 13  1  0  0  0  0
 11 14  1  0  0  0  0
  9 10  1  0  0  0  0
  9 11  1  0  0  0  0
  9 15  1  0  0  0  0
  7  8  1  0  0  0  0
  7  9  1  0  0  0  0
 19 20  1  0  0  0  0
 19 21  1  0  0  0  0
 19 22  1  0  0  0  0
 17 18  1  0  0  0  0
 17 19  1  0  0  0  0
 27 28  2  0  0  0  0
 27 29  1  0  0  0  0
 24 25  1  0  0  0  0
 24 26  1  0  0  0  0
 24 27  1  0  0  0  0
 23 24  1  0  0  0  0
 37 38  2  0  0  0  0
 37 39  1  0  0  0  0
 33 34  1  0  0  0  0
 33 35  1  0  0  0  0
 33 36  1  0  0  0  0
 31 32  1  0  0  0  0
 31 33  1  0  0  0  0
 31 37  1  0  0  0  0
 29 30  1  0  0  0  0
 29 31  1  0  0  0  0
 41 42  1  0  0  0  0
 41 43  1  0  0  0  0
 41 44  1  0  0  0  0
 39 40  1  0  0  0  0
 39 41  1  0  0  0  0
M  END
$$$$
default_name
  -OEChem-01062215323D

 44 43  0     1  0  0  0  0  0999 V2000
    2.4488   -3.0448    2.0990 H   0  0  0  0  0  0  0  0  0  0  0  0
    2.2788   -2.0018    2.3640 C   0  0  0  0  0  0  0  0  0  0  0  0
    2.9228   -1.7258    3.1960 H   0  0  0  0  0  0  0  0  0  0  0  0
    1.2358   -1.8618    2.6430 H   0  0  0  0  0  0  0  0  0  0  0  0
    2.6018   -1.1318    1.1730 C   0  0  0  0  0  0  0  0  0  0  0  0
    3.0048   -1.6348    0.1320 O   0  0  0  0  0  0  0  0  0  0  0  0
    2.4088    0.1752    1.3190 N   0  0  0  0  0  0  0  0  0  0  0  0
    2.0708    0.5242    2.2050 H   0  0  0  0  0  0  0  0  0  0  0  0
    2.6638    1.1782    0.2840 C   0  0  1  0  0  0  0  0  0  0  0  0
    2.8041    0.6583   -0.6652 H   0  0  0  0  0  0  0  0  0  0  0  0
    1.4415    2.1026    0.1460 C   0  0  0  0  0  0  0  0  0  0  0  0
    1.7039    2.9360   -0.5069 H   0  0  0  0  0  0  0  0  0  0  0  0
    1.2367    2.5328    1.1260 H   0  0  0  0  0  0  0  0  0  0  0  0
   -0.1142    1.3727   -0.4456 S   0  0  0  0  0  0  0  0  0  0  0  0
    3.9523    1.9675    0.5823 C   0  0  0  0  0  0  0  0  0  0  0  0
    4.7631    1.5511    1.4096 O   0  0  0  0  0  0  0  0  0  0  0  0
    4.1433    3.1057   -0.0980 N   0  0  0  0  0  0  0  0  0  0  0  0
    3.4404    3.3865   -0.7626 H   0  0  0  0  0  0  0  0  0  0  0  0
    5.3119    3.9666    0.0731 C   0  0  0  0  0  0  0  0  0  0  0  0
    5.3416    4.3460    1.0967 H   0  0  0  0  0  0  0  0  0  0  0  0
    6.2228    3.3936   -0.1096 H   0  0  0  0  0  0  0  0  0  0  0  0
    5.2692    4.8064   -0.6216 H   0  0  0  0  0  0  0  0  0  0  0  0
    0.8377    5.2002   -7.5356 H   0  0  0  0  0  0  0  0  0  0  0  0
    0.5107    5.3815   -6.5128 C   0  0  0  0  0  0  0  0  0  0  0  0
   -0.3416    6.0591   -6.5143 H   0  0  0  0  0  0  0  0  0  0  0  0
    1.3274    5.8163   -5.9397 H   0  0  0  0  0  0  0  0  0  0  0  0
    0.1047    4.0674   -5.8876 C   0  0  0  0  0  0  0  0  0  0  0  0
    0.1878    3.0272   -6.5265 O   0  0  0  0  0  0  0  0  0  0  0  0
   -0.3279    4.1168   -4.6306 N   0  0  0  0  0  0  0  0  0  0  0  0
   -0.3799    5.0128   -4.1680 H   0  0  0  0  0  0  0  0  0  0  0  0
   -0.7586    2.9535   -3.8551 C   0  0  1  0  0  0  0  0  0  0  0  0
   -1.2850    2.2613   -4.5146 H   0  0  0  0  0  0  0  0  0  0  0  0
    0.4952    2.2493   -3.3179 C   0  0  0  0  0  0  0  0  0  0  0  0
    1.1142    1.9814   -4.1754 H   0  0  0  0  0  0  0  0  0  0  0  0
    1.0671    2.9570   -2.7173 H   0  0  0  0  0  0  0  0  0  0  0  0
    0.2531    0.7354   -2.3501 S   0  0  0  0  0  0  0  0  0  0  0  0
   -1.7261    3.3800   -2.7368 C   0  0  0  0  0  0  0  0  0  0  0  0
   -1.6193    4.4948   -2.2238 O   0  0  0  0  0  0  0  0  0  0  0  0
   -2.6682    2.5024   -2.3684 N   0  0  0  0  0  0  0  0  0  0  0  0
   -2.6679    1.5983   -2.8135 H   0  0  0  0  0  0  0  0  0  0  0  0
   -3.6564    2.7483   -1.3189 C   0  0  0  0  0  0  0  0  0  0  0  0
   -3.1774    2.6846   -0.3404 H   0  0  0  0  0  0  0  0  0  0  0  0
   -4.0825    3.7478   -1.4337 H   0  0  0  0  0  0  0  0  0  0  0  0
   -4.4574    2.0110   -1.3753 H   0  0  0  0  0  0  0  0  0  0  0  0
  5  6  2  0  0  0  0
  5  7  1  0  0  0  0
  2  3  1  0  0  0  0
  2  4  1  0  0  0  0
  2  5  1  0  0  0  0
  1  2  1  0  0  0  0
 15 16  2  0  0  0  0
 15 17  1  0  0  0  0
 14 36  1  0  0  0  0
 11 12  1  0  0  0  0
 11 13  1  0  0  0  0
 11 14  1  0  0  0  0
  9 10  1  0  0  0  0
  9 11  1  0  0  0  0
  9 15  1  0  0  0  0
  7  8  1  0  0  0  0
  7  9  1  0  0  0  0
 19 20  1  0  0  0  0
 19 21  1  0  0  0  0
 19 22  1  0  0  0  0
 17 18  1  0  0  0  0
 17 19  1  0  0  0  0
 27 28  2  0  0  0  0
 27 29  1  0  0  0  0
 24 25  1  0  0  0  0
 24 26  1  0  0  0  0
 24 27  1  0  0  0  0
 23 24  1  0  0  0  0
 37 38  2  0  0  0  0
 37 39  1  0  0  0  0
 33 34  1  0  0  0  0
 33 35  1  0  0  0  0
 33 36  1  0  0  0  0
 31 32  1  0  0  0  0
 31 33  1  0  0  0  0
 31 37  1  0  0  0  0
 29 30  1  0  0  0  0
 29 31  1  0  0  0  0
 41 42  1  0  0  0  0
 41 43  1  0  0  0  0
 41 44  1  0  0  0  0
 39 40  1  0  0  0  0
 39 41  1  0  0  0  0
M  END
$$$$
default_name
  -OEChem-01062215323D

 44 43  0     1  0  0  0  0  0999 V2000
    2.4488   -3.0448    2.0990 H   0  0  0  0  0  0  0  0  0  0  0  0
    2.2788   -2.0018    2.3640 C   0  0  0  0  0  0  0  0  0  0  0  0
    2.9228   -1.7258    3.1960 H   0  0  0  0  0  0  0  0  0  0  0  0
    1.2358   -1.8618    2.6430 H   0  0  0  0  0  0  0  0  0  0  0  0
    2.6018   -1.1318    1.1730 C   0  0  0  0  0  0  0  0  0  0  0  0
    3.0048   -1.6348    0.1320 O   0  0  0  0  0  0  0  0  0  0  0  0
    2.4088    0.1752    1.3190 N   0  0  0  0  0  0  0  0  0  0  0  0
    2.0708    0.5242    2.2050 H   0  0  0  0  0  0  0  0  0  0  0  0
    2.6638    1.1782    0.2840 C   0  0  1  0  0  0  0  0  0  0  0  0
    2.8041    0.6583   -0.6652 H   0  0  0  0  0  0  0  0  0  0  0  0
    1.4415    2.1026    0.1460 C   0  0  0  0  0  0  0  0  0  0  0  0
    1.7039    2.9360   -0.5069 H   0  0  0  0  0  0  0  0  0  0  0  0
    1.2367    2.5328    1.1260 H   0  0  0  0  0  0  0  0  0  0  0  0
   -0.1142    1.3727   -0.4456 S   0  0  0  0  0  0  0  0  0  0  0  0
    3.9523    1.9675    0.5823 C   0  0  0  0  0  0  0  0  0  0  0  0
    4.8839    1.4378    1.1878 O   0  0  0  0  0  0  0  0  0  0  0  0
    4.0069    3.2345    0.1503 N   0  0  0  0  0  0  0  0  0  0  0  0
    3.2094    3.6044   -0.3414 H   0  0  0  0  0  0  0  0  0  0  0  0
    5.1566    4.1129    0.3565 C   0  0  0  0  0  0  0  0  0  0  0  0
    5.3139    4.2666    1.4262 H   0  0  0  0  0  0  0  0  0  0  0  0
    6.0533    3.6522   -0.0619 H   0  0  0  0  0  0  0  0  0  0  0  0
    4.9885    5.0769   -0.1253 H   0  0  0  0  0  0  0  0  0  0  0  0
    0.8377    5.2002   -7.5356 H   0  0  0  0  0  0  0  0  0  0  0  0
    0.5107    5.3815   -6.5128 C   0  0  0  0  0  0  0  0  0  0  0  0
   -0.3416    6.0591   -6.5143 H   0  0  0  0  0  0  0  0  0  0  0  0
    1.3274    5.8163   -5.9397 H   0  0  0  0  0  0  0  0  0  0  0  0
    0.1047    4.0674   -5.8876 C   0  0  0  0  0  0  0  0  0  0  0  0
    0.1878    3.0272   -6.5265 O   0  0  0  0  0  0  0  0  0  0  0  0
   -0.3279    4.1168   -4.6306 N   0  0  0  0  0  0  0  0  0  0  0  0
   -0.3799    5.0128   -4.1680 H   0  0  0  0  0  0  0  0  0  0  0  0
   -0.7586    2.9535   -3.8551 C   0  0  1  0  0  0  0  0  0  0  0  0
   -1.2850    2.2613   -4.5146 H   0  0  0  0  0  0  0  0  0  0  0  0
    0.4952    2.2493   -3.3179 C   0  0  0  0  0  0  0  0  0  0  0  0
    1.1142    1.9814   -4.1754 H   0  0  0  0  0  0  0  0  0  0  0  0
    1.0671    2.9570   -2.7173 H   0  0  0  0  0  0  0  0  0  0  0  0
    0.2531    0.7354   -2.3501 S   0  0  0  0  0  0  0  0  0  0  0  0
   -1.7261    3.3800   -2.7368 C   0  0  0  0  0  0  0  0  0  0  0  0
   -1.6193    4.4948   -2.2238 O   0  0  0  0  0  0  0  0  0  0  0  0
   -2.6682    2.5024   -2.3684 N   0  0  0  0  0  0  0  0  0  0  0  0
   -2.6679    1.5983   -2.8135 H   0  0  0  0  0  0  0  0  0  0  0  0
   -3.6564    2.7483   -1.3189 C   0  0  0  0  0  0  0  0  0  0  0  0
   -3.1774    2.6846   -0.3404 H   0  0  0  0  0  0  0  0  0  0  0  0
   -4.0825    3.7478   -1.4337 H   0  0  0  0  0  0  0  0  0  0  0  0
   -4.4574    2.0110   -1.3753 H   0  0  0  0  0  0  0  0  0  0  0  0
  5  6  2  0  0  0  0
  5  7  1  0  0  0  0
  2  3  1  0  0  0  0
  2  4  1  0  0  0  0
  2  5  1  0  0  0  0
  1  2  1  0  0  0  0
 15 16  2  0  0  0  0
 15 17  1  0  0  0  0
 14 36  1  0  0  0  0
 11 12  1  0  0  0  0
 11 13  1  0  0  0  0
 11 14  1  0  0  0  0
  9 10  1  0  0  0  0
  9 11  1  0  0  0  0
  9 15  1  0  0  0  0
  7  8  1  0  0  0  0
  7  9  1  0  0  0  0
 19 20  1  0  0  0  0
 19 21  1  0  0  0  0
 19 22  1  0  0  0  0
 17 18  1  0  0  0  0
 17 19  1  0  0  0  0
 27 28  2  0  0  0  0
 27 29  1  0  0  0  0
 24 25  1  0  0  0  0
 24 26  1  0  0  0  0
 24 27  1  0  0  0  0
 23 24  1  0  0  0  0
 37 38  2  0  0  0  0
 37 39  1  0  0  0  0
 33 34  1  0  0  0  0
 33 35  1  0  0  0  0
 33 36  1  0  0  0  0
 31 32  1  0  0  0  0
 31 33  1  0  0  0  0
 31 37  1  0  0  0  0
 29 30  1  0  0  0  0
 29 31  1  0  0  0  0
 41 42  1  0  0  0  0
 41 43  1  0  0  0  0
 41 44  1  0  0  0  0
 39 40  1  0  0  0  0
 39 41  1  0  0  0  0
M  END
$$$$
default_name
  -OEChem-01062215323D

 44 43  0     1  0  0  0  0  0999 V2000
    2.4488   -3.0448    2.0990 H   0  0  0  0  0  0  0  0  0  0  0  0
    2.2788   -2.0018    2.3640 C   0  0  0  0  0  0  0  0  0  0  0  0
    2.9228   -1.7258    3.1960 H   0  0  0  0  0  0  0  0  0  0  0  0
    1.2358   -1.8618    2.6430 H   0  0  0  0  0  0  0  0  0  0  0  0
    2.6018   -1.1318    1.1730 C   0  0  0  0  0  0  0  0  0  0  0  0
    3.0048   -1.6348    0.1320 O   0  0  0  0  0  0  0  0  0  0  0  0
    2.4088    0.1752    1.3190 N   0  0  0  0  0  0  0  0  0  0  0  0
    2.0708    0.5242    2.2050 H   0  0  0  0  0  0  0  0  0  0  0  0
    2.6638    1.1782    0.2840 C   0  0  1  0  0  0  0  0  0  0  0  0
    2.8041    0.6583   -0.6652 H   0  0  0  0  0  0  0  0  0  0  0  0
    1.4415    2.1026    0.1460 C   0  0  0  0  0  0  0  0  0  0  0  0
    1.7039    2.9360   -0.5069 H   0  0  0  0  0  0  0  0  0  0  0  0
    1.2367    2.5328    1.1260 H   0  0  0  0  0  0  0  0  0  0  0  0
   -0.1142    1.3727   -0.4456 S   0  0  0  0  0  0  0  0  0  0  0  0
    3.9523    1.9675    0.5823 C   0  0  0  0  0  0  0  0  0  0  0  0
    4.9768    1.3823    0.9330 O   0  0  0  0  0  0  0  0  0  0  0  0
    3.9017    3.2983    0.4361 N   0  0  0  0  0  0  0  0  0  0  0  0
    3.0312    3.7120    0.1433 H   0  0  0  0  0  0  0  0  0  0  0  0
    5.0369    4.1851    0.6826 C   0  0  0  0  0  0  0  0  0  0  0  0
    5.3349    4.1171    1.7310 H   0  0  0  0  0  0  0  0  0  0  0  0
    5.8830    3.8832    0.0625 H   0  0  0  0  0  0  0  0  0  0  0  0
    4.7697    5.2167    0.4499 H   0  0  0  0  0  0  0  0  0  0  0  0
    0.8377    5.2002   -7.5356 H   0  0  0  0  0  0  0  0  0  0  0  0
    0.5107    5.3815   -6.5128 C   0  0  0  0  0  0  0  0  0  0  0  0
   -0.3416    6.0591   -6.5143 H   0  0  0  0  0  0  0  0  0  0  0  0
    1.3274    5.8163   -5.9397 H   0  0  0  0  0  0  0  0  0  0  0  0
    0.1047    4.0674   -5.8876 C   0  0  0  0  0  0  0  0  0  0  0  0
    0.1878    3.0272   -6.5265 O   0  0  0  0  0  0  0  0  0  0  0  0
   -0.3279    4.1168   -4.6306 N   0  0  0  0  0  0  0  0  0  0  0  0
   -0.3799    5.0128   -4.1680 H   0  0  0  0  0  0  0  0  0  0  0  0
   -0.7586    2.9535   -3.8551 C   0  0  1  0  0  0  0  0  0  0  0  0
   -1.2850    2.2613   -4.5146 H   0  0  0  0  0  0  0  0  0  0  0  0
    0.4952    2.2493   -3.3179 C   0  0  0  0  0  0  0  0  0  0  0  0
    1.1142    1.9814   -4.1754 H   0  0  0  0  0  0  0  0  0  0  0  0
    1.0671    2.9570   -2.7173 H   0  0  0  0  0  0  0  0  0  0  0  0
    0.2531    0.7354   -2.3501 S   0  0  0  0  0  0  0  0  0  0  0  0
   -1.7261    3.3800   -2.7368 C   0  0  0  0  0  0  0  0  0  0  0  0
   -1.6193    4.4948   -2.2238 O   0  0  0  0  0  0  0  0  0  0  0  0
   -2.6682    2.5024   -2.3684 N   0  0  0  0  0  0  0  0  0  0  0  0
   -2.6679    1.5983   -2.8135 H   0  0  0  0  0  0  0  0  0  0  0  0
   -3.6564    2.7483   -1.3189 C   0  0  0  0  0  0  0  0  0  0  0  0
   -3.1774    2.6846   -0.3404 H   0  0  0  0  0  0  0  0  0  0  0  0
   -4.0825    3.7478   -1.4337 H   0  0  0  0  0  0  0  0  0  0  0  0
   -4.4574    2.0110   -1.3753 H   0  0  0  0  0  0  0  0  0  0  0  0
  5  6  2  0  0  0  0
  5  7  1  0  0  0  0
  2  3  1  0  0  0  0
  2  4  1  0  0  0  0
  2  5  1  0  0  0  0
  1  2  1  0  0  0  0
 15 16  2  0  0  0  0
 15 17  1  0  0  0  0
 14 36  1  0  0  0  0
 11 12  1  0  0  0  0
 11 13  1  0  0  0  0
 11 14  1  0  0  0  0
  9 10  1  0  0  0  0
  9 11  1  0  0  0  0
  9 15  1  0  0  0  0
  7  8  1  0  0  0  0
  7  9  1  0  0  0  0
 19 20  1  0  0  0  0
 19 21  1  0  0  0  0
 19 22  1  0  0  0  0
 17 18  1  0  0  0  0
 17 19  1  0  0  0  0
 27 28  2  0  0  0  0
 27 29  1  0  0  0  0
 24 25  1  0  0  0  0
 24 26  1  0  0  0  0
 24 27  1  0  0  0  0
 23 24  1  0  0  0  0
 37 38  2  0  0  0  0
 37 39  1  0  0  0  0
 33 34  1  0  0  0  0
 33 35  1  0  0  0  0
 33 36  1  0  0  0  0
 31 32  1  0  0  0  0
 31 33  1  0  0  0  0
 31 37  1  0  0  0  0
 29 30  1  0  0  0  0
 29 31  1  0  0  0  0
 41 42  1  0  0  0  0
 41 43  1  0  0  0  0
 41 44  1  0  0  0  0
 39 40  1  0  0  0  0
 39 41  1  0  0  0  0
M  END
$$$$
default_name
  -OEChem-01062215323D

 44 43  0     1  0  0  0  0  0999 V2000
    2.4488   -3.0448    2.0990 H   0  0  0  0  0  0  0  0  0  0  0  0
    2.2788   -2.0018    2.3640 C   0  0  0  0  0  0  0  0  0  0  0  0
    2.9228   -1.7258    3.1960 H   0  0  0  0  0  0  0  0  0  0  0  0
    1.2358   -1.8618    2.6430 H   0  0  0  0  0  0  0  0  0  0  0  0
    2.6018   -1.1318    1.1730 C   0  0  0  0  0  0  0  0  0  0  0  0
    3.0048   -1.6348    0.1320 O   0  0  0  0  0  0  0  0  0  0  0  0
    2.4088    0.1752    1.3190 N   0  0  0  0  0  0  0  0  0  0  0  0
    2.0708    0.5242    2.2050 H   0  0  0  0  0  0  0  0  0  0  0  0
    2.6638    1.1782    0.2840 C   0  0  1  0  0  0  0  0  0  0  0  0
    2.8041    0.6583   -0.6652 H   0  0  0  0  0  0  0  0  0  0  0  0
    1.4415    2.1026    0.1460 C   0  0  0  0  0  0  0  0  0  0  0  0
    1.7039    2.9360   -0.5069 H   0  0  0  0  0  0  0  0  0  0  0  0
    1.2367    2.5328    1.1260 H   0  0  0  0  0  0  0  0  0  0  0  0
   -0.1142    1.3727   -0.4456 S   0  0  0  0  0  0  0  0  0  0  0  0
    3.9523    1.9675    0.5823 C   0  0  0  0  0  0  0  0  0  0  0  0
    5.0356    1.3886    0.6626 O   0  0  0  0  0  0  0  0  0  0  0  0
    3.8347    3.2927    0.7400 N   0  0  0  0  0  0  0  0  0  0  0  0
    2.9180    3.7021    0.6584 H   0  0  0  0  0  0  0  0  0  0  0  0
    4.9609    4.1782    1.0291 C   0  0  0  0  0  0  0  0  0  0  0  0
    5.4031    3.9078    1.9902 H   0  0  0  0  0  0  0  0  0  0  0  0
    5.7234    4.0709    0.2554 H   0  0  0  0  0  0  0  0  0  0  0  0
    4.6276    5.2162    1.0648 H   0  0  0  0  0  0  0  0  0  0  0  0
    0.8377    5.2002   -7.5356 H   0  0  0  0  0  0  0  0  0  0  0  0
    0.5107    5.3815   -6.5128 C   0  0  0  0  0  0  0  0  0  0  0  0
   -0.3416    6.0591   -6.5143 H   0  0  0  0  0  0  0  0  0  0  0  0
    1.3274    5.8163   -5.9397 H   0  0  0  0  0  0  0  0  0  0  0  0
    0.1047    4.0674   -5.8876 C   0  0  0  0  0  0  0  0  0  0  0  0
    0.1878    3.0272   -6.5265 O   0  0  0  0  0  0  0  0  0  0  0  0
   -0.3279    4.1168   -4.6306 N   0  0  0  0  0  0  0  0  0  0  0  0
   -0.3799    5.0128   -4.1680 H   0  0  0  0  0  0  0  0  0  0  0  0
   -0.7586    2.9535   -3.8551 C   0  0  1  0  0  0  0  0  0  0  0  0
   -1.2850    2.2613   -4.5146 H   0  0  0  0  0  0  0  0  0  0  0  0
    0.4952    2.2493   -3.3179 C   0  0  0  0  0  0  0  0  0  0  0  0
    1.1142    1.9814   -4.1754 H   0  0  0  0  0  0  0  0  0  0  0  0
    1.0671    2.9570   -2.7173 H   0  0  0  0  0  0  0  0  0  0  0  0
    0.2531    0.7354   -2.3501 S   0  0  0  0  0  0  0  0  0  0  0  0
   -1.7261    3.3800   -2.7368 C   0  0  0  0  0  0  0  0  0  0  0  0
   -1.6193    4.4948   -2.2238 O   0  0  0  0  0  0  0  0  0  0  0  0
   -2.6682    2.5024   -2.3684 N   0  0  0  0  0  0  0  0  0  0  0  0
   -2.6679    1.5983   -2.8135 H   0  0  0  0  0  0  0  0  0  0  0  0
   -3.6564    2.7483   -1.3189 C   0  0  0  0  0  0  0  0  0  0  0  0
   -3.1774    2.6846   -0.3404 H   0  0  0  0  0  0  0  0  0  0  0  0
   -4.0825    3.7478   -1.4337 H   0  0  0  0  0  0  0  0  0  0  0  0
   -4.4574    2.0110   -1.3753 H   0  0  0  0  0  0  0  0  0  0  0  0
  5  6  2  0  0  0  0
  5  7  1  0  0  0  0
  2  3  1  0  0  0  0
  2  4  1  0  0  0  0
  2  5  1  0  0  0  0
  1  2  1  0  0  0  0
 15 16  2  0  0  0  0
 15 17  1  0  0  0  0
 14 36  1  0  0  0  0
 11 12  1  0  0  0  0
 11 13  1  0  0  0  0
 11 14  1  0  0  0  0
  9 10  1  0  0  0  0
  9 11  1  0  0  0  0
  9 15  1  0  0  0  0
  7  8  1  0  0  0  0
  7  9  1  0  0  0  0
 19 20  1  0  0  0  0
 19 21  1  0  0  0  0
 19 22  1  0  0  0  0
 17 18  1  0  0  0  0
 17 19  1  0  0  0  0
 27 28  2  0  0  0  0
 27 29  1  0  0  0  0
 24 25  1  0  0  0  0
 24 26  1  0  0  0  0
 24 27  1  0  0  0  0
 23 24  1  0  0  0  0
 37 38  2  0  0  0  0
 37 39  1  0  0  0  0
 33 34  1  0  0  0  0
 33 35  1  0  0  0  0
 33 36  1  0  0  0  0
 31 32  1  0  0  0  0
 31 33  1  0  0  0  0
 31 37  1  0  0  0  0
 29 30  1  0  0  0  0
 29 31  1  0  0  0  0
 41 42  1  0  0  0  0
 41 43  1  0  0  0  0
 41 44  1  0  0  0  0
 39 40  1  0  0  0  0
 39 41  1  0  0  0  0
M  END
$$$$
default_name
  -OEChem-01062215323D

 44 43  0     1  0  0  0  0  0999 V2000
    2.4488   -3.0448    2.0990 H   0  0  0  0  0  0  0  0  0  0  0  0
    2.2788   -2.0018    2.3640 C   0  0  0  0  0  0  0  0  0  0  0  0
    2.9228   -1.7258    3.1960 H   0  0  0  0  0  0  0  0  0  0  0  0
    1.2358   -1.8618    2.6430 H   0  0  0  0  0  0  0  0  0  0  0  0
    2.6018   -1.1318    1.1730 C   0  0  0  0  0  0  0  0  0  0  0  0
    3.0048   -1.6348    0.1320 O   0  0  0  0  0  0  0  0  0  0  0  0
    2.4088    0.1752    1.3190 N   0  0  0  0  0  0  0  0  0  0  0  0
    2.0708    0.5242    2.2050 H   0  0  0  0  0  0  0  0  0  0  0  0
    2.6638    1.1782    0.2840 C   0  0  1  0  0  0  0  0  0  0  0  0
    2.8041    0.6583   -0.6652 H   0  0  0  0  0  0  0  0  0  0  0  0
    1.4415    2.1026    0.1460 C   0  0  0  0  0  0  0  0  0  0  0  0
    1.7039    2.9360   -0.5069 H   0  0  0  0  0  0  0  0  0  0  0  0
    1.2367    2.5328    1.1260 H   0  0  0  0  0  0  0  0  0  0  0  0
   -0.1142    1.3727   -0.4456 S   0  0  0  0  0  0  0  0  0  0  0  0
    3.9523    1.9675    0.5823 C   0  0  0  0  0  0  0  0  0  0  0  0
    5.0562    1.4562    0.3949 O   0  0  0  0  0  0  0  0  0  0  0  0
    3.8106    3.2182    1.0412 N   0  0  0  0  0  0  0  0  0  0  0  0
    2.8774    3.5754    1.1688 H   0  0  0  0  0  0  0  0  0  0  0  0
    4.9337    4.0928    1.3723 C   0  0  0  0  0  0  0  0  0  0  0  0
    5.5139    3.6529    2.1863 H   0  0  0  0  0  0  0  0  0  0  0  0
    5.5853    4.2024    0.5035 H   0  0  0  0  0  0  0  0  0  0  0  0
    4.5720    5.0755    1.6775 H   0  0  0  0  0  0  0  0  0  0  0  0
    0.8377    5.2002   -7.5356 H   0  0  0  0  0  0  0  0  0  0  0  0
    0.5107    5.3815   -6.5128 C   0  0  0  0  0  0  0  0  0  0  0  0
   -0.3416    6.0591   -6.5143 H   0  0  0  0  0  0  0  0  0  0  0  0
    1.3274    5.8163   -5.9397 H   0  0  0  0  0  0  0  0  0  0  0  0
    0.1047    4.0674   -5.8876 C   0  0  0  0  0  0  0  0  0  0  0  0
    0.1878    3.0272   -6.5265 O   0  0  0  0  0  0  0  0  0  0  0  0
   -0.3279    4.1168   -4.6306 N   0  0  0  0  0  0  0  0  0  0  0  0
   -0.3799    5.0128   -4.1680 H   0  0  0  0  0  0  0  0  0  0  0  0
   -0.7586    2.9535   -3.8551 C   0  0  1  0  0  0  0  0  0  0  0  0
   -1.2850    2.2613   -4.5146 H   0  0  0  0  0  0  0  0  0  0  0  0
    0.4952    2.2493   -3.3179 C   0  0  0  0  0  0  0  0  0  0  0  0
    1.1142    1.9814   -4.1754 H   0  0  0  0  0  0  0  0  0  0  0  0
    1.0671    2.9570   -2.7173 H   0  0  0  0  0  0  0  0  0  0  0  0
    0.2531    0.7354   -2.3501 S   0  0  0  0  0  0  0  0  0  0  0  0
   -1.7261    3.3800   -2.7368 C   0  0  0  0  0  0  0  0  0  0  0  0
   -1.6193    4.4948   -2.2238 O   0  0  0  0  0  0  0  0  0  0  0  0
   -2.6682    2.5024   -2.3684 N   0  0  0  0  0  0  0  0  0  0  0  0
   -2.6679    1.5983   -2.8135 H   0  0  0  0  0  0  0  0  0  0  0  0
   -3.6564    2.7483   -1.3189 C   0  0  0  0  0  0  0  0  0  0  0  0
   -3.1774    2.6846   -0.3404 H   0  0  0  0  0  0  0  0  0  0  0  0
   -4.0825    3.7478   -1.4337 H   0  0  0  0  0  0  0  0  0  0  0  0
   -4.4574    2.0110   -1.3753 H   0  0  0  0  0  0  0  0  0  0  0  0
  5  6  2  0  0  0  0
  5  7  1  0  0  0  0
  2  3  1  0  0  0  0
  2  4  1  0  0  0  0
  2  5  1  0  0  0  0
  1  2  1  0  0  0  0
 15 16  2  0  0  0  0
 15 17  1  0  0  0  0
 14 36  1  0  0  0  0
 11 12  1  0  0  0  0
 11 13  1  0  0  0  0
 11 14  1  0  0  0  0
  9 10  1  0  0  0  0
  9 11  1  0  0  0  0
  9 15  1  0  0  0  0
  7  8  1  0  0  0  0
  7  9  1  0  0  0  0
 19 20  1  0  0  0  0
 19 21  1  0  0  0  0
 19 22  1  0  0  0  0
 17 18  1  0  0  0  0
 17 19  1  0  0  0  0
 27 28  2  0  0  0  0
 27 29  1  0  0  0  0
 24 25  1  0  0  0  0
 24 26  1  0  0  0  0
 24 27  1  0  0  0  0
 23 24  1  0  0  0  0
 37 38  2  0  0  0  0
 37 39  1  0  0  0  0
 33 34  1  0  0  0  0
 33 35  1  0  0  0  0
 33 36  1  0  0  0  0
 31 32  1  0  0  0  0
 31 33  1  0  0  0  0
 31 37  1  0  0  0  0
 29 30  1  0  0  0  0
 29 31  1  0  0  0  0
 41 42  1  0  0  0  0
 41 43  1  0  0  0  0
 41 44  1  0  0  0  0
 39 40  1  0  0  0  0
 39 41  1  0  0  0  0
M  END
$$$$
default_name
  -OEChem-01062215323D

 44 43  0     1  0  0  0  0  0999 V2000
    2.4488   -3.0448    2.0990 H   0  0  0  0  0  0  0  0  0  0  0  0
    2.2788   -2.0018    2.3640 C   0  0  0  0  0  0  0  0  0  0  0  0
    2.9228   -1.7258    3.1960 H   0  0  0  0  0  0  0  0  0  0  0  0
    1.2358   -1.8618    2.6430 H   0  0  0  0  0  0  0  0  0  0  0  0
    2.6018   -1.1318    1.1730 C   0  0  0  0  0  0  0  0  0  0  0  0
    3.0048   -1.6348    0.1320 O   0  0  0  0  0  0  0  0  0  0  0  0
    2.4088    0.1752    1.3190 N   0  0  0  0  0  0  0  0  0  0  0  0
    2.0708    0.5242    2.2050 H   0  0  0  0  0  0  0  0  0  0  0  0
    2.6638    1.1782    0.2840 C   0  0  1  0  0  0  0  0  0  0  0  0
    2.8041    0.6583   -0.6652 H   0  0  0  0  0  0  0  0  0  0  0  0
    1.4415    2.1026    0.1460 C   0  0  0  0  0  0  0  0  0  0  0  0
    1.7039    2.9360   -0.5069 H   0  0  0  0  0  0  0  0  0  0  0  0
    1.2367    2.5328    1.1260 H   0  0  0  0  0  0  0  0  0  0  0  0
   -0.1142    1.3727   -0.4456 S   0  0  0  0  0  0  0  0  0  0  0  0
    3.9523    1.9675    0.5823 C   0  0  0  0  0  0  0  0  0  0  0  0
    5.0371    1.5805    0.1483 O   0  0  0  0  0  0  0  0  0  0  0  0
    3.8310    3.0799    1.3191 N   0  0  0  0  0  0  0  0  0  0  0  0
    2.9123    3.3404    1.6397 H   0  0  0  0  0  0  0  0  0  0  0  0
    4.9573    3.9346    1.6890 C   0  0  0  0  0  0  0  0  0  0  0  0
    5.6596    3.3698    2.3058 H   0  0  0  0  0  0  0  0  0  0  0  0
    5.4784    4.2688    0.7899 H   0  0  0  0  0  0  0  0  0  0  0  0
    4.6065    4.8041    2.2462 H   0  0  0  0  0  0  0  0  0  0  0  0
    0.8377    5.2002   -7.5356 H   0  0  0  0  0  0  0  0  0  0  0  0
    0.5107    5.3815   -6.5128 C   0  0  0  0  0  0  0  0  0  0  0  0
   -0.3416    6.0591   -6.5143 H   0  0  0  0  0  0  0  0  0  0  0  0
    1.3274    5.8163   -5.9397 H   0  0  0  0  0  0  0  0  0  0  0  0
    0.1047    4.0674   -5.8876 C   0  0  0  0  0  0  0  0  0  0  0  0
    0.1878    3.0272   -6.5265 O   0  0  0  0  0  0  0  0  0  0  0  0
   -0.3279    4.1168   -4.6306 N   0  0  0  0  0  0  0  0  0  0  0  0
   -0.3799    5.0128   -4.1680 H   0  0  0  0  0  0  0  0  0  0  0  0
   -0.7586    2.9535   -3.8551 C   0  0  1  0  0  0  0  0  0  0  0  0
   -1.2850    2.2613   -4.5146 H   0  0  0  0  0  0  0  0  0  0  0  0
    0.4952    2.2493   -3.3179 C   0  0  0  0  0  0  0  0  0  0  0  0
    1.1142    1.9814   -4.1754 H   0  0  0  0  0  0  0  0  0  0  0  0
    1.0671    2.9570   -2.7173 H   0  0  0  0  0  0  0  0  0  0  0  0
    0.2531    0.7354   -2.3501 S   0  0  0  0  0  0  0  0  0  0  0  0
   -1.7261    3.3800   -2.7368 C   0  0  0  0  0  0  0  0  0  0  0  0
   -1.6193    4.4948   -2.2238 O   0  0  0  0  0  0  0  0  0  0  0  0
   -2.6682    2.5024   -2.3684 N   0  0  0  0  0  0  0  0  0  0  0  0
   -2.6679    1.5983   -2.8135 H   0  0  0  0  0  0  0  0  0  0  0  0
   -3.6564    2.7483   -1.3189 C   0  0  0  0  0  0  0  0  0  0  0  0
   -3.1774    2.6846   -0.3404 H   0  0  0  0  0  0  0  0  0  0  0  0
   -4.0825    3.7478   -1.4337 H   0  0  0  0  0  0  0  0  0  0  0  0
   -4.4574    2.0110   -1.3753 H   0  0  0  0  0  0  0  0  0  0  0  0
  5  6  2  0  0  0  0
  5  7  1  0  0  0  0
  2  3  1  0  0  0  0
  2  4  1  0  0  0  0
  2  5  1  0  0  0  0
  1  2  1  0  0  0  0
 15 16  2  0  0  0  0
 15 17  1  0  0  0  0
 14 36  1  0  0  0  0
 11 12  1  0  0  0  0
 11 13  1  0  0  0  0
 11 14  1  0  0  0  0
  9 10  1  0  0  0  0
  9 11  1  0  0  0  0
  9 15  1  0  0  0  0
  7  8  1  0  0  0  0
  7  9  1  0  0  0  0
 19 20  1  0  0  0  0
 19 21  1  0  0  0  0
 19 22  1  0  0  0  0
 17 18  1  0  0  0  0
 17 19  1  0  0  0  0
 27 28  2  0  0  0  0
 27 29  1  0  0  0  0
 24 25  1  0  0  0  0
 24 26  1  0  0  0  0
 24 27  1  0  0  0  0
 23 24  1  0  0  0  0
 37 38  2  0  0  0  0
 37 39  1  0  0  0  0
 33 34  1  0  0  0  0
 33 35  1  0  0  0  0
 33 36  1  0  0  0  0
 31 32  1  0  0  0  0
 31 33  1  0  0  0  0
 31 37  1  0  0  0  0
 29 30  1  0  0  0  0
 29 31  1  0  0  0  0
 41 42  1  0  0  0  0
 41 43  1  0  0  0  0
 41 44  1  0  0  0  0
 39 40  1  0  0  0  0
 39 41  1  0  0  0  0
M  END
$$$$
default_name
  -OEChem-01062215323D

 44 43  0     1  0  0  0  0  0999 V2000
    2.4488   -3.0448    2.0990 H   0  0  0  0  0  0  0  0  0  0  0  0
    2.2788   -2.0018    2.3640 C   0  0  0  0  0  0  0  0  0  0  0  0
    2.9228   -1.7258    3.1960 H   0  0  0  0  0  0  0  0  0  0  0  0
    1.2358   -1.8618    2.6430 H   0  0  0  0  0  0  0  0  0  0  0  0
    2.6018   -1.1318    1.1730 C   0  0  0  0  0  0  0  0  0  0  0  0
    3.0048   -1.6348    0.1320 O   0  0  0  0  0  0  0  0  0  0  0  0
    2.4088    0.1752    1.3190 N   0  0  0  0  0  0  0  0  0  0  0  0
    2.0708    0.5242    2.2050 H   0  0  0  0  0  0  0  0  0  0  0  0
    2.6638    1.1782    0.2840 C   0  0  1  0  0  0  0  0  0  0  0  0
    2.8041    0.6583   -0.6652 H   0  0  0  0  0  0  0  0  0  0  0  0
    1.4415    2.1026    0.1460 C   0  0  0  0  0  0  0  0  0  0  0  0
    1.7039    2.9360   -0.5069 H   0  0  0  0  0  0  0  0  0  0  0  0
    1.2367    2.5328    1.1260 H   0  0  0  0  0  0  0  0  0  0  0  0
   -0.1142    1.3727   -0.4456 S   0  0  0  0  0  0  0  0  0  0  0  0
    3.9523    1.9675    0.5823 C   0  0  0  0  0  0  0  0  0  0  0  0
    4.9798    1.7529   -0.0605 O   0  0  0  0  0  0  0  0  0  0  0  0
    3.8946    2.8870    1.5550 N   0  0  0  0  0  0  0  0  0  0  0  0
    3.0203    3.0132    2.0391 H   0  0  0  0  0  0  0  0  0  0  0  0
    5.0301    3.7143    1.9575 C   0  0  0  0  0  0  0  0  0  0  0  0
    5.8305    3.0778    2.3406 H   0  0  0  0  0  0  0  0  0  0  0  0
    5.4097    4.2655    1.0951 H   0  0  0  0  0  0  0  0  0  0  0  0
    4.7290    4.4205    2.7323 H   0  0  0  0  0  0  0  0  0  0  0  0
    0.8377    5.2002   -7.5356 H   0  0  0  0  0  0  0  0  0  0  0  0
    0.5107    5.3815   -6.5128 C   0  0  0  0  0  0  0  0  0  0  0  0
   -0.3416    6.0591   -6.5143 H   0  0  0  0  0  0  0  0  0  0  0  0
    1.3274    5.8163   -5.9397 H   0  0  0  0  0  0  0  0  0  0  0  0
    0.1047    4.0674   -5.8876 C   0  0  0  0  0  0  0  0  0  0  0  0
    0.1878    3.0272   -6.5265 O   0  0  0  0  0  0  0  0  0  0  0  0
   -0.3279    4.1168   -4.6306 N   0  0  0  0  0  0  0  0  0  0  0  0
   -0.3799    5.0128   -4.1680 H   0  0  0  0  0  0  0  0  0  0  0  0
   -0.7586    2.9535   -3.8551 C   0  0  1  0  0  0  0  0  0  0  0  0
   -1.2850    2.2613   -4.5146 H   0  0  0  0  0  0  0  0  0  0  0  0
    0.4952    2.2493   -3.3179 C   0  0  0  0  0  0  0  0  0  0  0  0
    1.1142    1.9814   -4.1754 H   0  0  0  0  0  0  0  0  0  0  0  0
    1.0671    2.9570   -2.7173 H   0  0  0  0  0  0  0  0  0  0  0  0
    0.2531    0.7354   -2.3501 S   0  0  0  0  0  0  0  0  0  0  0  0
   -1.7261    3.3800   -2.7368 C   0  0  0  0  0  0  0  0  0  0  0  0
   -1.6193    4.4948   -2.2238 O   0  0  0  0  0  0  0  0  0  0  0  0
   -2.6682    2.5024   -2.3684 N   0  0  0  0  0  0  0  0  0  0  0  0
   -2.6679    1.5983   -2.8135 H   0  0  0  0  0  0  0  0  0  0  0  0
   -3.6564    2.7483   -1.3189 C   0  0  0  0  0  0  0  0  0  0  0  0
   -3.1774    2.6846   -0.3404 H   0  0  0  0  0  0  0  0  0  0  0  0
   -4.0825    3.7478   -1.4337 H   0  0  0  0  0  0  0  0  0  0  0  0
   -4.4574    2.0110   -1.3753 H   0  0  0  0  0  0  0  0  0  0  0  0
  5  6  2  0  0  0  0
  5  7  1  0  0  0  0
  2  3  1  0  0  0  0
  2  4  1  0  0  0  0
  2  5  1  0  0  0  0
  1  2  1  0  0  0  0
 15 16  2  0  0  0  0
 15 17  1  0  0  0  0
 14 36  1  0  0  0  0
 11 12  1  0  0  0  0
 11 13  1  0  0  0  0
 11 14  1  0  0  0  0
  9 10  1  0  0  0  0
  9 11  1  0  0  0  0
  9 15  1  0  0  0  0
  7  8  1  0  0  0  0
  7  9  1  0  0  0  0
 19 20  1  0  0  0  0
 19 21  1  0  0  0  0
 19 22  1  0  0  0  0
 17 18  1  0  0  0  0
 17 19  1  0  0  0  0
 27 28  2  0  0  0  0
 27 29  1  0  0  0  0
 24 25  1  0  0  0  0
 24 26  1  0  0  0  0
 24 27  1  0  0  0  0
 23 24  1  0  0  0  0
 37 38  2  0  0  0  0
 37 39  1  0  0  0  0
 33 34  1  0  0  0  0
 33 35  1  0  0  0  0
 33 36  1  0  0  0  0
 31 32  1  0  0  0  0
 31 33  1  0  0  0  0
 31 37  1  0  0  0  0
 29 30  1  0  0  0  0
 29 31  1  0  0  0  0
 41 42  1  0  0  0  0
 41 43  1  0  0  0  0
 41 44  1  0  0  0  0
 39 40  1  0  0  0  0
 39 41  1  0  0  0  0
M  END
$$$$
default_name
  -OEChem-01062215323D

 44 43  0     1  0  0  0  0  0999 V2000
    2.4488   -3.0448    2.0990 H   0  0  0  0  0  0  0  0  0  0  0  0
    2.2788   -2.0018    2.3640 C   0  0  0  0  0  0  0  0  0  0  0  0
    2.9228   -1.7258    3.1960 H   0  0  0  0  0  0  0  0  0  0  0  0
    1.2358   -1.8618    2.6430 H   0  0  0  0  0  0  0  0  0  0  0  0
    2.6018   -1.1318    1.1730 C   0  0  0  0  0  0  0  0  0  0  0  0
    3.0048   -1.6348    0.1320 O   0  0  0  0  0  0  0  0  0  0  0  0
    2.4088    0.1752    1.3190 N   0  0  0  0  0  0  0  0  0  0  0  0
    2.0708    0.5242    2.2050 H   0  0  0  0  0  0  0  0  0  0  0  0
    2.6638    1.1782    0.2840 C   0  0  1  0  0  0  0  0  0  0  0  0
    2.8041    0.6583   -0.6652 H   0  0  0  0  0  0  0  0  0  0  0  0
    1.4415    2.1026    0.1460 C   0  0  0  0  0  0  0  0  0  0  0  0
    1.7039    2.9360   -0.5069 H   0  0  0  0  0  0  0  0  0  0  0  0
    1.2367    2.5328    1.1260 H   0  0  0  0  0  0  0  0  0  0  0  0
   -0.1142    1.3727   -0.4456 S   0  0  0  0  0  0  0  0  0  0  0  0
    3.9523    1.9675    0.5823 C   0  0  0  0  0  0  0  0  0  0  0  0
    4.8881    1.9619   -0.2172 O   0  0  0  0  0  0  0  0  0  0  0  0
    3.9969    2.6529    1.7326 N   0  0  0  0  0  0  0  0  0  0  0  0
    3.1940    2.6161    2.3398 H   0  0  0  0  0  0  0  0  0  0  0  0
    5.1470    3.4471    2.1595 C   0  0  0  0  0  0  0  0  0  0  0  0
    6.0148    2.7968    2.2883 H   0  0  0  0  0  0  0  0  0  0  0  0
    5.3840    4.1928    1.3984 H   0  0  0  0  0  0  0  0  0  0  0  0
    4.9309    3.9510    3.1024 H   0  0  0  0  0  0  0  0  0  0  0  0
    0.8377    5.2002   -7.5356 H   0  0  0  0  0  0  0  0  0  0  0  0
    0.5107    5.3815   -6.5128 C   0  0  0  0  0  0  0  0  0  0  0  0
   -0.3416    6.0591   -6.5143 H   0  0  0  0  0  0  0  0  0  0  0  0
    1.3274    5.8163   -5.9397 H   0  0  0  0  0  0  0  0  0  0  0  0
    0.1047    4.0674   -5.8876 C   0  0  0  0  0  0  0  0  0  0  0  0
    0.1878    3.0272   -6.5265 O   0  0  0  0  0  0  0  0  0  0  0  0
   -0.3279    4.1168   -4.6306 N   0  0  0  0  0  0  0  0  0  0  0  0
   -0.3799    5.0128   -4.1680 H   0  0  0  0  0  0  0  0  0  0  0  0
   -0.7586    2.9535   -3.8551 C   0  0  1  0  0  0  0  0  0  0  0  0
   -1.2850    2.2613   -4.5146 H   0  0  0  0  0  0  0  0  0  0  0  0
    0.4952    2.2493   -3.3179 C   0  0  0  0  0  0  0  0  0  0  0  0
    1.1142    1.9814   -4.1754 H   0  0  0  0  0  0  0  0  0  0  0  0
    1.0671    2.9570   -2.7173 H   0  0  0  0  0  0  0  0  0  0  0  0
    0.2531    0.7354   -2.3501 S   0  0  0  0  0  0  0  0  0  0  0  0
   -1.7261    3.3800   -2.7368 C   0  0  0  0  0  0  0  0  0  0  0  0
   -1.6193    4.4948   -2.2238 O   0  0  0  0  0  0  0  0  0  0  0  0
   -2.6682    2.5024   -2.3684 N   0  0  0  0  0  0  0  0  0  0  0  0
   -2.6679    1.5983   -2.8135 H   0  0  0  0  0  0  0  0  0  0  0  0
   -3.6564    2.7483   -1.3189 C   0  0  0  0  0  0  0  0  0  0  0  0
   -3.1774    2.6846   -0.3404 H   0  0  0  0  0  0  0  0  0  0  0  0
   -4.0825    3.7478   -1.4337 H   0  0  0  0  0  0  0  0  0  0  0  0
   -4.4574    2.0110   -1.3753 H   0  0  0  0  0  0  0  0  0  0  0  0
  5  6  2  0  0  0  0
  5  7  1  0  0  0  0
  2  3  1  0  0  0  0
  2  4  1  0  0  0  0
  2  5  1  0  0  0  0
  1  2  1  0  0  0  0
 15 16  2  0  0  0  0
 15 17  1  0  0  0  0
 14 36  1  0  0  0  0
 11 12  1  0  0  0  0
 11 13  1  0  0  0  0
 11 14  1  0  0  0  0
  9 10  1  0  0  0  0
  9 11  1  0  0  0  0
  9 15  1  0  0  0  0
  7  8  1  0  0  0  0
  7  9  1  0  0  0  0
 19 20  1  0  0  0  0
 19 21  1  0  0  0  0
 19 22  1  0  0  0  0
 17 18  1  0  0  0  0
 17 19  1  0  0  0  0
 27 28  2  0  0  0  0
 27 29  1  0  0  0  0
 24 25  1  0  0  0  0
 24 26  1  0  0  0  0
 24 27  1  0  0  0  0
 23 24  1  0  0  0  0
 37 38  2  0  0  0  0
 37 39  1  0  0  0  0
 33 34  1  0  0  0  0
 33 35  1  0  0  0  0
 33 36  1  0  0  0  0
 31 32  1  0  0  0  0
 31 33  1  0  0  0  0
 31 37  1  0  0  0  0
 29 30  1  0  0  0  0
 29 31  1  0  0  0  0
 41 42  1  0  0  0  0
 41 43  1  0  0  0  0
 41 44  1  0  0  0  0
 39 40  1  0  0  0  0
 39 41  1  0  0  0  0
M  END
$$$$
default_name
  -OEChem-01062215323D

 44 43  0     1  0  0  0  0  0999 V2000
    2.4488   -3.0448    2.0990 H   0  0  0  0  0  0  0  0  0  0  0  0
    2.2788   -2.0018    2.3640 C   0  0  0  0  0  0  0  0  0  0  0  0
    2.9228   -1.7258    3.1960 H   0  0  0  0  0  0  0  0  0  0  0  0
    1.2358   -1.8618    2.6430 H   0  0  0  0  0  0  0  0  0  0  0  0
    2.6018   -1.1318    1.1730 C   0  0  0  0  0  0  0  0  0  0  0  0
    3.0048   -1.6348    0.1320 O   0  0  0  0  0  0  0  0  0  0  0  0
    2.4088    0.1752    1.3190 N   0  0  0  0  0  0  0  0  0  0  0  0
    2.0708    0.5242    2.2050 H   0  0  0  0  0  0  0  0  0  0  0  0
    2.6638    1.1782    0.2840 C   0  0  1  0  0  0  0  0  0  0  0  0
    2.8041    0.6583   -0.6652 H   0  0  0  0  0  0  0  0  0  0  0  0
    1.4415    2.1026    0.1460 C   0  0  0  0  0  0  0  0  0  0  0  0
    1.7039    2.9360   -0.5069 H   0  0  0  0  0  0  0  0  0  0  0  0
    1.2367    2.5328    1.1260 H   0  0  0  0  0  0  0  0  0  0  0  0
   -0.1142    1.3727   -0.4456 S   0  0  0  0  0  0  0  0  0  0  0  0
    3.9523    1.9675    0.5823 C   0  0  0  0  0  0  0  0  0  0  0  0
    4.7683    2.1930   -0.3112 O   0  0  0  0  0  0  0  0  0  0  0  0
    4.1310    2.3934    1.8399 N   0  0  0  0  0  0  0  0  0  0  0  0
    3.4215    2.1761    2.5211 H   0  0  0  0  0  0  0  0  0  0  0  0
    5.3001    3.1512    2.2812 C   0  0  0  0  0  0  0  0  0  0  0  0
    6.1999    2.5459    2.1525 H   0  0  0  0  0  0  0  0  0  0  0  0
    5.4030    4.0557    1.6789 H   0  0  0  0  0  0  0  0  0  0  0  0
    5.1986    3.4274    3.3315 H   0  0  0  0  0  0  0  0  0  0  0  0
    0.8377    5.2002   -7.5356 H   0  0  0  0  0  0  0  0  0  0  0  0
    0.5107    5.3815   -6.5128 C   0  0  0  0  0  0  0  0  0  0  0  0
   -0.3416    6.0591   -6.5143 H   0  0  0  0  0  0  0  0  0  0  0  0
    1.3274    5.8163   -5.9397 H   0  0  0  0  0  0  0  0  0  0  0  0
    0.1047    4.0674   -5.8876 C   0  0  0  0  0  0  0  0  0  0  0  0
    0.1878    3.0272   -6.5265 O   0  0  0  0  0  0  0  0  0  0  0  0
   -0.3279    4.1168   -4.6306 N   0  0  0  0  0  0  0  0  0  0  0  0
   -0.3799    5.0128   -4.1680 H   0  0  0  0  0  0  0  0  0  0  0  0
   -0.7586    2.9535   -3.8551 C   0  0  1  0  0  0  0  0  0  0  0  0
   -1.2850    2.2613   -4.5146 H   0  0  0  0  0  0  0  0  0  0  0  0
    0.4952    2.2493   -3.3179 C   0  0  0  0  0  0  0  0  0  0  0  0
    1.1142    1.9814   -4.1754 H   0  0  0  0  0  0  0  0  0  0  0  0
    1.0671    2.9570   -2.7173 H   0  0  0  0  0  0  0  0  0  0  0  0
    0.2531    0.7354   -2.3501 S   0  0  0  0  0  0  0  0  0  0  0  0
   -1.7261    3.3800   -2.7368 C   0  0  0  0  0  0  0  0  0  0  0  0
   -1.6193    4.4948   -2.2238 O   0  0  0  0  0  0  0  0  0  0  0  0
   -2.6682    2.5024   -2.3684 N   0  0  0  0  0  0  0  0  0  0  0  0
   -2.6679    1.5983   -2.8135 H   0  0  0  0  0  0  0  0  0  0  0  0
   -3.6564    2.7483   -1.3189 C   0  0  0  0  0  0  0  0  0  0  0  0
   -3.1774    2.6846   -0.3404 H   0  0  0  0  0  0  0  0  0  0  0  0
   -4.0825    3.7478   -1.4337 H   0  0  0  0  0  0  0  0  0  0  0  0
   -4.4574    2.0110   -1.3753 H   0  0  0  0  0  0  0  0  0  0  0  0
  5  6  2  0  0  0  0
  5  7  1  0  0  0  0
  2  3  1  0  0  0  0
  2  4  1  0  0  0  0
  2  5  1  0  0  0  0
  1  2  1  0  0  0  0
 15 16  2  0  0  0  0
 15 17  1  0  0  0  0
 14 36  1  0  0  0  0
 11 12  1  0  0  0  0
 11 13  1  0  0  0  0
 11 14  1  0  0  0  0
  9 10  1  0  0  0  0
  9 11  1  0  0  0  0
  9 15  1  0  0  0  0
  7  8  1  0  0  0  0
  7  9  1  0  0  0  0
 19 20  1  0  0  0  0
 19 21  1  0  0  0  0
 19 22  1  0  0  0  0
 17 18  1  0  0  0  0
 17 19  1  0  0  0  0
 27 28  2  0  0  0  0
 27 29  1  0  0  0  0
 24 25  1  0  0  0  0
 24 26  1  0  0  0  0
 24 27  1  0  0  0  0
 23 24  1  0  0  0  0
 37 38  2  0  0  0  0
 37 39  1  0  0  0  0
 33 34  1  0  0  0  0
 33 35  1  0  0  0  0
 33 36  1  0  0  0  0
 31 32  1  0  0  0  0
 31 33  1  0  0  0  0
 31 37  1  0  0  0  0
 29 30  1  0  0  0  0
 29 31  1  0  0  0  0
 41 42  1  0  0  0  0
 41 43  1  0  0  0  0
 41 44  1  0  0  0  0
 39 40  1  0  0  0  0
 39 41  1  0  0  0  0
M  END
$$$$
default_name
  -OEChem-01062215323D

 44 43  0     1  0  0  0  0  0999 V2000
    2.4488   -3.0448    2.0990 H   0  0  0  0  0  0  0  0  0  0  0  0
    2.2788   -2.0018    2.3640 C   0  0  0  0  0  0  0  0  0  0  0  0
    2.9228   -1.7258    3.1960 H   0  0  0  0  0  0  0  0  0  0  0  0
    1.2358   -1.8618    2.6430 H   0  0  0  0  0  0  0  0  0  0  0  0
    2.6018   -1.1318    1.1730 C   0  0  0  0  0  0  0  0  0  0  0  0
    3.0048   -1.6348    0.1320 O   0  0  0  0  0  0  0  0  0  0  0  0
    2.4088    0.1752    1.3190 N   0  0  0  0  0  0  0  0  0  0  0  0
    2.0708    0.5242    2.2050 H   0  0  0  0  0  0  0  0  0  0  0  0
    2.6638    1.1782    0.2840 C   0  0  1  0  0  0  0  0  0  0  0  0
    2.8041    0.6583   -0.6652 H   0  0  0  0  0  0  0  0  0  0  0  0
    1.4415    2.1026    0.1460 C   0  0  0  0  0  0  0  0  0  0  0  0
    1.7039    2.9360   -0.5069 H   0  0  0  0  0  0  0  0  0  0  0  0
    1.2367    2.5328    1.1260 H   0  0  0  0  0  0  0  0  0  0  0  0
   -0.1142    1.3727   -0.4456 S   0  0  0  0  0  0  0  0  0  0  0  0
    3.9523    1.9675    0.5823 C   0  0  0  0  0  0  0  0  0  0  0  0
    4.6285    2.4306   -0.3361 O   0  0  0  0  0  0  0  0  0  0  0  0
    4.2878    2.1262    1.8696 N   0  0  0  0  0  0  0  0  0  0  0  0
    3.6874    1.7233    2.5709 H   0  0  0  0  0  0  0  0  0  0  0  0
    5.4790    2.8466    2.3144 C   0  0  0  0  0  0  0  0  0  0  0  0
    6.3733    2.3422    1.9424 H   0  0  0  0  0  0  0  0  0  0  0  0
    5.4655    3.8634    1.9177 H   0  0  0  0  0  0  0  0  0  0  0  0
    5.5139    2.8855    3.4039 H   0  0  0  0  0  0  0  0  0  0  0  0
    0.8377    5.2002   -7.5356 H   0  0  0  0  0  0  0  0  0  0  0  0
    0.5107    5.3815   -6.5128 C   0  0  0  0  0  0  0  0  0  0  0  0
   -0.3416    6.0591   -6.5143 H   0  0  0  0  0  0  0  0  0  0  0  0
    1.3274    5.8163   -5.9397 H   0  0  0  0  0  0  0  0  0  0  0  0
    0.1047    4.0674   -5.8876 C   0  0  0  0  0  0  0  0  0  0  0  0
    0.1878    3.0272   -6.5265 O   0  0  0  0  0  0  0  0  0  0  0  0
   -0.3279    4.1168   -4.6306 N   0  0  0  0  0  0  0  0  0  0  0  0
   -0.3799    5.0128   -4.1680 H   0  0  0  0  0  0  0  0  0  0  0  0
   -0.7586    2.9535   -3.8551 C   0  0  1  0  0  0  0  0  0  0  0  0
   -1.2850    2.2613   -4.5146 H   0  0  0  0  0  0  0  0  0  0  0  0
    0.4952    2.2493   -3.3179 C   0  0  0  0  0  0  0  0  0  0  0  0
    1.1142    1.9814   -4.1754 H   0  0  0  0  0  0  0  0  0  0  0  0
    1.0671    2.9570   -2.7173 H   0  0  0  0  0  0  0  0  0  0  0  0
    0.2531    0.7354   -2.3501 S   0  0  0  0  0  0  0  0  0  0  0  0
   -1.7261    3.3800   -2.7368 C   0  0  0  0  0  0  0  0  0  0  0  0
   -1.6193    4.4948   -2.2238 O   0  0  0  0  0  0  0  0  0  0  0  0
   -2.6682    2.5024   -2.3684 N   0  0  0  0  0  0  0  0  0  0  0  0
   -2.6679    1.5983   -2.8135 H   0  0  0  0  0  0  0  0  0  0  0  0
   -3.6564    2.7483   -1.3189 C   0  0  0  0  0  0  0  0  0  0  0  0
   -3.1774    2.6846   -0.3404 H   0  0  0  0  0  0  0  0  0  0  0  0
   -4.0825    3.7478   -1.4337 H   0  0  0  0  0  0  0  0  0  0  0  0
   -4.4574    2.0110   -1.3753 H   0  0  0  0  0  0  0  0  0  0  0  0
  5  6  2  0  0  0  0
  5  7  1  0  0  0  0
  2  3  1  0  0  0  0
  2  4  1  0  0  0  0
  2  5  1  0  0  0  0
  1  2  1  0  0  0  0
 15 16  2  0  0  0  0
 15 17  1  0  0  0  0
 14 36  1  0  0  0  0
 11 12  1  0  0  0  0
 11 13  1  0  0  0  0
 11 14  1  0  0  0  0
  9 10  1  0  0  0  0
  9 11  1  0  0  0  0
  9 15  1  0  0  0  0
  7  8  1  0  0  0  0
  7  9  1  0  0  0  0
 19 20  1  0  0  0  0
 19 21  1  0  0  0  0
 19 22  1  0  0  0  0
 17 18  1  0  0  0  0
 17 19  1  0  0  0  0
 27 28  2  0  0  0  0
 27 29  1  0  0  0  0
 24 25  1  0  0  0  0
 24 26  1  0  0  0  0
 24 27  1  0  0  0  0
 23 24  1  0  0  0  0
 37 38  2  0  0  0  0
 37 39  1  0  0  0  0
 33 34  1  0  0  0  0
 33 35  1  0  0  0  0
 33 36  1  0  0  0  0
 31 32  1  0  0  0  0
 31 33  1  0  0  0  0
 31 37  1  0  0  0  0
 29 30  1  0  0  0  0
 29 31  1  0  0  0  0
 41 42  1  0  0  0  0
 41 43  1  0  0  0  0
 41 44  1  0  0  0  0
 39 40  1  0  0  0  0
 39 41  1  0  0  0  0
M  END
$$$$
default_name
  -OEChem-01062215323D

 44 43  0     1  0  0  0  0  0999 V2000
    2.4488   -3.0448    2.0990 H   0  0  0  0  0  0  0  0  0  0  0  0
    2.2788   -2.0018    2.3640 C   0  0  0  0  0  0  0  0  0  0  0  0
    2.9228   -1.7258    3.1960 H   0  0  0  0  0  0  0  0  0  0  0  0
    1.2358   -1.8618    2.6430 H   0  0  0  0  0  0  0  0  0  0  0  0
    2.6018   -1.1318    1.1730 C   0  0  0  0  0  0  0  0  0  0  0  0
    3.0048   -1.6348    0.1320 O   0  0  0  0  0  0  0  0  0  0  0  0
    2.4088    0.1752    1.3190 N   0  0  0  0  0  0  0  0  0  0  0  0
    2.0708    0.5242    2.2050 H   0  0  0  0  0  0  0  0  0  0  0  0
    2.6638    1.1782    0.2840 C   0  0  1  0  0  0  0  0  0  0  0  0
    2.8041    0.6583   -0.6652 H   0  0  0  0  0  0  0  0  0  0  0  0
    1.4415    2.1026    0.1460 C   0  0  0  0  0  0  0  0  0  0  0  0
    1.7039    2.9360   -0.5069 H   0  0  0  0  0  0  0  0  0  0  0  0
    1.2367    2.5328    1.1260 H   0  0  0  0  0  0  0  0  0  0  0  0
   -0.1142    1.3727   -0.4456 S   0  0  0  0  0  0  0  0  0  0  0  0
    3.9523    1.9675    0.5823 C   0  0  0  0  0  0  0  0  0  0  0  0
    4.4782    2.6585   -0.2901 O   0  0  0  0  0  0  0  0  0  0  0  0
    4.4566    1.8696    1.8196 N   0  0  0  0  0  0  0  0  0  0  0  0
    3.9736    1.2884    2.4856 H   0  0  0  0  0  0  0  0  0  0  0  0
    5.6715    2.5542    2.2569 C   0  0  0  0  0  0  0  0  0  0  0  0
    6.5232    2.1997    1.6724 H   0  0  0  0  0  0  0  0  0  0  0  0
    5.5672    3.6291    2.0985 H   0  0  0  0  0  0  0  0  0  0  0  0
    5.8551    2.3621    3.3147 H   0  0  0  0  0  0  0  0  0  0  0  0
    0.8377    5.2002   -7.5356 H   0  0  0  0  0  0  0  0  0  0  0  0
    0.5107    5.3815   -6.5128 C   0  0  0  0  0  0  0  0  0  0  0  0
   -0.3416    6.0591   -6.5143 H   0  0  0  0  0  0  0  0  0  0  0  0
    1.3274    5.8163   -5.9397 H   0  0  0  0  0  0  0  0  0  0  0  0
    0.1047    4.0674   -5.8876 C   0  0  0  0  0  0  0  0  0  0  0  0
    0.1878    3.0272   -6.5265 O   0  0  0  0  0  0  0  0  0  0  0  0
   -0.3279    4.1168   -4.6306 N   0  0  0  0  0  0  0  0  0  0  0  0
   -0.3799    5.0128   -4.1680 H   0  0  0  0  0  0  0  0  0  0  0  0
   -0.7586    2.9535   -3.8551 C   0  0  1  0  0  0  0  0  0  0  0  0
   -1.2850    2.2613   -4.5146 H   0  0  0  0  0  0  0  0  0  0  0  0
    0.4952    2.2493   -3.3179 C   0  0  0  0  0  0  0  0  0  0  0  0
    1.1142    1.9814   -4.1754 H   0  0  0  0  0  0  0  0  0  0  0  0
    1.0671    2.9570   -2.7173 H   0  0  0  0  0  0  0  0  0  0  0  0
    0.2531    0.7354   -2.3501 S   0  0  0  0  0  0  0  0  0  0  0  0
   -1.7261    3.3800   -2.7368 C   0  0  0  0  0  0  0  0  0  0  0  0
   -1.6193    4.4948   -2.2238 O   0  0  0  0  0  0  0  0  0  0  0  0
   -2.6682    2.5024   -2.3684 N   0  0  0  0  0  0  0  0  0  0  0  0
   -2.6679    1.5983   -2.8135 H   0  0  0  0  0  0  0  0  0  0  0  0
   -3.6564    2.7483   -1.3189 C   0  0  0  0  0  0  0  0  0  0  0  0
   -3.1774    2.6846   -0.3404 H   0  0  0  0  0  0  0  0  0  0  0  0
   -4.0825    3.7478   -1.4337 H   0  0  0  0  0  0  0  0  0  0  0  0
   -4.4574    2.0110   -1.3753 H   0  0  0  0  0  0  0  0  0  0  0  0
  5  6  2  0  0  0  0
  5  7  1  0  0  0  0
  2  3  1  0  0  0  0
  2  4  1  0  0  0  0
  2  5  1  0  0  0  0
  1  2  1  0  0  0  0
 15 16  2  0  0  0  0
 15 17  1  0  0  0  0
 14 36  1  0  0  0  0
 11 12  1  0  0  0  0
 11 13  1  0  0  0  0
 11 14  1  0  0  0  0
  9 10  1  0  0  0  0
  9 11  1  0  0  0  0
  9 15  1  0  0  0  0
  7  8  1  0  0  0  0
  7  9  1  0  0  0  0
 19 20  1  0  0  0  0
 19 21  1  0  0  0  0
 19 22  1  0  0  0  0
 17 18  1  0  0  0  0
 17 19  1  0  0  0  0
 27 28  2  0  0  0  0
 27 29  1  0  0  0  0
 24 25  1  0  0  0  0
 24 26  1  0  0  0  0
 24 27  1  0  0  0  0
 23 24  1  0  0  0  0
 37 38  2  0  0  0  0
 37 39  1  0  0  0  0
 33 34  1  0  0  0  0
 33 35  1  0  0  0  0
 33 36  1  0  0  0  0
 31 32  1  0  0  0  0
 31 33  1  0  0  0  0
 31 37  1  0  0  0  0
 29 30  1  0  0  0  0
 29 31  1  0  0  0  0
 41 42  1  0  0  0  0
 41 43  1  0  0  0  0
 41 44  1  0  0  0  0
 39 40  1  0  0  0  0
 39 41  1  0  0  0  0
M  END
$$$$
default_name
  -OEChem-01062215323D

 44 43  0     1  0  0  0  0  0999 V2000
    2.4488   -3.0448    2.0990 H   0  0  0  0  0  0  0  0  0  0  0  0
    2.2788   -2.0018    2.3640 C   0  0  0  0  0  0  0  0  0  0  0  0
    2.9228   -1.7258    3.1960 H   0  0  0  0  0  0  0  0  0  0  0  0
    1.2358   -1.8618    2.6430 H   0  0  0  0  0  0  0  0  0  0  0  0
    2.6018   -1.1318    1.1730 C   0  0  0  0  0  0  0  0  0  0  0  0
    3.0048   -1.6348    0.1320 O   0  0  0  0  0  0  0  0  0  0  0  0
    2.4088    0.1752    1.3190 N   0  0  0  0  0  0  0  0  0  0  0  0
    2.0708    0.5242    2.2050 H   0  0  0  0  0  0  0  0  0  0  0  0
    2.6638    1.1782    0.2840 C   0  0  1  0  0  0  0  0  0  0  0  0
    2.8041    0.6583   -0.6652 H   0  0  0  0  0  0  0  0  0  0  0  0
    1.4415    2.1026    0.1460 C   0  0  0  0  0  0  0  0  0  0  0  0
    1.7039    2.9360   -0.5069 H   0  0  0  0  0  0  0  0  0  0  0  0
    1.2367    2.5328    1.1260 H   0  0  0  0  0  0  0  0  0  0  0  0
   -0.1142    1.3727   -0.4456 S   0  0  0  0  0  0  0  0  0  0  0  0
    3.9523    1.9675    0.5823 C   0  0  0  0  0  0  0  0  0  0  0  0
    4.3278    2.8611   -0.1764 O   0  0  0  0  0  0  0  0  0  0  0  0
    4.6259    1.6410    1.6934 N   0  0  0  0  0  0  0  0  0  0  0  0
    4.2604    0.9012    2.2712 H   0  0  0  0  0  0  0  0  0  0  0  0
    5.8644    2.2939    2.1124 C   0  0  0  0  0  0  0  0  0  0  0  0
    6.6393    2.1279    1.3609 H   0  0  0  0  0  0  0  0  0  0  0  0
    5.7011    3.3688    2.2088 H   0  0  0  0  0  0  0  0  0  0  0  0
    6.1992    1.8930    3.0700 H   0  0  0  0  0  0  0  0  0  0  0  0
    0.8377    5.2002   -7.5356 H   0  0  0  0  0  0  0  0  0  0  0  0
    0.5107    5.3815   -6.5128 C   0  0  0  0  0  0  0  0  0  0  0  0
   -0.3416    6.0591   -6.5143 H   0  0  0  0  0  0  0  0  0  0  0  0
    1.3274    5.8163   -5.9397 H   0  0  0  0  0  0  0  0  0  0  0  0
    0.1047    4.0674   -5.8876 C   0  0  0  0  0  0  0  0  0  0  0  0
    0.1878    3.0272   -6.5265 O   0  0  0  0  0  0  0  0  0  0  0  0
   -0.3279    4.1168   -4.6306 N   0  0  0  0  0  0  0  0  0  0  0  0
   -0.3799    5.0128   -4.1680 H   0  0  0  0  0  0  0  0  0  0  0  0
   -0.7586    2.9535   -3.8551 C   0  0  1  0  0  0  0  0  0  0  0  0
   -1.2850    2.2613   -4.5146 H   0  0  0  0  0  0  0  0  0  0  0  0
    0.4952    2.2493   -3.3179 C   0  0  0  0  0  0  0  0  0  0  0  0
    1.1142    1.9814   -4.1754 H   0  0  0  0  0  0  0  0  0  0  0  0
    1.0671    2.9570   -2.7173 H   0  0  0  0  0  0  0  0  0  0  0  0
    0.2531    0.7354   -2.3501 S   0  0  0  0  0  0  0  0  0  0  0  0
   -1.7261    3.3800   -2.7368 C   0  0  0  0  0  0  0  0  0  0  0  0
   -1.6193    4.4948   -2.2238 O   0  0  0  0  0  0  0  0  0  0  0  0
   -2.6682    2.5024   -2.3684 N   0  0  0  0  0  0  0  0  0  0  0  0
   -2.6679    1.5983   -2.8135 H   0  0  0  0  0  0  0  0  0  0  0  0
   -3.6564    2.7483   -1.3189 C   0  0  0  0  0  0  0  0  0  0  0  0
   -3.1774    2.6846   -0.3404 H   0  0  0  0  0  0  0  0  0  0  0  0
   -4.0825    3.7478   -1.4337 H   0  0  0  0  0  0  0  0  0  0  0  0
   -4.4574    2.0110   -1.3753 H   0  0  0  0  0  0  0  0  0  0  0  0
  5  6  2  0  0  0  0
  5  7  1  0  0  0  0
  2  3  1  0  0  0  0
  2  4  1  0  0  0  0
  2  5  1  0  0  0  0
  1  2  1  0  0  0  0
 15 16  2  0  0  0  0
 15 17  1  0  0  0  0
 14 36  1  0  0  0  0
 11 12  1  0  0  0  0
 11 13  1  0  0  0  0
 11 14  1  0  0  0  0
  9 10  1  0  0  0  0
  9 11  1  0  0  0  0
  9 15  1  0  0  0  0
  7  8  1  0  0  0  0
  7  9  1  0  0  0  0
 19 20  1  0  0  0  0
 19 21  1  0  0  0  0
 19 22  1  0  0  0  0
 17 18  1  0  0  0  0
 17 19  1  0  0  0  0
 27 28  2  0  0  0  0
 27 29  1  0  0  0  0
 24 25  1  0  0  0  0
 24 26  1  0  0  0  0
 24 27  1  0  0  0  0
 23 24  1  0  0  0  0
 37 38  2  0  0  0  0
 37 39  1  0  0  0  0
 33 34  1  0  0  0  0
 33 35  1  0  0  0  0
 33 36  1  0  0  0  0
 31 32  1  0  0  0  0
 31 33  1  0  0  0  0
 31 37  1  0  0  0  0
 29 30  1  0  0  0  0
 29 31  1  0  0  0  0
 41 42  1  0  0  0  0
 41 43  1  0  0  0  0
 41 44  1  0  0  0  0
 39 40  1  0  0  0  0
 39 41  1  0  0  0  0
M  END
$$$$
default_name
  -OEChem-01062215323D

 44 43  0     1  0  0  0  0  0999 V2000
    2.4488   -3.0448    2.0990 H   0  0  0  0  0  0  0  0  0  0  0  0
    2.2788   -2.0018    2.3640 C   0  0  0  0  0  0  0  0  0  0  0  0
    2.9228   -1.7258    3.1960 H   0  0  0  0  0  0  0  0  0  0  0  0
    1.2358   -1.8618    2.6430 H   0  0  0  0  0  0  0  0  0  0  0  0
    2.6018   -1.1318    1.1730 C   0  0  0  0  0  0  0  0  0  0  0  0
    3.0048   -1.6348    0.1320 O   0  0  0  0  0  0  0  0  0  0  0  0
    2.4088    0.1752    1.3190 N   0  0  0  0  0  0  0  0  0  0  0  0
    2.0708    0.5242    2.2050 H   0  0  0  0  0  0  0  0  0  0  0  0
    2.6638    1.1782    0.2840 C   0  0  1  0  0  0  0  0  0  0  0  0
    2.8041    0.6583   -0.6652 H   0  0  0  0  0  0  0  0  0  0  0  0
    1.4415    2.1026    0.1460 C   0  0  0  0  0  0  0  0  0  0  0  0
    1.7039    2.9360   -0.5069 H   0  0  0  0  0  0  0  0  0  0  0  0
    1.2367    2.5328    1.1260 H   0  0  0  0  0  0  0  0  0  0  0  0
   -0.1142    1.3727   -0.4456 S   0  0  0  0  0  0  0  0  0  0  0  0
    3.9523    1.9675    0.5823 C   0  0  0  0  0  0  0  0  0  0  0  0
    4.1873    3.0247   -0.0028 O   0  0  0  0  0  0  0  0  0  0  0  0
    4.7841    1.4560    1.4995 N   0  0  0  0  0  0  0  0  0  0  0  0
    4.5285    0.5880    1.9421 H   0  0  0  0  0  0  0  0  0  0  0  0
    6.0447    2.0834    1.8909 C   0  0  0  0  0  0  0  0  0  0  0  0
    6.7136    2.1319    1.0291 H   0  0  0  0  0  0  0  0  0  0  0  0
    5.8582    3.1002    2.2413 H   0  0  0  0  0  0  0  0  0  0  0  0
    6.5226    1.5102    2.6864 H   0  0  0  0  0  0  0  0  0  0  0  0
    0.8377    5.2002   -7.5356 H   0  0  0  0  0  0  0  0  0  0  0  0
    0.5107    5.3815   -6.5128 C   0  0  0  0  0  0  0  0  0  0  0  0
   -0.3416    6.0591   -6.5143 H   0  0  0  0  0  0  0  0  0  0  0  0
    1.3274    5.8163   -5.9397 H   0  0  0  0  0  0  0  0  0  0  0  0
    0.1047    4.0674   -5.8876 C   0  0  0  0  0  0  0  0  0  0  0  0
    0.1878    3.0272   -6.5265 O   0  0  0  0  0  0  0  0  0  0  0  0
   -0.3279    4.1168   -4.6306 N   0  0  0  0  0  0  0  0  0  0  0  0
   -0.3799    5.0128   -4.1680 H   0  0  0  0  0  0  0  0  0  0  0  0
   -0.7586    2.9535   -3.8551 C   0  0  1  0  0  0  0  0  0  0  0  0
   -1.2850    2.2613   -4.5146 H   0  0  0  0  0  0  0  0  0  0  0  0
    0.4952    2.2493   -3.3179 C   0  0  0  0  0  0  0  0  0  0  0  0
    1.1142    1.9814   -4.1754 H   0  0  0  0  0  0  0  0  0  0  0  0
    1.0671    2.9570   -2.7173 H   0  0  0  0  0  0  0  0  0  0  0  0
    0.2531    0.7354   -2.3501 S   0  0  0  0  0  0  0  0  0  0  0  0
   -1.7261    3.3800   -2.7368 C   0  0  0  0  0  0  0  0  0  0  0  0
   -1.6193    4.4948   -2.2238 O   0  0  0  0  0  0  0  0  0  0  0  0
   -2.6682    2.5024   -2.3684 N   0  0  0  0  0  0  0  0  0  0  0  0
   -2.6679    1.5983   -2.8135 H   0  0  0  0  0  0  0  0  0  0  0  0
   -3.6564    2.7483   -1.3189 C   0  0  0  0  0  0  0  0  0  0  0  0
   -3.1774    2.6846   -0.3404 H   0  0  0  0  0  0  0  0  0  0  0  0
   -4.0825    3.7478   -1.4337 H   0  0  0  0  0  0  0  0  0  0  0  0
   -4.4574    2.0110   -1.3753 H   0  0  0  0  0  0  0  0  0  0  0  0
  5  6  2  0  0  0  0
  5  7  1  0  0  0  0
  2  3  1  0  0  0  0
  2  4  1  0  0  0  0
  2  5  1  0  0  0  0
  1  2  1  0  0  0  0
 15 16  2  0  0  0  0
 15 17  1  0  0  0  0
 14 36  1  0  0  0  0
 11 12  1  0  0  0  0
 11 13  1  0  0  0  0
 11 14  1  0  0  0  0
  9 10  1  0  0  0  0
  9 11  1  0  0  0  0
  9 15  1  0  0  0  0
  7  8  1  0  0  0  0
  7  9  1  0  0  0  0
 19 20  1  0  0  0  0
 19 21  1  0  0  0  0
 19 22  1  0  0  0  0
 17 18  1  0  0  0  0
 17 19  1  0  0  0  0
 27 28  2  0  0  0  0
 27 29  1  0  0  0  0
 24 25  1  0  0  0  0
 24 26  1  0  0  0  0
 24 27  1  0  0  0  0
 23 24  1  0  0  0  0
 37 38  2  0  0  0  0
 37 39  1  0  0  0  0
 33 34  1  0  0  0  0
 33 35  1  0  0  0  0
 33 36  1  0  0  0  0
 31 32  1  0  0  0  0
 31 33  1  0  0  0  0
 31 37  1  0  0  0  0
 29 30  1  0  0  0  0
 29 31  1  0  0  0  0
 41 42  1  0  0  0  0
 41 43  1  0  0  0  0
 41 44  1  0  0  0  0
 39 40  1  0  0  0  0
 39 41  1  0  0  0  0
M  END
$$$$
default_name
  -OEChem-01062215323D

 44 43  0     1  0  0  0  0  0999 V2000
    2.4488   -3.0448    2.0990 H   0  0  0  0  0  0  0  0  0  0  0  0
    2.2788   -2.0018    2.3640 C   0  0  0  0  0  0  0  0  0  0  0  0
    2.9228   -1.7258    3.1960 H   0  0  0  0  0  0  0  0  0  0  0  0
    1.2358   -1.8618    2.6430 H   0  0  0  0  0  0  0  0  0  0  0  0
    2.6018   -1.1318    1.1730 C   0  0  0  0  0  0  0  0  0  0  0  0
    3.0048   -1.6348    0.1320 O   0  0  0  0  0  0  0  0  0  0  0  0
    2.4088    0.1752    1.3190 N   0  0  0  0  0  0  0  0  0  0  0  0
    2.0708    0.5242    2.2050 H   0  0  0  0  0  0  0  0  0  0  0  0
    2.6638    1.1782    0.2840 C   0  0  1  0  0  0  0  0  0  0  0  0
    2.8041    0.6583   -0.6652 H   0  0  0  0  0  0  0  0  0  0  0  0
    1.4415    2.1026    0.1460 C   0  0  0  0  0  0  0  0  0  0  0  0
    1.7039    2.9360   -0.5069 H   0  0  0  0  0  0  0  0  0  0  0  0
    1.2367    2.5328    1.1260 H   0  0  0  0  0  0  0  0  0  0  0  0
   -0.1142    1.3727   -0.4456 S   0  0  0  0  0  0  0  0  0  0  0  0
    3.9523    1.9675    0.5823 C   0  0  0  0  0  0  0  0  0  0  0  0
    4.0665    3.1381    0.2190 O   0  0  0  0  0  0  0  0  0  0  0  0
    4.9205    1.3272    1.2512 N   0  0  0  0  0  0  0  0  0  0  0  0
    4.7595    0.3702    1.5209 H   0  0  0  0  0  0  0  0  0  0  0  0
    6.2000    1.9370    1.6075 C   0  0  0  0  0  0  0  0  0  0  0  0
    6.7413    2.2114    0.6995 H   0  0  0  0  0  0  0  0  0  0  0  0
    6.0277    2.8415    2.1937 H   0  0  0  0  0  0  0  0  0  0  0  0
    6.8032    1.2396    2.1901 H   0  0  0  0  0  0  0  0  0  0  0  0
    0.8377    5.2002   -7.5356 H   0  0  0  0  0  0  0  0  0  0  0  0
    0.5107    5.3815   -6.5128 C   0  0  0  0  0  0  0  0  0  0  0  0
   -0.3416    6.0591   -6.5143 H   0  0  0  0  0  0  0  0  0  0  0  0
    1.3274    5.8163   -5.9397 H   0  0  0  0  0  0  0  0  0  0  0  0
    0.1047    4.0674   -5.8876 C   0  0  0  0  0  0  0  0  0  0  0  0
    0.1878    3.0272   -6.5265 O   0  0  0  0  0  0  0  0  0  0  0  0
   -0.3279    4.1168   -4.6306 N   0  0  0  0  0  0  0  0  0  0  0  0
   -0.3799    5.0128   -4.1680 H   0  0  0  0  0  0  0  0  0  0  0  0
   -0.7586    2.9535   -3.8551 C   0  0  1  0  0  0  0  0  0  0  0  0
   -1.2850    2.2613   -4.5146 H   0  0  0  0  0  0  0  0  0  0  0  0
    0.4952    2.2493   -3.3179 C   0  0  0  0  0  0  0  0  0  0  0  0
    1.1142    1.9814   -4.1754 H   0  0  0  0  0  0  0  0  0  0  0  0
    1.0671    2.9570   -2.7173 H   0  0  0  0  0  0  0  0  0  0  0  0
    0.2531    0.7354   -2.3501 S   0  0  0  0  0  0  0  0  0  0  0  0
   -1.7261    3.3800   -2.7368 C   0  0  0  0  0  0  0  0  0  0  0  0
   -1.6193    4.4948   -2.2238 O   0  0  0  0  0  0  0  0  0  0  0  0
   -2.6682    2.5024   -2.3684 N   0  0  0  0  0  0  0  0  0  0  0  0
   -2.6679    1.5983   -2.8135 H   0  0  0  0  0  0  0  0  0  0  0  0
   -3.6564    2.7483   -1.3189 C   0  0  0  0  0  0  0  0  0  0  0  0
   -3.1774    2.6846   -0.3404 H   0  0  0  0  0  0  0  0  0  0  0  0
   -4.0825    3.7478   -1.4337 H   0  0  0  0  0  0  0  0  0  0  0  0
   -4.4574    2.0110   -1.3753 H   0  0  0  0  0  0  0  0  0  0  0  0
  5  6  2  0  0  0  0
  5  7  1  0  0  0  0
  2  3  1  0  0  0  0
  2  4  1  0  0  0  0
  2  5  1  0  0  0  0
  1  2  1  0  0  0  0
 15 16  2  0  0  0  0
 15 17  1  0  0  0  0
 14 36  1  0  0  0  0
 11 12  1  0  0  0  0
 11 13  1  0  0  0  0
 11 14  1  0  0  0  0
  9 10  1  0  0  0  0
  9 11  1  0  0  0  0
  9 15  1  0  0  0  0
  7  8  1  0  0  0  0
  7  9  1  0  0  0  0
 19 20  1  0  0  0  0
 19 21  1  0  0  0  0
 19 22  1  0  0  0  0
 17 18  1  0  0  0  0
 17 19  1  0  0  0  0
 27 28  2  0  0  0  0
 27 29  1  0  0  0  0
 24 25  1  0  0  0  0
 24 26  1  0  0  0  0
 24 27  1  0  0  0  0
 23 24  1  0  0  0  0
 37 38  2  0  0  0  0
 37 39  1  0  0  0  0
 33 34  1  0  0  0  0
 33 35  1  0  0  0  0
 33 36  1  0  0  0  0
 31 32  1  0  0  0  0
 31 33  1  0  0  0  0
 31 37  1  0  0  0  0
 29 30  1  0  0  0  0
 29 31  1  0  0  0  0
 41 42  1  0  0  0  0
 41 43  1  0  0  0  0
 41 44  1  0  0  0  0
 39 40  1  0  0  0  0
 39 41  1  0  0  0  0
M  END
$$$$
default_name
  -OEChem-01062215323D

 44 43  0     1  0  0  0  0  0999 V2000
    2.4488   -3.0448    2.0990 H   0  0  0  0  0  0  0  0  0  0  0  0
    2.2788   -2.0018    2.3640 C   0  0  0  0  0  0  0  0  0  0  0  0
    2.9228   -1.7258    3.1960 H   0  0  0  0  0  0  0  0  0  0  0  0
    1.2358   -1.8618    2.6430 H   0  0  0  0  0  0  0  0  0  0  0  0
    2.6018   -1.1318    1.1730 C   0  0  0  0  0  0  0  0  0  0  0  0
    3.0048   -1.6348    0.1320 O   0  0  0  0  0  0  0  0  0  0  0  0
    2.4088    0.1752    1.3190 N   0  0  0  0  0  0  0  0  0  0  0  0
    2.0708    0.5242    2.2050 H   0  0  0  0  0  0  0  0  0  0  0  0
    2.6638    1.1782    0.2840 C   0  0  1  0  0  0  0  0  0  0  0  0
    2.8041    0.6583   -0.6652 H   0  0  0  0  0  0  0  0  0  0  0  0
    1.4415    2.1026    0.1460 C   0  0  0  0  0  0  0  0  0  0  0  0
    1.7039    2.9360   -0.5069 H   0  0  0  0  0  0  0  0  0  0  0  0
    1.2367    2.5328    1.1260 H   0  0  0  0  0  0  0  0  0  0  0  0
   -0.1142    1.3727   -0.4456 S   0  0  0  0  0  0  0  0  0  0  0  0
    3.9523    1.9675    0.5823 C   0  0  0  0  0  0  0  0  0  0  0  0
    3.9736    3.1935    0.4738 O   0  0  0  0  0  0  0  0  0  0  0  0
    5.0257    1.2635    0.9654 N   0  0  0  0  0  0  0  0  0  0  0  0
    4.9377    0.2625    1.0363 H   0  0  0  0  0  0  0  0  0  0  0  0
    6.3197    1.8648    1.2814 C   0  0  0  0  0  0  0  0  0  0  0  0
    6.7203    2.3608    0.3948 H   0  0  0  0  0  0  0  0  0  0  0  0
    6.1980    2.6105    2.0692 H   0  0  0  0  0  0  0  0  0  0  0  0
    7.0221    1.0999    1.6148 H   0  0  0  0  0  0  0  0  0  0  0  0
    0.8377    5.2002   -7.5356 H   0  0  0  0  0  0  0  0  0  0  0  0
    0.5107    5.3815   -6.5128 C   0  0  0  0  0  0  0  0  0  0  0  0
   -0.3416    6.0591   -6.5143 H   0  0  0  0  0  0  0  0  0  0  0  0
    1.3274    5.8163   -5.9397 H   0  0  0  0  0  0  0  0  0  0  0  0
    0.1047    4.0674   -5.8876 C   0  0  0  0  0  0  0  0  0  0  0  0
    0.1878    3.0272   -6.5265 O   0  0  0  0  0  0  0  0  0  0  0  0
   -0.3279    4.1168   -4.6306 N   0  0  0  0  0  0  0  0  0  0  0  0
   -0.3799    5.0128   -4.1680 H   0  0  0  0  0  0  0  0  0  0  0  0
   -0.7586    2.9535   -3.8551 C   0  0  1  0  0  0  0  0  0  0  0  0
   -1.2850    2.2613   -4.5146 H   0  0  0  0  0  0  0  0  0  0  0  0
    0.4952    2.2493   -3.3179 C   0  0  0  0  0  0  0  0  0  0  0  0
    1.1142    1.9814   -4.1754 H   0  0  0  0  0  0  0  0  0  0  0  0
    1.0671    2.9570   -2.7173 H   0  0  0  0  0  0  0  0  0  0  0  0
    0.2531    0.7354   -2.3501 S   0  0  0  0  0  0  0  0  0  0  0  0
   -1.7261    3.3800   -2.7368 C   0  0  0  0  0  0  0  0  0  0  0  0
   -1.6193    4.4948   -2.2238 O   0  0  0  0  0  0  0  0  0  0  0  0
   -2.6682    2.5024   -2.3684 N   0  0  0  0  0  0  0  0  0  0  0  0
   -2.6679    1.5983   -2.8135 H   0  0  0  0  0  0  0  0  0  0  0  0
   -3.6564    2.7483   -1.3189 C   0  0  0  0  0  0  0  0  0  0  0  0
   -3.1774    2.6846   -0.3404 H   0  0  0  0  0  0  0  0  0  0  0  0
   -4.0825    3.7478   -1.4337 H   0  0  0  0  0  0  0  0  0  0  0  0
   -4.4574    2.0110   -1.3753 H   0  0  0  0  0  0  0  0  0  0  0  0
  5  6  2  0  0  0  0
  5  7  1  0  0  0  0
  2  3  1  0  0  0  0
  2  4  1  0  0  0  0
  2  5  1  0  0  0  0
  1  2  1  0  0  0  0
 15 16  2  0  0  0  0
 15 17  1  0  0  0  0
 14 36  1  0  0  0  0
 11 12  1  0  0  0  0
 11 13  1  0  0  0  0
 11 14  1  0  0  0  0
  9 10  1  0  0  0  0
  9 11  1  0  0  0  0
  9 15  1  0  0  0  0
  7  8  1  0  0  0  0
  7  9  1  0  0  0  0
 19 20  1  0  0  0  0
 19 21  1  0  0  0  0
 19 22  1  0  0  0  0
 17 18  1  0  0  0  0
 17 19  1  0  0  0  0
 27 28  2  0  0  0  0
 27 29  1  0  0  0  0
 24 25  1  0  0  0  0
 24 26  1  0  0  0  0
 24 27  1  0  0  0  0
 23 24  1  0  0  0  0
 37 38  2  0  0  0  0
 37 39  1  0  0  0  0
 33 34  1  0  0  0  0
 33 35  1  0  0  0  0
 33 36  1  0  0  0  0
 31 32  1  0  0  0  0
 31 33  1  0  0  0  0
 31 37  1  0  0  0  0
 29 30  1  0  0  0  0
 29 31  1  0  0  0  0
 41 42  1  0  0  0  0
 41 43  1  0  0  0  0
 41 44  1  0  0  0  0
 39 40  1  0  0  0  0
 39 41  1  0  0  0  0
M  END
$$$$
default_name
  -OEChem-01062215323D

 44 43  0     1  0  0  0  0  0999 V2000
    2.4488   -3.0448    2.0990 H   0  0  0  0  0  0  0  0  0  0  0  0
    2.2788   -2.0018    2.3640 C   0  0  0  0  0  0  0  0  0  0  0  0
    2.9228   -1.7258    3.1960 H   0  0  0  0  0  0  0  0  0  0  0  0
    1.2358   -1.8618    2.6430 H   0  0  0  0  0  0  0  0  0  0  0  0
    2.6018   -1.1318    1.1730 C   0  0  0  0  0  0  0  0  0  0  0  0
    3.0048   -1.6348    0.1320 O   0  0  0  0  0  0  0  0  0  0  0  0
    2.4088    0.1752    1.3190 N   0  0  0  0  0  0  0  0  0  0  0  0
    2.0708    0.5242    2.2050 H   0  0  0  0  0  0  0  0  0  0  0  0
    2.6638    1.1782    0.2840 C   0  0  1  0  0  0  0  0  0  0  0  0
    2.8041    0.6583   -0.6652 H   0  0  0  0  0  0  0  0  0  0  0  0
    1.4415    2.1026    0.1460 C   0  0  0  0  0  0  0  0  0  0  0  0
    1.7039    2.9360   -0.5069 H   0  0  0  0  0  0  0  0  0  0  0  0
    1.2367    2.5328    1.1260 H   0  0  0  0  0  0  0  0  0  0  0  0
   -0.1142    1.3727   -0.4456 S   0  0  0  0  0  0  0  0  0  0  0  0
    3.9523    1.9675    0.5823 C   0  0  0  0  0  0  0  0  0  0  0  0
    3.9148    3.1872    0.7442 O   0  0  0  0  0  0  0  0  0  0  0  0
    5.0927    1.2690    0.6615 N   0  0  0  0  0  0  0  0  0  0  0  0
    5.0509    0.2724    0.5212 H   0  0  0  0  0  0  0  0  0  0  0  0
    6.3957    1.8717    0.9349 C   0  0  0  0  0  0  0  0  0  0  0  0
    6.6521    2.5702    0.1355 H   0  0  0  0  0  0  0  0  0  0  0  0
    6.3577    2.4229    1.8763 H   0  0  0  0  0  0  0  0  0  0  0  0
    7.1642    1.1003    0.9999 H   0  0  0  0  0  0  0  0  0  0  0  0
    0.8377    5.2002   -7.5356 H   0  0  0  0  0  0  0  0  0  0  0  0
    0.5107    5.3815   -6.5128 C   0  0  0  0  0  0  0  0  0  0  0  0
   -0.3416    6.0591   -6.5143 H   0  0  0  0  0  0  0  0  0  0  0  0
    1.3274    5.8163   -5.9397 H   0  0  0  0  0  0  0  0  0  0  0  0
    0.1047    4.0674   -5.8876 C   0  0  0  0  0  0  0  0  0  0  0  0
    0.1878    3.0272   -6.5265 O   0  0  0  0  0  0  0  0  0  0  0  0
   -0.3279    4.1168   -4.6306 N   0  0  0  0  0  0  0  0  0  0  0  0
   -0.3799    5.0128   -4.1680 H   0  0  0  0  0  0  0  0  0  0  0  0
   -0.7586    2.9535   -3.8551 C   0  0  1  0  0  0  0  0  0  0  0  0
   -1.2850    2.2613   -4.5146 H   0  0  0  0  0  0  0  0  0  0  0  0
    0.4952    2.2493   -3.3179 C   0  0  0  0  0  0  0  0  0  0  0  0
    1.1142    1.9814   -4.1754 H   0  0  0  0  0  0  0  0  0  0  0  0
    1.0671    2.9570   -2.7173 H   0  0  0  0  0  0  0  0  0  0  0  0
    0.2531    0.7354   -2.3501 S   0  0  0  0  0  0  0  0  0  0  0  0
   -1.7261    3.3800   -2.7368 C   0  0  0  0  0  0  0  0  0  0  0  0
   -1.6193    4.4948   -2.2238 O   0  0  0  0  0  0  0  0  0  0  0  0
   -2.6682    2.5024   -2.3684 N   0  0  0  0  0  0  0  0  0  0  0  0
   -2.6679    1.5983   -2.8135 H   0  0  0  0  0  0  0  0  0  0  0  0
   -3.6564    2.7483   -1.3189 C   0  0  0  0  0  0  0  0  0  0  0  0
   -3.1774    2.6846   -0.3404 H   0  0  0  0  0  0  0  0  0  0  0  0
   -4.0825    3.7478   -1.4337 H   0  0  0  0  0  0  0  0  0  0  0  0
   -4.4574    2.0110   -1.3753 H   0  0  0  0  0  0  0  0  0  0  0  0
  5  6  2  0  0  0  0
  5  7  1  0  0  0  0
  2  3  1  0  0  0  0
  2  4  1  0  0  0  0
  2  5  1  0  0  0  0
  1  2  1  0  0  0  0
 15 16  2  0  0  0  0
 15 17  1  0  0  0  0
 14 36  1  0  0  0  0
 11 12  1  0  0  0  0
 11 13  1  0  0  0  0
 11 14  1  0  0  0  0
  9 10  1  0  0  0  0
  9 11  1  0  0  0  0
  9 15  1  0  0  0  0
  7  8  1  0  0  0  0
  7  9  1  0  0  0  0
 19 20  1  0  0  0  0
 19 21  1  0  0  0  0
 19 22  1  0  0  0  0
 17 18  1  0  0  0  0
 17 19  1  0  0  0  0
 27 28  2  0  0  0  0
 27 29  1  0  0  0  0
 24 25  1  0  0  0  0
 24 26  1  0  0  0  0
 24 27  1  0  0  0  0
 23 24  1  0  0  0  0
 37 38  2  0  0  0  0
 37 39  1  0  0  0  0
 33 34  1  0  0  0  0
 33 35  1  0  0  0  0
 33 36  1  0  0  0  0
 31 32  1  0  0  0  0
 31 33  1  0  0  0  0
 31 37  1  0  0  0  0
 29 30  1  0  0  0  0
 29 31  1  0  0  0  0
 41 42  1  0  0  0  0
 41 43  1  0  0  0  0
 41 44  1  0  0  0  0
 39 40  1  0  0  0  0
 39 41  1  0  0  0  0
M  END
$$$$
default_name
  -OEChem-01062215323D

 44 43  0     1  0  0  0  0  0999 V2000
    2.4488   -3.0448    2.0990 H   0  0  0  0  0  0  0  0  0  0  0  0
    2.2788   -2.0018    2.3640 C   0  0  0  0  0  0  0  0  0  0  0  0
    2.9228   -1.7258    3.1960 H   0  0  0  0  0  0  0  0  0  0  0  0
    1.2358   -1.8618    2.6430 H   0  0  0  0  0  0  0  0  0  0  0  0
    2.6018   -1.1318    1.1730 C   0  0  0  0  0  0  0  0  0  0  0  0
    3.0048   -1.6348    0.1320 O   0  0  0  0  0  0  0  0  0  0  0  0
    2.4088    0.1752    1.3190 N   0  0  0  0  0  0  0  0  0  0  0  0
    2.0708    0.5242    2.2050 H   0  0  0  0  0  0  0  0  0  0  0  0
    2.6638    1.1782    0.2840 C   0  0  1  0  0  0  0  0  0  0  0  0
    2.8041    0.6583   -0.6652 H   0  0  0  0  0  0  0  0  0  0  0  0
    1.4415    2.1026    0.1460 C   0  0  0  0  0  0  0  0  0  0  0  0
    1.7039    2.9360   -0.5069 H   0  0  0  0  0  0  0  0  0  0  0  0
    1.2367    2.5328    1.1260 H   0  0  0  0  0  0  0  0  0  0  0  0
   -0.1142    1.3727   -0.4456 S   0  0  0  0  0  0  0  0  0  0  0  0
    3.9523    1.9675    0.5823 C   0  0  0  0  0  0  0  0  0  0  0  0
    3.8942    3.1196    1.0119 O   0  0  0  0  0  0  0  0  0  0  0  0
    5.1168    1.3435    0.3603 N   0  0  0  0  0  0  0  0  0  0  0  0
    5.0915    0.3992    0.0107 H   0  0  0  0  0  0  0  0  0  0  0  0
    6.4228    1.9572    0.5917 C   0  0  0  0  0  0  0  0  0  0  0  0
    6.5413    2.8250   -0.0605 H   0  0  0  0  0  0  0  0  0  0  0  0
    6.4957    2.2914    1.6282 H   0  0  0  0  0  0  0  0  0  0  0  0
    7.2198    1.2411    0.3872 H   0  0  0  0  0  0  0  0  0  0  0  0
    0.8377    5.2002   -7.5356 H   0  0  0  0  0  0  0  0  0  0  0  0
    0.5107    5.3815   -6.5128 C   0  0  0  0  0  0  0  0  0  0  0  0
   -0.3416    6.0591   -6.5143 H   0  0  0  0  0  0  0  0  0  0  0  0
    1.3274    5.8163   -5.9397 H   0  0  0  0  0  0  0  0  0  0  0  0
    0.1047    4.0674   -5.8876 C   0  0  0  0  0  0  0  0  0  0  0  0
    0.1878    3.0272   -6.5265 O   0  0  0  0  0  0  0  0  0  0  0  0
   -0.3279    4.1168   -4.6306 N   0  0  0  0  0  0  0  0  0  0  0  0
   -0.3799    5.0128   -4.1680 H   0  0  0  0  0  0  0  0  0  0  0  0
   -0.7586    2.9535   -3.8551 C   0  0  1  0  0  0  0  0  0  0  0  0
   -1.2850    2.2613   -4.5146 H   0  0  0  0  0  0  0  0  0  0  0  0
    0.4952    2.2493   -3.3179 C   0  0  0  0  0  0  0  0  0  0  0  0
    1.1142    1.9814   -4.1754 H   0  0  0  0  0  0  0  0  0  0  0  0
    1.0671    2.9570   -2.7173 H   0  0  0  0  0  0  0  0  0  0  0  0
    0.2531    0.7354   -2.3501 S   0  0  0  0  0  0  0  0  0  0  0  0
   -1.7261    3.3800   -2.7368 C   0  0  0  0  0  0  0  0  0  0  0  0
   -1.6193    4.4948   -2.2238 O   0  0  0  0  0  0  0  0  0  0  0  0
   -2.6682    2.5024   -2.3684 N   0  0  0  0  0  0  0  0  0  0  0  0
   -2.6679    1.5983   -2.8135 H   0  0  0  0  0  0  0  0  0  0  0  0
   -3.6564    2.7483   -1.3189 C   0  0  0  0  0  0  0  0  0  0  0  0
   -3.1774    2.6846   -0.3404 H   0  0  0  0  0  0  0  0  0  0  0  0
   -4.0825    3.7478   -1.4337 H   0  0  0  0  0  0  0  0  0  0  0  0
   -4.4574    2.0110   -1.3753 H   0  0  0  0  0  0  0  0  0  0  0  0
  5  6  2  0  0  0  0
  5  7  1  0  0  0  0
  2  3  1  0  0  0  0
  2  4  1  0  0  0  0
  2  5  1  0  0  0  0
  1  2  1  0  0  0  0
 15 16  2  0  0  0  0
 15 17  1  0  0  0  0
 14 36  1  0  0  0  0
 11 12  1  0  0  0  0
 11 13  1  0  0  0  0
 11 14  1  0  0  0  0
  9 10  1  0  0  0  0
  9 11  1  0  0  0  0
  9 15  1  0  0  0  0
  7  8  1  0  0  0  0
  7  9  1  0  0  0  0
 19 20  1  0  0  0  0
 19 21  1  0  0  0  0
 19 22  1  0  0  0  0
 17 18  1  0  0  0  0
 17 19  1  0  0  0  0
 27 28  2  0  0  0  0
 27 29  1  0  0  0  0
 24 25  1  0  0  0  0
 24 26  1  0  0  0  0
 24 27  1  0  0  0  0
 23 24  1  0  0  0  0
 37 38  2  0  0  0  0
 37 39  1  0  0  0  0
 33 34  1  0  0  0  0
 33 35  1  0  0  0  0
 33 36  1  0  0  0  0
 31 32  1  0  0  0  0
 31 33  1  0  0  0  0
 31 37  1  0  0  0  0
 29 30  1  0  0  0  0
 29 31  1  0  0  0  0
 41 42  1  0  0  0  0
 41 43  1  0  0  0  0
 41 44  1  0  0  0  0
 39 40  1  0  0  0  0
 39 41  1  0  0  0  0
M  END
$$$$
default_name
  -OEChem-01062215323D

 44 43  0     1  0  0  0  0  0999 V2000
    2.4488   -3.0448    2.0990 H   0  0  0  0  0  0  0  0  0  0  0  0
    2.2788   -2.0018    2.3640 C   0  0  0  0  0  0  0  0  0  0  0  0
    2.9228   -1.7258    3.1960 H   0  0  0  0  0  0  0  0  0  0  0  0
    1.2358   -1.8618    2.6430 H   0  0  0  0  0  0  0  0  0  0  0  0
    2.6018   -1.1318    1.1730 C   0  0  0  0  0  0  0  0  0  0  0  0
    3.0048   -1.6348    0.1320 O   0  0  0  0  0  0  0  0  0  0  0  0
    2.4088    0.1752    1.3190 N   0  0  0  0  0  0  0  0  0  0  0  0
    2.0708    0.5242    2.2050 H   0  0  0  0  0  0  0  0  0  0  0  0
    2.6638    1.1782    0.2840 C   0  0  1  0  0  0  0  0  0  0  0  0
    2.8041    0.6583   -0.6652 H   0  0  0  0  0  0  0  0  0  0  0  0
    1.4415    2.1026    0.1460 C   0  0  0  0  0  0  0  0  0  0  0  0
    1.7039    2.9360   -0.5069 H   0  0  0  0  0  0  0  0  0  0  0  0
    1.2367    2.5328    1.1260 H   0  0  0  0  0  0  0  0  0  0  0  0
   -0.1142    1.3727   -0.4456 S   0  0  0  0  0  0  0  0  0  0  0  0
    3.9523    1.9675    0.5823 C   0  0  0  0  0  0  0  0  0  0  0  0
    3.9133    2.9954    1.2585 O   0  0  0  0  0  0  0  0  0  0  0  0
    5.0964    1.4819    0.0824 N   0  0  0  0  0  0  0  0  0  0  0  0
    5.0565    0.6341   -0.4602 H   0  0  0  0  0  0  0  0  0  0  0  0
    6.3992    2.1154    0.2750 C   0  0  0  0  0  0  0  0  0  0  0  0
    6.3956    3.1081   -0.1800 H   0  0  0  0  0  0  0  0  0  0  0  0
    6.6027    2.2250    1.3418 H   0  0  0  0  0  0  0  0  0  0  0  0
    7.1853    1.5125   -0.1815 H   0  0  0  0  0  0  0  0  0  0  0  0
    0.8377    5.2002   -7.5356 H   0  0  0  0  0  0  0  0  0  0  0  0
    0.5107    5.3815   -6.5128 C   0  0  0  0  0  0  0  0  0  0  0  0
   -0.3416    6.0591   -6.5143 H   0  0  0  0  0  0  0  0  0  0  0  0
    1.3274    5.8163   -5.9397 H   0  0  0  0  0  0  0  0  0  0  0  0
    0.1047    4.0674   -5.8876 C   0  0  0  0  0  0  0  0  0  0  0  0
    0.1878    3.0272   -6.5265 O   0  0  0  0  0  0  0  0  0  0  0  0
   -0.3279    4.1168   -4.6306 N   0  0  0  0  0  0  0  0  0  0  0  0
   -0.3799    5.0128   -4.1680 H   0  0  0  0  0  0  0  0  0  0  0  0
   -0.7586    2.9535   -3.8551 C   0  0  1  0  0  0  0  0  0  0  0  0
   -1.2850    2.2613   -4.5146 H   0  0  0  0  0  0  0  0  0  0  0  0
    0.4952    2.2493   -3.3179 C   0  0  0  0  0  0  0  0  0  0  0  0
    1.1142    1.9814   -4.1754 H   0  0  0  0  0  0  0  0  0  0  0  0
    1.0671    2.9570   -2.7173 H   0  0  0  0  0  0  0  0  0  0  0  0
    0.2531    0.7354   -2.3501 S   0  0  0  0  0  0  0  0  0  0  0  0
   -1.7261    3.3800   -2.7368 C   0  0  0  0  0  0  0  0  0  0  0  0
   -1.6193    4.4948   -2.2238 O   0  0  0  0  0  0  0  0  0  0  0  0
   -2.6682    2.5024   -2.3684 N   0  0  0  0  0  0  0  0  0  0  0  0
   -2.6679    1.5983   -2.8135 H   0  0  0  0  0  0  0  0  0  0  0  0
   -3.6564    2.7483   -1.3189 C   0  0  0  0  0  0  0  0  0  0  0  0
   -3.1774    2.6846   -0.3404 H   0  0  0  0  0  0  0  0  0  0  0  0
   -4.0825    3.7478   -1.4337 H   0  0  0  0  0  0  0  0  0  0  0  0
   -4.4574    2.0110   -1.3753 H   0  0  0  0  0  0  0  0  0  0  0  0
  5  6  2  0  0  0  0
  5  7  1  0  0  0  0
  2  3  1  0  0  0  0
  2  4  1  0  0  0  0
  2  5  1  0  0  0  0
  1  2  1  0  0  0  0
 15 16  2  0  0  0  0
 15 17  1  0  0  0  0
 14 36  1  0  0  0  0
 11 12  1  0  0  0  0
 11 13  1  0  0  0  0
 11 14  1  0  0  0  0
  9 10  1  0  0  0  0
  9 11  1  0  0  0  0
  9 15  1  0  0  0  0
  7  8  1  0  0  0  0
  7  9  1  0  0  0  0
 19 20  1  0  0  0  0
 19 21  1  0  0  0  0
 19 22  1  0  0  0  0
 17 18  1  0  0  0  0
 17 19  1  0  0  0  0
 27 28  2  0  0  0  0
 27 29  1  0  0  0  0
 24 25  1  0  0  0  0
 24 26  1  0  0  0  0
 24 27  1  0  0  0  0
 23 24  1  0  0  0  0
 37 38  2  0  0  0  0
 37 39  1  0  0  0  0
 33 34  1  0  0  0  0
 33 35  1  0  0  0  0
 33 36  1  0  0  0  0
 31 32  1  0  0  0  0
 31 33  1  0  0  0  0
 31 37  1  0  0  0  0
 29 30  1  0  0  0  0
 29 31  1  0  0  0  0
 41 42  1  0  0  0  0
 41 43  1  0  0  0  0
 41 44  1  0  0  0  0
 39 40  1  0  0  0  0
 39 41  1  0  0  0  0
M  END
$$$$
default_name
  -OEChem-01062215323D

 44 43  0     1  0  0  0  0  0999 V2000
    2.4488   -3.0448    2.0990 H   0  0  0  0  0  0  0  0  0  0  0  0
    2.2788   -2.0018    2.3640 C   0  0  0  0  0  0  0  0  0  0  0  0
    2.9228   -1.7258    3.1960 H   0  0  0  0  0  0  0  0  0  0  0  0
    1.2358   -1.8618    2.6430 H   0  0  0  0  0  0  0  0  0  0  0  0
    2.6018   -1.1318    1.1730 C   0  0  0  0  0  0  0  0  0  0  0  0
    3.0048   -1.6348    0.1320 O   0  0  0  0  0  0  0  0  0  0  0  0
    2.4088    0.1752    1.3190 N   0  0  0  0  0  0  0  0  0  0  0  0
    2.0708    0.5242    2.2050 H   0  0  0  0  0  0  0  0  0  0  0  0
    2.6638    1.1782    0.2840 C   0  0  1  0  0  0  0  0  0  0  0  0
    2.8041    0.6583   -0.6652 H   0  0  0  0  0  0  0  0  0  0  0  0
    1.4415    2.1026    0.1460 C   0  0  0  0  0  0  0  0  0  0  0  0
    1.7039    2.9360   -0.5069 H   0  0  0  0  0  0  0  0  0  0  0  0
    1.2367    2.5328    1.1260 H   0  0  0  0  0  0  0  0  0  0  0  0
   -0.1142    1.3727   -0.4456 S   0  0  0  0  0  0  0  0  0  0  0  0
    3.9523    1.9675    0.5823 C   0  0  0  0  0  0  0  0  0  0  0  0
    3.9706    2.8229    1.4673 O   0  0  0  0  0  0  0  0  0  0  0  0
    5.0329    1.6747   -0.1535 N   0  0  0  0  0  0  0  0  0  0  0  0
    4.9486    0.9613   -0.8596 H   0  0  0  0  0  0  0  0  0  0  0  0
    6.3265    2.3356    0.0065 C   0  0  0  0  0  0  0  0  0  0  0  0
    6.2247    3.4002   -0.2148 H   0  0  0  0  0  0  0  0  0  0  0  0
    6.6713    2.2282    1.0366 H   0  0  0  0  0  0  0  0  0  0  0  0
    7.0628    1.8960   -0.6675 H   0  0  0  0  0  0  0  0  0  0  0  0
    0.8377    5.2002   -7.5356 H   0  0  0  0  0  0  0  0  0  0  0  0
    0.5107    5.3815   -6.5128 C   0  0  0  0  0  0  0  0  0  0  0  0
   -0.3416    6.0591   -6.5143 H   0  0  0  0  0  0  0  0  0  0  0  0
    1.3274    5.8163   -5.9397 H   0  0  0  0  0  0  0  0  0  0  0  0
    0.1047    4.0674   -5.8876 C   0  0  0  0  0  0  0  0  0  0  0  0
    0.1878    3.0272   -6.5265 O   0  0  0  0  0  0  0  0  0  0  0  0
   -0.3279    4.1168   -4.6306 N   0  0  0  0  0  0  0  0  0  0  0  0
   -0.3799    5.0128   -4.1680 H   0  0  0  0  0  0  0  0  0  0  0  0
   -0.7586    2.9535   -3.8551 C   0  0  1  0  0  0  0  0  0  0  0  0
   -1.2850    2.2613   -4.5146 H   0  0  0  0  0  0  0  0  0  0  0  0
    0.4952    2.2493   -3.3179 C   0  0  0  0  0  0  0  0  0  0  0  0
    1.1142    1.9814   -4.1754 H   0  0  0  0  0  0  0  0  0  0  0  0
    1.0671    2.9570   -2.7173 H   0  0  0  0  0  0  0  0  0  0  0  0
    0.2531    0.7354   -2.3501 S   0  0  0  0  0  0  0  0  0  0  0  0
   -1.7261    3.3800   -2.7368 C   0  0  0  0  0  0  0  0  0  0  0  0
   -1.6193    4.4948   -2.2238 O   0  0  0  0  0  0  0  0  0  0  0  0
   -2.6682    2.5024   -2.3684 N   0  0  0  0  0  0  0  0  0  0  0  0
   -2.6679    1.5983   -2.8135 H   0  0  0  0  0  0  0  0  0  0  0  0
   -3.6564    2.7483   -1.3189 C   0  0  0  0  0  0  0  0  0  0  0  0
   -3.1774    2.6846   -0.3404 H   0  0  0  0  0  0  0  0  0  0  0  0
   -4.0825    3.7478   -1.4337 H   0  0  0  0  0  0  0  0  0  0  0  0
   -4.4574    2.0110   -1.3753 H   0  0  0  0  0  0  0  0  0  0  0  0
  5  6  2  0  0  0  0
  5  7  1  0  0  0  0
  2  3  1  0  0  0  0
  2  4  1  0  0  0  0
  2  5  1  0  0  0  0
  1  2  1  0  0  0  0
 15 16  2  0  0  0  0
 15 17  1  0  0  0  0
 14 36  1  0  0  0  0
 11 12  1  0  0  0  0
 11 13  1  0  0  0  0
 11 14  1  0  0  0  0
  9 10  1  0  0  0  0
  9 11  1  0  0  0  0
  9 15  1  0  0  0  0
  7  8  1  0  0  0  0
  7  9  1  0  0  0  0
 19 20  1  0  0  0  0
 19 21  1  0  0  0  0
 19 22  1  0  0  0  0
 17 18  1  0  0  0  0
 17 19  1  0  0  0  0
 27 28  2  0  0  0  0
 27 29  1  0  0  0  0
 24 25  1  0  0  0  0
 24 26  1  0  0  0  0
 24 27  1  0  0  0  0
 23 24  1  0  0  0  0
 37 38  2  0  0  0  0
 37 39  1  0  0  0  0
 33 34  1  0  0  0  0
 33 35  1  0  0  0  0
 33 36  1  0  0  0  0
 31 32  1  0  0  0  0
 31 33  1  0  0  0  0
 31 37  1  0  0  0  0
 29 30  1  0  0  0  0
 29 31  1  0  0  0  0
 41 42  1  0  0  0  0
 41 43  1  0  0  0  0
 41 44  1  0  0  0  0
 39 40  1  0  0  0  0
 39 41  1  0  0  0  0
M  END
$$$$
default_name
  -OEChem-01062215323D

 44 43  0     1  0  0  0  0  0999 V2000
    2.4488   -3.0448    2.0990 H   0  0  0  0  0  0  0  0  0  0  0  0
    2.2788   -2.0018    2.3640 C   0  0  0  0  0  0  0  0  0  0  0  0
    2.9228   -1.7258    3.1960 H   0  0  0  0  0  0  0  0  0  0  0  0
    1.2358   -1.8618    2.6430 H   0  0  0  0  0  0  0  0  0  0  0  0
    2.6018   -1.1318    1.1730 C   0  0  0  0  0  0  0  0  0  0  0  0
    3.0048   -1.6348    0.1320 O   0  0  0  0  0  0  0  0  0  0  0  0
    2.4088    0.1752    1.3190 N   0  0  0  0  0  0  0  0  0  0  0  0
    2.0708    0.5242    2.2050 H   0  0  0  0  0  0  0  0  0  0  0  0
    2.6638    1.1782    0.2840 C   0  0  1  0  0  0  0  0  0  0  0  0
    2.8041    0.6583   -0.6652 H   0  0  0  0  0  0  0  0  0  0  0  0
    1.4415    2.1026    0.1460 C   0  0  0  0  0  0  0  0  0  0  0  0
    1.7039    2.9360   -0.5069 H   0  0  0  0  0  0  0  0  0  0  0  0
    1.2367    2.5328    1.1260 H   0  0  0  0  0  0  0  0  0  0  0  0
   -0.1142    1.3727   -0.4456 S   0  0  0  0  0  0  0  0  0  0  0  0
    3.9523    1.9675    0.5823 C   0  0  0  0  0  0  0  0  0  0  0  0
    4.0623    2.6140    1.6240 O   0  0  0  0  0  0  0  0  0  0  0  0
    4.9306    1.9089   -0.3311 N   0  0  0  0  0  0  0  0  0  0  0  0
    4.7749    1.3584   -1.1603 H   0  0  0  0  0  0  0  0  0  0  0  0
    6.2096    2.6028   -0.1955 C   0  0  0  0  0  0  0  0  0  0  0  0
    6.0404    3.6812   -0.1625 H   0  0  0  0  0  0  0  0  0  0  0  0
    6.6970    2.3009    0.7334 H   0  0  0  0  0  0  0  0  0  0  0  0
    6.8609    2.3656   -1.0377 H   0  0  0  0  0  0  0  0  0  0  0  0
    0.8377    5.2002   -7.5356 H   0  0  0  0  0  0  0  0  0  0  0  0
    0.5107    5.3815   -6.5128 C   0  0  0  0  0  0  0  0  0  0  0  0
   -0.3416    6.0591   -6.5143 H   0  0  0  0  0  0  0  0  0  0  0  0
    1.3274    5.8163   -5.9397 H   0  0  0  0  0  0  0  0  0  0  0  0
    0.1047    4.0674   -5.8876 C   0  0  0  0  0  0  0  0  0  0  0  0
    0.1878    3.0272   -6.5265 O   0  0  0  0  0  0  0  0  0  0  0  0
   -0.3279    4.1168   -4.6306 N   0  0  0  0  0  0  0  0  0  0  0  0
   -0.3799    5.0128   -4.1680 H   0  0  0  0  0  0  0  0  0  0  0  0
   -0.7586    2.9535   -3.8551 C   0  0  1  0  0  0  0  0  0  0  0  0
   -1.2850    2.2613   -4.5146 H   0  0  0  0  0  0  0  0  0  0  0  0
    0.4952    2.2493   -3.3179 C   0  0  0  0  0  0  0  0  0  0  0  0
    1.1142    1.9814   -4.1754 H   0  0  0  0  0  0  0  0  0  0  0  0
    1.0671    2.9570   -2.7173 H   0  0  0  0  0  0  0  0  0  0  0  0
    0.2531    0.7354   -2.3501 S   0  0  0  0  0  0  0  0  0  0  0  0
   -1.7261    3.3800   -2.7368 C   0  0  0  0  0  0  0  0  0  0  0  0
   -1.6193    4.4948   -2.2238 O   0  0  0  0  0  0  0  0  0  0  0  0
   -2.6682    2.5024   -2.3684 N   0  0  0  0  0  0  0  0  0  0  0  0
   -2.6679    1.5983   -2.8135 H   0  0  0  0  0  0  0  0  0  0  0  0
   -3.6564    2.7483   -1.3189 C   0  0  0  0  0  0  0  0  0  0  0  0
   -3.1774    2.6846   -0.3404 H   0  0  0  0  0  0  0  0  0  0  0  0
   -4.0825    3.7478   -1.4337 H   0  0  0  0  0  0  0  0  0  0  0  0
   -4.4574    2.0110   -1.3753 H   0  0  0  0  0  0  0  0  0  0  0  0
  5  6  2  0  0  0  0
  5  7  1  0  0  0  0
  2  3  1  0  0  0  0
  2  4  1  0  0  0  0
  2  5  1  0  0  0  0
  1  2  1  0  0  0  0
 15 16  2  0  0  0  0
 15 17  1  0  0  0  0
 14 36  1  0  0  0  0
 11 12  1  0  0  0  0
 11 13  1  0  0  0  0
 11 14  1  0  0  0  0
  9 10  1  0  0  0  0
  9 11  1  0  0  0  0
  9 15  1  0  0  0  0
  7  8  1  0  0  0  0
  7  9  1  0  0  0  0
 19 20  1  0  0  0  0
 19 21  1  0  0  0  0
 19 22  1  0  0  0  0
 17 18  1  0  0  0  0
 17 19  1  0  0  0  0
 27 28  2  0  0  0  0
 27 29  1  0  0  0  0
 24 25  1  0  0  0  0
 24 26  1  0  0  0  0
 24 27  1  0  0  0  0
 23 24  1  0  0  0  0
 37 38  2  0  0  0  0
 37 39  1  0  0  0  0
 33 34  1  0  0  0  0
 33 35  1  0  0  0  0
 33 36  1  0  0  0  0
 31 32  1  0  0  0  0
 31 33  1  0  0  0  0
 31 37  1  0  0  0  0
 29 30  1  0  0  0  0
 29 31  1  0  0  0  0
 41 42  1  0  0  0  0
 41 43  1  0  0  0  0
 41 44  1  0  0  0  0
 39 40  1  0  0  0  0
 39 41  1  0  0  0  0
M  END
$$$$
default_name
  -OEChem-01062215323D

 44 43  0     1  0  0  0  0  0999 V2000
    2.4488   -3.0448    2.0990 H   0  0  0  0  0  0  0  0  0  0  0  0
    2.2788   -2.0018    2.3640 C   0  0  0  0  0  0  0  0  0  0  0  0
    2.9228   -1.7258    3.1960 H   0  0  0  0  0  0  0  0  0  0  0  0
    1.2358   -1.8618    2.6430 H   0  0  0  0  0  0  0  0  0  0  0  0
    2.6018   -1.1318    1.1730 C   0  0  0  0  0  0  0  0  0  0  0  0
    3.0048   -1.6348    0.1320 O   0  0  0  0  0  0  0  0  0  0  0  0
    2.4088    0.1752    1.3190 N   0  0  0  0  0  0  0  0  0  0  0  0
    2.0708    0.5242    2.2050 H   0  0  0  0  0  0  0  0  0  0  0  0
    2.6638    1.1782    0.2840 C   0  0  1  0  0  0  0  0  0  0  0  0
    2.8041    0.6583   -0.6652 H   0  0  0  0  0  0  0  0  0  0  0  0
    1.4415    2.1026    0.1460 C   0  0  0  0  0  0  0  0  0  0  0  0
    1.7039    2.9360   -0.5069 H   0  0  0  0  0  0  0  0  0  0  0  0
    1.2367    2.5328    1.1260 H   0  0  0  0  0  0  0  0  0  0  0  0
   -0.1142    1.3727   -0.4456 S   0  0  0  0  0  0  0  0  0  0  0  0
    3.9523    1.9675    0.5823 C   0  0  0  0  0  0  0  0  0  0  0  0
    4.1821    2.3828    1.7180 O   0  0  0  0  0  0  0  0  0  0  0  0
    4.7964    2.1684   -0.4384 N   0  0  0  0  0  0  0  0  0  0  0  0
    4.5474    1.7984   -1.3416 H   0  0  0  0  0  0  0  0  0  0  0  0
    6.0565    2.8987   -0.3172 C   0  0  0  0  0  0  0  0  0  0  0  0
    5.8553    3.9321   -0.0267 H   0  0  0  0  0  0  0  0  0  0  0  0
    6.6780    2.4381    0.4528 H   0  0  0  0  0  0  0  0  0  0  0  0
    6.5931    2.8892   -1.2668 H   0  0  0  0  0  0  0  0  0  0  0  0
    0.8377    5.2002   -7.5356 H   0  0  0  0  0  0  0  0  0  0  0  0
    0.5107    5.3815   -6.5128 C   0  0  0  0  0  0  0  0  0  0  0  0
   -0.3416    6.0591   -6.5143 H   0  0  0  0  0  0  0  0  0  0  0  0
    1.3274    5.8163   -5.9397 H   0  0  0  0  0  0  0  0  0  0  0  0
    0.1047    4.0674   -5.8876 C   0  0  0  0  0  0  0  0  0  0  0  0
    0.1878    3.0272   -6.5265 O   0  0  0  0  0  0  0  0  0  0  0  0
   -0.3279    4.1168   -4.6306 N   0  0  0  0  0  0  0  0  0  0  0  0
   -0.3799    5.0128   -4.1680 H   0  0  0  0  0  0  0  0  0  0  0  0
   -0.7586    2.9535   -3.8551 C   0  0  1  0  0  0  0  0  0  0  0  0
   -1.2850    2.2613   -4.5146 H   0  0  0  0  0  0  0  0  0  0  0  0
    0.4952    2.2493   -3.3179 C   0  0  0  0  0  0  0  0  0  0  0  0
    1.1142    1.9814   -4.1754 H   0  0  0  0  0  0  0  0  0  0  0  0
    1.0671    2.9570   -2.7173 H   0  0  0  0  0  0  0  0  0  0  0  0
    0.2531    0.7354   -2.3501 S   0  0  0  0  0  0  0  0  0  0  0  0
   -1.7261    3.3800   -2.7368 C   0  0  0  0  0  0  0  0  0  0  0  0
   -1.6193    4.4948   -2.2238 O   0  0  0  0  0  0  0  0  0  0  0  0
   -2.6682    2.5024   -2.3684 N   0  0  0  0  0  0  0  0  0  0  0  0
   -2.6679    1.5983   -2.8135 H   0  0  0  0  0  0  0  0  0  0  0  0
   -3.6564    2.7483   -1.3189 C   0  0  0  0  0  0  0  0  0  0  0  0
   -3.1774    2.6846   -0.3404 H   0  0  0  0  0  0  0  0  0  0  0  0
   -4.0825    3.7478   -1.4337 H   0  0  0  0  0  0  0  0  0  0  0  0
   -4.4574    2.0110   -1.3753 H   0  0  0  0  0  0  0  0  0  0  0  0
  5  6  2  0  0  0  0
  5  7  1  0  0  0  0
  2  3  1  0  0  0  0
  2  4  1  0  0  0  0
  2  5  1  0  0  0  0
  1  2  1  0  0  0  0
 15 16  2  0  0  0  0
 15 17  1  0  0  0  0
 14 36  1  0  0  0  0
 11 12  1  0  0  0  0
 11 13  1  0  0  0  0
 11 14  1  0  0  0  0
  9 10  1  0  0  0  0
  9 11  1  0  0  0  0
  9 15  1  0  0  0  0
  7  8  1  0  0  0  0
  7  9  1  0  0  0  0
 19 20  1  0  0  0  0
 19 21  1  0  0  0  0
 19 22  1  0  0  0  0
 17 18  1  0  0  0  0
 17 19  1  0  0  0  0
 27 28  2  0  0  0  0
 27 29  1  0  0  0  0
 24 25  1  0  0  0  0
 24 26  1  0  0  0  0
 24 27  1  0  0  0  0
 23 24  1  0  0  0  0
 37 38  2  0  0  0  0
 37 39  1  0  0  0  0
 33 34  1  0  0  0  0
 33 35  1  0  0  0  0
 33 36  1  0  0  0  0
 31 32  1  0  0  0  0
 31 33  1  0  0  0  0
 31 37  1  0  0  0  0
 29 30  1  0  0  0  0
 29 31  1  0  0  0  0
 41 42  1  0  0  0  0
 41 43  1  0  0  0  0
 41 44  1  0  0  0  0
 39 40  1  0  0  0  0
 39 41  1  0  0  0  0
M  END
$$$$
default_name
  -OEChem-01062215323D

 44 43  0     1  0  0  0  0  0999 V2000
    2.4488   -3.0448    2.0990 H   0  0  0  0  0  0  0  0  0  0  0  0
    2.2788   -2.0018    2.3640 C   0  0  0  0  0  0  0  0  0  0  0  0
    2.9228   -1.7258    3.1960 H   0  0  0  0  0  0  0  0  0  0  0  0
    1.2358   -1.8618    2.6430 H   0  0  0  0  0  0  0  0  0  0  0  0
    2.6018   -1.1318    1.1730 C   0  0  0  0  0  0  0  0  0  0  0  0
    3.0048   -1.6348    0.1320 O   0  0  0  0  0  0  0  0  0  0  0  0
    2.4088    0.1752    1.3190 N   0  0  0  0  0  0  0  0  0  0  0  0
    2.0708    0.5242    2.2050 H   0  0  0  0  0  0  0  0  0  0  0  0
    2.6638    1.1782    0.2840 C   0  0  1  0  0  0  0  0  0  0  0  0
    2.8041    0.6583   -0.6652 H   0  0  0  0  0  0  0  0  0  0  0  0
    1.4415    2.1026    0.1460 C   0  0  0  0  0  0  0  0  0  0  0  0
    1.7039    2.9360   -0.5069 H   0  0  0  0  0  0  0  0  0  0  0  0
    1.2367    2.5328    1.1260 H   0  0  0  0  0  0  0  0  0  0  0  0
   -0.1142    1.3727   -0.4456 S   0  0  0  0  0  0  0  0  0  0  0  0
    3.9523    1.9675    0.5823 C   0  0  0  0  0  0  0  0  0  0  0  0
    4.3219    2.1452    1.7429 O   0  0  0  0  0  0  0  0  0  0  0  0
    4.6396    2.4355   -0.4681 N   0  0  0  0  0  0  0  0  0  0  0  0
    4.2815    2.2512   -1.3914 H   0  0  0  0  0  0  0  0  0  0  0  0
    5.8776    3.2033   -0.3505 C   0  0  0  0  0  0  0  0  0  0  0  0
    5.6819    4.1357    0.1833 H   0  0  0  0  0  0  0  0  0  0  0  0
    6.6155    2.6303    0.2140 H   0  0  0  0  0  0  0  0  0  0  0  0
    6.2779    3.4311   -1.3392 H   0  0  0  0  0  0  0  0  0  0  0  0
    0.8377    5.2002   -7.5356 H   0  0  0  0  0  0  0  0  0  0  0  0
    0.5107    5.3815   -6.5128 C   0  0  0  0  0  0  0  0  0  0  0  0
   -0.3416    6.0591   -6.5143 H   0  0  0  0  0  0  0  0  0  0  0  0
    1.3274    5.8163   -5.9397 H   0  0  0  0  0  0  0  0  0  0  0  0
    0.1047    4.0674   -5.8876 C   0  0  0  0  0  0  0  0  0  0  0  0
    0.1878    3.0272   -6.5265 O   0  0  0  0  0  0  0  0  0  0  0  0
   -0.3279    4.1168   -4.6306 N   0  0  0  0  0  0  0  0  0  0  0  0
   -0.3799    5.0128   -4.1680 H   0  0  0  0  0  0  0  0  0  0  0  0
   -0.7586    2.9535   -3.8551 C   0  0  1  0  0  0  0  0  0  0  0  0
   -1.2850    2.2613   -4.5146 H   0  0  0  0  0  0  0  0  0  0  0  0
    0.4952    2.2493   -3.3179 C   0  0  0  0  0  0  0  0  0  0  0  0
    1.1142    1.9814   -4.1754 H   0  0  0  0  0  0  0  0  0  0  0  0
    1.0671    2.9570   -2.7173 H   0  0  0  0  0  0  0  0  0  0  0  0
    0.2531    0.7354   -2.3501 S   0  0  0  0  0  0  0  0  0  0  0  0
   -1.7261    3.3800   -2.7368 C   0  0  0  0  0  0  0  0  0  0  0  0
   -1.6193    4.4948   -2.2238 O   0  0  0  0  0  0  0  0  0  0  0  0
   -2.6682    2.5024   -2.3684 N   0  0  0  0  0  0  0  0  0  0  0  0
   -2.6679    1.5983   -2.8135 H   0  0  0  0  0  0  0  0  0  0  0  0
   -3.6564    2.7483   -1.3189 C   0  0  0  0  0  0  0  0  0  0  0  0
   -3.1774    2.6846   -0.3404 H   0  0  0  0  0  0  0  0  0  0  0  0
   -4.0825    3.7478   -1.4337 H   0  0  0  0  0  0  0  0  0  0  0  0
   -4.4574    2.0110   -1.3753 H   0  0  0  0  0  0  0  0  0  0  0  0
  5  6  2  0  0  0  0
  5  7  1  0  0  0  0
  2  3  1  0  0  0  0
  2  4  1  0  0  0  0
  2  5  1  0  0  0  0
  1  2  1  0  0  0  0
 15 16  2  0  0  0  0
 15 17  1  0  0  0  0
 14 36  1  0  0  0  0
 11 12  1  0  0  0  0
 11 13  1  0  0  0  0
 11 14  1  0  0  0  0
  9 10  1  0  0  0  0
  9 11  1  0  0  0  0
  9 15  1  0  0  0  0
  7  8  1  0  0  0  0
  7  9  1  0  0  0  0
 19 20  1  0  0  0  0
 19 21  1  0  0  0  0
 19 22  1  0  0  0  0
 17 18  1  0  0  0  0
 17 19  1  0  0  0  0
 27 28  2  0  0  0  0
 27 29  1  0  0  0  0
 24 25  1  0  0  0  0
 24 26  1  0  0  0  0
 24 27  1  0  0  0  0
 23 24  1  0  0  0  0
 37 38  2  0  0  0  0
 37 39  1  0  0  0  0
 33 34  1  0  0  0  0
 33 35  1  0  0  0  0
 33 36  1  0  0  0  0
 31 32  1  0  0  0  0
 31 33  1  0  0  0  0
 31 37  1  0  0  0  0
 29 30  1  0  0  0  0
 29 31  1  0  0  0  0
 41 42  1  0  0  0  0
 41 43  1  0  0  0  0
 41 44  1  0  0  0  0
 39 40  1  0  0  0  0
 39 41  1  0  0  0  0
M  END
$$$$
default_name
  -OEChem-01062215323D

 44 43  0     1  0  0  0  0  0999 V2000
    2.4488   -3.0448    2.0990 H   0  0  0  0  0  0  0  0  0  0  0  0
    2.2788   -2.0018    2.3640 C   0  0  0  0  0  0  0  0  0  0  0  0
    2.9228   -1.7258    3.1960 H   0  0  0  0  0  0  0  0  0  0  0  0
    1.2358   -1.8618    2.6430 H   0  0  0  0  0  0  0  0  0  0  0  0
    2.6018   -1.1318    1.1730 C   0  0  0  0  0  0  0  0  0  0  0  0
    3.0048   -1.6348    0.1320 O   0  0  0  0  0  0  0  0  0  0  0  0
    2.4088    0.1752    1.3190 N   0  0  0  0  0  0  0  0  0  0  0  0
    2.0708    0.5242    2.2050 H   0  0  0  0  0  0  0  0  0  0  0  0
    2.6638    1.1782    0.2840 C   0  0  1  0  0  0  0  0  0  0  0  0
    2.8041    0.6583   -0.6652 H   0  0  0  0  0  0  0  0  0  0  0  0
    1.4415    2.1026    0.1460 C   0  0  0  0  0  0  0  0  0  0  0  0
    1.7039    2.9360   -0.5069 H   0  0  0  0  0  0  0  0  0  0  0  0
    1.2367    2.5328    1.1260 H   0  0  0  0  0  0  0  0  0  0  0  0
   -0.1142    1.3727   -0.4456 S   0  0  0  0  0  0  0  0  0  0  0  0
    3.9523    1.9675    0.5823 C   0  0  0  0  0  0  0  0  0  0  0  0
    4.4722    1.9173    1.6969 O   0  0  0  0  0  0  0  0  0  0  0  0
    4.4708    2.6922   -0.4181 N   0  0  0  0  0  0  0  0  0  0  0  0
    3.9953    2.6861   -1.3061 H   0  0  0  0  0  0  0  0  0  0  0  0
    5.6851    3.4957   -0.2929 C   0  0  0  0  0  0  0  0  0  0  0  0
    5.5320    4.2783    0.4533 H   0  0  0  0  0  0  0  0  0  0  0  0
    6.5138    2.8646    0.0333 H   0  0  0  0  0  0  0  0  0  0  0  0
    5.9366    3.9544   -1.2500 H   0  0  0  0  0  0  0  0  0  0  0  0
    0.8377    5.2002   -7.5356 H   0  0  0  0  0  0  0  0  0  0  0  0
    0.5107    5.3815   -6.5128 C   0  0  0  0  0  0  0  0  0  0  0  0
   -0.3416    6.0591   -6.5143 H   0  0  0  0  0  0  0  0  0  0  0  0
    1.3274    5.8163   -5.9397 H   0  0  0  0  0  0  0  0  0  0  0  0
    0.1047    4.0674   -5.8876 C   0  0  0  0  0  0  0  0  0  0  0  0
    0.1878    3.0272   -6.5265 O   0  0  0  0  0  0  0  0  0  0  0  0
   -0.3279    4.1168   -4.6306 N   0  0  0  0  0  0  0  0  0  0  0  0
   -0.3799    5.0128   -4.1680 H   0  0  0  0  0  0  0  0  0  0  0  0
   -0.7586    2.9535   -3.8551 C   0  0  1  0  0  0  0  0  0  0  0  0
   -1.2850    2.2613   -4.5146 H   0  0  0  0  0  0  0  0  0  0  0  0
    0.4952    2.2493   -3.3179 C   0  0  0  0  0  0  0  0  0  0  0  0
    1.1142    1.9814   -4.1754 H   0  0  0  0  0  0  0  0  0  0  0  0
    1.0671    2.9570   -2.7173 H   0  0  0  0  0  0  0  0  0  0  0  0
    0.2531    0.7354   -2.3501 S   0  0  0  0  0  0  0  0  0  0  0  0
   -1.7261    3.3800   -2.7368 C   0  0  0  0  0  0  0  0  0  0  0  0
   -1.6193    4.4948   -2.2238 O   0  0  0  0  0  0  0  0  0  0  0  0
   -2.6682    2.5024   -2.3684 N   0  0  0  0  0  0  0  0  0  0  0  0
   -2.6679    1.5983   -2.8135 H   0  0  0  0  0  0  0  0  0  0  0  0
   -3.6564    2.7483   -1.3189 C   0  0  0  0  0  0  0  0  0  0  0  0
   -3.1774    2.6846   -0.3404 H   0  0  0  0  0  0  0  0  0  0  0  0
   -4.0825    3.7478   -1.4337 H   0  0  0  0  0  0  0  0  0  0  0  0
   -4.4574    2.0110   -1.3753 H   0  0  0  0  0  0  0  0  0  0  0  0
  5  6  2  0  0  0  0
  5  7  1  0  0  0  0
  2  3  1  0  0  0  0
  2  4  1  0  0  0  0
  2  5  1  0  0  0  0
  1  2  1  0  0  0  0
 15 16  2  0  0  0  0
 15 17  1  0  0  0  0
 14 36  1  0  0  0  0
 11 12  1  0  0  0  0
 11 13  1  0  0  0  0
 11 14  1  0  0  0  0
  9 10  1  0  0  0  0
  9 11  1  0  0  0  0
  9 15  1  0  0  0  0
  7  8  1  0  0  0  0
  7  9  1  0  0  0  0
 19 20  1  0  0  0  0
 19 21  1  0  0  0  0
 19 22  1  0  0  0  0
 17 18  1  0  0  0  0
 17 19  1  0  0  0  0
 27 28  2  0  0  0  0
 27 29  1  0  0  0  0
 24 25  1  0  0  0  0
 24 26  1  0  0  0  0
 24 27  1  0  0  0  0
 23 24  1  0  0  0  0
 37 38  2  0  0  0  0
 37 39  1  0  0  0  0
 33 34  1  0  0  0  0
 33 35  1  0  0  0  0
 33 36  1  0  0  0  0
 31 32  1  0  0  0  0
 31 33  1  0  0  0  0
 31 37  1  0  0  0  0
 29 30  1  0  0  0  0
 29 31  1  0  0  0  0
 41 42  1  0  0  0  0
 41 43  1  0  0  0  0
 41 44  1  0  0  0  0
 39 40  1  0  0  0  0
 39 41  1  0  0  0  0
M  END
$$$$
default_name
  -OEChem-01062215323D

 44 43  0     1  0  0  0  0  0999 V2000
    2.4488   -3.0448    2.0990 H   0  0  0  0  0  0  0  0  0  0  0  0
    2.2788   -2.0018    2.3640 C   0  0  0  0  0  0  0  0  0  0  0  0
    2.9228   -1.7258    3.1960 H   0  0  0  0  0  0  0  0  0  0  0  0
    1.2358   -1.8618    2.6430 H   0  0  0  0  0  0  0  0  0  0  0  0
    2.6018   -1.1318    1.1730 C   0  0  0  0  0  0  0  0  0  0  0  0
    3.0048   -1.6348    0.1320 O   0  0  0  0  0  0  0  0  0  0  0  0
    2.4088    0.1752    1.3190 N   0  0  0  0  0  0  0  0  0  0  0  0
    2.0708    0.5242    2.2050 H   0  0  0  0  0  0  0  0  0  0  0  0
    2.6638    1.1782    0.2840 C   0  0  1  0  0  0  0  0  0  0  0  0
    2.5379    0.7011   -0.6894 H   0  0  0  0  0  0  0  0  0  0  0  0
    1.6309    2.3131    0.3967 C   0  0  0  0  0  0  0  0  0  0  0  0
    1.9275    3.1247   -0.2689 H   0  0  0  0  0  0  0  0  0  0  0  0
    1.6831    2.7118    1.4094 H   0  0  0  0  0  0  0  0  0  0  0  0
   -0.1124    1.9113    0.0767 S   0  0  0  0  0  0  0  0  0  0  0  0
    4.1090    1.7043    0.3659 C   0  0  0  0  0  0  0  0  0  0  0  0
    4.8833    1.2744    1.2208 O   0  0  0  0  0  0  0  0  0  0  0  0
    4.4737    2.6317   -0.5296 N   0  0  0  0  0  0  0  0  0  0  0  0
    3.7903    2.9368   -1.2037 H   0  0  0  0  0  0  0  0  0  0  0  0
    5.8061    3.2300   -0.5809 C   0  0  0  0  0  0  0  0  0  0  0  0
    6.0017    3.7705    0.3476 H   0  0  0  0  0  0  0  0  0  0  0  0
    6.5588    2.4470   -0.6900 H   0  0  0  0  0  0  0  0  0  0  0  0
    5.8797    3.9202   -1.4223 H   0  0  0  0  0  0  0  0  0  0  0  0
    0.2965    5.9360   -6.9559 H   0  0  0  0  0  0  0  0  0  0  0  0
    0.1913    6.1095   -5.8860 C   0  0  0  0  0  0  0  0  0  0  0  0
   -0.5064    6.9275   -5.7133 H   0  0  0  0  0  0  0  0  0  0  0  0
    1.1616    6.3551   -5.4585 H   0  0  0  0  0  0  0  0  0  0  0  0
   -0.3389    4.8534   -5.2353 C   0  0  0  0  0  0  0  0  0  0  0  0
   -0.5637    3.8564   -5.9081 O   0  0  0  0  0  0  0  0  0  0  0  0
   -0.5303    4.9018   -3.9197 N   0  0  0  0  0  0  0  0  0  0  0  0
   -0.3329    5.7624   -3.4300 H   0  0  0  0  0  0  0  0  0  0  0  0
   -1.0301    3.7889   -3.1124 C   0  0  1  0  0  0  0  0  0  0  0  0
   -1.7828    3.2439   -3.6850 H   0  0  0  0  0  0  0  0  0  0  0  0
    0.1436    2.8399   -2.8322 C   0  0  0  0  0  0  0  0  0  0  0  0
    0.5435    2.5189   -3.7951 H   0  0  0  0  0  0  0  0  0  0  0  0
    0.9329    3.3954   -2.3254 H   0  0  0  0  0  0  0  0  0  0  0  0
   -0.2062    1.3371   -1.8802 S   0  0  0  0  0  0  0  0  0  0  0  0
   -1.6922    4.3119   -1.8254 C   0  0  0  0  0  0  0  0  0  0  0  0
   -1.2915    5.3558   -1.3086 O   0  0  0  0  0  0  0  0  0  0  0  0
   -2.7035    3.5960   -1.3173 N   0  0  0  0  0  0  0  0  0  0  0  0
   -2.9495    2.7357   -1.7807 H   0  0  0  0  0  0  0  0  0  0  0  0
   -3.4313    3.9497   -0.0992 C   0  0  0  0  0  0  0  0  0  0  0  0
   -2.8107    3.7411    0.7738 H   0  0  0  0  0  0  0  0  0  0  0  0
   -3.6763    5.0144   -0.1062 H   0  0  0  0  0  0  0  0  0  0  0  0
   -4.3536    3.3726   -0.0303 H   0  0  0  0  0  0  0  0  0  0  0  0
  5  6  2  0  0  0  0
  5  7  1  0  0  0  0
  2  3  1  0  0  0  0
  2  4  1  0  0  0  0
  2  5  1  0  0  0  0
  1  2  1  0  0  0  0
 15 16  2  0  0  0  0
 15 17  1  0  0  0  0
 14 36  1  0  0  0  0
 11 12  1  0  0  0  0
 11 13  1  0  0  0  0
 11 14  1  0  0  0  0
  9 10  1  0  0  0  0
  9 11  1  0  0  0  0
  9 15  1  0  0  0  0
  7  8  1  0  0  0  0
  7  9  1  0  0  0  0
 19 20  1  0  0  0  0
 19 21  1  0  0  0  0
 19 22  1  0  0  0  0
 17 18  1  0  0  0  0
 17 19  1  0  0  0  0
 27 28  2  0  0  0  0
 27 29  1  0  0  0  0
 24 25  1  0  0  0  0
 24 26  1  0  0  0  0
 24 27  1  0  0  0  0
 23 24  1  0  0  0  0
 37 38  2  0  0  0  0
 37 39  1  0  0  0  0
 33 34  1  0  0  0  0
 33 35  1  0  0  0  0
 33 36  1  0  0  0  0
 31 32  1  0  0  0  0
 31 33  1  0  0  0  0
 31 37  1  0  0  0  0
 29 30  1  0  0  0  0
 29 31  1  0  0  0  0
 41 42  1  0  0  0  0
 41 43  1  0  0  0  0
 41 44  1  0  0  0  0
 39 40  1  0  0  0  0
 39 41  1  0  0  0  0
M  END
$$$$
default_name
  -OEChem-01062215323D

 44 43  0     1  0  0  0  0  0999 V2000
    2.4488   -3.0448    2.0990 H   0  0  0  0  0  0  0  0  0  0  0  0
    2.2788   -2.0018    2.3640 C   0  0  0  0  0  0  0  0  0  0  0  0
    2.9228   -1.7258    3.1960 H   0  0  0  0  0  0  0  0  0  0  0  0
    1.2358   -1.8618    2.6430 H   0  0  0  0  0  0  0  0  0  0  0  0
    2.6018   -1.1318    1.1730 C   0  0  0  0  0  0  0  0  0  0  0  0
    3.0048   -1.6348    0.1320 O   0  0  0  0  0  0  0  0  0  0  0  0
    2.4088    0.1752    1.3190 N   0  0  0  0  0  0  0  0  0  0  0  0
    2.0708    0.5242    2.2050 H   0  0  0  0  0  0  0  0  0  0  0  0
    2.6638    1.1782    0.2840 C   0  0  1  0  0  0  0  0  0  0  0  0
    2.5379    0.7011   -0.6894 H   0  0  0  0  0  0  0  0  0  0  0  0
    1.6309    2.3131    0.3967 C   0  0  0  0  0  0  0  0  0  0  0  0
    1.9275    3.1247   -0.2689 H   0  0  0  0  0  0  0  0  0  0  0  0
    1.6831    2.7118    1.4094 H   0  0  0  0  0  0  0  0  0  0  0  0
   -0.1124    1.9113    0.0767 S   0  0  0  0  0  0  0  0  0  0  0  0
    4.1090    1.7043    0.3659 C   0  0  0  0  0  0  0  0  0  0  0  0
    4.9584    1.0994    1.0199 O   0  0  0  0  0  0  0  0  0  0  0  0
    4.3889    2.8297   -0.3050 N   0  0  0  0  0  0  0  0  0  0  0  0
    3.6466    3.2721   -0.8227 H   0  0  0  0  0  0  0  0  0  0  0  0
    5.7096    3.4553   -0.3244 C   0  0  0  0  0  0  0  0  0  0  0  0
    5.9865    3.7595    0.6872 H   0  0  0  0  0  0  0  0  0  0  0  0
    6.4516    2.7409   -0.6857 H   0  0  0  0  0  0  0  0  0  0  0  0
    5.7051    4.3303   -0.9755 H   0  0  0  0  0  0  0  0  0  0  0  0
    0.2965    5.9360   -6.9559 H   0  0  0  0  0  0  0  0  0  0  0  0
    0.1913    6.1095   -5.8860 C   0  0  0  0  0  0  0  0  0  0  0  0
   -0.5064    6.9275   -5.7133 H   0  0  0  0  0  0  0  0  0  0  0  0
    1.1616    6.3551   -5.4585 H   0  0  0  0  0  0  0  0  0  0  0  0
   -0.3389    4.8534   -5.2353 C   0  0  0  0  0  0  0  0  0  0  0  0
   -0.5637    3.8564   -5.9081 O   0  0  0  0  0  0  0  0  0  0  0  0
   -0.5303    4.9018   -3.9197 N   0  0  0  0  0  0  0  0  0  0  0  0
   -0.3329    5.7624   -3.4300 H   0  0  0  0  0  0  0  0  0  0  0  0
   -1.0301    3.7889   -3.1124 C   0  0  1  0  0  0  0  0  0  0  0  0
   -1.7828    3.2439   -3.6850 H   0  0  0  0  0  0  0  0  0  0  0  0
    0.1436    2.8399   -2.8322 C   0  0  0  0  0  0  0  0  0  0  0  0
    0.5435    2.5189   -3.7951 H   0  0  0  0  0  0  0  0  0  0  0  0
    0.9329    3.3954   -2.3254 H   0  0  0  0  0  0  0  0  0  0  0  0
   -0.2062    1.3371   -1.8802 S   0  0  0  0  0  0  0  0  0  0  0  0
   -1.6922    4.3119   -1.8254 C   0  0  0  0  0  0  0  0  0  0  0  0
   -1.2915    5.3558   -1.3086 O   0  0  0  0  0  0  0  0  0  0  0  0
   -2.7035    3.5960   -1.3173 N   0  0  0  0  0  0  0  0  0  0  0  0
   -2.9495    2.7357   -1.7807 H   0  0  0  0  0  0  0  0  0  0  0  0
   -3.4313    3.9497   -0.0992 C   0  0  0  0  0  0  0  0  0  0  0  0
   -2.8107    3.7411    0.7738 H   0  0  0  0  0  0  0  0  0  0  0  0
   -3.6763    5.0144   -0.1062 H   0  0  0  0  0  0  0  0  0  0  0  0
   -4.3536    3.3726   -0.0303 H   0  0  0  0  0  0  0  0  0  0  0  0
  5  6  2  0  0  0  0
  5  7  1  0  0  0  0
  2  3  1  0  0  0  0
  2  4  1  0  0  0  0
  2  5  1  0  0  0  0
  1  2  1  0  0  0  0
 15 16  2  0  0  0  0
 15 17  1  0  0  0  0
 14 36  1  0  0  0  0
 11 12  1  0  0  0  0
 11 13  1  0  0  0  0
 11 14  1  0  0  0  0
  9 10  1  0  0  0  0
  9 11  1  0  0  0  0
  9 15  1  0  0  0  0
  7  8  1  0  0  0  0
  7  9  1  0  0  0  0
 19 20  1  0  0  0  0
 19 21  1  0  0  0  0
 19 22  1  0  0  0  0
 17 18  1  0  0  0  0
 17 19  1  0  0  0  0
 27 28  2  0  0  0  0
 27 29  1  0  0  0  0
 24 25  1  0  0  0  0
 24 26  1  0  0  0  0
 24 27  1  0  0  0  0
 23 24  1  0  0  0  0
 37 38  2  0  0  0  0
 37 39  1  0  0  0  0
 33 34  1  0  0  0  0
 33 35  1  0  0  0  0
 33 36  1  0  0  0  0
 31 32  1  0  0  0  0
 31 33  1  0  0  0  0
 31 37  1  0  0  0  0
 29 30  1  0  0  0  0
 29 31  1  0  0  0  0
 41 42  1  0  0  0  0
 41 43  1  0  0  0  0
 41 44  1  0  0  0  0
 39 40  1  0  0  0  0
 39 41  1  0  0  0  0
M  END
$$$$
default_name
  -OEChem-01062215323D

 44 43  0     1  0  0  0  0  0999 V2000
    2.4488   -3.0448    2.0990 H   0  0  0  0  0  0  0  0  0  0  0  0
    2.2788   -2.0018    2.3640 C   0  0  0  0  0  0  0  0  0  0  0  0
    2.9228   -1.7258    3.1960 H   0  0  0  0  0  0  0  0  0  0  0  0
    1.2358   -1.8618    2.6430 H   0  0  0  0  0  0  0  0  0  0  0  0
    2.6018   -1.1318    1.1730 C   0  0  0  0  0  0  0  0  0  0  0  0
    3.0048   -1.6348    0.1320 O   0  0  0  0  0  0  0  0  0  0  0  0
    2.4088    0.1752    1.3190 N   0  0  0  0  0  0  0  0  0  0  0  0
    2.0708    0.5242    2.2050 H   0  0  0  0  0  0  0  0  0  0  0  0
    2.6638    1.1782    0.2840 C   0  0  1  0  0  0  0  0  0  0  0  0
    2.5379    0.7011   -0.6894 H   0  0  0  0  0  0  0  0  0  0  0  0
    1.6309    2.3131    0.3967 C   0  0  0  0  0  0  0  0  0  0  0  0
    1.9275    3.1247   -0.2689 H   0  0  0  0  0  0  0  0  0  0  0  0
    1.6831    2.7118    1.4094 H   0  0  0  0  0  0  0  0  0  0  0  0
   -0.1124    1.9113    0.0767 S   0  0  0  0  0  0  0  0  0  0  0  0
    4.1090    1.7043    0.3659 C   0  0  0  0  0  0  0  0  0  0  0  0
    5.0156    0.9801    0.7767 O   0  0  0  0  0  0  0  0  0  0  0  0
    4.3241    2.9652   -0.0325 N   0  0  0  0  0  0  0  0  0  0  0  0
    3.5370    3.5014   -0.3605 H   0  0  0  0  0  0  0  0  0  0  0  0
    5.6359    3.6093   -0.0134 C   0  0  0  0  0  0  0  0  0  0  0  0
    6.0020    3.6661    1.0139 H   0  0  0  0  0  0  0  0  0  0  0  0
    6.3443    3.0222   -0.6007 H   0  0  0  0  0  0  0  0  0  0  0  0
    5.5703    4.6156   -0.4290 H   0  0  0  0  0  0  0  0  0  0  0  0
    0.2965    5.9360   -6.9559 H   0  0  0  0  0  0  0  0  0  0  0  0
    0.1913    6.1095   -5.8860 C   0  0  0  0  0  0  0  0  0  0  0  0
   -0.5064    6.9275   -5.7133 H   0  0  0  0  0  0  0  0  0  0  0  0
    1.1616    6.3551   -5.4585 H   0  0  0  0  0  0  0  0  0  0  0  0
   -0.3389    4.8534   -5.2353 C   0  0  0  0  0  0  0  0  0  0  0  0
   -0.5637    3.8564   -5.9081 O   0  0  0  0  0  0  0  0  0  0  0  0
   -0.5303    4.9018   -3.9197 N   0  0  0  0  0  0  0  0  0  0  0  0
   -0.3329    5.7624   -3.4300 H   0  0  0  0  0  0  0  0  0  0  0  0
   -1.0301    3.7889   -3.1124 C   0  0  1  0  0  0  0  0  0  0  0  0
   -1.7828    3.2439   -3.6850 H   0  0  0  0  0  0  0  0  0  0  0  0
    0.1436    2.8399   -2.8322 C   0  0  0  0  0  0  0  0  0  0  0  0
    0.5435    2.5189   -3.7951 H   0  0  0  0  0  0  0  0  0  0  0  0
    0.9329    3.3954   -2.3254 H   0  0  0  0  0  0  0  0  0  0  0  0
   -0.2062    1.3371   -1.8802 S   0  0  0  0  0  0  0  0  0  0  0  0
   -1.6922    4.3119   -1.8254 C   0  0  0  0  0  0  0  0  0  0  0  0
   -1.2915    5.3558   -1.3086 O   0  0  0  0  0  0  0  0  0  0  0  0
   -2.7035    3.5960   -1.3173 N   0  0  0  0  0  0  0  0  0  0  0  0
   -2.9495    2.7357   -1.7807 H   0  0  0  0  0  0  0  0  0  0  0  0
   -3.4313    3.9497   -0.0992 C   0  0  0  0  0  0  0  0  0  0  0  0
   -2.8107    3.7411    0.7738 H   0  0  0  0  0  0  0  0  0  0  0  0
   -3.6763    5.0144   -0.1062 H   0  0  0  0  0  0  0  0  0  0  0  0
   -4.3536    3.3726   -0.0303 H   0  0  0  0  0  0  0  0  0  0  0  0
  5  6  2  0  0  0  0
  5  7  1  0  0  0  0
  2  3  1  0  0  0  0
  2  4  1  0  0  0  0
  2  5  1  0  0  0  0
  1  2  1  0  0  0  0
 15 16  2  0  0  0  0
 15 17  1  0  0  0  0
 14 36  1  0  0  0  0
 11 12  1  0  0  0  0
 11 13  1  0  0  0  0
 11 14  1  0  0  0  0
  9 10  1  0  0  0  0
  9 11  1  0  0  0  0
  9 15  1  0  0  0  0
  7  8  1  0  0  0  0
  7  9  1  0  0  0  0
 19 20  1  0  0  0  0
 19 21  1  0  0  0  0
 19 22  1  0  0  0  0
 17 18  1  0  0  0  0
 17 19  1  0  0  0  0
 27 28  2  0  0  0  0
 27 29  1  0  0  0  0
 24 25  1  0  0  0  0
 24 26  1  0  0  0  0
 24 27  1  0  0  0  0
 23 24  1  0  0  0  0
 37 38  2  0  0  0  0
 37 39  1  0  0  0  0
 33 34  1  0  0  0  0
 33 35  1  0  0  0  0
 33 36  1  0  0  0  0
 31 32  1  0  0  0  0
 31 33  1  0  0  0  0
 31 37  1  0  0  0  0
 29 30  1  0  0  0  0
 29 31  1  0  0  0  0
 41 42  1  0  0  0  0
 41 43  1  0  0  0  0
 41 44  1  0  0  0  0
 39 40  1  0  0  0  0
 39 41  1  0  0  0  0
M  END
$$$$
default_name
  -OEChem-01062215323D

 44 43  0     1  0  0  0  0  0999 V2000
    2.4488   -3.0448    2.0990 H   0  0  0  0  0  0  0  0  0  0  0  0
    2.2788   -2.0018    2.3640 C   0  0  0  0  0  0  0  0  0  0  0  0
    2.9228   -1.7258    3.1960 H   0  0  0  0  0  0  0  0  0  0  0  0
    1.2358   -1.8618    2.6430 H   0  0  0  0  0  0  0  0  0  0  0  0
    2.6018   -1.1318    1.1730 C   0  0  0  0  0  0  0  0  0  0  0  0
    3.0048   -1.6348    0.1320 O   0  0  0  0  0  0  0  0  0  0  0  0
    2.4088    0.1752    1.3190 N   0  0  0  0  0  0  0  0  0  0  0  0
    2.0708    0.5242    2.2050 H   0  0  0  0  0  0  0  0  0  0  0  0
    2.6638    1.1782    0.2840 C   0  0  1  0  0  0  0  0  0  0  0  0
    2.5379    0.7011   -0.6894 H   0  0  0  0  0  0  0  0  0  0  0  0
    1.6309    2.3131    0.3967 C   0  0  0  0  0  0  0  0  0  0  0  0
    1.9275    3.1247   -0.2689 H   0  0  0  0  0  0  0  0  0  0  0  0
    1.6831    2.7118    1.4094 H   0  0  0  0  0  0  0  0  0  0  0  0
   -0.1124    1.9113    0.0767 S   0  0  0  0  0  0  0  0  0  0  0  0
    4.1090    1.7043    0.3659 C   0  0  0  0  0  0  0  0  0  0  0  0
    5.0510    0.9248    0.5078 O   0  0  0  0  0  0  0  0  0  0  0  0
    4.2838    3.0291    0.2694 N   0  0  0  0  0  0  0  0  0  0  0  0
    3.4687    3.6091    0.1514 H   0  0  0  0  0  0  0  0  0  0  0  0
    5.5901    3.6815    0.3309 C   0  0  0  0  0  0  0  0  0  0  0  0
    6.0471    3.4968    1.3054 H   0  0  0  0  0  0  0  0  0  0  0  0
    6.2444    3.2719   -0.4408 H   0  0  0  0  0  0  0  0  0  0  0  0
    5.4844    4.7566    0.1802 H   0  0  0  0  0  0  0  0  0  0  0  0
    0.2965    5.9360   -6.9559 H   0  0  0  0  0  0  0  0  0  0  0  0
    0.1913    6.1095   -5.8860 C   0  0  0  0  0  0  0  0  0  0  0  0
   -0.5064    6.9275   -5.7133 H   0  0  0  0  0  0  0  0  0  0  0  0
    1.1616    6.3551   -5.4585 H   0  0  0  0  0  0  0  0  0  0  0  0
   -0.3389    4.8534   -5.2353 C   0  0  0  0  0  0  0  0  0  0  0  0
   -0.5637    3.8564   -5.9081 O   0  0  0  0  0  0  0  0  0  0  0  0
   -0.5303    4.9018   -3.9197 N   0  0  0  0  0  0  0  0  0  0  0  0
   -0.3329    5.7624   -3.4300 H   0  0  0  0  0  0  0  0  0  0  0  0
   -1.0301    3.7889   -3.1124 C   0  0  1  0  0  0  0  0  0  0  0  0
   -1.7828    3.2439   -3.6850 H   0  0  0  0  0  0  0  0  0  0  0  0
    0.1436    2.8399   -2.8322 C   0  0  0  0  0  0  0  0  0  0  0  0
    0.5435    2.5189   -3.7951 H   0  0  0  0  0  0  0  0  0  0  0  0
    0.9329    3.3954   -2.3254 H   0  0  0  0  0  0  0  0  0  0  0  0
   -0.2062    1.3371   -1.8802 S   0  0  0  0  0  0  0  0  0  0  0  0
   -1.6922    4.3119   -1.8254 C   0  0  0  0  0  0  0  0  0  0  0  0
   -1.2915    5.3558   -1.3086 O   0  0  0  0  0  0  0  0  0  0  0  0
   -2.7035    3.5960   -1.3173 N   0  0  0  0  0  0  0  0  0  0  0  0
   -2.9495    2.7357   -1.7807 H   0  0  0  0  0  0  0  0  0  0  0  0
   -3.4313    3.9497   -0.0992 C   0  0  0  0  0  0  0  0  0  0  0  0
   -2.8107    3.7411    0.7738 H   0  0  0  0  0  0  0  0  0  0  0  0
   -3.6763    5.0144   -0.1062 H   0  0  0  0  0  0  0  0  0  0  0  0
   -4.3536    3.3726   -0.0303 H   0  0  0  0  0  0  0  0  0  0  0  0
  5  6  2  0  0  0  0
  5  7  1  0  0  0  0
  2  3  1  0  0  0  0
  2  4  1  0  0  0  0
  2  5  1  0  0  0  0
  1  2  1  0  0  0  0
 15 16  2  0  0  0  0
 15 17  1  0  0  0  0
 14 36  1  0  0  0  0
 11 12  1  0  0  0  0
 11 13  1  0  0  0  0
 11 14  1  0  0  0  0
  9 10  1  0  0  0  0
  9 11  1  0  0  0  0
  9 15  1  0  0  0  0
  7  8  1  0  0  0  0
  7  9  1  0  0  0  0
 19 20  1  0  0  0  0
 19 21  1  0  0  0  0
 19 22  1  0  0  0  0
 17 18  1  0  0  0  0
 17 19  1  0  0  0  0
 27 28  2  0  0  0  0
 27 29  1  0  0  0  0
 24 25  1  0  0  0  0
 24 26  1  0  0  0  0
 24 27  1  0  0  0  0
 23 24  1  0  0  0  0
 37 38  2  0  0  0  0
 37 39  1  0  0  0  0
 33 34  1  0  0  0  0
 33 35  1  0  0  0  0
 33 36  1  0  0  0  0
 31 32  1  0  0  0  0
 31 33  1  0  0  0  0
 31 37  1  0  0  0  0
 29 30  1  0  0  0  0
 29 31  1  0  0  0  0
 41 42  1  0  0  0  0
 41 43  1  0  0  0  0
 41 44  1  0  0  0  0
 39 40  1  0  0  0  0
 39 41  1  0  0  0  0
M  END
$$$$
default_name
  -OEChem-01062215323D

 44 43  0     1  0  0  0  0  0999 V2000
    2.4488   -3.0448    2.0990 H   0  0  0  0  0  0  0  0  0  0  0  0
    2.2788   -2.0018    2.3640 C   0  0  0  0  0  0  0  0  0  0  0  0
    2.9228   -1.7258    3.1960 H   0  0  0  0  0  0  0  0  0  0  0  0
    1.2358   -1.8618    2.6430 H   0  0  0  0  0  0  0  0  0  0  0  0
    2.6018   -1.1318    1.1730 C   0  0  0  0  0  0  0  0  0  0  0  0
    3.0048   -1.6348    0.1320 O   0  0  0  0  0  0  0  0  0  0  0  0
    2.4088    0.1752    1.3190 N   0  0  0  0  0  0  0  0  0  0  0  0
    2.0708    0.5242    2.2050 H   0  0  0  0  0  0  0  0  0  0  0  0
    2.6638    1.1782    0.2840 C   0  0  1  0  0  0  0  0  0  0  0  0
    2.5379    0.7011   -0.6894 H   0  0  0  0  0  0  0  0  0  0  0  0
    1.6309    2.3131    0.3967 C   0  0  0  0  0  0  0  0  0  0  0  0
    1.9275    3.1247   -0.2689 H   0  0  0  0  0  0  0  0  0  0  0  0
    1.6831    2.7118    1.4094 H   0  0  0  0  0  0  0  0  0  0  0  0
   -0.1124    1.9113    0.0767 S   0  0  0  0  0  0  0  0  0  0  0  0
    4.1090    1.7043    0.3659 C   0  0  0  0  0  0  0  0  0  0  0  0
    5.0622    0.9371    0.2315 O   0  0  0  0  0  0  0  0  0  0  0  0
    4.2706    3.0169    0.5800 N   0  0  0  0  0  0  0  0  0  0  0  0
    3.4466    3.5880    0.6780 H   0  0  0  0  0  0  0  0  0  0  0  0
    5.5753    3.6670    0.6850 C   0  0  0  0  0  0  0  0  0  0  0  0
    6.1188    3.2631    1.5418 H   0  0  0  0  0  0  0  0  0  0  0  0
    6.1585    3.4729   -0.2169 H   0  0  0  0  0  0  0  0  0  0  0  0
    5.4534    4.7437    0.8104 H   0  0  0  0  0  0  0  0  0  0  0  0
    0.2965    5.9360   -6.9559 H   0  0  0  0  0  0  0  0  0  0  0  0
    0.1913    6.1095   -5.8860 C   0  0  0  0  0  0  0  0  0  0  0  0
   -0.5064    6.9275   -5.7133 H   0  0  0  0  0  0  0  0  0  0  0  0
    1.1616    6.3551   -5.4585 H   0  0  0  0  0  0  0  0  0  0  0  0
   -0.3389    4.8534   -5.2353 C   0  0  0  0  0  0  0  0  0  0  0  0
   -0.5637    3.8564   -5.9081 O   0  0  0  0  0  0  0  0  0  0  0  0
   -0.5303    4.9018   -3.9197 N   0  0  0  0  0  0  0  0  0  0  0  0
   -0.3329    5.7624   -3.4300 H   0  0  0  0  0  0  0  0  0  0  0  0
   -1.0301    3.7889   -3.1124 C   0  0  1  0  0  0  0  0  0  0  0  0
   -1.7828    3.2439   -3.6850 H   0  0  0  0  0  0  0  0  0  0  0  0
    0.1436    2.8399   -2.8322 C   0  0  0  0  0  0  0  0  0  0  0  0
    0.5435    2.5189   -3.7951 H   0  0  0  0  0  0  0  0  0  0  0  0
    0.9329    3.3954   -2.3254 H   0  0  0  0  0  0  0  0  0  0  0  0
   -0.2062    1.3371   -1.8802 S   0  0  0  0  0  0  0  0  0  0  0  0
   -1.6922    4.3119   -1.8254 C   0  0  0  0  0  0  0  0  0  0  0  0
   -1.2915    5.3558   -1.3086 O   0  0  0  0  0  0  0  0  0  0  0  0
   -2.7035    3.5960   -1.3173 N   0  0  0  0  0  0  0  0  0  0  0  0
   -2.9495    2.7357   -1.7807 H   0  0  0  0  0  0  0  0  0  0  0  0
   -3.4313    3.9497   -0.0992 C   0  0  0  0  0  0  0  0  0  0  0  0
   -2.8107    3.7411    0.7738 H   0  0  0  0  0  0  0  0  0  0  0  0
   -3.6763    5.0144   -0.1062 H   0  0  0  0  0  0  0  0  0  0  0  0
   -4.3536    3.3726   -0.0303 H   0  0  0  0  0  0  0  0  0  0  0  0
  5  6  2  0  0  0  0
  5  7  1  0  0  0  0
  2  3  1  0  0  0  0
  2  4  1  0  0  0  0
  2  5  1  0  0  0  0
  1  2  1  0  0  0  0
 15 16  2  0  0  0  0
 15 17  1  0  0  0  0
 14 36  1  0  0  0  0
 11 12  1  0  0  0  0
 11 13  1  0  0  0  0
 11 14  1  0  0  0  0
  9 10  1  0  0  0  0
  9 11  1  0  0  0  0
  9 15  1  0  0  0  0
  7  8  1  0  0  0  0
  7  9  1  0  0  0  0
 19 20  1  0  0  0  0
 19 21  1  0  0  0  0
 19 22  1  0  0  0  0
 17 18  1  0  0  0  0
 17 19  1  0  0  0  0
 27 28  2  0  0  0  0
 27 29  1  0  0  0  0
 24 25  1  0  0  0  0
 24 26  1  0  0  0  0
 24 27  1  0  0  0  0
 23 24  1  0  0  0  0
 37 38  2  0  0  0  0
 37 39  1  0  0  0  0
 33 34  1  0  0  0  0
 33 35  1  0  0  0  0
 33 36  1  0  0  0  0
 31 32  1  0  0  0  0
 31 33  1  0  0  0  0
 31 37  1  0  0  0  0
 29 30  1  0  0  0  0
 29 31  1  0  0  0  0
 41 42  1  0  0  0  0
 41 43  1  0  0  0  0
 41 44  1  0  0  0  0
 39 40  1  0  0  0  0
 39 41  1  0  0  0  0
M  END
$$$$
default_name
  -OEChem-01062215323D

 44 43  0     1  0  0  0  0  0999 V2000
    2.4488   -3.0448    2.0990 H   0  0  0  0  0  0  0  0  0  0  0  0
    2.2788   -2.0018    2.3640 C   0  0  0  0  0  0  0  0  0  0  0  0
    2.9228   -1.7258    3.1960 H   0  0  0  0  0  0  0  0  0  0  0  0
    1.2358   -1.8618    2.6430 H   0  0  0  0  0  0  0  0  0  0  0  0
    2.6018   -1.1318    1.1730 C   0  0  0  0  0  0  0  0  0  0  0  0
    3.0048   -1.6348    0.1320 O   0  0  0  0  0  0  0  0  0  0  0  0
    2.4088    0.1752    1.3190 N   0  0  0  0  0  0  0  0  0  0  0  0
    2.0708    0.5242    2.2050 H   0  0  0  0  0  0  0  0  0  0  0  0
    2.6638    1.1782    0.2840 C   0  0  1  0  0  0  0  0  0  0  0  0
    2.5379    0.7011   -0.6894 H   0  0  0  0  0  0  0  0  0  0  0  0
    1.6309    2.3131    0.3967 C   0  0  0  0  0  0  0  0  0  0  0  0
    1.9275    3.1247   -0.2689 H   0  0  0  0  0  0  0  0  0  0  0  0
    1.6831    2.7118    1.4094 H   0  0  0  0  0  0  0  0  0  0  0  0
   -0.1124    1.9113    0.0767 S   0  0  0  0  0  0  0  0  0  0  0  0
    4.1090    1.7043    0.3659 C   0  0  0  0  0  0  0  0  0  0  0  0
    5.0483    1.0162   -0.0334 O   0  0  0  0  0  0  0  0  0  0  0  0
    4.2855    2.9295    0.8783 N   0  0  0  0  0  0  0  0  0  0  0  0
    3.4721    3.4393    1.1834 H   0  0  0  0  0  0  0  0  0  0  0  0
    5.5925    3.5668    1.0249 C   0  0  0  0  0  0  0  0  0  0  0  0
    6.2121    2.9810    1.7072 H   0  0  0  0  0  0  0  0  0  0  0  0
    6.0926    3.6114    0.0558 H   0  0  0  0  0  0  0  0  0  0  0  0
    5.4794    4.5777    1.4187 H   0  0  0  0  0  0  0  0  0  0  0  0
    0.2965    5.9360   -6.9559 H   0  0  0  0  0  0  0  0  0  0  0  0
    0.1913    6.1095   -5.8860 C   0  0  0  0  0  0  0  0  0  0  0  0
   -0.5064    6.9275   -5.7133 H   0  0  0  0  0  0  0  0  0  0  0  0
    1.1616    6.3551   -5.4585 H   0  0  0  0  0  0  0  0  0  0  0  0
   -0.3389    4.8534   -5.2353 C   0  0  0  0  0  0  0  0  0  0  0  0
   -0.5637    3.8564   -5.9081 O   0  0  0  0  0  0  0  0  0  0  0  0
   -0.5303    4.9018   -3.9197 N   0  0  0  0  0  0  0  0  0  0  0  0
   -0.3329    5.7624   -3.4300 H   0  0  0  0  0  0  0  0  0  0  0  0
   -1.0301    3.7889   -3.1124 C   0  0  1  0  0  0  0  0  0  0  0  0
   -1.7828    3.2439   -3.6850 H   0  0  0  0  0  0  0  0  0  0  0  0
    0.1436    2.8399   -2.8322 C   0  0  0  0  0  0  0  0  0  0  0  0
    0.5435    2.5189   -3.7951 H   0  0  0  0  0  0  0  0  0  0  0  0
    0.9329    3.3954   -2.3254 H   0  0  0  0  0  0  0  0  0  0  0  0
   -0.2062    1.3371   -1.8802 S   0  0  0  0  0  0  0  0  0  0  0  0
   -1.6922    4.3119   -1.8254 C   0  0  0  0  0  0  0  0  0  0  0  0
   -1.2915    5.3558   -1.3086 O   0  0  0  0  0  0  0  0  0  0  0  0
   -2.7035    3.5960   -1.3173 N   0  0  0  0  0  0  0  0  0  0  0  0
   -2.9495    2.7357   -1.7807 H   0  0  0  0  0  0  0  0  0  0  0  0
   -3.4313    3.9497   -0.0992 C   0  0  0  0  0  0  0  0  0  0  0  0
   -2.8107    3.7411    0.7738 H   0  0  0  0  0  0  0  0  0  0  0  0
   -3.6763    5.0144   -0.1062 H   0  0  0  0  0  0  0  0  0  0  0  0
   -4.3536    3.3726   -0.0303 H   0  0  0  0  0  0  0  0  0  0  0  0
  5  6  2  0  0  0  0
  5  7  1  0  0  0  0
  2  3  1  0  0  0  0
  2  4  1  0  0  0  0
  2  5  1  0  0  0  0
  1  2  1  0  0  0  0
 15 16  2  0  0  0  0
 15 17  1  0  0  0  0
 14 36  1  0  0  0  0
 11 12  1  0  0  0  0
 11 13  1  0  0  0  0
 11 14  1  0  0  0  0
  9 10  1  0  0  0  0
  9 11  1  0  0  0  0
  9 15  1  0  0  0  0
  7  8  1  0  0  0  0
  7  9  1  0  0  0  0
 19 20  1  0  0  0  0
 19 21  1  0  0  0  0
 19 22  1  0  0  0  0
 17 18  1  0  0  0  0
 17 19  1  0  0  0  0
 27 28  2  0  0  0  0
 27 29  1  0  0  0  0
 24 25  1  0  0  0  0
 24 26  1  0  0  0  0
 24 27  1  0  0  0  0
 23 24  1  0  0  0  0
 37 38  2  0  0  0  0
 37 39  1  0  0  0  0
 33 34  1  0  0  0  0
 33 35  1  0  0  0  0
 33 36  1  0  0  0  0
 31 32  1  0  0  0  0
 31 33  1  0  0  0  0
 31 37  1  0  0  0  0
 29 30  1  0  0  0  0
 29 31  1  0  0  0  0
 41 42  1  0  0  0  0
 41 43  1  0  0  0  0
 41 44  1  0  0  0  0
 39 40  1  0  0  0  0
 39 41  1  0  0  0  0
M  END
$$$$
default_name
  -OEChem-01062215323D

 44 43  0     1  0  0  0  0  0999 V2000
    2.4488   -3.0448    2.0990 H   0  0  0  0  0  0  0  0  0  0  0  0
    2.2788   -2.0018    2.3640 C   0  0  0  0  0  0  0  0  0  0  0  0
    2.9228   -1.7258    3.1960 H   0  0  0  0  0  0  0  0  0  0  0  0
    1.2358   -1.8618    2.6430 H   0  0  0  0  0  0  0  0  0  0  0  0
    2.6018   -1.1318    1.1730 C   0  0  0  0  0  0  0  0  0  0  0  0
    3.0048   -1.6348    0.1320 O   0  0  0  0  0  0  0  0  0  0  0  0
    2.4088    0.1752    1.3190 N   0  0  0  0  0  0  0  0  0  0  0  0
    2.0708    0.5242    2.2050 H   0  0  0  0  0  0  0  0  0  0  0  0
    2.6638    1.1782    0.2840 C   0  0  1  0  0  0  0  0  0  0  0  0
    2.5379    0.7011   -0.6894 H   0  0  0  0  0  0  0  0  0  0  0  0
    1.6309    2.3131    0.3967 C   0  0  0  0  0  0  0  0  0  0  0  0
    1.9275    3.1247   -0.2689 H   0  0  0  0  0  0  0  0  0  0  0  0
    1.6831    2.7118    1.4094 H   0  0  0  0  0  0  0  0  0  0  0  0
   -0.1124    1.9113    0.0767 S   0  0  0  0  0  0  0  0  0  0  0  0
    4.1090    1.7043    0.3659 C   0  0  0  0  0  0  0  0  0  0  0  0
    5.0105    1.1568   -0.2688 O   0  0  0  0  0  0  0  0  0  0  0  0
    4.3275    2.7728    1.1439 N   0  0  0  0  0  0  0  0  0  0  0  0
    3.5434    3.1733    1.6333 H   0  0  0  0  0  0  0  0  0  0  0  0
    5.6405    3.3877    1.3274 C   0  0  0  0  0  0  0  0  0  0  0  0
    6.3208    2.6695    1.7900 H   0  0  0  0  0  0  0  0  0  0  0  0
    6.0512    3.6781    0.3586 H   0  0  0  0  0  0  0  0  0  0  0  0
    5.5605    4.2700    1.9637 H   0  0  0  0  0  0  0  0  0  0  0  0
    0.2965    5.9360   -6.9559 H   0  0  0  0  0  0  0  0  0  0  0  0
    0.1913    6.1095   -5.8860 C   0  0  0  0  0  0  0  0  0  0  0  0
   -0.5064    6.9275   -5.7133 H   0  0  0  0  0  0  0  0  0  0  0  0
    1.1616    6.3551   -5.4585 H   0  0  0  0  0  0  0  0  0  0  0  0
   -0.3389    4.8534   -5.2353 C   0  0  0  0  0  0  0  0  0  0  0  0
   -0.5637    3.8564   -5.9081 O   0  0  0  0  0  0  0  0  0  0  0  0
   -0.5303    4.9018   -3.9197 N   0  0  0  0  0  0  0  0  0  0  0  0
   -0.3329    5.7624   -3.4300 H   0  0  0  0  0  0  0  0  0  0  0  0
   -1.0301    3.7889   -3.1124 C   0  0  1  0  0  0  0  0  0  0  0  0
   -1.7828    3.2439   -3.6850 H   0  0  0  0  0  0  0  0  0  0  0  0
    0.1436    2.8399   -2.8322 C   0  0  0  0  0  0  0  0  0  0  0  0
    0.5435    2.5189   -3.7951 H   0  0  0  0  0  0  0  0  0  0  0  0
    0.9329    3.3954   -2.3254 H   0  0  0  0  0  0  0  0  0  0  0  0
   -0.2062    1.3371   -1.8802 S   0  0  0  0  0  0  0  0  0  0  0  0
   -1.6922    4.3119   -1.8254 C   0  0  0  0  0  0  0  0  0  0  0  0
   -1.2915    5.3558   -1.3086 O   0  0  0  0  0  0  0  0  0  0  0  0
   -2.7035    3.5960   -1.3173 N   0  0  0  0  0  0  0  0  0  0  0  0
   -2.9495    2.7357   -1.7807 H   0  0  0  0  0  0  0  0  0  0  0  0
   -3.4313    3.9497   -0.0992 C   0  0  0  0  0  0  0  0  0  0  0  0
   -2.8107    3.7411    0.7738 H   0  0  0  0  0  0  0  0  0  0  0  0
   -3.6763    5.0144   -0.1062 H   0  0  0  0  0  0  0  0  0  0  0  0
   -4.3536    3.3726   -0.0303 H   0  0  0  0  0  0  0  0  0  0  0  0
  5  6  2  0  0  0  0
  5  7  1  0  0  0  0
  2  3  1  0  0  0  0
  2  4  1  0  0  0  0
  2  5  1  0  0  0  0
  1  2  1  0  0  0  0
 15 16  2  0  0  0  0
 15 17  1  0  0  0  0
 14 36  1  0  0  0  0
 11 12  1  0  0  0  0
 11 13  1  0  0  0  0
 11 14  1  0  0  0  0
  9 10  1  0  0  0  0
  9 11  1  0  0  0  0
  9 15  1  0  0  0  0
  7  8  1  0  0  0  0
  7  9  1  0  0  0  0
 19 20  1  0  0  0  0
 19 21  1  0  0  0  0
 19 22  1  0  0  0  0
 17 18  1  0  0  0  0
 17 19  1  0  0  0  0
 27 28  2  0  0  0  0
 27 29  1  0  0  0  0
 24 25  1  0  0  0  0
 24 26  1  0  0  0  0
 24 27  1  0  0  0  0
 23 24  1  0  0  0  0
 37 38  2  0  0  0  0
 37 39  1  0  0  0  0
 33 34  1  0  0  0  0
 33 35  1  0  0  0  0
 33 36  1  0  0  0  0
 31 32  1  0  0  0  0
 31 33  1  0  0  0  0
 31 37  1  0  0  0  0
 29 30  1  0  0  0  0
 29 31  1  0  0  0  0
 41 42  1  0  0  0  0
 41 43  1  0  0  0  0
 41 44  1  0  0  0  0
 39 40  1  0  0  0  0
 39 41  1  0  0  0  0
M  END
$$$$
default_name
  -OEChem-01062215323D

 44 43  0     1  0  0  0  0  0999 V2000
    2.4488   -3.0448    2.0990 H   0  0  0  0  0  0  0  0  0  0  0  0
    2.2788   -2.0018    2.3640 C   0  0  0  0  0  0  0  0  0  0  0  0
    2.9228   -1.7258    3.1960 H   0  0  0  0  0  0  0  0  0  0  0  0
    1.2358   -1.8618    2.6430 H   0  0  0  0  0  0  0  0  0  0  0  0
    2.6018   -1.1318    1.1730 C   0  0  0  0  0  0  0  0  0  0  0  0
    3.0048   -1.6348    0.1320 O   0  0  0  0  0  0  0  0  0  0  0  0
    2.4088    0.1752    1.3190 N   0  0  0  0  0  0  0  0  0  0  0  0
    2.0708    0.5242    2.2050 H   0  0  0  0  0  0  0  0  0  0  0  0
    2.6638    1.1782    0.2840 C   0  0  1  0  0  0  0  0  0  0  0  0
    2.5379    0.7011   -0.6894 H   0  0  0  0  0  0  0  0  0  0  0  0
    1.6309    2.3131    0.3967 C   0  0  0  0  0  0  0  0  0  0  0  0
    1.9275    3.1247   -0.2689 H   0  0  0  0  0  0  0  0  0  0  0  0
    1.6831    2.7118    1.4094 H   0  0  0  0  0  0  0  0  0  0  0  0
   -0.1124    1.9113    0.0767 S   0  0  0  0  0  0  0  0  0  0  0  0
    4.1090    1.7043    0.3659 C   0  0  0  0  0  0  0  0  0  0  0  0
    4.9512    1.3493   -0.4587 O   0  0  0  0  0  0  0  0  0  0  0  0
    4.3937    2.5576    1.3587 N   0  0  0  0  0  0  0  0  0  0  0  0
    3.6558    2.8081    1.9970 H   0  0  0  0  0  0  0  0  0  0  0  0
    5.7162    3.1420    1.5718 C   0  0  0  0  0  0  0  0  0  0  0  0
    6.4374    2.3501    1.7849 H   0  0  0  0  0  0  0  0  0  0  0  0
    6.0370    3.6684    0.6710 H   0  0  0  0  0  0  0  0  0  0  0  0
    5.6913    3.8416    2.4083 H   0  0  0  0  0  0  0  0  0  0  0  0
    0.2965    5.9360   -6.9559 H   0  0  0  0  0  0  0  0  0  0  0  0
    0.1913    6.1095   -5.8860 C   0  0  0  0  0  0  0  0  0  0  0  0
   -0.5064    6.9275   -5.7133 H   0  0  0  0  0  0  0  0  0  0  0  0
    1.1616    6.3551   -5.4585 H   0  0  0  0  0  0  0  0  0  0  0  0
   -0.3389    4.8534   -5.2353 C   0  0  0  0  0  0  0  0  0  0  0  0
   -0.5637    3.8564   -5.9081 O   0  0  0  0  0  0  0  0  0  0  0  0
   -0.5303    4.9018   -3.9197 N   0  0  0  0  0  0  0  0  0  0  0  0
   -0.3329    5.7624   -3.4300 H   0  0  0  0  0  0  0  0  0  0  0  0
   -1.0301    3.7889   -3.1124 C   0  0  1  0  0  0  0  0  0  0  0  0
   -1.7828    3.2439   -3.6850 H   0  0  0  0  0  0  0  0  0  0  0  0
    0.1436    2.8399   -2.8322 C   0  0  0  0  0  0  0  0  0  0  0  0
    0.5435    2.5189   -3.7951 H   0  0  0  0  0  0  0  0  0  0  0  0
    0.9329    3.3954   -2.3254 H   0  0  0  0  0  0  0  0  0  0  0  0
   -0.2062    1.3371   -1.8802 S   0  0  0  0  0  0  0  0  0  0  0  0
   -1.6922    4.3119   -1.8254 C   0  0  0  0  0  0  0  0  0  0  0  0
   -1.2915    5.3558   -1.3086 O   0  0  0  0  0  0  0  0  0  0  0  0
   -2.7035    3.5960   -1.3173 N   0  0  0  0  0  0  0  0  0  0  0  0
   -2.9495    2.7357   -1.7807 H   0  0  0  0  0  0  0  0  0  0  0  0
   -3.4313    3.9497   -0.0992 C   0  0  0  0  0  0  0  0  0  0  0  0
   -2.8107    3.7411    0.7738 H   0  0  0  0  0  0  0  0  0  0  0  0
   -3.6763    5.0144   -0.1062 H   0  0  0  0  0  0  0  0  0  0  0  0
   -4.3536    3.3726   -0.0303 H   0  0  0  0  0  0  0  0  0  0  0  0
  5  6  2  0  0  0  0
  5  7  1  0  0  0  0
  2  3  1  0  0  0  0
  2  4  1  0  0  0  0
  2  5  1  0  0  0  0
  1  2  1  0  0  0  0
 15 16  2  0  0  0  0
 15 17  1  0  0  0  0
 14 36  1  0  0  0  0
 11 12  1  0  0  0  0
 11 13  1  0  0  0  0
 11 14  1  0  0  0  0
  9 10  1  0  0  0  0
  9 11  1  0  0  0  0
  9 15  1  0  0  0  0
  7  8  1  0  0  0  0
  7  9  1  0  0  0  0
 19 20  1  0  0  0  0
 19 21  1  0  0  0  0
 19 22  1  0  0  0  0
 17 18  1  0  0  0  0
 17 19  1  0  0  0  0
 27 28  2  0  0  0  0
 27 29  1  0  0  0  0
 24 25  1  0  0  0  0
 24 26  1  0  0  0  0
 24 27  1  0  0  0  0
 23 24  1  0  0  0  0
 37 38  2  0  0  0  0
 37 39  1  0  0  0  0
 33 34  1  0  0  0  0
 33 35  1  0  0  0  0
 33 36  1  0  0  0  0
 31 32  1  0  0  0  0
 31 33  1  0  0  0  0
 31 37  1  0  0  0  0
 29 30  1  0  0  0  0
 29 31  1  0  0  0  0
 41 42  1  0  0  0  0
 41 43  1  0  0  0  0
 41 44  1  0  0  0  0
 39 40  1  0  0  0  0
 39 41  1  0  0  0  0
M  END
$$$$
default_name
  -OEChem-01062215323D

 44 43  0     1  0  0  0  0  0999 V2000
    2.4488   -3.0448    2.0990 H   0  0  0  0  0  0  0  0  0  0  0  0
    2.2788   -2.0018    2.3640 C   0  0  0  0  0  0  0  0  0  0  0  0
    2.9228   -1.7258    3.1960 H   0  0  0  0  0  0  0  0  0  0  0  0
    1.2358   -1.8618    2.6430 H   0  0  0  0  0  0  0  0  0  0  0  0
    2.6018   -1.1318    1.1730 C   0  0  0  0  0  0  0  0  0  0  0  0
    3.0048   -1.6348    0.1320 O   0  0  0  0  0  0  0  0  0  0  0  0
    2.4088    0.1752    1.3190 N   0  0  0  0  0  0  0  0  0  0  0  0
    2.0708    0.5242    2.2050 H   0  0  0  0  0  0  0  0  0  0  0  0
    2.6638    1.1782    0.2840 C   0  0  1  0  0  0  0  0  0  0  0  0
    2.5379    0.7011   -0.6894 H   0  0  0  0  0  0  0  0  0  0  0  0
    1.6309    2.3131    0.3967 C   0  0  0  0  0  0  0  0  0  0  0  0
    1.9275    3.1247   -0.2689 H   0  0  0  0  0  0  0  0  0  0  0  0
    1.6831    2.7118    1.4094 H   0  0  0  0  0  0  0  0  0  0  0  0
   -0.1124    1.9113    0.0767 S   0  0  0  0  0  0  0  0  0  0  0  0
    4.1090    1.7043    0.3659 C   0  0  0  0  0  0  0  0  0  0  0  0
    4.8745    1.5805   -0.5901 O   0  0  0  0  0  0  0  0  0  0  0  0
    4.4796    2.2984    1.5080 N   0  0  0  0  0  0  0  0  0  0  0  0
    3.8015    2.3686    2.2496 H   0  0  0  0  0  0  0  0  0  0  0  0
    5.8142    2.8462    1.7415 C   0  0  0  0  0  0  0  0  0  0  0  0
    6.5539    2.0444    1.6920 H   0  0  0  0  0  0  0  0  0  0  0  0
    6.0511    3.5829    0.9717 H   0  0  0  0  0  0  0  0  0  0  0  0
    5.8628    3.3215    2.7220 H   0  0  0  0  0  0  0  0  0  0  0  0
    0.2965    5.9360   -6.9559 H   0  0  0  0  0  0  0  0  0  0  0  0
    0.1913    6.1095   -5.8860 C   0  0  0  0  0  0  0  0  0  0  0  0
   -0.5064    6.9275   -5.7133 H   0  0  0  0  0  0  0  0  0  0  0  0
    1.1616    6.3551   -5.4585 H   0  0  0  0  0  0  0  0  0  0  0  0
   -0.3389    4.8534   -5.2353 C   0  0  0  0  0  0  0  0  0  0  0  0
   -0.5637    3.8564   -5.9081 O   0  0  0  0  0  0  0  0  0  0  0  0
   -0.5303    4.9018   -3.9197 N   0  0  0  0  0  0  0  0  0  0  0  0
   -0.3329    5.7624   -3.4300 H   0  0  0  0  0  0  0  0  0  0  0  0
   -1.0301    3.7889   -3.1124 C   0  0  1  0  0  0  0  0  0  0  0  0
   -1.7828    3.2439   -3.6850 H   0  0  0  0  0  0  0  0  0  0  0  0
    0.1436    2.8399   -2.8322 C   0  0  0  0  0  0  0  0  0  0  0  0
    0.5435    2.5189   -3.7951 H   0  0  0  0  0  0  0  0  0  0  0  0
    0.9329    3.3954   -2.3254 H   0  0  0  0  0  0  0  0  0  0  0  0
   -0.2062    1.3371   -1.8802 S   0  0  0  0  0  0  0  0  0  0  0  0
   -1.6922    4.3119   -1.8254 C   0  0  0  0  0  0  0  0  0  0  0  0
   -1.2915    5.3558   -1.3086 O   0  0  0  0  0  0  0  0  0  0  0  0
   -2.7035    3.5960   -1.3173 N   0  0  0  0  0  0  0  0  0  0  0  0
   -2.9495    2.7357   -1.7807 H   0  0  0  0  0  0  0  0  0  0  0  0
   -3.4313    3.9497   -0.0992 C   0  0  0  0  0  0  0  0  0  0  0  0
   -2.8107    3.7411    0.7738 H   0  0  0  0  0  0  0  0  0  0  0  0
   -3.6763    5.0144   -0.1062 H   0  0  0  0  0  0  0  0  0  0  0  0
   -4.3536    3.3726   -0.0303 H   0  0  0  0  0  0  0  0  0  0  0  0
  5  6  2  0  0  0  0
  5  7  1  0  0  0  0
  2  3  1  0  0  0  0
  2  4  1  0  0  0  0
  2  5  1  0  0  0  0
  1  2  1  0  0  0  0
 15 16  2  0  0  0  0
 15 17  1  0  0  0  0
 14 36  1  0  0  0  0
 11 12  1  0  0  0  0
 11 13  1  0  0  0  0
 11 14  1  0  0  0  0
  9 10  1  0  0  0  0
  9 11  1  0  0  0  0
  9 15  1  0  0  0  0
  7  8  1  0  0  0  0
  7  9  1  0  0  0  0
 19 20  1  0  0  0  0
 19 21  1  0  0  0  0
 19 22  1  0  0  0  0
 17 18  1  0  0  0  0
 17 19  1  0  0  0  0
 27 28  2  0  0  0  0
 27 29  1  0  0  0  0
 24 25  1  0  0  0  0
 24 26  1  0  0  0  0
 24 27  1  0  0  0  0
 23 24  1  0  0  0  0
 37 38  2  0  0  0  0
 37 39  1  0  0  0  0
 33 34  1  0  0  0  0
 33 35  1  0  0  0  0
 33 36  1  0  0  0  0
 31 32  1  0  0  0  0
 31 33  1  0  0  0  0
 31 37  1  0  0  0  0
 29 30  1  0  0  0  0
 29 31  1  0  0  0  0
 41 42  1  0  0  0  0
 41 43  1  0  0  0  0
 41 44  1  0  0  0  0
 39 40  1  0  0  0  0
 39 41  1  0  0  0  0
M  END
$$$$
default_name
  -OEChem-01062215323D

 44 43  0     1  0  0  0  0  0999 V2000
    2.4488   -3.0448    2.0990 H   0  0  0  0  0  0  0  0  0  0  0  0
    2.2788   -2.0018    2.3640 C   0  0  0  0  0  0  0  0  0  0  0  0
    2.9228   -1.7258    3.1960 H   0  0  0  0  0  0  0  0  0  0  0  0
    1.2358   -1.8618    2.6430 H   0  0  0  0  0  0  0  0  0  0  0  0
    2.6018   -1.1318    1.1730 C   0  0  0  0  0  0  0  0  0  0  0  0
    3.0048   -1.6348    0.1320 O   0  0  0  0  0  0  0  0  0  0  0  0
    2.4088    0.1752    1.3190 N   0  0  0  0  0  0  0  0  0  0  0  0
    2.0708    0.5242    2.2050 H   0  0  0  0  0  0  0  0  0  0  0  0
    2.6638    1.1782    0.2840 C   0  0  1  0  0  0  0  0  0  0  0  0
    2.5379    0.7011   -0.6894 H   0  0  0  0  0  0  0  0  0  0  0  0
    1.6309    2.3131    0.3967 C   0  0  0  0  0  0  0  0  0  0  0  0
    1.9275    3.1247   -0.2689 H   0  0  0  0  0  0  0  0  0  0  0  0
    1.6831    2.7118    1.4094 H   0  0  0  0  0  0  0  0  0  0  0  0
   -0.1124    1.9113    0.0767 S   0  0  0  0  0  0  0  0  0  0  0  0
    4.1090    1.7043    0.3659 C   0  0  0  0  0  0  0  0  0  0  0  0
    4.7856    1.8347   -0.6542 O   0  0  0  0  0  0  0  0  0  0  0  0
    4.5793    2.0130    1.5817 N   0  0  0  0  0  0  0  0  0  0  0  0
    3.9706    1.8847    2.3740 H   0  0  0  0  0  0  0  0  0  0  0  0
    5.9280    2.5207    1.8249 C   0  0  0  0  0  0  0  0  0  0  0  0
    6.6625    1.7732    1.5177 H   0  0  0  0  0  0  0  0  0  0  0  0
    6.0924    3.4276    1.2401 H   0  0  0  0  0  0  0  0  0  0  0  0
    6.0634    2.7454    2.8837 H   0  0  0  0  0  0  0  0  0  0  0  0
    0.2965    5.9360   -6.9559 H   0  0  0  0  0  0  0  0  0  0  0  0
    0.1913    6.1095   -5.8860 C   0  0  0  0  0  0  0  0  0  0  0  0
   -0.5064    6.9275   -5.7133 H   0  0  0  0  0  0  0  0  0  0  0  0
    1.1616    6.3551   -5.4585 H   0  0  0  0  0  0  0  0  0  0  0  0
   -0.3389    4.8534   -5.2353 C   0  0  0  0  0  0  0  0  0  0  0  0
   -0.5637    3.8564   -5.9081 O   0  0  0  0  0  0  0  0  0  0  0  0
   -0.5303    4.9018   -3.9197 N   0  0  0  0  0  0  0  0  0  0  0  0
   -0.3329    5.7624   -3.4300 H   0  0  0  0  0  0  0  0  0  0  0  0
   -1.0301    3.7889   -3.1124 C   0  0  1  0  0  0  0  0  0  0  0  0
   -1.7828    3.2439   -3.6850 H   0  0  0  0  0  0  0  0  0  0  0  0
    0.1436    2.8399   -2.8322 C   0  0  0  0  0  0  0  0  0  0  0  0
    0.5435    2.5189   -3.7951 H   0  0  0  0  0  0  0  0  0  0  0  0
    0.9329    3.3954   -2.3254 H   0  0  0  0  0  0  0  0  0  0  0  0
   -0.2062    1.3371   -1.8802 S   0  0  0  0  0  0  0  0  0  0  0  0
   -1.6922    4.3119   -1.8254 C   0  0  0  0  0  0  0  0  0  0  0  0
   -1.2915    5.3558   -1.3086 O   0  0  0  0  0  0  0  0  0  0  0  0
   -2.7035    3.5960   -1.3173 N   0  0  0  0  0  0  0  0  0  0  0  0
   -2.9495    2.7357   -1.7807 H   0  0  0  0  0  0  0  0  0  0  0  0
   -3.4313    3.9497   -0.0992 C   0  0  0  0  0  0  0  0  0  0  0  0
   -2.8107    3.7411    0.7738 H   0  0  0  0  0  0  0  0  0  0  0  0
   -3.6763    5.0144   -0.1062 H   0  0  0  0  0  0  0  0  0  0  0  0
   -4.3536    3.3726   -0.0303 H   0  0  0  0  0  0  0  0  0  0  0  0
  5  6  2  0  0  0  0
  5  7  1  0  0  0  0
  2  3  1  0  0  0  0
  2  4  1  0  0  0  0
  2  5  1  0  0  0  0
  1  2  1  0  0  0  0
 15 16  2  0  0  0  0
 15 17  1  0  0  0  0
 14 36  1  0  0  0  0
 11 12  1  0  0  0  0
 11 13  1  0  0  0  0
 11 14  1  0  0  0  0
  9 10  1  0  0  0  0
  9 11  1  0  0  0  0
  9 15  1  0  0  0  0
  7  8  1  0  0  0  0
  7  9  1  0  0  0  0
 19 20  1  0  0  0  0
 19 21  1  0  0  0  0
 19 22  1  0  0  0  0
 17 18  1  0  0  0  0
 17 19  1  0  0  0  0
 27 28  2  0  0  0  0
 27 29  1  0  0  0  0
 24 25  1  0  0  0  0
 24 26  1  0  0  0  0
 24 27  1  0  0  0  0
 23 24  1  0  0  0  0
 37 38  2  0  0  0  0
 37 39  1  0  0  0  0
 33 34  1  0  0  0  0
 33 35  1  0  0  0  0
 33 36  1  0  0  0  0
 31 32  1  0  0  0  0
 31 33  1  0  0  0  0
 31 37  1  0  0  0  0
 29 30  1  0  0  0  0
 29 31  1  0  0  0  0
 41 42  1  0  0  0  0
 41 43  1  0  0  0  0
 41 44  1  0  0  0  0
 39 40  1  0  0  0  0
 39 41  1  0  0  0  0
M  END
$$$$
default_name
  -OEChem-01062215323D

 44 43  0     1  0  0  0  0  0999 V2000
    2.4488   -3.0448    2.0990 H   0  0  0  0  0  0  0  0  0  0  0  0
    2.2788   -2.0018    2.3640 C   0  0  0  0  0  0  0  0  0  0  0  0
    2.9228   -1.7258    3.1960 H   0  0  0  0  0  0  0  0  0  0  0  0
    1.2358   -1.8618    2.6430 H   0  0  0  0  0  0  0  0  0  0  0  0
    2.6018   -1.1318    1.1730 C   0  0  0  0  0  0  0  0  0  0  0  0
    3.0048   -1.6348    0.1320 O   0  0  0  0  0  0  0  0  0  0  0  0
    2.4088    0.1752    1.3190 N   0  0  0  0  0  0  0  0  0  0  0  0
    2.0708    0.5242    2.2050 H   0  0  0  0  0  0  0  0  0  0  0  0
    2.6638    1.1782    0.2840 C   0  0  1  0  0  0  0  0  0  0  0  0
    2.5379    0.7011   -0.6894 H   0  0  0  0  0  0  0  0  0  0  0  0
    1.6309    2.3131    0.3967 C   0  0  0  0  0  0  0  0  0  0  0  0
    1.9275    3.1247   -0.2689 H   0  0  0  0  0  0  0  0  0  0  0  0
    1.6831    2.7118    1.4094 H   0  0  0  0  0  0  0  0  0  0  0  0
   -0.1124    1.9113    0.0767 S   0  0  0  0  0  0  0  0  0  0  0  0
    4.1090    1.7043    0.3659 C   0  0  0  0  0  0  0  0  0  0  0  0
    4.6905    2.0946   -0.6464 O   0  0  0  0  0  0  0  0  0  0  0  0
    4.6861    1.7208    1.5748 N   0  0  0  0  0  0  0  0  0  0  0  0
    4.1516    1.3894    2.3617 H   0  0  0  0  0  0  0  0  0  0  0  0
    6.0497    2.1876    1.8164 C   0  0  0  0  0  0  0  0  0  0  0  0
    6.7557    1.5552    1.2739 H   0  0  0  0  0  0  0  0  0  0  0  0
    6.1582    3.2129    1.4580 H   0  0  0  0  0  0  0  0  0  0  0  0
    6.2794    2.1524    2.8821 H   0  0  0  0  0  0  0  0  0  0  0  0
    0.2965    5.9360   -6.9559 H   0  0  0  0  0  0  0  0  0  0  0  0
    0.1913    6.1095   -5.8860 C   0  0  0  0  0  0  0  0  0  0  0  0
   -0.5064    6.9275   -5.7133 H   0  0  0  0  0  0  0  0  0  0  0  0
    1.1616    6.3551   -5.4585 H   0  0  0  0  0  0  0  0  0  0  0  0
   -0.3389    4.8534   -5.2353 C   0  0  0  0  0  0  0  0  0  0  0  0
   -0.5637    3.8564   -5.9081 O   0  0  0  0  0  0  0  0  0  0  0  0
   -0.5303    4.9018   -3.9197 N   0  0  0  0  0  0  0  0  0  0  0  0
   -0.3329    5.7624   -3.4300 H   0  0  0  0  0  0  0  0  0  0  0  0
   -1.0301    3.7889   -3.1124 C   0  0  1  0  0  0  0  0  0  0  0  0
   -1.7828    3.2439   -3.6850 H   0  0  0  0  0  0  0  0  0  0  0  0
    0.1436    2.8399   -2.8322 C   0  0  0  0  0  0  0  0  0  0  0  0
    0.5435    2.5189   -3.7951 H   0  0  0  0  0  0  0  0  0  0  0  0
    0.9329    3.3954   -2.3254 H   0  0  0  0  0  0  0  0  0  0  0  0
   -0.2062    1.3371   -1.8802 S   0  0  0  0  0  0  0  0  0  0  0  0
   -1.6922    4.3119   -1.8254 C   0  0  0  0  0  0  0  0  0  0  0  0
   -1.2915    5.3558   -1.3086 O   0  0  0  0  0  0  0  0  0  0  0  0
   -2.7035    3.5960   -1.3173 N   0  0  0  0  0  0  0  0  0  0  0  0
   -2.9495    2.7357   -1.7807 H   0  0  0  0  0  0  0  0  0  0  0  0
   -3.4313    3.9497   -0.0992 C   0  0  0  0  0  0  0  0  0  0  0  0
   -2.8107    3.7411    0.7738 H   0  0  0  0  0  0  0  0  0  0  0  0
   -3.6763    5.0144   -0.1062 H   0  0  0  0  0  0  0  0  0  0  0  0
   -4.3536    3.3726   -0.0303 H   0  0  0  0  0  0  0  0  0  0  0  0
  5  6  2  0  0  0  0
  5  7  1  0  0  0  0
  2  3  1  0  0  0  0
  2  4  1  0  0  0  0
  2  5  1  0  0  0  0
  1  2  1  0  0  0  0
 15 16  2  0  0  0  0
 15 17  1  0  0  0  0
 14 36  1  0  0  0  0
 11 12  1  0  0  0  0
 11 13  1  0  0  0  0
 11 14  1  0  0  0  0
  9 10  1  0  0  0  0
  9 11  1  0  0  0  0
  9 15  1  0  0  0  0
  7  8  1  0  0  0  0
  7  9  1  0  0  0  0
 19 20  1  0  0  0  0
 19 21  1  0  0  0  0
 19 22  1  0  0  0  0
 17 18  1  0  0  0  0
 17 19  1  0  0  0  0
 27 28  2  0  0  0  0
 27 29  1  0  0  0  0
 24 25  1  0  0  0  0
 24 26  1  0  0  0  0
 24 27  1  0  0  0  0
 23 24  1  0  0  0  0
 37 38  2  0  0  0  0
 37 39  1  0  0  0  0
 33 34  1  0  0  0  0
 33 35  1  0  0  0  0
 33 36  1  0  0  0  0
 31 32  1  0  0  0  0
 31 33  1  0  0  0  0
 31 37  1  0  0  0  0
 29 30  1  0  0  0  0
 29 31  1  0  0  0  0
 41 42  1  0  0  0  0
 41 43  1  0  0  0  0
 41 44  1  0  0  0  0
 39 40  1  0  0  0  0
 39 41  1  0  0  0  0
M  END
$$$$
default_name
  -OEChem-01062215323D

 44 43  0     1  0  0  0  0  0999 V2000
    2.4488   -3.0448    2.0990 H   0  0  0  0  0  0  0  0  0  0  0  0
    2.2788   -2.0018    2.3640 C   0  0  0  0  0  0  0  0  0  0  0  0
    2.9228   -1.7258    3.1960 H   0  0  0  0  0  0  0  0  0  0  0  0
    1.2358   -1.8618    2.6430 H   0  0  0  0  0  0  0  0  0  0  0  0
    2.6018   -1.1318    1.1730 C   0  0  0  0  0  0  0  0  0  0  0  0
    3.0048   -1.6348    0.1320 O   0  0  0  0  0  0  0  0  0  0  0  0
    2.4088    0.1752    1.3190 N   0  0  0  0  0  0  0  0  0  0  0  0
    2.0708    0.5242    2.2050 H   0  0  0  0  0  0  0  0  0  0  0  0
    2.6638    1.1782    0.2840 C   0  0  1  0  0  0  0  0  0  0  0  0
    2.5379    0.7011   -0.6894 H   0  0  0  0  0  0  0  0  0  0  0  0
    1.6309    2.3131    0.3967 C   0  0  0  0  0  0  0  0  0  0  0  0
    1.9275    3.1247   -0.2689 H   0  0  0  0  0  0  0  0  0  0  0  0
    1.6831    2.7118    1.4094 H   0  0  0  0  0  0  0  0  0  0  0  0
   -0.1124    1.9113    0.0767 S   0  0  0  0  0  0  0  0  0  0  0  0
    4.1090    1.7043    0.3659 C   0  0  0  0  0  0  0  0  0  0  0  0
    4.5958    2.3424   -0.5674 O   0  0  0  0  0  0  0  0  0  0  0  0
    4.7926    1.4417    1.4877 N   0  0  0  0  0  0  0  0  0  0  0  0
    4.3322    0.9164    2.2135 H   0  0  0  0  0  0  0  0  0  0  0  0
    6.1712    1.8696    1.7165 C   0  0  0  0  0  0  0  0  0  0  0  0
    6.8272    1.4050    0.9773 H   0  0  0  0  0  0  0  0  0  0  0  0
    6.2440    2.9535    1.6105 H   0  0  0  0  0  0  0  0  0  0  0  0
    6.4960    1.5829    2.7175 H   0  0  0  0  0  0  0  0  0  0  0  0
    0.2965    5.9360   -6.9559 H   0  0  0  0  0  0  0  0  0  0  0  0
    0.1913    6.1095   -5.8860 C   0  0  0  0  0  0  0  0  0  0  0  0
   -0.5064    6.9275   -5.7133 H   0  0  0  0  0  0  0  0  0  0  0  0
    1.1616    6.3551   -5.4585 H   0  0  0  0  0  0  0  0  0  0  0  0
   -0.3389    4.8534   -5.2353 C   0  0  0  0  0  0  0  0  0  0  0  0
   -0.5637    3.8564   -5.9081 O   0  0  0  0  0  0  0  0  0  0  0  0
   -0.5303    4.9018   -3.9197 N   0  0  0  0  0  0  0  0  0  0  0  0
   -0.3329    5.7624   -3.4300 H   0  0  0  0  0  0  0  0  0  0  0  0
   -1.0301    3.7889   -3.1124 C   0  0  1  0  0  0  0  0  0  0  0  0
   -1.7828    3.2439   -3.6850 H   0  0  0  0  0  0  0  0  0  0  0  0
    0.1436    2.8399   -2.8322 C   0  0  0  0  0  0  0  0  0  0  0  0
    0.5435    2.5189   -3.7951 H   0  0  0  0  0  0  0  0  0  0  0  0
    0.9329    3.3954   -2.3254 H   0  0  0  0  0  0  0  0  0  0  0  0
   -0.2062    1.3371   -1.8802 S   0  0  0  0  0  0  0  0  0  0  0  0
   -1.6922    4.3119   -1.8254 C   0  0  0  0  0  0  0  0  0  0  0  0
   -1.2915    5.3558   -1.3086 O   0  0  0  0  0  0  0  0  0  0  0  0
   -2.7035    3.5960   -1.3173 N   0  0  0  0  0  0  0  0  0  0  0  0
   -2.9495    2.7357   -1.7807 H   0  0  0  0  0  0  0  0  0  0  0  0
   -3.4313    3.9497   -0.0992 C   0  0  0  0  0  0  0  0  0  0  0  0
   -2.8107    3.7411    0.7738 H   0  0  0  0  0  0  0  0  0  0  0  0
   -3.6763    5.0144   -0.1062 H   0  0  0  0  0  0  0  0  0  0  0  0
   -4.3536    3.3726   -0.0303 H   0  0  0  0  0  0  0  0  0  0  0  0
  5  6  2  0  0  0  0
  5  7  1  0  0  0  0
  2  3  1  0  0  0  0
  2  4  1  0  0  0  0
  2  5  1  0  0  0  0
  1  2  1  0  0  0  0
 15 16  2  0  0  0  0
 15 17  1  0  0  0  0
 14 36  1  0  0  0  0
 11 12  1  0  0  0  0
 11 13  1  0  0  0  0
 11 14  1  0  0  0  0
  9 10  1  0  0  0  0
  9 11  1  0  0  0  0
  9 15  1  0  0  0  0
  7  8  1  0  0  0  0
  7  9  1  0  0  0  0
 19 20  1  0  0  0  0
 19 21  1  0  0  0  0
 19 22  1  0  0  0  0
 17 18  1  0  0  0  0
 17 19  1  0  0  0  0
 27 28  2  0  0  0  0
 27 29  1  0  0  0  0
 24 25  1  0  0  0  0
 24 26  1  0  0  0  0
 24 27  1  0  0  0  0
 23 24  1  0  0  0  0
 37 38  2  0  0  0  0
 37 39  1  0  0  0  0
 33 34  1  0  0  0  0
 33 35  1  0  0  0  0
 33 36  1  0  0  0  0
 31 32  1  0  0  0  0
 31 33  1  0  0  0  0
 31 37  1  0  0  0  0
 29 30  1  0  0  0  0
 29 31  1  0  0  0  0
 41 42  1  0  0  0  0
 41 43  1  0  0  0  0
 41 44  1  0  0  0  0
 39 40  1  0  0  0  0
 39 41  1  0  0  0  0
M  END
$$$$
default_name
  -OEChem-01062215323D

 44 43  0     1  0  0  0  0  0999 V2000
    2.4488   -3.0448    2.0990 H   0  0  0  0  0  0  0  0  0  0  0  0
    2.2788   -2.0018    2.3640 C   0  0  0  0  0  0  0  0  0  0  0  0
    2.9228   -1.7258    3.1960 H   0  0  0  0  0  0  0  0  0  0  0  0
    1.2358   -1.8618    2.6430 H   0  0  0  0  0  0  0  0  0  0  0  0
    2.6018   -1.1318    1.1730 C   0  0  0  0  0  0  0  0  0  0  0  0
    3.0048   -1.6348    0.1320 O   0  0  0  0  0  0  0  0  0  0  0  0
    2.4088    0.1752    1.3190 N   0  0  0  0  0  0  0  0  0  0  0  0
    2.0708    0.5242    2.2050 H   0  0  0  0  0  0  0  0  0  0  0  0
    2.6638    1.1782    0.2840 C   0  0  1  0  0  0  0  0  0  0  0  0
    2.5379    0.7011   -0.6894 H   0  0  0  0  0  0  0  0  0  0  0  0
    1.6309    2.3131    0.3967 C   0  0  0  0  0  0  0  0  0  0  0  0
    1.9275    3.1247   -0.2689 H   0  0  0  0  0  0  0  0  0  0  0  0
    1.6831    2.7118    1.4094 H   0  0  0  0  0  0  0  0  0  0  0  0
   -0.1124    1.9113    0.0767 S   0  0  0  0  0  0  0  0  0  0  0  0
    4.1090    1.7043    0.3659 C   0  0  0  0  0  0  0  0  0  0  0  0
    4.5079    2.5613   -0.4226 O   0  0  0  0  0  0  0  0  0  0  0  0
    4.8917    1.1947    1.3264 N   0  0  0  0  0  0  0  0  0  0  0  0
    4.5000    0.4981    1.9395 H   0  0  0  0  0  0  0  0  0  0  0  0
    6.2840    1.5883    1.5320 C   0  0  0  0  0  0  0  0  0  0  0  0
    6.8721    1.3330    0.6479 H   0  0  0  0  0  0  0  0  0  0  0  0
    6.3439    2.6671    1.6872 H   0  0  0  0  0  0  0  0  0  0  0  0
    6.6986    1.0758    2.4011 H   0  0  0  0  0  0  0  0  0  0  0  0
    0.2965    5.9360   -6.9559 H   0  0  0  0  0  0  0  0  0  0  0  0
    0.1913    6.1095   -5.8860 C   0  0  0  0  0  0  0  0  0  0  0  0
   -0.5064    6.9275   -5.7133 H   0  0  0  0  0  0  0  0  0  0  0  0
    1.1616    6.3551   -5.4585 H   0  0  0  0  0  0  0  0  0  0  0  0
   -0.3389    4.8534   -5.2353 C   0  0  0  0  0  0  0  0  0  0  0  0
   -0.5637    3.8564   -5.9081 O   0  0  0  0  0  0  0  0  0  0  0  0
   -0.5303    4.9018   -3.9197 N   0  0  0  0  0  0  0  0  0  0  0  0
   -0.3329    5.7624   -3.4300 H   0  0  0  0  0  0  0  0  0  0  0  0
   -1.0301    3.7889   -3.1124 C   0  0  1  0  0  0  0  0  0  0  0  0
   -1.7828    3.2439   -3.6850 H   0  0  0  0  0  0  0  0  0  0  0  0
    0.1436    2.8399   -2.8322 C   0  0  0  0  0  0  0  0  0  0  0  0
    0.5435    2.5189   -3.7951 H   0  0  0  0  0  0  0  0  0  0  0  0
    0.9329    3.3954   -2.3254 H   0  0  0  0  0  0  0  0  0  0  0  0
   -0.2062    1.3371   -1.8802 S   0  0  0  0  0  0  0  0  0  0  0  0
   -1.6922    4.3119   -1.8254 C   0  0  0  0  0  0  0  0  0  0  0  0
   -1.2915    5.3558   -1.3086 O   0  0  0  0  0  0  0  0  0  0  0  0
   -2.7035    3.5960   -1.3173 N   0  0  0  0  0  0  0  0  0  0  0  0
   -2.9495    2.7357   -1.7807 H   0  0  0  0  0  0  0  0  0  0  0  0
   -3.4313    3.9497   -0.0992 C   0  0  0  0  0  0  0  0  0  0  0  0
   -2.8107    3.7411    0.7738 H   0  0  0  0  0  0  0  0  0  0  0  0
   -3.6763    5.0144   -0.1062 H   0  0  0  0  0  0  0  0  0  0  0  0
   -4.3536    3.3726   -0.0303 H   0  0  0  0  0  0  0  0  0  0  0  0
  5  6  2  0  0  0  0
  5  7  1  0  0  0  0
  2  3  1  0  0  0  0
  2  4  1  0  0  0  0
  2  5  1  0  0  0  0
  1  2  1  0  0  0  0
 15 16  2  0  0  0  0
 15 17  1  0  0  0  0
 14 36  1  0  0  0  0
 11 12  1  0  0  0  0
 11 13  1  0  0  0  0
 11 14  1  0  0  0  0
  9 10  1  0  0  0  0
  9 11  1  0  0  0  0
  9 15  1  0  0  0  0
  7  8  1  0  0  0  0
  7  9  1  0  0  0  0
 19 20  1  0  0  0  0
 19 21  1  0  0  0  0
 19 22  1  0  0  0  0
 17 18  1  0  0  0  0
 17 19  1  0  0  0  0
 27 28  2  0  0  0  0
 27 29  1  0  0  0  0
 24 25  1  0  0  0  0
 24 26  1  0  0  0  0
 24 27  1  0  0  0  0
 23 24  1  0  0  0  0
 37 38  2  0  0  0  0
 37 39  1  0  0  0  0
 33 34  1  0  0  0  0
 33 35  1  0  0  0  0
 33 36  1  0  0  0  0
 31 32  1  0  0  0  0
 31 33  1  0  0  0  0
 31 37  1  0  0  0  0
 29 30  1  0  0  0  0
 29 31  1  0  0  0  0
 41 42  1  0  0  0  0
 41 43  1  0  0  0  0
 41 44  1  0  0  0  0
 39 40  1  0  0  0  0
 39 41  1  0  0  0  0
M  END
$$$$
default_name
  -OEChem-01062215323D

 44 43  0     1  0  0  0  0  0999 V2000
    2.4488   -3.0448    2.0990 H   0  0  0  0  0  0  0  0  0  0  0  0
    2.2788   -2.0018    2.3640 C   0  0  0  0  0  0  0  0  0  0  0  0
    2.9228   -1.7258    3.1960 H   0  0  0  0  0  0  0  0  0  0  0  0
    1.2358   -1.8618    2.6430 H   0  0  0  0  0  0  0  0  0  0  0  0
    2.6018   -1.1318    1.1730 C   0  0  0  0  0  0  0  0  0  0  0  0
    3.0048   -1.6348    0.1320 O   0  0  0  0  0  0  0  0  0  0  0  0
    2.4088    0.1752    1.3190 N   0  0  0  0  0  0  0  0  0  0  0  0
    2.0708    0.5242    2.2050 H   0  0  0  0  0  0  0  0  0  0  0  0
    2.6638    1.1782    0.2840 C   0  0  1  0  0  0  0  0  0  0  0  0
    2.5379    0.7011   -0.6894 H   0  0  0  0  0  0  0  0  0  0  0  0
    1.6309    2.3131    0.3967 C   0  0  0  0  0  0  0  0  0  0  0  0
    1.9275    3.1247   -0.2689 H   0  0  0  0  0  0  0  0  0  0  0  0
    1.6831    2.7118    1.4094 H   0  0  0  0  0  0  0  0  0  0  0  0
   -0.1124    1.9113    0.0767 S   0  0  0  0  0  0  0  0  0  0  0  0
    4.1090    1.7043    0.3659 C   0  0  0  0  0  0  0  0  0  0  0  0
    4.4328    2.7363   -0.2217 O   0  0  0  0  0  0  0  0  0  0  0  0
    4.9765    0.9967    1.1018 N   0  0  0  0  0  0  0  0  0  0  0  0
    4.6436    0.1628    1.5585 H   0  0  0  0  0  0  0  0  0  0  0  0
    6.3806    1.3630    1.2756 C   0  0  0  0  0  0  0  0  0  0  0  0
    6.8873    1.3441    0.3083 H   0  0  0  0  0  0  0  0  0  0  0  0
    6.4512    2.3732    1.6829 H   0  0  0  0  0  0  0  0  0  0  0  0
    6.8732    0.6657    1.9543 H   0  0  0  0  0  0  0  0  0  0  0  0
    0.2965    5.9360   -6.9559 H   0  0  0  0  0  0  0  0  0  0  0  0
    0.1913    6.1095   -5.8860 C   0  0  0  0  0  0  0  0  0  0  0  0
   -0.5064    6.9275   -5.7133 H   0  0  0  0  0  0  0  0  0  0  0  0
    1.1616    6.3551   -5.4585 H   0  0  0  0  0  0  0  0  0  0  0  0
   -0.3389    4.8534   -5.2353 C   0  0  0  0  0  0  0  0  0  0  0  0
   -0.5637    3.8564   -5.9081 O   0  0  0  0  0  0  0  0  0  0  0  0
   -0.5303    4.9018   -3.9197 N   0  0  0  0  0  0  0  0  0  0  0  0
   -0.3329    5.7624   -3.4300 H   0  0  0  0  0  0  0  0  0  0  0  0
   -1.0301    3.7889   -3.1124 C   0  0  1  0  0  0  0  0  0  0  0  0
   -1.7828    3.2439   -3.6850 H   0  0  0  0  0  0  0  0  0  0  0  0
    0.1436    2.8399   -2.8322 C   0  0  0  0  0  0  0  0  0  0  0  0
    0.5435    2.5189   -3.7951 H   0  0  0  0  0  0  0  0  0  0  0  0
    0.9329    3.3954   -2.3254 H   0  0  0  0  0  0  0  0  0  0  0  0
   -0.2062    1.3371   -1.8802 S   0  0  0  0  0  0  0  0  0  0  0  0
   -1.6922    4.3119   -1.8254 C   0  0  0  0  0  0  0  0  0  0  0  0
   -1.2915    5.3558   -1.3086 O   0  0  0  0  0  0  0  0  0  0  0  0
   -2.7035    3.5960   -1.3173 N   0  0  0  0  0  0  0  0  0  0  0  0
   -2.9495    2.7357   -1.7807 H   0  0  0  0  0  0  0  0  0  0  0  0
   -3.4313    3.9497   -0.0992 C   0  0  0  0  0  0  0  0  0  0  0  0
   -2.8107    3.7411    0.7738 H   0  0  0  0  0  0  0  0  0  0  0  0
   -3.6763    5.0144   -0.1062 H   0  0  0  0  0  0  0  0  0  0  0  0
   -4.3536    3.3726   -0.0303 H   0  0  0  0  0  0  0  0  0  0  0  0
  5  6  2  0  0  0  0
  5  7  1  0  0  0  0
  2  3  1  0  0  0  0
  2  4  1  0  0  0  0
  2  5  1  0  0  0  0
  1  2  1  0  0  0  0
 15 16  2  0  0  0  0
 15 17  1  0  0  0  0
 14 36  1  0  0  0  0
 11 12  1  0  0  0  0
 11 13  1  0  0  0  0
 11 14  1  0  0  0  0
  9 10  1  0  0  0  0
  9 11  1  0  0  0  0
  9 15  1  0  0  0  0
  7  8  1  0  0  0  0
  7  9  1  0  0  0  0
 19 20  1  0  0  0  0
 19 21  1  0  0  0  0
 19 22  1  0  0  0  0
 17 18  1  0  0  0  0
 17 19  1  0  0  0  0
 27 28  2  0  0  0  0
 27 29  1  0  0  0  0
 24 25  1  0  0  0  0
 24 26  1  0  0  0  0
 24 27  1  0  0  0  0
 23 24  1  0  0  0  0
 37 38  2  0  0  0  0
 37 39  1  0  0  0  0
 33 34  1  0  0  0  0
 33 35  1  0  0  0  0
 33 36  1  0  0  0  0
 31 32  1  0  0  0  0
 31 33  1  0  0  0  0
 31 37  1  0  0  0  0
 29 30  1  0  0  0  0
 29 31  1  0  0  0  0
 41 42  1  0  0  0  0
 41 43  1  0  0  0  0
 41 44  1  0  0  0  0
 39 40  1  0  0  0  0
 39 41  1  0  0  0  0
M  END
$$$$
default_name
  -OEChem-01062215323D

 44 43  0     1  0  0  0  0  0999 V2000
    2.4488   -3.0448    2.0990 H   0  0  0  0  0  0  0  0  0  0  0  0
    2.2788   -2.0018    2.3640 C   0  0  0  0  0  0  0  0  0  0  0  0
    2.9228   -1.7258    3.1960 H   0  0  0  0  0  0  0  0  0  0  0  0
    1.2358   -1.8618    2.6430 H   0  0  0  0  0  0  0  0  0  0  0  0
    2.6018   -1.1318    1.1730 C   0  0  0  0  0  0  0  0  0  0  0  0
    3.0048   -1.6348    0.1320 O   0  0  0  0  0  0  0  0  0  0  0  0
    2.4088    0.1752    1.3190 N   0  0  0  0  0  0  0  0  0  0  0  0
    2.0708    0.5242    2.2050 H   0  0  0  0  0  0  0  0  0  0  0  0
    2.6638    1.1782    0.2840 C   0  0  1  0  0  0  0  0  0  0  0  0
    2.5379    0.7011   -0.6894 H   0  0  0  0  0  0  0  0  0  0  0  0
    1.6309    2.3131    0.3967 C   0  0  0  0  0  0  0  0  0  0  0  0
    1.9275    3.1247   -0.2689 H   0  0  0  0  0  0  0  0  0  0  0  0
    1.6831    2.7118    1.4094 H   0  0  0  0  0  0  0  0  0  0  0  0
   -0.1124    1.9113    0.0767 S   0  0  0  0  0  0  0  0  0  0  0  0
    4.1090    1.7043    0.3659 C   0  0  0  0  0  0  0  0  0  0  0  0
    4.3756    2.8556    0.0214 O   0  0  0  0  0  0  0  0  0  0  0  0
    5.0413    0.8611    0.8292 N   0  0  0  0  0  0  0  0  0  0  0  0
    4.7533   -0.0665    1.0963 H   0  0  0  0  0  0  0  0  0  0  0  0
    6.4543    1.2090    0.9646 C   0  0  0  0  0  0  0  0  0  0  0  0
    6.8718    1.4374   -0.0183 H   0  0  0  0  0  0  0  0  0  0  0  0
    6.5584    2.0919    1.5979 H   0  0  0  0  0  0  0  0  0  0  0  0
    7.0080    0.3804    1.4078 H   0  0  0  0  0  0  0  0  0  0  0  0
    0.2965    5.9360   -6.9559 H   0  0  0  0  0  0  0  0  0  0  0  0
    0.1913    6.1095   -5.8860 C   0  0  0  0  0  0  0  0  0  0  0  0
   -0.5064    6.9275   -5.7133 H   0  0  0  0  0  0  0  0  0  0  0  0
    1.1616    6.3551   -5.4585 H   0  0  0  0  0  0  0  0  0  0  0  0
   -0.3389    4.8534   -5.2353 C   0  0  0  0  0  0  0  0  0  0  0  0
   -0.5637    3.8564   -5.9081 O   0  0  0  0  0  0  0  0  0  0  0  0
   -0.5303    4.9018   -3.9197 N   0  0  0  0  0  0  0  0  0  0  0  0
   -0.3329    5.7624   -3.4300 H   0  0  0  0  0  0  0  0  0  0  0  0
   -1.0301    3.7889   -3.1124 C   0  0  1  0  0  0  0  0  0  0  0  0
   -1.7828    3.2439   -3.6850 H   0  0  0  0  0  0  0  0  0  0  0  0
    0.1436    2.8399   -2.8322 C   0  0  0  0  0  0  0  0  0  0  0  0
    0.5435    2.5189   -3.7951 H   0  0  0  0  0  0  0  0  0  0  0  0
    0.9329    3.3954   -2.3254 H   0  0  0  0  0  0  0  0  0  0  0  0
   -0.2062    1.3371   -1.8802 S   0  0  0  0  0  0  0  0  0  0  0  0
   -1.6922    4.3119   -1.8254 C   0  0  0  0  0  0  0  0  0  0  0  0
   -1.2915    5.3558   -1.3086 O   0  0  0  0  0  0  0  0  0  0  0  0
   -2.7035    3.5960   -1.3173 N   0  0  0  0  0  0  0  0  0  0  0  0
   -2.9495    2.7357   -1.7807 H   0  0  0  0  0  0  0  0  0  0  0  0
   -3.4313    3.9497   -0.0992 C   0  0  0  0  0  0  0  0  0  0  0  0
   -2.8107    3.7411    0.7738 H   0  0  0  0  0  0  0  0  0  0  0  0
   -3.6763    5.0144   -0.1062 H   0  0  0  0  0  0  0  0  0  0  0  0
   -4.3536    3.3726   -0.0303 H   0  0  0  0  0  0  0  0  0  0  0  0
  5  6  2  0  0  0  0
  5  7  1  0  0  0  0
  2  3  1  0  0  0  0
  2  4  1  0  0  0  0
  2  5  1  0  0  0  0
  1  2  1  0  0  0  0
 15 16  2  0  0  0  0
 15 17  1  0  0  0  0
 14 36  1  0  0  0  0
 11 12  1  0  0  0  0
 11 13  1  0  0  0  0
 11 14  1  0  0  0  0
  9 10  1  0  0  0  0
  9 11  1  0  0  0  0
  9 15  1  0  0  0  0
  7  8  1  0  0  0  0
  7  9  1  0  0  0  0
 19 20  1  0  0  0  0
 19 21  1  0  0  0  0
 19 22  1  0  0  0  0
 17 18  1  0  0  0  0
 17 19  1  0  0  0  0
 27 28  2  0  0  0  0
 27 29  1  0  0  0  0
 24 25  1  0  0  0  0
 24 26  1  0  0  0  0
 24 27  1  0  0  0  0
 23 24  1  0  0  0  0
 37 38  2  0  0  0  0
 37 39  1  0  0  0  0
 33 34  1  0  0  0  0
 33 35  1  0  0  0  0
 33 36  1  0  0  0  0
 31 32  1  0  0  0  0
 31 33  1  0  0  0  0
 31 37  1  0  0  0  0
 29 30  1  0  0  0  0
 29 31  1  0  0  0  0
 41 42  1  0  0  0  0
 41 43  1  0  0  0  0
 41 44  1  0  0  0  0
 39 40  1  0  0  0  0
 39 41  1  0  0  0  0
M  END
$$$$
default_name
  -OEChem-01062215323D

 44 43  0     1  0  0  0  0  0999 V2000
    2.4488   -3.0448    2.0990 H   0  0  0  0  0  0  0  0  0  0  0  0
    2.2788   -2.0018    2.3640 C   0  0  0  0  0  0  0  0  0  0  0  0
    2.9228   -1.7258    3.1960 H   0  0  0  0  0  0  0  0  0  0  0  0
    1.2358   -1.8618    2.6430 H   0  0  0  0  0  0  0  0  0  0  0  0
    2.6018   -1.1318    1.1730 C   0  0  0  0  0  0  0  0  0  0  0  0
    3.0048   -1.6348    0.1320 O   0  0  0  0  0  0  0  0  0  0  0  0
    2.4088    0.1752    1.3190 N   0  0  0  0  0  0  0  0  0  0  0  0
    2.0708    0.5242    2.2050 H   0  0  0  0  0  0  0  0  0  0  0  0
    2.6638    1.1782    0.2840 C   0  0  1  0  0  0  0  0  0  0  0  0
    2.5379    0.7011   -0.6894 H   0  0  0  0  0  0  0  0  0  0  0  0
    1.6309    2.3131    0.3967 C   0  0  0  0  0  0  0  0  0  0  0  0
    1.9275    3.1247   -0.2689 H   0  0  0  0  0  0  0  0  0  0  0  0
    1.6831    2.7118    1.4094 H   0  0  0  0  0  0  0  0  0  0  0  0
   -0.1124    1.9113    0.0767 S   0  0  0  0  0  0  0  0  0  0  0  0
    4.1090    1.7043    0.3659 C   0  0  0  0  0  0  0  0  0  0  0  0
    4.3402    2.9110    0.2903 O   0  0  0  0  0  0  0  0  0  0  0  0
    5.0817    0.7973    0.5274 N   0  0  0  0  0  0  0  0  0  0  0  0
    4.8215   -0.1742    0.5844 H   0  0  0  0  0  0  0  0  0  0  0  0
    6.5001    1.1367    0.6203 C   0  0  0  0  0  0  0  0  0  0  0  0
    6.8267    1.6067   -0.3098 H   0  0  0  0  0  0  0  0  0  0  0  0
    6.6584    1.8422    1.4380 H   0  0  0  0  0  0  0  0  0  0  0  0
    7.0939    0.2394    0.7986 H   0  0  0  0  0  0  0  0  0  0  0  0
    0.2965    5.9360   -6.9559 H   0  0  0  0  0  0  0  0  0  0  0  0
    0.1913    6.1095   -5.8860 C   0  0  0  0  0  0  0  0  0  0  0  0
   -0.5064    6.9275   -5.7133 H   0  0  0  0  0  0  0  0  0  0  0  0
    1.1616    6.3551   -5.4585 H   0  0  0  0  0  0  0  0  0  0  0  0
   -0.3389    4.8534   -5.2353 C   0  0  0  0  0  0  0  0  0  0  0  0
   -0.5637    3.8564   -5.9081 O   0  0  0  0  0  0  0  0  0  0  0  0
   -0.5303    4.9018   -3.9197 N   0  0  0  0  0  0  0  0  0  0  0  0
   -0.3329    5.7624   -3.4300 H   0  0  0  0  0  0  0  0  0  0  0  0
   -1.0301    3.7889   -3.1124 C   0  0  1  0  0  0  0  0  0  0  0  0
   -1.7828    3.2439   -3.6850 H   0  0  0  0  0  0  0  0  0  0  0  0
    0.1436    2.8399   -2.8322 C   0  0  0  0  0  0  0  0  0  0  0  0
    0.5435    2.5189   -3.7951 H   0  0  0  0  0  0  0  0  0  0  0  0
    0.9329    3.3954   -2.3254 H   0  0  0  0  0  0  0  0  0  0  0  0
   -0.2062    1.3371   -1.8802 S   0  0  0  0  0  0  0  0  0  0  0  0
   -1.6922    4.3119   -1.8254 C   0  0  0  0  0  0  0  0  0  0  0  0
   -1.2915    5.3558   -1.3086 O   0  0  0  0  0  0  0  0  0  0  0  0
   -2.7035    3.5960   -1.3173 N   0  0  0  0  0  0  0  0  0  0  0  0
   -2.9495    2.7357   -1.7807 H   0  0  0  0  0  0  0  0  0  0  0  0
   -3.4313    3.9497   -0.0992 C   0  0  0  0  0  0  0  0  0  0  0  0
   -2.8107    3.7411    0.7738 H   0  0  0  0  0  0  0  0  0  0  0  0
   -3.6763    5.0144   -0.1062 H   0  0  0  0  0  0  0  0  0  0  0  0
   -4.3536    3.3726   -0.0303 H   0  0  0  0  0  0  0  0  0  0  0  0
  5  6  2  0  0  0  0
  5  7  1  0  0  0  0
  2  3  1  0  0  0  0
  2  4  1  0  0  0  0
  2  5  1  0  0  0  0
  1  2  1  0  0  0  0
 15 16  2  0  0  0  0
 15 17  1  0  0  0  0
 14 36  1  0  0  0  0
 11 12  1  0  0  0  0
 11 13  1  0  0  0  0
 11 14  1  0  0  0  0
  9 10  1  0  0  0  0
  9 11  1  0  0  0  0
  9 15  1  0  0  0  0
  7  8  1  0  0  0  0
  7  9  1  0  0  0  0
 19 20  1  0  0  0  0
 19 21  1  0  0  0  0
 19 22  1  0  0  0  0
 17 18  1  0  0  0  0
 17 19  1  0  0  0  0
 27 28  2  0  0  0  0
 27 29  1  0  0  0  0
 24 25  1  0  0  0  0
 24 26  1  0  0  0  0
 24 27  1  0  0  0  0
 23 24  1  0  0  0  0
 37 38  2  0  0  0  0
 37 39  1  0  0  0  0
 33 34  1  0  0  0  0
 33 35  1  0  0  0  0
 33 36  1  0  0  0  0
 31 32  1  0  0  0  0
 31 33  1  0  0  0  0
 31 37  1  0  0  0  0
 29 30  1  0  0  0  0
 29 31  1  0  0  0  0
 41 42  1  0  0  0  0
 41 43  1  0  0  0  0
 41 44  1  0  0  0  0
 39 40  1  0  0  0  0
 39 41  1  0  0  0  0
M  END
$$$$
default_name
  -OEChem-01062215323D

 44 43  0     1  0  0  0  0  0999 V2000
    2.4488   -3.0448    2.0990 H   0  0  0  0  0  0  0  0  0  0  0  0
    2.2788   -2.0018    2.3640 C   0  0  0  0  0  0  0  0  0  0  0  0
    2.9228   -1.7258    3.1960 H   0  0  0  0  0  0  0  0  0  0  0  0
    1.2358   -1.8618    2.6430 H   0  0  0  0  0  0  0  0  0  0  0  0
    2.6018   -1.1318    1.1730 C   0  0  0  0  0  0  0  0  0  0  0  0
    3.0048   -1.6348    0.1320 O   0  0  0  0  0  0  0  0  0  0  0  0
    2.4088    0.1752    1.3190 N   0  0  0  0  0  0  0  0  0  0  0  0
    2.0708    0.5242    2.2050 H   0  0  0  0  0  0  0  0  0  0  0  0
    2.6638    1.1782    0.2840 C   0  0  1  0  0  0  0  0  0  0  0  0
    2.5379    0.7011   -0.6894 H   0  0  0  0  0  0  0  0  0  0  0  0
    1.6309    2.3131    0.3967 C   0  0  0  0  0  0  0  0  0  0  0  0
    1.9275    3.1247   -0.2689 H   0  0  0  0  0  0  0  0  0  0  0  0
    1.6831    2.7118    1.4094 H   0  0  0  0  0  0  0  0  0  0  0  0
   -0.1124    1.9113    0.0767 S   0  0  0  0  0  0  0  0  0  0  0  0
    4.1090    1.7043    0.3659 C   0  0  0  0  0  0  0  0  0  0  0  0
    4.3291    2.8986    0.5667 O   0  0  0  0  0  0  0  0  0  0  0  0
    5.0948    0.8094    0.2167 N   0  0  0  0  0  0  0  0  0  0  0  0
    4.8437   -0.1530    0.0578 H   0  0  0  0  0  0  0  0  0  0  0  0
    6.5149    1.1512    0.2661 C   0  0  0  0  0  0  0  0  0  0  0  0
    6.7550    1.8404   -0.5463 H   0  0  0  0  0  0  0  0  0  0  0  0
    6.7442    1.6412    1.2141 H   0  0  0  0  0  0  0  0  0  0  0  0
    7.1249    0.2523    0.1684 H   0  0  0  0  0  0  0  0  0  0  0  0
    0.2965    5.9360   -6.9559 H   0  0  0  0  0  0  0  0  0  0  0  0
    0.1913    6.1095   -5.8860 C   0  0  0  0  0  0  0  0  0  0  0  0
   -0.5064    6.9275   -5.7133 H   0  0  0  0  0  0  0  0  0  0  0  0
    1.1616    6.3551   -5.4585 H   0  0  0  0  0  0  0  0  0  0  0  0
   -0.3389    4.8534   -5.2353 C   0  0  0  0  0  0  0  0  0  0  0  0
   -0.5637    3.8564   -5.9081 O   0  0  0  0  0  0  0  0  0  0  0  0
   -0.5303    4.9018   -3.9197 N   0  0  0  0  0  0  0  0  0  0  0  0
   -0.3329    5.7624   -3.4300 H   0  0  0  0  0  0  0  0  0  0  0  0
   -1.0301    3.7889   -3.1124 C   0  0  1  0  0  0  0  0  0  0  0  0
   -1.7828    3.2439   -3.6850 H   0  0  0  0  0  0  0  0  0  0  0  0
    0.1436    2.8399   -2.8322 C   0  0  0  0  0  0  0  0  0  0  0  0
    0.5435    2.5189   -3.7951 H   0  0  0  0  0  0  0  0  0  0  0  0
    0.9329    3.3954   -2.3254 H   0  0  0  0  0  0  0  0  0  0  0  0
   -0.2062    1.3371   -1.8802 S   0  0  0  0  0  0  0  0  0  0  0  0
   -1.6922    4.3119   -1.8254 C   0  0  0  0  0  0  0  0  0  0  0  0
   -1.2915    5.3558   -1.3086 O   0  0  0  0  0  0  0  0  0  0  0  0
   -2.7035    3.5960   -1.3173 N   0  0  0  0  0  0  0  0  0  0  0  0
   -2.9495    2.7357   -1.7807 H   0  0  0  0  0  0  0  0  0  0  0  0
   -3.4313    3.9497   -0.0992 C   0  0  0  0  0  0  0  0  0  0  0  0
   -2.8107    3.7411    0.7738 H   0  0  0  0  0  0  0  0  0  0  0  0
   -3.6763    5.0144   -0.1062 H   0  0  0  0  0  0  0  0  0  0  0  0
   -4.3536    3.3726   -0.0303 H   0  0  0  0  0  0  0  0  0  0  0  0
  5  6  2  0  0  0  0
  5  7  1  0  0  0  0
  2  3  1  0  0  0  0
  2  4  1  0  0  0  0
  2  5  1  0  0  0  0
  1  2  1  0  0  0  0
 15 16  2  0  0  0  0
 15 17  1  0  0  0  0
 14 36  1  0  0  0  0
 11 12  1  0  0  0  0
 11 13  1  0  0  0  0
 11 14  1  0  0  0  0
  9 10  1  0  0  0  0
  9 11  1  0  0  0  0
  9 15  1  0  0  0  0
  7  8  1  0  0  0  0
  7  9  1  0  0  0  0
 19 20  1  0  0  0  0
 19 21  1  0  0  0  0
 19 22  1  0  0  0  0
 17 18  1  0  0  0  0
 17 19  1  0  0  0  0
 27 28  2  0  0  0  0
 27 29  1  0  0  0  0
 24 25  1  0  0  0  0
 24 26  1  0  0  0  0
 24 27  1  0  0  0  0
 23 24  1  0  0  0  0
 37 38  2  0  0  0  0
 37 39  1  0  0  0  0
 33 34  1  0  0  0  0
 33 35  1  0  0  0  0
 33 36  1  0  0  0  0
 31 32  1  0  0  0  0
 31 33  1  0  0  0  0
 31 37  1  0  0  0  0
 29 30  1  0  0  0  0
 29 31  1  0  0  0  0
 41 42  1  0  0  0  0
 41 43  1  0  0  0  0
 41 44  1  0  0  0  0
 39 40  1  0  0  0  0
 39 41  1  0  0  0  0
M  END
$$$$
default_name
  -OEChem-01062215323D

 44 43  0     1  0  0  0  0  0999 V2000
    2.4488   -3.0448    2.0990 H   0  0  0  0  0  0  0  0  0  0  0  0
    2.2788   -2.0018    2.3640 C   0  0  0  0  0  0  0  0  0  0  0  0
    2.9228   -1.7258    3.1960 H   0  0  0  0  0  0  0  0  0  0  0  0
    1.2358   -1.8618    2.6430 H   0  0  0  0  0  0  0  0  0  0  0  0
    2.6018   -1.1318    1.1730 C   0  0  0  0  0  0  0  0  0  0  0  0
    3.0048   -1.6348    0.1320 O   0  0  0  0  0  0  0  0  0  0  0  0
    2.4088    0.1752    1.3190 N   0  0  0  0  0  0  0  0  0  0  0  0
    2.0708    0.5242    2.2050 H   0  0  0  0  0  0  0  0  0  0  0  0
    2.6638    1.1782    0.2840 C   0  0  1  0  0  0  0  0  0  0  0  0
    2.5379    0.7011   -0.6894 H   0  0  0  0  0  0  0  0  0  0  0  0
    1.6309    2.3131    0.3967 C   0  0  0  0  0  0  0  0  0  0  0  0
    1.9275    3.1247   -0.2689 H   0  0  0  0  0  0  0  0  0  0  0  0
    1.6831    2.7118    1.4094 H   0  0  0  0  0  0  0  0  0  0  0  0
   -0.1124    1.9113    0.0767 S   0  0  0  0  0  0  0  0  0  0  0  0
    4.1090    1.7043    0.3659 C   0  0  0  0  0  0  0  0  0  0  0  0
    4.3429    2.8195    0.8315 O   0  0  0  0  0  0  0  0  0  0  0  0
    5.0799    0.8969   -0.0816 N   0  0  0  0  0  0  0  0  0  0  0  0
    4.8182   -0.0044   -0.4476 H   0  0  0  0  0  0  0  0  0  0  0  0
    6.4977    1.2514   -0.0738 C   0  0  0  0  0  0  0  0  0  0  0  0
    6.6617    2.1226   -0.7116 H   0  0  0  0  0  0  0  0  0  0  0  0
    6.8101    1.5027    0.9414 H   0  0  0  0  0  0  0  0  0  0  0  0
    7.0989    0.4183   -0.4399 H   0  0  0  0  0  0  0  0  0  0  0  0
    0.2965    5.9360   -6.9559 H   0  0  0  0  0  0  0  0  0  0  0  0
    0.1913    6.1095   -5.8860 C   0  0  0  0  0  0  0  0  0  0  0  0
   -0.5064    6.9275   -5.7133 H   0  0  0  0  0  0  0  0  0  0  0  0
    1.1616    6.3551   -5.4585 H   0  0  0  0  0  0  0  0  0  0  0  0
   -0.3389    4.8534   -5.2353 C   0  0  0  0  0  0  0  0  0  0  0  0
   -0.5637    3.8564   -5.9081 O   0  0  0  0  0  0  0  0  0  0  0  0
   -0.5303    4.9018   -3.9197 N   0  0  0  0  0  0  0  0  0  0  0  0
   -0.3329    5.7624   -3.4300 H   0  0  0  0  0  0  0  0  0  0  0  0
   -1.0301    3.7889   -3.1124 C   0  0  1  0  0  0  0  0  0  0  0  0
   -1.7828    3.2439   -3.6850 H   0  0  0  0  0  0  0  0  0  0  0  0
    0.1436    2.8399   -2.8322 C   0  0  0  0  0  0  0  0  0  0  0  0
    0.5435    2.5189   -3.7951 H   0  0  0  0  0  0  0  0  0  0  0  0
    0.9329    3.3954   -2.3254 H   0  0  0  0  0  0  0  0  0  0  0  0
   -0.2062    1.3371   -1.8802 S   0  0  0  0  0  0  0  0  0  0  0  0
   -1.6922    4.3119   -1.8254 C   0  0  0  0  0  0  0  0  0  0  0  0
   -1.2915    5.3558   -1.3086 O   0  0  0  0  0  0  0  0  0  0  0  0
   -2.7035    3.5960   -1.3173 N   0  0  0  0  0  0  0  0  0  0  0  0
   -2.9495    2.7357   -1.7807 H   0  0  0  0  0  0  0  0  0  0  0  0
   -3.4313    3.9497   -0.0992 C   0  0  0  0  0  0  0  0  0  0  0  0
   -2.8107    3.7411    0.7738 H   0  0  0  0  0  0  0  0  0  0  0  0
   -3.6763    5.0144   -0.1062 H   0  0  0  0  0  0  0  0  0  0  0  0
   -4.3536    3.3726   -0.0303 H   0  0  0  0  0  0  0  0  0  0  0  0
  5  6  2  0  0  0  0
  5  7  1  0  0  0  0
  2  3  1  0  0  0  0
  2  4  1  0  0  0  0
  2  5  1  0  0  0  0
  1  2  1  0  0  0  0
 15 16  2  0  0  0  0
 15 17  1  0  0  0  0
 14 36  1  0  0  0  0
 11 12  1  0  0  0  0
 11 13  1  0  0  0  0
 11 14  1  0  0  0  0
  9 10  1  0  0  0  0
  9 11  1  0  0  0  0
  9 15  1  0  0  0  0
  7  8  1  0  0  0  0
  7  9  1  0  0  0  0
 19 20  1  0  0  0  0
 19 21  1  0  0  0  0
 19 22  1  0  0  0  0
 17 18  1  0  0  0  0
 17 19  1  0  0  0  0
 27 28  2  0  0  0  0
 27 29  1  0  0  0  0
 24 25  1  0  0  0  0
 24 26  1  0  0  0  0
 24 27  1  0  0  0  0
 23 24  1  0  0  0  0
 37 38  2  0  0  0  0
 37 39  1  0  0  0  0
 33 34  1  0  0  0  0
 33 35  1  0  0  0  0
 33 36  1  0  0  0  0
 31 32  1  0  0  0  0
 31 33  1  0  0  0  0
 31 37  1  0  0  0  0
 29 30  1  0  0  0  0
 29 31  1  0  0  0  0
 41 42  1  0  0  0  0
 41 43  1  0  0  0  0
 41 44  1  0  0  0  0
 39 40  1  0  0  0  0
 39 41  1  0  0  0  0
M  END
$$$$
default_name
  -OEChem-01062215323D

 44 43  0     1  0  0  0  0  0999 V2000
    2.4488   -3.0448    2.0990 H   0  0  0  0  0  0  0  0  0  0  0  0
    2.2788   -2.0018    2.3640 C   0  0  0  0  0  0  0  0  0  0  0  0
    2.9228   -1.7258    3.1960 H   0  0  0  0  0  0  0  0  0  0  0  0
    1.2358   -1.8618    2.6430 H   0  0  0  0  0  0  0  0  0  0  0  0
    2.6018   -1.1318    1.1730 C   0  0  0  0  0  0  0  0  0  0  0  0
    3.0048   -1.6348    0.1320 O   0  0  0  0  0  0  0  0  0  0  0  0
    2.4088    0.1752    1.3190 N   0  0  0  0  0  0  0  0  0  0  0  0
    2.0708    0.5242    2.2050 H   0  0  0  0  0  0  0  0  0  0  0  0
    2.6638    1.1782    0.2840 C   0  0  1  0  0  0  0  0  0  0  0  0
    2.5379    0.7011   -0.6894 H   0  0  0  0  0  0  0  0  0  0  0  0
    1.6309    2.3131    0.3967 C   0  0  0  0  0  0  0  0  0  0  0  0
    1.9275    3.1247   -0.2689 H   0  0  0  0  0  0  0  0  0  0  0  0
    1.6831    2.7118    1.4094 H   0  0  0  0  0  0  0  0  0  0  0  0
   -0.1124    1.9113    0.0767 S   0  0  0  0  0  0  0  0  0  0  0  0
    4.1090    1.7043    0.3659 C   0  0  0  0  0  0  0  0  0  0  0  0
    4.3807    2.6789    1.0670 O   0  0  0  0  0  0  0  0  0  0  0  0
    5.0379    1.0535   -0.3472 N   0  0  0  0  0  0  0  0  0  0  0  0
    4.7468    0.2616   -0.8975 H   0  0  0  0  0  0  0  0  0  0  0  0
    6.4496    1.4305   -0.3763 C   0  0  0  0  0  0  0  0  0  0  0  0
    6.5530    2.4340   -0.7945 H   0  0  0  0  0  0  0  0  0  0  0  0
    6.8515    1.4360    0.6386 H   0  0  0  0  0  0  0  0  0  0  0  0
    7.0178    0.7260   -0.9849 H   0  0  0  0  0  0  0  0  0  0  0  0
    0.2965    5.9360   -6.9559 H   0  0  0  0  0  0  0  0  0  0  0  0
    0.1913    6.1095   -5.8860 C   0  0  0  0  0  0  0  0  0  0  0  0
   -0.5064    6.9275   -5.7133 H   0  0  0  0  0  0  0  0  0  0  0  0
    1.1616    6.3551   -5.4585 H   0  0  0  0  0  0  0  0  0  0  0  0
   -0.3389    4.8534   -5.2353 C   0  0  0  0  0  0  0  0  0  0  0  0
   -0.5637    3.8564   -5.9081 O   0  0  0  0  0  0  0  0  0  0  0  0
   -0.5303    4.9018   -3.9197 N   0  0  0  0  0  0  0  0  0  0  0  0
   -0.3329    5.7624   -3.4300 H   0  0  0  0  0  0  0  0  0  0  0  0
   -1.0301    3.7889   -3.1124 C   0  0  1  0  0  0  0  0  0  0  0  0
   -1.7828    3.2439   -3.6850 H   0  0  0  0  0  0  0  0  0  0  0  0
    0.1436    2.8399   -2.8322 C   0  0  0  0  0  0  0  0  0  0  0  0
    0.5435    2.5189   -3.7951 H   0  0  0  0  0  0  0  0  0  0  0  0
    0.9329    3.3954   -2.3254 H   0  0  0  0  0  0  0  0  0  0  0  0
   -0.2062    1.3371   -1.8802 S   0  0  0  0  0  0  0  0  0  0  0  0
   -1.6922    4.3119   -1.8254 C   0  0  0  0  0  0  0  0  0  0  0  0
   -1.2915    5.3558   -1.3086 O   0  0  0  0  0  0  0  0  0  0  0  0
   -2.7035    3.5960   -1.3173 N   0  0  0  0  0  0  0  0  0  0  0  0
   -2.9495    2.7357   -1.7807 H   0  0  0  0  0  0  0  0  0  0  0  0
   -3.4313    3.9497   -0.0992 C   0  0  0  0  0  0  0  0  0  0  0  0
   -2.8107    3.7411    0.7738 H   0  0  0  0  0  0  0  0  0  0  0  0
   -3.6763    5.0144   -0.1062 H   0  0  0  0  0  0  0  0  0  0  0  0
   -4.3536    3.3726   -0.0303 H   0  0  0  0  0  0  0  0  0  0  0  0
  5  6  2  0  0  0  0
  5  7  1  0  0  0  0
  2  3  1  0  0  0  0
  2  4  1  0  0  0  0
  2  5  1  0  0  0  0
  1  2  1  0  0  0  0
 15 16  2  0  0  0  0
 15 17  1  0  0  0  0
 14 36  1  0  0  0  0
 11 12  1  0  0  0  0
 11 13  1  0  0  0  0
 11 14  1  0  0  0  0
  9 10  1  0  0  0  0
  9 11  1  0  0  0  0
  9 15  1  0  0  0  0
  7  8  1  0  0  0  0
  7  9  1  0  0  0  0
 19 20  1  0  0  0  0
 19 21  1  0  0  0  0
 19 22  1  0  0  0  0
 17 18  1  0  0  0  0
 17 19  1  0  0  0  0
 27 28  2  0  0  0  0
 27 29  1  0  0  0  0
 24 25  1  0  0  0  0
 24 26  1  0  0  0  0
 24 27  1  0  0  0  0
 23 24  1  0  0  0  0
 37 38  2  0  0  0  0
 37 39  1  0  0  0  0
 33 34  1  0  0  0  0
 33 35  1  0  0  0  0
 33 36  1  0  0  0  0
 31 32  1  0  0  0  0
 31 33  1  0  0  0  0
 31 37  1  0  0  0  0
 29 30  1  0  0  0  0
 29 31  1  0  0  0  0
 41 42  1  0  0  0  0
 41 43  1  0  0  0  0
 41 44  1  0  0  0  0
 39 40  1  0  0  0  0
 39 41  1  0  0  0  0
M  END
$$$$
default_name
  -OEChem-01062215323D

 44 43  0     1  0  0  0  0  0999 V2000
    2.4488   -3.0448    2.0990 H   0  0  0  0  0  0  0  0  0  0  0  0
    2.2788   -2.0018    2.3640 C   0  0  0  0  0  0  0  0  0  0  0  0
    2.9228   -1.7258    3.1960 H   0  0  0  0  0  0  0  0  0  0  0  0
    1.2358   -1.8618    2.6430 H   0  0  0  0  0  0  0  0  0  0  0  0
    2.6018   -1.1318    1.1730 C   0  0  0  0  0  0  0  0  0  0  0  0
    3.0048   -1.6348    0.1320 O   0  0  0  0  0  0  0  0  0  0  0  0
    2.4088    0.1752    1.3190 N   0  0  0  0  0  0  0  0  0  0  0  0
    2.0708    0.5242    2.2050 H   0  0  0  0  0  0  0  0  0  0  0  0
    2.6638    1.1782    0.2840 C   0  0  1  0  0  0  0  0  0  0  0  0
    2.5379    0.7011   -0.6894 H   0  0  0  0  0  0  0  0  0  0  0  0
    1.6309    2.3131    0.3967 C   0  0  0  0  0  0  0  0  0  0  0  0
    1.9275    3.1247   -0.2689 H   0  0  0  0  0  0  0  0  0  0  0  0
    1.6831    2.7118    1.4094 H   0  0  0  0  0  0  0  0  0  0  0  0
   -0.1124    1.9113    0.0767 S   0  0  0  0  0  0  0  0  0  0  0  0
    4.1090    1.7043    0.3659 C   0  0  0  0  0  0  0  0  0  0  0  0
    4.4400    2.4864    1.2569 O   0  0  0  0  0  0  0  0  0  0  0  0
    4.9717    1.2688   -0.5620 N   0  0  0  0  0  0  0  0  0  0  0  0
    4.6345    0.6268   -1.2612 H   0  0  0  0  0  0  0  0  0  0  0  0
    6.3740    1.6763   -0.6207 C   0  0  0  0  0  0  0  0  0  0  0  0
    6.4364    2.7535   -0.7893 H   0  0  0  0  0  0  0  0  0  0  0  0
    6.8657    1.4457    0.3262 H   0  0  0  0  0  0  0  0  0  0  0  0
    6.8870    1.1544   -1.4295 H   0  0  0  0  0  0  0  0  0  0  0  0
    0.2965    5.9360   -6.9559 H   0  0  0  0  0  0  0  0  0  0  0  0
    0.1913    6.1095   -5.8860 C   0  0  0  0  0  0  0  0  0  0  0  0
   -0.5064    6.9275   -5.7133 H   0  0  0  0  0  0  0  0  0  0  0  0
    1.1616    6.3551   -5.4585 H   0  0  0  0  0  0  0  0  0  0  0  0
   -0.3389    4.8534   -5.2353 C   0  0  0  0  0  0  0  0  0  0  0  0
   -0.5637    3.8564   -5.9081 O   0  0  0  0  0  0  0  0  0  0  0  0
   -0.5303    4.9018   -3.9197 N   0  0  0  0  0  0  0  0  0  0  0  0
   -0.3329    5.7624   -3.4300 H   0  0  0  0  0  0  0  0  0  0  0  0
   -1.0301    3.7889   -3.1124 C   0  0  1  0  0  0  0  0  0  0  0  0
   -1.7828    3.2439   -3.6850 H   0  0  0  0  0  0  0  0  0  0  0  0
    0.1436    2.8399   -2.8322 C   0  0  0  0  0  0  0  0  0  0  0  0
    0.5435    2.5189   -3.7951 H   0  0  0  0  0  0  0  0  0  0  0  0
    0.9329    3.3954   -2.3254 H   0  0  0  0  0  0  0  0  0  0  0  0
   -0.2062    1.3371   -1.8802 S   0  0  0  0  0  0  0  0  0  0  0  0
   -1.6922    4.3119   -1.8254 C   0  0  0  0  0  0  0  0  0  0  0  0
   -1.2915    5.3558   -1.3086 O   0  0  0  0  0  0  0  0  0  0  0  0
   -2.7035    3.5960   -1.3173 N   0  0  0  0  0  0  0  0  0  0  0  0
   -2.9495    2.7357   -1.7807 H   0  0  0  0  0  0  0  0  0  0  0  0
   -3.4313    3.9497   -0.0992 C   0  0  0  0  0  0  0  0  0  0  0  0
   -2.8107    3.7411    0.7738 H   0  0  0  0  0  0  0  0  0  0  0  0
   -3.6763    5.0144   -0.1062 H   0  0  0  0  0  0  0  0  0  0  0  0
   -4.3536    3.3726   -0.0303 H   0  0  0  0  0  0  0  0  0  0  0  0
  5  6  2  0  0  0  0
  5  7  1  0  0  0  0
  2  3  1  0  0  0  0
  2  4  1  0  0  0  0
  2  5  1  0  0  0  0
  1  2  1  0  0  0  0
 15 16  2  0  0  0  0
 15 17  1  0  0  0  0
 14 36  1  0  0  0  0
 11 12  1  0  0  0  0
 11 13  1  0  0  0  0
 11 14  1  0  0  0  0
  9 10  1  0  0  0  0
  9 11  1  0  0  0  0
  9 15  1  0  0  0  0
  7  8  1  0  0  0  0
  7  9  1  0  0  0  0
 19 20  1  0  0  0  0
 19 21  1  0  0  0  0
 19 22  1  0  0  0  0
 17 18  1  0  0  0  0
 17 19  1  0  0  0  0
 27 28  2  0  0  0  0
 27 29  1  0  0  0  0
 24 25  1  0  0  0  0
 24 26  1  0  0  0  0
 24 27  1  0  0  0  0
 23 24  1  0  0  0  0
 37 38  2  0  0  0  0
 37 39  1  0  0  0  0
 33 34  1  0  0  0  0
 33 35  1  0  0  0  0
 33 36  1  0  0  0  0
 31 32  1  0  0  0  0
 31 33  1  0  0  0  0
 31 37  1  0  0  0  0
 29 30  1  0  0  0  0
 29 31  1  0  0  0  0
 41 42  1  0  0  0  0
 41 43  1  0  0  0  0
 41 44  1  0  0  0  0
 39 40  1  0  0  0  0
 39 41  1  0  0  0  0
M  END
$$$$
default_name
  -OEChem-01062215323D

 44 43  0     1  0  0  0  0  0999 V2000
    2.4488   -3.0448    2.0990 H   0  0  0  0  0  0  0  0  0  0  0  0
    2.2788   -2.0018    2.3640 C   0  0  0  0  0  0  0  0  0  0  0  0
    2.9228   -1.7258    3.1960 H   0  0  0  0  0  0  0  0  0  0  0  0
    1.2358   -1.8618    2.6430 H   0  0  0  0  0  0  0  0  0  0  0  0
    2.6018   -1.1318    1.1730 C   0  0  0  0  0  0  0  0  0  0  0  0
    3.0048   -1.6348    0.1320 O   0  0  0  0  0  0  0  0  0  0  0  0
    2.4088    0.1752    1.3190 N   0  0  0  0  0  0  0  0  0  0  0  0
    2.0708    0.5242    2.2050 H   0  0  0  0  0  0  0  0  0  0  0  0
    2.6638    1.1782    0.2840 C   0  0  1  0  0  0  0  0  0  0  0  0
    2.5379    0.7011   -0.6894 H   0  0  0  0  0  0  0  0  0  0  0  0
    1.6309    2.3131    0.3967 C   0  0  0  0  0  0  0  0  0  0  0  0
    1.9275    3.1247   -0.2689 H   0  0  0  0  0  0  0  0  0  0  0  0
    1.6831    2.7118    1.4094 H   0  0  0  0  0  0  0  0  0  0  0  0
   -0.1124    1.9113    0.0767 S   0  0  0  0  0  0  0  0  0  0  0  0
    4.1090    1.7043    0.3659 C   0  0  0  0  0  0  0  0  0  0  0  0
    4.5167    2.2552    1.3883 O   0  0  0  0  0  0  0  0  0  0  0  0
    4.8859    1.5279   -0.7113 N   0  0  0  0  0  0  0  0  0  0  0  0
    4.4888    1.0664   -1.5138 H   0  0  0  0  0  0  0  0  0  0  0  0
    6.2759    1.9720   -0.7904 C   0  0  0  0  0  0  0  0  0  0  0  0
    6.3199    3.0592   -0.6964 H   0  0  0  0  0  0  0  0  0  0  0  0
    6.8516    1.5312    0.0255 H   0  0  0  0  0  0  0  0  0  0  0  0
    6.7155    1.6745   -1.7432 H   0  0  0  0  0  0  0  0  0  0  0  0
    0.2965    5.9360   -6.9559 H   0  0  0  0  0  0  0  0  0  0  0  0
    0.1913    6.1095   -5.8860 C   0  0  0  0  0  0  0  0  0  0  0  0
   -0.5064    6.9275   -5.7133 H   0  0  0  0  0  0  0  0  0  0  0  0
    1.1616    6.3551   -5.4585 H   0  0  0  0  0  0  0  0  0  0  0  0
   -0.3389    4.8534   -5.2353 C   0  0  0  0  0  0  0  0  0  0  0  0
   -0.5637    3.8564   -5.9081 O   0  0  0  0  0  0  0  0  0  0  0  0
   -0.5303    4.9018   -3.9197 N   0  0  0  0  0  0  0  0  0  0  0  0
   -0.3329    5.7624   -3.4300 H   0  0  0  0  0  0  0  0  0  0  0  0
   -1.0301    3.7889   -3.1124 C   0  0  1  0  0  0  0  0  0  0  0  0
   -1.7828    3.2439   -3.6850 H   0  0  0  0  0  0  0  0  0  0  0  0
    0.1436    2.8399   -2.8322 C   0  0  0  0  0  0  0  0  0  0  0  0
    0.5435    2.5189   -3.7951 H   0  0  0  0  0  0  0  0  0  0  0  0
    0.9329    3.3954   -2.3254 H   0  0  0  0  0  0  0  0  0  0  0  0
   -0.2062    1.3371   -1.8802 S   0  0  0  0  0  0  0  0  0  0  0  0
   -1.6922    4.3119   -1.8254 C   0  0  0  0  0  0  0  0  0  0  0  0
   -1.2915    5.3558   -1.3086 O   0  0  0  0  0  0  0  0  0  0  0  0
   -2.7035    3.5960   -1.3173 N   0  0  0  0  0  0  0  0  0  0  0  0
   -2.9495    2.7357   -1.7807 H   0  0  0  0  0  0  0  0  0  0  0  0
   -3.4313    3.9497   -0.0992 C   0  0  0  0  0  0  0  0  0  0  0  0
   -2.8107    3.7411    0.7738 H   0  0  0  0  0  0  0  0  0  0  0  0
   -3.6763    5.0144   -0.1062 H   0  0  0  0  0  0  0  0  0  0  0  0
   -4.3536    3.3726   -0.0303 H   0  0  0  0  0  0  0  0  0  0  0  0
  5  6  2  0  0  0  0
  5  7  1  0  0  0  0
  2  3  1  0  0  0  0
  2  4  1  0  0  0  0
  2  5  1  0  0  0  0
  1  2  1  0  0  0  0
 15 16  2  0  0  0  0
 15 17  1  0  0  0  0
 14 36  1  0  0  0  0
 11 12  1  0  0  0  0
 11 13  1  0  0  0  0
 11 14  1  0  0  0  0
  9 10  1  0  0  0  0
  9 11  1  0  0  0  0
  9 15  1  0  0  0  0
  7  8  1  0  0  0  0
  7  9  1  0  0  0  0
 19 20  1  0  0  0  0
 19 21  1  0  0  0  0
 19 22  1  0  0  0  0
 17 18  1  0  0  0  0
 17 19  1  0  0  0  0
 27 28  2  0  0  0  0
 27 29  1  0  0  0  0
 24 25  1  0  0  0  0
 24 26  1  0  0  0  0
 24 27  1  0  0  0  0
 23 24  1  0  0  0  0
 37 38  2  0  0  0  0
 37 39  1  0  0  0  0
 33 34  1  0  0  0  0
 33 35  1  0  0  0  0
 33 36  1  0  0  0  0
 31 32  1  0  0  0  0
 31 33  1  0  0  0  0
 31 37  1  0  0  0  0
 29 30  1  0  0  0  0
 29 31  1  0  0  0  0
 41 42  1  0  0  0  0
 41 43  1  0  0  0  0
 41 44  1  0  0  0  0
 39 40  1  0  0  0  0
 39 41  1  0  0  0  0
M  END
$$$$
default_name
  -OEChem-01062215323D

 44 43  0     1  0  0  0  0  0999 V2000
    2.4488   -3.0448    2.0990 H   0  0  0  0  0  0  0  0  0  0  0  0
    2.2788   -2.0018    2.3640 C   0  0  0  0  0  0  0  0  0  0  0  0
    2.9228   -1.7258    3.1960 H   0  0  0  0  0  0  0  0  0  0  0  0
    1.2358   -1.8618    2.6430 H   0  0  0  0  0  0  0  0  0  0  0  0
    2.6018   -1.1318    1.1730 C   0  0  0  0  0  0  0  0  0  0  0  0
    3.0048   -1.6348    0.1320 O   0  0  0  0  0  0  0  0  0  0  0  0
    2.4088    0.1752    1.3190 N   0  0  0  0  0  0  0  0  0  0  0  0
    2.0708    0.5242    2.2050 H   0  0  0  0  0  0  0  0  0  0  0  0
    2.6638    1.1782    0.2840 C   0  0  1  0  0  0  0  0  0  0  0  0
    2.5379    0.7011   -0.6894 H   0  0  0  0  0  0  0  0  0  0  0  0
    1.6309    2.3131    0.3967 C   0  0  0  0  0  0  0  0  0  0  0  0
    1.9275    3.1247   -0.2689 H   0  0  0  0  0  0  0  0  0  0  0  0
    1.6831    2.7118    1.4094 H   0  0  0  0  0  0  0  0  0  0  0  0
   -0.1124    1.9113    0.0767 S   0  0  0  0  0  0  0  0  0  0  0  0
    4.1090    1.7043    0.3659 C   0  0  0  0  0  0  0  0  0  0  0  0
    4.6056    2.0010    1.4524 O   0  0  0  0  0  0  0  0  0  0  0  0
    4.7861    1.8133   -0.7850 N   0  0  0  0  0  0  0  0  0  0  0  0
    4.3197    1.5503   -1.6382 H   0  0  0  0  0  0  0  0  0  0  0  0
    6.1622    2.2976   -0.8738 C   0  0  0  0  0  0  0  0  0  0  0  0
    6.2113    3.3303   -0.5222 H   0  0  0  0  0  0  0  0  0  0  0  0
    6.8103    1.6865   -0.2429 H   0  0  0  0  0  0  0  0  0  0  0  0
    6.5149    2.2506   -1.9049 H   0  0  0  0  0  0  0  0  0  0  0  0
    0.2965    5.9360   -6.9559 H   0  0  0  0  0  0  0  0  0  0  0  0
    0.1913    6.1095   -5.8860 C   0  0  0  0  0  0  0  0  0  0  0  0
   -0.5064    6.9275   -5.7133 H   0  0  0  0  0  0  0  0  0  0  0  0
    1.1616    6.3551   -5.4585 H   0  0  0  0  0  0  0  0  0  0  0  0
   -0.3389    4.8534   -5.2353 C   0  0  0  0  0  0  0  0  0  0  0  0
   -0.5637    3.8564   -5.9081 O   0  0  0  0  0  0  0  0  0  0  0  0
   -0.5303    4.9018   -3.9197 N   0  0  0  0  0  0  0  0  0  0  0  0
   -0.3329    5.7624   -3.4300 H   0  0  0  0  0  0  0  0  0  0  0  0
   -1.0301    3.7889   -3.1124 C   0  0  1  0  0  0  0  0  0  0  0  0
   -1.7828    3.2439   -3.6850 H   0  0  0  0  0  0  0  0  0  0  0  0
    0.1436    2.8399   -2.8322 C   0  0  0  0  0  0  0  0  0  0  0  0
    0.5435    2.5189   -3.7951 H   0  0  0  0  0  0  0  0  0  0  0  0
    0.9329    3.3954   -2.3254 H   0  0  0  0  0  0  0  0  0  0  0  0
   -0.2062    1.3371   -1.8802 S   0  0  0  0  0  0  0  0  0  0  0  0
   -1.6922    4.3119   -1.8254 C   0  0  0  0  0  0  0  0  0  0  0  0
   -1.2915    5.3558   -1.3086 O   0  0  0  0  0  0  0  0  0  0  0  0
   -2.7035    3.5960   -1.3173 N   0  0  0  0  0  0  0  0  0  0  0  0
   -2.9495    2.7357   -1.7807 H   0  0  0  0  0  0  0  0  0  0  0  0
   -3.4313    3.9497   -0.0992 C   0  0  0  0  0  0  0  0  0  0  0  0
   -2.8107    3.7411    0.7738 H   0  0  0  0  0  0  0  0  0  0  0  0
   -3.6763    5.0144   -0.1062 H   0  0  0  0  0  0  0  0  0  0  0  0
   -4.3536    3.3726   -0.0303 H   0  0  0  0  0  0  0  0  0  0  0  0
  5  6  2  0  0  0  0
  5  7  1  0  0  0  0
  2  3  1  0  0  0  0
  2  4  1  0  0  0  0
  2  5  1  0  0  0  0
  1  2  1  0  0  0  0
 15 16  2  0  0  0  0
 15 17  1  0  0  0  0
 14 36  1  0  0  0  0
 11 12  1  0  0  0  0
 11 13  1  0  0  0  0
 11 14  1  0  0  0  0
  9 10  1  0  0  0  0
  9 11  1  0  0  0  0
  9 15  1  0  0  0  0
  7  8  1  0  0  0  0
  7  9  1  0  0  0  0
 19 20  1  0  0  0  0
 19 21  1  0  0  0  0
 19 22  1  0  0  0  0
 17 18  1  0  0  0  0
 17 19  1  0  0  0  0
 27 28  2  0  0  0  0
 27 29  1  0  0  0  0
 24 25  1  0  0  0  0
 24 26  1  0  0  0  0
 24 27  1  0  0  0  0
 23 24  1  0  0  0  0
 37 38  2  0  0  0  0
 37 39  1  0  0  0  0
 33 34  1  0  0  0  0
 33 35  1  0  0  0  0
 33 36  1  0  0  0  0
 31 32  1  0  0  0  0
 31 33  1  0  0  0  0
 31 37  1  0  0  0  0
 29 30  1  0  0  0  0
 29 31  1  0  0  0  0
 41 42  1  0  0  0  0
 41 43  1  0  0  0  0
 41 44  1  0  0  0  0
 39 40  1  0  0  0  0
 39 41  1  0  0  0  0
M  END
$$$$
default_name
  -OEChem-01062215323D

 44 43  0     1  0  0  0  0  0999 V2000
    2.4488   -3.0448    2.0990 H   0  0  0  0  0  0  0  0  0  0  0  0
    2.2788   -2.0018    2.3640 C   0  0  0  0  0  0  0  0  0  0  0  0
    2.9228   -1.7258    3.1960 H   0  0  0  0  0  0  0  0  0  0  0  0
    1.2358   -1.8618    2.6430 H   0  0  0  0  0  0  0  0  0  0  0  0
    2.6018   -1.1318    1.1730 C   0  0  0  0  0  0  0  0  0  0  0  0
    3.0048   -1.6348    0.1320 O   0  0  0  0  0  0  0  0  0  0  0  0
    2.4088    0.1752    1.3190 N   0  0  0  0  0  0  0  0  0  0  0  0
    2.0708    0.5242    2.2050 H   0  0  0  0  0  0  0  0  0  0  0  0
    2.6638    1.1782    0.2840 C   0  0  1  0  0  0  0  0  0  0  0  0
    2.5379    0.7011   -0.6894 H   0  0  0  0  0  0  0  0  0  0  0  0
    1.6309    2.3131    0.3967 C   0  0  0  0  0  0  0  0  0  0  0  0
    1.9275    3.1247   -0.2689 H   0  0  0  0  0  0  0  0  0  0  0  0
    1.6831    2.7118    1.4094 H   0  0  0  0  0  0  0  0  0  0  0  0
   -0.1124    1.9113    0.0767 S   0  0  0  0  0  0  0  0  0  0  0  0
    4.1090    1.7043    0.3659 C   0  0  0  0  0  0  0  0  0  0  0  0
    4.7007    1.7411    1.4446 O   0  0  0  0  0  0  0  0  0  0  0  0
    4.6794    2.1056   -0.7781 N   0  0  0  0  0  0  0  0  0  0  0  0
    4.1387    2.0456   -1.6259 H   0  0  0  0  0  0  0  0  0  0  0  0
    6.0404    2.6307   -0.8653 C   0  0  0  0  0  0  0  0  0  0  0  0
    6.1181    3.5484   -0.2784 H   0  0  0  0  0  0  0  0  0  0  0  0
    6.7445    1.9012   -0.4608 H   0  0  0  0  0  0  0  0  0  0  0  0
    6.2989    2.8436   -1.9033 H   0  0  0  0  0  0  0  0  0  0  0  0
    0.2965    5.9360   -6.9559 H   0  0  0  0  0  0  0  0  0  0  0  0
    0.1913    6.1095   -5.8860 C   0  0  0  0  0  0  0  0  0  0  0  0
   -0.5064    6.9275   -5.7133 H   0  0  0  0  0  0  0  0  0  0  0  0
    1.1616    6.3551   -5.4585 H   0  0  0  0  0  0  0  0  0  0  0  0
   -0.3389    4.8534   -5.2353 C   0  0  0  0  0  0  0  0  0  0  0  0
   -0.5637    3.8564   -5.9081 O   0  0  0  0  0  0  0  0  0  0  0  0
   -0.5303    4.9018   -3.9197 N   0  0  0  0  0  0  0  0  0  0  0  0
   -0.3329    5.7624   -3.4300 H   0  0  0  0  0  0  0  0  0  0  0  0
   -1.0301    3.7889   -3.1124 C   0  0  1  0  0  0  0  0  0  0  0  0
   -1.7828    3.2439   -3.6850 H   0  0  0  0  0  0  0  0  0  0  0  0
    0.1436    2.8399   -2.8322 C   0  0  0  0  0  0  0  0  0  0  0  0
    0.5435    2.5189   -3.7951 H   0  0  0  0  0  0  0  0  0  0  0  0
    0.9329    3.3954   -2.3254 H   0  0  0  0  0  0  0  0  0  0  0  0
   -0.2062    1.3371   -1.8802 S   0  0  0  0  0  0  0  0  0  0  0  0
   -1.6922    4.3119   -1.8254 C   0  0  0  0  0  0  0  0  0  0  0  0
   -1.2915    5.3558   -1.3086 O   0  0  0  0  0  0  0  0  0  0  0  0
   -2.7035    3.5960   -1.3173 N   0  0  0  0  0  0  0  0  0  0  0  0
   -2.9495    2.7357   -1.7807 H   0  0  0  0  0  0  0  0  0  0  0  0
   -3.4313    3.9497   -0.0992 C   0  0  0  0  0  0  0  0  0  0  0  0
   -2.8107    3.7411    0.7738 H   0  0  0  0  0  0  0  0  0  0  0  0
   -3.6763    5.0144   -0.1062 H   0  0  0  0  0  0  0  0  0  0  0  0
   -4.3536    3.3726   -0.0303 H   0  0  0  0  0  0  0  0  0  0  0  0
  5  6  2  0  0  0  0
  5  7  1  0  0  0  0
  2  3  1  0  0  0  0
  2  4  1  0  0  0  0
  2  5  1  0  0  0  0
  1  2  1  0  0  0  0
 15 16  2  0  0  0  0
 15 17  1  0  0  0  0
 14 36  1  0  0  0  0
 11 12  1  0  0  0  0
 11 13  1  0  0  0  0
 11 14  1  0  0  0  0
  9 10  1  0  0  0  0
  9 11  1  0  0  0  0
  9 15  1  0  0  0  0
  7  8  1  0  0  0  0
  7  9  1  0  0  0  0
 19 20  1  0  0  0  0
 19 21  1  0  0  0  0
 19 22  1  0  0  0  0
 17 18  1  0  0  0  0
 17 19  1  0  0  0  0
 27 28  2  0  0  0  0
 27 29  1  0  0  0  0
 24 25  1  0  0  0  0
 24 26  1  0  0  0  0
 24 27  1  0  0  0  0
 23 24  1  0  0  0  0
 37 38  2  0  0  0  0
 37 39  1  0  0  0  0
 33 34  1  0  0  0  0
 33 35  1  0  0  0  0
 33 36  1  0  0  0  0
 31 32  1  0  0  0  0
 31 33  1  0  0  0  0
 31 37  1  0  0  0  0
 29 30  1  0  0  0  0
 29 31  1  0  0  0  0
 41 42  1  0  0  0  0
 41 43  1  0  0  0  0
 41 44  1  0  0  0  0
 39 40  1  0  0  0  0
 39 41  1  0  0  0  0
M  END
$$$$
default_name
  -OEChem-01062215323D

 44 43  0     1  0  0  0  0  0999 V2000
    2.4488   -3.0448    2.0990 H   0  0  0  0  0  0  0  0  0  0  0  0
    2.2788   -2.0018    2.3640 C   0  0  0  0  0  0  0  0  0  0  0  0
    2.9228   -1.7258    3.1960 H   0  0  0  0  0  0  0  0  0  0  0  0
    1.2358   -1.8618    2.6430 H   0  0  0  0  0  0  0  0  0  0  0  0
    2.6018   -1.1318    1.1730 C   0  0  0  0  0  0  0  0  0  0  0  0
    3.0048   -1.6348    0.1320 O   0  0  0  0  0  0  0  0  0  0  0  0
    2.4088    0.1752    1.3190 N   0  0  0  0  0  0  0  0  0  0  0  0
    2.0708    0.5242    2.2050 H   0  0  0  0  0  0  0  0  0  0  0  0
    2.6638    1.1782    0.2840 C   0  0  1  0  0  0  0  0  0  0  0  0
    2.5379    0.7011   -0.6894 H   0  0  0  0  0  0  0  0  0  0  0  0
    1.6309    2.3131    0.3967 C   0  0  0  0  0  0  0  0  0  0  0  0
    1.9275    3.1247   -0.2689 H   0  0  0  0  0  0  0  0  0  0  0  0
    1.6831    2.7118    1.4094 H   0  0  0  0  0  0  0  0  0  0  0  0
   -0.1124    1.9113    0.0767 S   0  0  0  0  0  0  0  0  0  0  0  0
    4.1090    1.7043    0.3659 C   0  0  0  0  0  0  0  0  0  0  0  0
    4.7954    1.4933    1.3656 O   0  0  0  0  0  0  0  0  0  0  0  0
    4.5728    2.3847   -0.6910 N   0  0  0  0  0  0  0  0  0  0  0  0
    3.9581    2.5185   -1.4777 H   0  0  0  0  0  0  0  0  0  0  0  0
    5.9190    2.9487   -0.7654 C   0  0  0  0  0  0  0  0  0  0  0  0
    6.0466    3.6985    0.0183 H   0  0  0  0  0  0  0  0  0  0  0  0
    6.6587    2.1606   -0.6133 H   0  0  0  0  0  0  0  0  0  0  0  0
    6.0823    3.4131   -1.7387 H   0  0  0  0  0  0  0  0  0  0  0  0
    0.2965    5.9360   -6.9559 H   0  0  0  0  0  0  0  0  0  0  0  0
    0.1913    6.1095   -5.8860 C   0  0  0  0  0  0  0  0  0  0  0  0
   -0.5064    6.9275   -5.7133 H   0  0  0  0  0  0  0  0  0  0  0  0
    1.1616    6.3551   -5.4585 H   0  0  0  0  0  0  0  0  0  0  0  0
   -0.3389    4.8534   -5.2353 C   0  0  0  0  0  0  0  0  0  0  0  0
   -0.5637    3.8564   -5.9081 O   0  0  0  0  0  0  0  0  0  0  0  0
   -0.5303    4.9018   -3.9197 N   0  0  0  0  0  0  0  0  0  0  0  0
   -0.3329    5.7624   -3.4300 H   0  0  0  0  0  0  0  0  0  0  0  0
   -1.0301    3.7889   -3.1124 C   0  0  1  0  0  0  0  0  0  0  0  0
   -1.7828    3.2439   -3.6850 H   0  0  0  0  0  0  0  0  0  0  0  0
    0.1436    2.8399   -2.8322 C   0  0  0  0  0  0  0  0  0  0  0  0
    0.5435    2.5189   -3.7951 H   0  0  0  0  0  0  0  0  0  0  0  0
    0.9329    3.3954   -2.3254 H   0  0  0  0  0  0  0  0  0  0  0  0
   -0.2062    1.3371   -1.8802 S   0  0  0  0  0  0  0  0  0  0  0  0
   -1.6922    4.3119   -1.8254 C   0  0  0  0  0  0  0  0  0  0  0  0
   -1.2915    5.3558   -1.3086 O   0  0  0  0  0  0  0  0  0  0  0  0
   -2.7035    3.5960   -1.3173 N   0  0  0  0  0  0  0  0  0  0  0  0
   -2.9495    2.7357   -1.7807 H   0  0  0  0  0  0  0  0  0  0  0  0
   -3.4313    3.9497   -0.0992 C   0  0  0  0  0  0  0  0  0  0  0  0
   -2.8107    3.7411    0.7738 H   0  0  0  0  0  0  0  0  0  0  0  0
   -3.6763    5.0144   -0.1062 H   0  0  0  0  0  0  0  0  0  0  0  0
   -4.3536    3.3726   -0.0303 H   0  0  0  0  0  0  0  0  0  0  0  0
  5  6  2  0  0  0  0
  5  7  1  0  0  0  0
  2  3  1  0  0  0  0
  2  4  1  0  0  0  0
  2  5  1  0  0  0  0
  1  2  1  0  0  0  0
 15 16  2  0  0  0  0
 15 17  1  0  0  0  0
 14 36  1  0  0  0  0
 11 12  1  0  0  0  0
 11 13  1  0  0  0  0
 11 14  1  0  0  0  0
  9 10  1  0  0  0  0
  9 11  1  0  0  0  0
  9 15  1  0  0  0  0
  7  8  1  0  0  0  0
  7  9  1  0  0  0  0
 19 20  1  0  0  0  0
 19 21  1  0  0  0  0
 19 22  1  0  0  0  0
 17 18  1  0  0  0  0
 17 19  1  0  0  0  0
 27 28  2  0  0  0  0
 27 29  1  0  0  0  0
 24 25  1  0  0  0  0
 24 26  1  0  0  0  0
 24 27  1  0  0  0  0
 23 24  1  0  0  0  0
 37 38  2  0  0  0  0
 37 39  1  0  0  0  0
 33 34  1  0  0  0  0
 33 35  1  0  0  0  0
 33 36  1  0  0  0  0
 31 32  1  0  0  0  0
 31 33  1  0  0  0  0
 31 37  1  0  0  0  0
 29 30  1  0  0  0  0
 29 31  1  0  0  0  0
 41 42  1  0  0  0  0
 41 43  1  0  0  0  0
 41 44  1  0  0  0  0
 39 40  1  0  0  0  0
 39 41  1  0  0  0  0
M  END
$$$$
default_name
  -OEChem-01062215323D

 44 43  0     1  0  0  0  0  0999 V2000
    2.4488   -3.0448    2.0990 H   0  0  0  0  0  0  0  0  0  0  0  0
    2.2788   -2.0018    2.3640 C   0  0  0  0  0  0  0  0  0  0  0  0
    2.9228   -1.7258    3.1960 H   0  0  0  0  0  0  0  0  0  0  0  0
    1.2358   -1.8618    2.6430 H   0  0  0  0  0  0  0  0  0  0  0  0
    2.6018   -1.1318    1.1730 C   0  0  0  0  0  0  0  0  0  0  0  0
    3.0048   -1.6348    0.1320 O   0  0  0  0  0  0  0  0  0  0  0  0
    2.4088    0.1752    1.3190 N   0  0  0  0  0  0  0  0  0  0  0  0
    2.0708    0.5242    2.2050 H   0  0  0  0  0  0  0  0  0  0  0  0
    2.6638    1.1782    0.2840 C   0  0  1  0  0  0  0  0  0  0  0  0
    2.2842    0.7922   -0.6636 H   0  0  0  0  0  0  0  0  0  0  0  0
    1.8969    2.4705    0.6147 C   0  0  0  0  0  0  0  0  0  0  0  0
    2.2203    3.2553   -0.0702 H   0  0  0  0  0  0  0  0  0  0  0  0
    2.1973    2.7903    1.6121 H   0  0  0  0  0  0  0  0  0  0  0  0
    0.0806    2.4076    0.6052 S   0  0  0  0  0  0  0  0  0  0  0  0
    4.1739    1.4311    0.1171 C   0  0  0  0  0  0  0  0  0  0  0  0
    4.9902    0.8178    0.8046 O   0  0  0  0  0  0  0  0  0  0  0  0
    4.5450    2.3316   -0.8028 N   0  0  0  0  0  0  0  0  0  0  0  0
    3.8245    2.7951   -1.3326 H   0  0  0  0  0  0  0  0  0  0  0  0
    5.9364    2.6838   -1.0780 C   0  0  0  0  0  0  0  0  0  0  0  0
    6.3875    3.1224   -0.1854 H   0  0  0  0  0  0  0  0  0  0  0  0
    6.4988    1.7870   -1.3443 H   0  0  0  0  0  0  0  0  0  0  0  0
    5.9910    3.4002   -1.8987 H   0  0  0  0  0  0  0  0  0  0  0  0
    0.0111    6.7197   -6.2667 H   0  0  0  0  0  0  0  0  0  0  0  0
    0.1271    6.8429   -5.1910 C   0  0  0  0  0  0  0  0  0  0  0  0
   -0.3645    7.7603   -4.8712 H   0  0  0  0  0  0  0  0  0  0  0  0
    1.1854    6.8841   -4.9400 H   0  0  0  0  0  0  0  0  0  0  0  0
   -0.5079    5.6643   -4.4911 C   0  0  0  0  0  0  0  0  0  0  0  0
   -1.0283    4.7671   -5.1400 O   0  0  0  0  0  0  0  0  0  0  0  0
   -0.4561    5.6651   -3.1617 N   0  0  0  0  0  0  0  0  0  0  0  0
   -0.0193    6.4446   -2.6916 H   0  0  0  0  0  0  0  0  0  0  0  0
   -1.0078    4.6120   -2.3093 C   0  0  1  0  0  0  0  0  0  0  0  0
   -1.9367    4.2468   -2.7510 H   0  0  0  0  0  0  0  0  0  0  0  0
   -0.0019    3.4528   -2.2740 C   0  0  0  0  0  0  0  0  0  0  0  0
    0.1580    3.1254   -3.3023 H   0  0  0  0  0  0  0  0  0  0  0  0
    0.9531    3.8259   -1.9033 H   0  0  0  0  0  0  0  0  0  0  0  0
   -0.4564    1.9812   -1.3178 S   0  0  0  0  0  0  0  0  0  0  0  0
   -1.3272    5.1647   -0.9090 C   0  0  0  0  0  0  0  0  0  0  0  0
   -0.6550    6.0862   -0.4440 O   0  0  0  0  0  0  0  0  0  0  0  0
   -2.3511    4.6115   -0.2464 N   0  0  0  0  0  0  0  0  0  0  0  0
   -2.8302    3.8392   -0.6818 H   0  0  0  0  0  0  0  0  0  0  0  0
   -2.7778    5.0139    1.0932 C   0  0  0  0  0  0  0  0  0  0  0  0
   -2.0655    4.6443    1.8327 H   0  0  0  0  0  0  0  0  0  0  0  0
   -2.8167    6.1037    1.1612 H   0  0  0  0  0  0  0  0  0  0  0  0
   -3.7656    4.6081    1.3118 H   0  0  0  0  0  0  0  0  0  0  0  0
  5  6  2  0  0  0  0
  5  7  1  0  0  0  0
  2  3  1  0  0  0  0
  2  4  1  0  0  0  0
  2  5  1  0  0  0  0
  1  2  1  0  0  0  0
 15 16  2  0  0  0  0
 15 17  1  0  0  0  0
 14 36  1  0  0  0  0
 11 12  1  0  0  0  0
 11 13  1  0  0  0  0
 11 14  1  0  0  0  0
  9 10  1  0  0  0  0
  9 11  1  0  0  0  0
  9 15  1  0  0  0  0
  7  8  1  0  0  0  0
  7  9  1  0  0  0  0
 19 20  1  0  0  0  0
 19 21  1  0  0  0  0
 19 22  1  0  0  0  0
 17 18  1  0  0  0  0
 17 19  1  0  0  0  0
 27 28  2  0  0  0  0
 27 29  1  0  0  0  0
 24 25  1  0  0  0  0
 24 26  1  0  0  0  0
 24 27  1  0  0  0  0
 23 24  1  0  0  0  0
 37 38  2  0  0  0  0
 37 39  1  0  0  0  0
 33 34  1  0  0  0  0
 33 35  1  0  0  0  0
 33 36  1  0  0  0  0
 31 32  1  0  0  0  0
 31 33  1  0  0  0  0
 31 37  1  0  0  0  0
 29 30  1  0  0  0  0
 29 31  1  0  0  0  0
 41 42  1  0  0  0  0
 41 43  1  0  0  0  0
 41 44  1  0  0  0  0
 39 40  1  0  0  0  0
 39 41  1  0  0  0  0
M  END
$$$$
default_name
  -OEChem-01062215323D

 44 43  0     1  0  0  0  0  0999 V2000
    2.4488   -3.0448    2.0990 H   0  0  0  0  0  0  0  0  0  0  0  0
    2.2788   -2.0018    2.3640 C   0  0  0  0  0  0  0  0  0  0  0  0
    2.9228   -1.7258    3.1960 H   0  0  0  0  0  0  0  0  0  0  0  0
    1.2358   -1.8618    2.6430 H   0  0  0  0  0  0  0  0  0  0  0  0
    2.6018   -1.1318    1.1730 C   0  0  0  0  0  0  0  0  0  0  0  0
    3.0048   -1.6348    0.1320 O   0  0  0  0  0  0  0  0  0  0  0  0
    2.4088    0.1752    1.3190 N   0  0  0  0  0  0  0  0  0  0  0  0
    2.0708    0.5242    2.2050 H   0  0  0  0  0  0  0  0  0  0  0  0
    2.6638    1.1782    0.2840 C   0  0  1  0  0  0  0  0  0  0  0  0
    2.2842    0.7922   -0.6636 H   0  0  0  0  0  0  0  0  0  0  0  0
    1.8969    2.4705    0.6147 C   0  0  0  0  0  0  0  0  0  0  0  0
    2.2203    3.2553   -0.0702 H   0  0  0  0  0  0  0  0  0  0  0  0
    2.1973    2.7903    1.6121 H   0  0  0  0  0  0  0  0  0  0  0  0
    0.0806    2.4076    0.6052 S   0  0  0  0  0  0  0  0  0  0  0  0
    4.1739    1.4311    0.1171 C   0  0  0  0  0  0  0  0  0  0  0  0
    4.9953    0.6448    0.5885 O   0  0  0  0  0  0  0  0  0  0  0  0
    4.5389    2.5274   -0.5610 N   0  0  0  0  0  0  0  0  0  0  0  0
    3.8143    3.1265   -0.9224 H   0  0  0  0  0  0  0  0  0  0  0  0
    5.9296    2.9065   -0.8020 C   0  0  0  0  0  0  0  0  0  0  0  0
    6.4295    3.0934    0.1508 H   0  0  0  0  0  0  0  0  0  0  0  0
    6.4509    2.0945   -1.3123 H   0  0  0  0  0  0  0  0  0  0  0  0
    5.9763    3.8067   -1.4162 H   0  0  0  0  0  0  0  0  0  0  0  0
    0.0111    6.7197   -6.2667 H   0  0  0  0  0  0  0  0  0  0  0  0
    0.1271    6.8429   -5.1910 C   0  0  0  0  0  0  0  0  0  0  0  0
   -0.3645    7.7603   -4.8712 H   0  0  0  0  0  0  0  0  0  0  0  0
    1.1854    6.8841   -4.9400 H   0  0  0  0  0  0  0  0  0  0  0  0
   -0.5079    5.6643   -4.4911 C   0  0  0  0  0  0  0  0  0  0  0  0
   -1.0283    4.7671   -5.1400 O   0  0  0  0  0  0  0  0  0  0  0  0
   -0.4561    5.6651   -3.1617 N   0  0  0  0  0  0  0  0  0  0  0  0
   -0.0193    6.4446   -2.6916 H   0  0  0  0  0  0  0  0  0  0  0  0
   -1.0078    4.6120   -2.3093 C   0  0  1  0  0  0  0  0  0  0  0  0
   -1.9367    4.2468   -2.7510 H   0  0  0  0  0  0  0  0  0  0  0  0
   -0.0019    3.4528   -2.2740 C   0  0  0  0  0  0  0  0  0  0  0  0
    0.1580    3.1254   -3.3023 H   0  0  0  0  0  0  0  0  0  0  0  0
    0.9531    3.8259   -1.9033 H   0  0  0  0  0  0  0  0  0  0  0  0
   -0.4564    1.9812   -1.3178 S   0  0  0  0  0  0  0  0  0  0  0  0
   -1.3272    5.1647   -0.9090 C   0  0  0  0  0  0  0  0  0  0  0  0
   -0.6550    6.0862   -0.4440 O   0  0  0  0  0  0  0  0  0  0  0  0
   -2.3511    4.6115   -0.2464 N   0  0  0  0  0  0  0  0  0  0  0  0
   -2.8302    3.8392   -0.6818 H   0  0  0  0  0  0  0  0  0  0  0  0
   -2.7778    5.0139    1.0932 C   0  0  0  0  0  0  0  0  0  0  0  0
   -2.0655    4.6443    1.8327 H   0  0  0  0  0  0  0  0  0  0  0  0
   -2.8167    6.1037    1.1612 H   0  0  0  0  0  0  0  0  0  0  0  0
   -3.7656    4.6081    1.3118 H   0  0  0  0  0  0  0  0  0  0  0  0
  5  6  2  0  0  0  0
  5  7  1  0  0  0  0
  2  3  1  0  0  0  0
  2  4  1  0  0  0  0
  2  5  1  0  0  0  0
  1  2  1  0  0  0  0
 15 16  2  0  0  0  0
 15 17  1  0  0  0  0
 14 36  1  0  0  0  0
 11 12  1  0  0  0  0
 11 13  1  0  0  0  0
 11 14  1  0  0  0  0
  9 10  1  0  0  0  0
  9 11  1  0  0  0  0
  9 15  1  0  0  0  0
  7  8  1  0  0  0  0
  7  9  1  0  0  0  0
 19 20  1  0  0  0  0
 19 21  1  0  0  0  0
 19 22  1  0  0  0  0
 17 18  1  0  0  0  0
 17 19  1  0  0  0  0
 27 28  2  0  0  0  0
 27 29  1  0  0  0  0
 24 25  1  0  0  0  0
 24 26  1  0  0  0  0
 24 27  1  0  0  0  0
 23 24  1  0  0  0  0
 37 38  2  0  0  0  0
 37 39  1  0  0  0  0
 33 34  1  0  0  0  0
 33 35  1  0  0  0  0
 33 36  1  0  0  0  0
 31 32  1  0  0  0  0
 31 33  1  0  0  0  0
 31 37  1  0  0  0  0
 29 30  1  0  0  0  0
 29 31  1  0  0  0  0
 41 42  1  0  0  0  0
 41 43  1  0  0  0  0
 41 44  1  0  0  0  0
 39 40  1  0  0  0  0
 39 41  1  0  0  0  0
M  END
$$$$
default_name
  -OEChem-01062215323D

 44 43  0     1  0  0  0  0  0999 V2000
    2.4488   -3.0448    2.0990 H   0  0  0  0  0  0  0  0  0  0  0  0
    2.2788   -2.0018    2.3640 C   0  0  0  0  0  0  0  0  0  0  0  0
    2.9228   -1.7258    3.1960 H   0  0  0  0  0  0  0  0  0  0  0  0
    1.2358   -1.8618    2.6430 H   0  0  0  0  0  0  0  0  0  0  0  0
    2.6018   -1.1318    1.1730 C   0  0  0  0  0  0  0  0  0  0  0  0
    3.0048   -1.6348    0.1320 O   0  0  0  0  0  0  0  0  0  0  0  0
    2.4088    0.1752    1.3190 N   0  0  0  0  0  0  0  0  0  0  0  0
    2.0708    0.5242    2.2050 H   0  0  0  0  0  0  0  0  0  0  0  0
    2.6638    1.1782    0.2840 C   0  0  1  0  0  0  0  0  0  0  0  0
    2.2842    0.7922   -0.6636 H   0  0  0  0  0  0  0  0  0  0  0  0
    1.8969    2.4705    0.6147 C   0  0  0  0  0  0  0  0  0  0  0  0
    2.2203    3.2553   -0.0702 H   0  0  0  0  0  0  0  0  0  0  0  0
    2.1973    2.7903    1.6121 H   0  0  0  0  0  0  0  0  0  0  0  0
    0.0806    2.4076    0.6052 S   0  0  0  0  0  0  0  0  0  0  0  0
    4.1739    1.4311    0.1171 C   0  0  0  0  0  0  0  0  0  0  0  0
    4.9862    0.5325    0.3357 O   0  0  0  0  0  0  0  0  0  0  0  0
    4.5488    2.6553   -0.2775 N   0  0  0  0  0  0  0  0  0  0  0  0
    3.8312    3.3429   -0.4416 H   0  0  0  0  0  0  0  0  0  0  0  0
    5.9410    3.0518   -0.4785 C   0  0  0  0  0  0  0  0  0  0  0  0
    6.4835    2.9788    0.4665 H   0  0  0  0  0  0  0  0  0  0  0  0
    6.4145    2.3848   -1.2012 H   0  0  0  0  0  0  0  0  0  0  0  0
    5.9939    4.0773   -0.8463 H   0  0  0  0  0  0  0  0  0  0  0  0
    0.0111    6.7197   -6.2667 H   0  0  0  0  0  0  0  0  0  0  0  0
    0.1271    6.8429   -5.1910 C   0  0  0  0  0  0  0  0  0  0  0  0
   -0.3645    7.7603   -4.8712 H   0  0  0  0  0  0  0  0  0  0  0  0
    1.1854    6.8841   -4.9400 H   0  0  0  0  0  0  0  0  0  0  0  0
   -0.5079    5.6643   -4.4911 C   0  0  0  0  0  0  0  0  0  0  0  0
   -1.0283    4.7671   -5.1400 O   0  0  0  0  0  0  0  0  0  0  0  0
   -0.4561    5.6651   -3.1617 N   0  0  0  0  0  0  0  0  0  0  0  0
   -0.0193    6.4446   -2.6916 H   0  0  0  0  0  0  0  0  0  0  0  0
   -1.0078    4.6120   -2.3093 C   0  0  1  0  0  0  0  0  0  0  0  0
   -1.9367    4.2468   -2.7510 H   0  0  0  0  0  0  0  0  0  0  0  0
   -0.0019    3.4528   -2.2740 C   0  0  0  0  0  0  0  0  0  0  0  0
    0.1580    3.1254   -3.3023 H   0  0  0  0  0  0  0  0  0  0  0  0
    0.9531    3.8259   -1.9033 H   0  0  0  0  0  0  0  0  0  0  0  0
   -0.4564    1.9812   -1.3178 S   0  0  0  0  0  0  0  0  0  0  0  0
   -1.3272    5.1647   -0.9090 C   0  0  0  0  0  0  0  0  0  0  0  0
   -0.6550    6.0862   -0.4440 O   0  0  0  0  0  0  0  0  0  0  0  0
   -2.3511    4.6115   -0.2464 N   0  0  0  0  0  0  0  0  0  0  0  0
   -2.8302    3.8392   -0.6818 H   0  0  0  0  0  0  0  0  0  0  0  0
   -2.7778    5.0139    1.0932 C   0  0  0  0  0  0  0  0  0  0  0  0
   -2.0655    4.6443    1.8327 H   0  0  0  0  0  0  0  0  0  0  0  0
   -2.8167    6.1037    1.1612 H   0  0  0  0  0  0  0  0  0  0  0  0
   -3.7656    4.6081    1.3118 H   0  0  0  0  0  0  0  0  0  0  0  0
  5  6  2  0  0  0  0
  5  7  1  0  0  0  0
  2  3  1  0  0  0  0
  2  4  1  0  0  0  0
  2  5  1  0  0  0  0
  1  2  1  0  0  0  0
 15 16  2  0  0  0  0
 15 17  1  0  0  0  0
 14 36  1  0  0  0  0
 11 12  1  0  0  0  0
 11 13  1  0  0  0  0
 11 14  1  0  0  0  0
  9 10  1  0  0  0  0
  9 11  1  0  0  0  0
  9 15  1  0  0  0  0
  7  8  1  0  0  0  0
  7  9  1  0  0  0  0
 19 20  1  0  0  0  0
 19 21  1  0  0  0  0
 19 22  1  0  0  0  0
 17 18  1  0  0  0  0
 17 19  1  0  0  0  0
 27 28  2  0  0  0  0
 27 29  1  0  0  0  0
 24 25  1  0  0  0  0
 24 26  1  0  0  0  0
 24 27  1  0  0  0  0
 23 24  1  0  0  0  0
 37 38  2  0  0  0  0
 37 39  1  0  0  0  0
 33 34  1  0  0  0  0
 33 35  1  0  0  0  0
 33 36  1  0  0  0  0
 31 32  1  0  0  0  0
 31 33  1  0  0  0  0
 31 37  1  0  0  0  0
 29 30  1  0  0  0  0
 29 31  1  0  0  0  0
 41 42  1  0  0  0  0
 41 43  1  0  0  0  0
 41 44  1  0  0  0  0
 39 40  1  0  0  0  0
 39 41  1  0  0  0  0
M  END
$$$$
default_name
  -OEChem-01062215323D

 44 43  0     1  0  0  0  0  0999 V2000
    2.4488   -3.0448    2.0990 H   0  0  0  0  0  0  0  0  0  0  0  0
    2.2788   -2.0018    2.3640 C   0  0  0  0  0  0  0  0  0  0  0  0
    2.9228   -1.7258    3.1960 H   0  0  0  0  0  0  0  0  0  0  0  0
    1.2358   -1.8618    2.6430 H   0  0  0  0  0  0  0  0  0  0  0  0
    2.6018   -1.1318    1.1730 C   0  0  0  0  0  0  0  0  0  0  0  0
    3.0048   -1.6348    0.1320 O   0  0  0  0  0  0  0  0  0  0  0  0
    2.4088    0.1752    1.3190 N   0  0  0  0  0  0  0  0  0  0  0  0
    2.0708    0.5242    2.2050 H   0  0  0  0  0  0  0  0  0  0  0  0
    2.6638    1.1782    0.2840 C   0  0  1  0  0  0  0  0  0  0  0  0
    2.2842    0.7922   -0.6636 H   0  0  0  0  0  0  0  0  0  0  0  0
    1.8969    2.4705    0.6147 C   0  0  0  0  0  0  0  0  0  0  0  0
    2.2203    3.2553   -0.0702 H   0  0  0  0  0  0  0  0  0  0  0  0
    2.1973    2.7903    1.6121 H   0  0  0  0  0  0  0  0  0  0  0  0
    0.0806    2.4076    0.6052 S   0  0  0  0  0  0  0  0  0  0  0  0
    4.1739    1.4311    0.1171 C   0  0  0  0  0  0  0  0  0  0  0  0
    4.9635    0.4883    0.0634 O   0  0  0  0  0  0  0  0  0  0  0  0
    4.5740    2.7066    0.0284 N   0  0  0  0  0  0  0  0  0  0  0  0
    3.8740    3.4293    0.0770 H   0  0  0  0  0  0  0  0  0  0  0  0
    5.9698    3.1097   -0.1297 C   0  0  0  0  0  0  0  0  0  0  0  0
    6.5460    2.7866    0.7400 H   0  0  0  0  0  0  0  0  0  0  0  0
    6.3923    2.6380   -1.0187 H   0  0  0  0  0  0  0  0  0  0  0  0
    6.0427    4.1936   -0.2279 H   0  0  0  0  0  0  0  0  0  0  0  0
    0.0111    6.7197   -6.2667 H   0  0  0  0  0  0  0  0  0  0  0  0
    0.1271    6.8429   -5.1910 C   0  0  0  0  0  0  0  0  0  0  0  0
   -0.3645    7.7603   -4.8712 H   0  0  0  0  0  0  0  0  0  0  0  0
    1.1854    6.8841   -4.9400 H   0  0  0  0  0  0  0  0  0  0  0  0
   -0.5079    5.6643   -4.4911 C   0  0  0  0  0  0  0  0  0  0  0  0
   -1.0283    4.7671   -5.1400 O   0  0  0  0  0  0  0  0  0  0  0  0
   -0.4561    5.6651   -3.1617 N   0  0  0  0  0  0  0  0  0  0  0  0
   -0.0193    6.4446   -2.6916 H   0  0  0  0  0  0  0  0  0  0  0  0
   -1.0078    4.6120   -2.3093 C   0  0  1  0  0  0  0  0  0  0  0  0
   -1.9367    4.2468   -2.7510 H   0  0  0  0  0  0  0  0  0  0  0  0
   -0.0019    3.4528   -2.2740 C   0  0  0  0  0  0  0  0  0  0  0  0
    0.1580    3.1254   -3.3023 H   0  0  0  0  0  0  0  0  0  0  0  0
    0.9531    3.8259   -1.9033 H   0  0  0  0  0  0  0  0  0  0  0  0
   -0.4564    1.9812   -1.3178 S   0  0  0  0  0  0  0  0  0  0  0  0
   -1.3272    5.1647   -0.9090 C   0  0  0  0  0  0  0  0  0  0  0  0
   -0.6550    6.0862   -0.4440 O   0  0  0  0  0  0  0  0  0  0  0  0
   -2.3511    4.6115   -0.2464 N   0  0  0  0  0  0  0  0  0  0  0  0
   -2.8302    3.8392   -0.6818 H   0  0  0  0  0  0  0  0  0  0  0  0
   -2.7778    5.0139    1.0932 C   0  0  0  0  0  0  0  0  0  0  0  0
   -2.0655    4.6443    1.8327 H   0  0  0  0  0  0  0  0  0  0  0  0
   -2.8167    6.1037    1.1612 H   0  0  0  0  0  0  0  0  0  0  0  0
   -3.7656    4.6081    1.3118 H   0  0  0  0  0  0  0  0  0  0  0  0
  5  6  2  0  0  0  0
  5  7  1  0  0  0  0
  2  3  1  0  0  0  0
  2  4  1  0  0  0  0
  2  5  1  0  0  0  0
  1  2  1  0  0  0  0
 15 16  2  0  0  0  0
 15 17  1  0  0  0  0
 14 36  1  0  0  0  0
 11 12  1  0  0  0  0
 11 13  1  0  0  0  0
 11 14  1  0  0  0  0
  9 10  1  0  0  0  0
  9 11  1  0  0  0  0
  9 15  1  0  0  0  0
  7  8  1  0  0  0  0
  7  9  1  0  0  0  0
 19 20  1  0  0  0  0
 19 21  1  0  0  0  0
 19 22  1  0  0  0  0
 17 18  1  0  0  0  0
 17 19  1  0  0  0  0
 27 28  2  0  0  0  0
 27 29  1  0  0  0  0
 24 25  1  0  0  0  0
 24 26  1  0  0  0  0
 24 27  1  0  0  0  0
 23 24  1  0  0  0  0
 37 38  2  0  0  0  0
 37 39  1  0  0  0  0
 33 34  1  0  0  0  0
 33 35  1  0  0  0  0
 33 36  1  0  0  0  0
 31 32  1  0  0  0  0
 31 33  1  0  0  0  0
 31 37  1  0  0  0  0
 29 30  1  0  0  0  0
 29 31  1  0  0  0  0
 41 42  1  0  0  0  0
 41 43  1  0  0  0  0
 41 44  1  0  0  0  0
 39 40  1  0  0  0  0
 39 41  1  0  0  0  0
M  END
$$$$
default_name
  -OEChem-01062215323D

 44 43  0     1  0  0  0  0  0999 V2000
    2.4488   -3.0448    2.0990 H   0  0  0  0  0  0  0  0  0  0  0  0
    2.2788   -2.0018    2.3640 C   0  0  0  0  0  0  0  0  0  0  0  0
    2.9228   -1.7258    3.1960 H   0  0  0  0  0  0  0  0  0  0  0  0
    1.2358   -1.8618    2.6430 H   0  0  0  0  0  0  0  0  0  0  0  0
    2.6018   -1.1318    1.1730 C   0  0  0  0  0  0  0  0  0  0  0  0
    3.0048   -1.6348    0.1320 O   0  0  0  0  0  0  0  0  0  0  0  0
    2.4088    0.1752    1.3190 N   0  0  0  0  0  0  0  0  0  0  0  0
    2.0708    0.5242    2.2050 H   0  0  0  0  0  0  0  0  0  0  0  0
    2.6638    1.1782    0.2840 C   0  0  1  0  0  0  0  0  0  0  0  0
    2.2842    0.7922   -0.6636 H   0  0  0  0  0  0  0  0  0  0  0  0
    1.8969    2.4705    0.6147 C   0  0  0  0  0  0  0  0  0  0  0  0
    2.2203    3.2553   -0.0702 H   0  0  0  0  0  0  0  0  0  0  0  0
    2.1973    2.7903    1.6121 H   0  0  0  0  0  0  0  0  0  0  0  0
    0.0806    2.4076    0.6052 S   0  0  0  0  0  0  0  0  0  0  0  0
    4.1739    1.4311    0.1171 C   0  0  0  0  0  0  0  0  0  0  0  0
    4.9287    0.5155   -0.2099 O   0  0  0  0  0  0  0  0  0  0  0  0
    4.6128    2.6779    0.3358 N   0  0  0  0  0  0  0  0  0  0  0  0
    3.9398    3.3800    0.5980 H   0  0  0  0  0  0  0  0  0  0  0  0
    6.0142    3.0763    0.2207 C   0  0  0  0  0  0  0  0  0  0  0  0
    6.6125    2.5297    0.9527 H   0  0  0  0  0  0  0  0  0  0  0  0
    6.3856    2.8368   -0.7773 H   0  0  0  0  0  0  0  0  0  0  0  0
    6.1195    4.1476    0.3968 H   0  0  0  0  0  0  0  0  0  0  0  0
    0.0111    6.7197   -6.2667 H   0  0  0  0  0  0  0  0  0  0  0  0
    0.1271    6.8429   -5.1910 C   0  0  0  0  0  0  0  0  0  0  0  0
   -0.3645    7.7603   -4.8712 H   0  0  0  0  0  0  0  0  0  0  0  0
    1.1854    6.8841   -4.9400 H   0  0  0  0  0  0  0  0  0  0  0  0
   -0.5079    5.6643   -4.4911 C   0  0  0  0  0  0  0  0  0  0  0  0
   -1.0283    4.7671   -5.1400 O   0  0  0  0  0  0  0  0  0  0  0  0
   -0.4561    5.6651   -3.1617 N   0  0  0  0  0  0  0  0  0  0  0  0
   -0.0193    6.4446   -2.6916 H   0  0  0  0  0  0  0  0  0  0  0  0
   -1.0078    4.6120   -2.3093 C   0  0  1  0  0  0  0  0  0  0  0  0
   -1.9367    4.2468   -2.7510 H   0  0  0  0  0  0  0  0  0  0  0  0
   -0.0019    3.4528   -2.2740 C   0  0  0  0  0  0  0  0  0  0  0  0
    0.1580    3.1254   -3.3023 H   0  0  0  0  0  0  0  0  0  0  0  0
    0.9531    3.8259   -1.9033 H   0  0  0  0  0  0  0  0  0  0  0  0
   -0.4564    1.9812   -1.3178 S   0  0  0  0  0  0  0  0  0  0  0  0
   -1.3272    5.1647   -0.9090 C   0  0  0  0  0  0  0  0  0  0  0  0
   -0.6550    6.0862   -0.4440 O   0  0  0  0  0  0  0  0  0  0  0  0
   -2.3511    4.6115   -0.2464 N   0  0  0  0  0  0  0  0  0  0  0  0
   -2.8302    3.8392   -0.6818 H   0  0  0  0  0  0  0  0  0  0  0  0
   -2.7778    5.0139    1.0932 C   0  0  0  0  0  0  0  0  0  0  0  0
   -2.0655    4.6443    1.8327 H   0  0  0  0  0  0  0  0  0  0  0  0
   -2.8167    6.1037    1.1612 H   0  0  0  0  0  0  0  0  0  0  0  0
   -3.7656    4.6081    1.3118 H   0  0  0  0  0  0  0  0  0  0  0  0
  5  6  2  0  0  0  0
  5  7  1  0  0  0  0
  2  3  1  0  0  0  0
  2  4  1  0  0  0  0
  2  5  1  0  0  0  0
  1  2  1  0  0  0  0
 15 16  2  0  0  0  0
 15 17  1  0  0  0  0
 14 36  1  0  0  0  0
 11 12  1  0  0  0  0
 11 13  1  0  0  0  0
 11 14  1  0  0  0  0
  9 10  1  0  0  0  0
  9 11  1  0  0  0  0
  9 15  1  0  0  0  0
  7  8  1  0  0  0  0
  7  9  1  0  0  0  0
 19 20  1  0  0  0  0
 19 21  1  0  0  0  0
 19 22  1  0  0  0  0
 17 18  1  0  0  0  0
 17 19  1  0  0  0  0
 27 28  2  0  0  0  0
 27 29  1  0  0  0  0
 24 25  1  0  0  0  0
 24 26  1  0  0  0  0
 24 27  1  0  0  0  0
 23 24  1  0  0  0  0
 37 38  2  0  0  0  0
 37 39  1  0  0  0  0
 33 34  1  0  0  0  0
 33 35  1  0  0  0  0
 33 36  1  0  0  0  0
 31 32  1  0  0  0  0
 31 33  1  0  0  0  0
 31 37  1  0  0  0  0
 29 30  1  0  0  0  0
 29 31  1  0  0  0  0
 41 42  1  0  0  0  0
 41 43  1  0  0  0  0
 41 44  1  0  0  0  0
 39 40  1  0  0  0  0
 39 41  1  0  0  0  0
M  END
$$$$
default_name
  -OEChem-01062215323D

 44 43  0     1  0  0  0  0  0999 V2000
    2.4488   -3.0448    2.0990 H   0  0  0  0  0  0  0  0  0  0  0  0
    2.2788   -2.0018    2.3640 C   0  0  0  0  0  0  0  0  0  0  0  0
    2.9228   -1.7258    3.1960 H   0  0  0  0  0  0  0  0  0  0  0  0
    1.2358   -1.8618    2.6430 H   0  0  0  0  0  0  0  0  0  0  0  0
    2.6018   -1.1318    1.1730 C   0  0  0  0  0  0  0  0  0  0  0  0
    3.0048   -1.6348    0.1320 O   0  0  0  0  0  0  0  0  0  0  0  0
    2.4088    0.1752    1.3190 N   0  0  0  0  0  0  0  0  0  0  0  0
    2.0708    0.5242    2.2050 H   0  0  0  0  0  0  0  0  0  0  0  0
    2.6638    1.1782    0.2840 C   0  0  1  0  0  0  0  0  0  0  0  0
    2.2842    0.7922   -0.6636 H   0  0  0  0  0  0  0  0  0  0  0  0
    1.8969    2.4705    0.6147 C   0  0  0  0  0  0  0  0  0  0  0  0
    2.2203    3.2553   -0.0702 H   0  0  0  0  0  0  0  0  0  0  0  0
    2.1973    2.7903    1.6121 H   0  0  0  0  0  0  0  0  0  0  0  0
    0.0806    2.4076    0.6052 S   0  0  0  0  0  0  0  0  0  0  0  0
    4.1739    1.4311    0.1171 C   0  0  0  0  0  0  0  0  0  0  0  0
    4.8843    0.6120   -0.4655 O   0  0  0  0  0  0  0  0  0  0  0  0
    4.6625    2.5710    0.6238 N   0  0  0  0  0  0  0  0  0  0  0  0
    4.0242    3.1984    1.0860 H   0  0  0  0  0  0  0  0  0  0  0  0
    6.0709    2.9539    0.5489 C   0  0  0  0  0  0  0  0  0  0  0  0
    6.6786    2.2257    1.0902 H   0  0  0  0  0  0  0  0  0  0  0  0
    6.3951    2.9679   -0.4934 H   0  0  0  0  0  0  0  0  0  0  0  0
    6.2189    3.9425    0.9853 H   0  0  0  0  0  0  0  0  0  0  0  0
    0.0111    6.7197   -6.2667 H   0  0  0  0  0  0  0  0  0  0  0  0
    0.1271    6.8429   -5.1910 C   0  0  0  0  0  0  0  0  0  0  0  0
   -0.3645    7.7603   -4.8712 H   0  0  0  0  0  0  0  0  0  0  0  0
    1.1854    6.8841   -4.9400 H   0  0  0  0  0  0  0  0  0  0  0  0
   -0.5079    5.6643   -4.4911 C   0  0  0  0  0  0  0  0  0  0  0  0
   -1.0283    4.7671   -5.1400 O   0  0  0  0  0  0  0  0  0  0  0  0
   -0.4561    5.6651   -3.1617 N   0  0  0  0  0  0  0  0  0  0  0  0
   -0.0193    6.4446   -2.6916 H   0  0  0  0  0  0  0  0  0  0  0  0
   -1.0078    4.6120   -2.3093 C   0  0  1  0  0  0  0  0  0  0  0  0
   -1.9367    4.2468   -2.7510 H   0  0  0  0  0  0  0  0  0  0  0  0
   -0.0019    3.4528   -2.2740 C   0  0  0  0  0  0  0  0  0  0  0  0
    0.1580    3.1254   -3.3023 H   0  0  0  0  0  0  0  0  0  0  0  0
    0.9531    3.8259   -1.9033 H   0  0  0  0  0  0  0  0  0  0  0  0
   -0.4564    1.9812   -1.3178 S   0  0  0  0  0  0  0  0  0  0  0  0
   -1.3272    5.1647   -0.9090 C   0  0  0  0  0  0  0  0  0  0  0  0
   -0.6550    6.0862   -0.4440 O   0  0  0  0  0  0  0  0  0  0  0  0
   -2.3511    4.6115   -0.2464 N   0  0  0  0  0  0  0  0  0  0  0  0
   -2.8302    3.8392   -0.6818 H   0  0  0  0  0  0  0  0  0  0  0  0
   -2.7778    5.0139    1.0932 C   0  0  0  0  0  0  0  0  0  0  0  0
   -2.0655    4.6443    1.8327 H   0  0  0  0  0  0  0  0  0  0  0  0
   -2.8167    6.1037    1.1612 H   0  0  0  0  0  0  0  0  0  0  0  0
   -3.7656    4.6081    1.3118 H   0  0  0  0  0  0  0  0  0  0  0  0
  5  6  2  0  0  0  0
  5  7  1  0  0  0  0
  2  3  1  0  0  0  0
  2  4  1  0  0  0  0
  2  5  1  0  0  0  0
  1  2  1  0  0  0  0
 15 16  2  0  0  0  0
 15 17  1  0  0  0  0
 14 36  1  0  0  0  0
 11 12  1  0  0  0  0
 11 13  1  0  0  0  0
 11 14  1  0  0  0  0
  9 10  1  0  0  0  0
  9 11  1  0  0  0  0
  9 15  1  0  0  0  0
  7  8  1  0  0  0  0
  7  9  1  0  0  0  0
 19 20  1  0  0  0  0
 19 21  1  0  0  0  0
 19 22  1  0  0  0  0
 17 18  1  0  0  0  0
 17 19  1  0  0  0  0
 27 28  2  0  0  0  0
 27 29  1  0  0  0  0
 24 25  1  0  0  0  0
 24 26  1  0  0  0  0
 24 27  1  0  0  0  0
 23 24  1  0  0  0  0
 37 38  2  0  0  0  0
 37 39  1  0  0  0  0
 33 34  1  0  0  0  0
 33 35  1  0  0  0  0
 33 36  1  0  0  0  0
 31 32  1  0  0  0  0
 31 33  1  0  0  0  0
 31 37  1  0  0  0  0
 29 30  1  0  0  0  0
 29 31  1  0  0  0  0
 41 42  1  0  0  0  0
 41 43  1  0  0  0  0
 41 44  1  0  0  0  0
 39 40  1  0  0  0  0
 39 41  1  0  0  0  0
M  END
$$$$
default_name
  -OEChem-01062215323D

 44 43  0     1  0  0  0  0  0999 V2000
    2.4488   -3.0448    2.0990 H   0  0  0  0  0  0  0  0  0  0  0  0
    2.2788   -2.0018    2.3640 C   0  0  0  0  0  0  0  0  0  0  0  0
    2.9228   -1.7258    3.1960 H   0  0  0  0  0  0  0  0  0  0  0  0
    1.2358   -1.8618    2.6430 H   0  0  0  0  0  0  0  0  0  0  0  0
    2.6018   -1.1318    1.1730 C   0  0  0  0  0  0  0  0  0  0  0  0
    3.0048   -1.6348    0.1320 O   0  0  0  0  0  0  0  0  0  0  0  0
    2.4088    0.1752    1.3190 N   0  0  0  0  0  0  0  0  0  0  0  0
    2.0708    0.5242    2.2050 H   0  0  0  0  0  0  0  0  0  0  0  0
    2.6638    1.1782    0.2840 C   0  0  1  0  0  0  0  0  0  0  0  0
    2.2842    0.7922   -0.6636 H   0  0  0  0  0  0  0  0  0  0  0  0
    1.8969    2.4705    0.6147 C   0  0  0  0  0  0  0  0  0  0  0  0
    2.2203    3.2553   -0.0702 H   0  0  0  0  0  0  0  0  0  0  0  0
    2.1973    2.7903    1.6121 H   0  0  0  0  0  0  0  0  0  0  0  0
    0.0806    2.4076    0.6052 S   0  0  0  0  0  0  0  0  0  0  0  0
    4.1739    1.4311    0.1171 C   0  0  0  0  0  0  0  0  0  0  0  0
    4.8333    0.7713   -0.6860 O   0  0  0  0  0  0  0  0  0  0  0  0
    4.7198    2.3933    0.8728 N   0  0  0  0  0  0  0  0  0  0  0  0
    4.1213    2.8967    1.5076 H   0  0  0  0  0  0  0  0  0  0  0  0
    6.1363    2.7508    0.8323 C   0  0  0  0  0  0  0  0  0  0  0  0
    6.7398    1.8954    1.1430 H   0  0  0  0  0  0  0  0  0  0  0  0
    6.4199    3.0221   -0.1862 H   0  0  0  0  0  0  0  0  0  0  0  0
    6.3341    3.5923    1.4976 H   0  0  0  0  0  0  0  0  0  0  0  0
    0.0111    6.7197   -6.2667 H   0  0  0  0  0  0  0  0  0  0  0  0
    0.1271    6.8429   -5.1910 C   0  0  0  0  0  0  0  0  0  0  0  0
   -0.3645    7.7603   -4.8712 H   0  0  0  0  0  0  0  0  0  0  0  0
    1.1854    6.8841   -4.9400 H   0  0  0  0  0  0  0  0  0  0  0  0
   -0.5079    5.6643   -4.4911 C   0  0  0  0  0  0  0  0  0  0  0  0
   -1.0283    4.7671   -5.1400 O   0  0  0  0  0  0  0  0  0  0  0  0
   -0.4561    5.6651   -3.1617 N   0  0  0  0  0  0  0  0  0  0  0  0
   -0.0193    6.4446   -2.6916 H   0  0  0  0  0  0  0  0  0  0  0  0
   -1.0078    4.6120   -2.3093 C   0  0  1  0  0  0  0  0  0  0  0  0
   -1.9367    4.2468   -2.7510 H   0  0  0  0  0  0  0  0  0  0  0  0
   -0.0019    3.4528   -2.2740 C   0  0  0  0  0  0  0  0  0  0  0  0
    0.1580    3.1254   -3.3023 H   0  0  0  0  0  0  0  0  0  0  0  0
    0.9531    3.8259   -1.9033 H   0  0  0  0  0  0  0  0  0  0  0  0
   -0.4564    1.9812   -1.3178 S   0  0  0  0  0  0  0  0  0  0  0  0
   -1.3272    5.1647   -0.9090 C   0  0  0  0  0  0  0  0  0  0  0  0
   -0.6550    6.0862   -0.4440 O   0  0  0  0  0  0  0  0  0  0  0  0
   -2.3511    4.6115   -0.2464 N   0  0  0  0  0  0  0  0  0  0  0  0
   -2.8302    3.8392   -0.6818 H   0  0  0  0  0  0  0  0  0  0  0  0
   -2.7778    5.0139    1.0932 C   0  0  0  0  0  0  0  0  0  0  0  0
   -2.0655    4.6443    1.8327 H   0  0  0  0  0  0  0  0  0  0  0  0
   -2.8167    6.1037    1.1612 H   0  0  0  0  0  0  0  0  0  0  0  0
   -3.7656    4.6081    1.3118 H   0  0  0  0  0  0  0  0  0  0  0  0
  5  6  2  0  0  0  0
  5  7  1  0  0  0  0
  2  3  1  0  0  0  0
  2  4  1  0  0  0  0
  2  5  1  0  0  0  0
  1  2  1  0  0  0  0
 15 16  2  0  0  0  0
 15 17  1  0  0  0  0
 14 36  1  0  0  0  0
 11 12  1  0  0  0  0
 11 13  1  0  0  0  0
 11 14  1  0  0  0  0
  9 10  1  0  0  0  0
  9 11  1  0  0  0  0
  9 15  1  0  0  0  0
  7  8  1  0  0  0  0
  7  9  1  0  0  0  0
 19 20  1  0  0  0  0
 19 21  1  0  0  0  0
 19 22  1  0  0  0  0
 17 18  1  0  0  0  0
 17 19  1  0  0  0  0
 27 28  2  0  0  0  0
 27 29  1  0  0  0  0
 24 25  1  0  0  0  0
 24 26  1  0  0  0  0
 24 27  1  0  0  0  0
 23 24  1  0  0  0  0
 37 38  2  0  0  0  0
 37 39  1  0  0  0  0
 33 34  1  0  0  0  0
 33 35  1  0  0  0  0
 33 36  1  0  0  0  0
 31 32  1  0  0  0  0
 31 33  1  0  0  0  0
 31 37  1  0  0  0  0
 29 30  1  0  0  0  0
 29 31  1  0  0  0  0
 41 42  1  0  0  0  0
 41 43  1  0  0  0  0
 41 44  1  0  0  0  0
 39 40  1  0  0  0  0
 39 41  1  0  0  0  0
M  END
$$$$
default_name
  -OEChem-01062215323D

 44 43  0     1  0  0  0  0  0999 V2000
    2.4488   -3.0448    2.0990 H   0  0  0  0  0  0  0  0  0  0  0  0
    2.2788   -2.0018    2.3640 C   0  0  0  0  0  0  0  0  0  0  0  0
    2.9228   -1.7258    3.1960 H   0  0  0  0  0  0  0  0  0  0  0  0
    1.2358   -1.8618    2.6430 H   0  0  0  0  0  0  0  0  0  0  0  0
    2.6018   -1.1318    1.1730 C   0  0  0  0  0  0  0  0  0  0  0  0
    3.0048   -1.6348    0.1320 O   0  0  0  0  0  0  0  0  0  0  0  0
    2.4088    0.1752    1.3190 N   0  0  0  0  0  0  0  0  0  0  0  0
    2.0708    0.5242    2.2050 H   0  0  0  0  0  0  0  0  0  0  0  0
    2.6638    1.1782    0.2840 C   0  0  1  0  0  0  0  0  0  0  0  0
    2.2842    0.7922   -0.6636 H   0  0  0  0  0  0  0  0  0  0  0  0
    1.8969    2.4705    0.6147 C   0  0  0  0  0  0  0  0  0  0  0  0
    2.2203    3.2553   -0.0702 H   0  0  0  0  0  0  0  0  0  0  0  0
    2.1973    2.7903    1.6121 H   0  0  0  0  0  0  0  0  0  0  0  0
    0.0806    2.4076    0.6052 S   0  0  0  0  0  0  0  0  0  0  0  0
    4.1739    1.4311    0.1171 C   0  0  0  0  0  0  0  0  0  0  0  0
    4.7790    0.9826   -0.8564 O   0  0  0  0  0  0  0  0  0  0  0  0
    4.7807    2.1569    1.0657 N   0  0  0  0  0  0  0  0  0  0  0  0
    4.2246    2.4956    1.8343 H   0  0  0  0  0  0  0  0  0  0  0  0
    6.2057    2.4809    1.0518 C   0  0  0  0  0  0  0  0  0  0  0  0
    6.7919    1.5611    1.1077 H   0  0  0  0  0  0  0  0  0  0  0  0
    6.4585    2.9959    0.1232 H   0  0  0  0  0  0  0  0  0  0  0  0
    6.4574    3.1208    1.8985 H   0  0  0  0  0  0  0  0  0  0  0  0
    0.0111    6.7197   -6.2667 H   0  0  0  0  0  0  0  0  0  0  0  0
    0.1271    6.8429   -5.1910 C   0  0  0  0  0  0  0  0  0  0  0  0
   -0.3645    7.7603   -4.8712 H   0  0  0  0  0  0  0  0  0  0  0  0
    1.1854    6.8841   -4.9400 H   0  0  0  0  0  0  0  0  0  0  0  0
   -0.5079    5.6643   -4.4911 C   0  0  0  0  0  0  0  0  0  0  0  0
   -1.0283    4.7671   -5.1400 O   0  0  0  0  0  0  0  0  0  0  0  0
   -0.4561    5.6651   -3.1617 N   0  0  0  0  0  0  0  0  0  0  0  0
   -0.0193    6.4446   -2.6916 H   0  0  0  0  0  0  0  0  0  0  0  0
   -1.0078    4.6120   -2.3093 C   0  0  1  0  0  0  0  0  0  0  0  0
   -1.9367    4.2468   -2.7510 H   0  0  0  0  0  0  0  0  0  0  0  0
   -0.0019    3.4528   -2.2740 C   0  0  0  0  0  0  0  0  0  0  0  0
    0.1580    3.1254   -3.3023 H   0  0  0  0  0  0  0  0  0  0  0  0
    0.9531    3.8259   -1.9033 H   0  0  0  0  0  0  0  0  0  0  0  0
   -0.4564    1.9812   -1.3178 S   0  0  0  0  0  0  0  0  0  0  0  0
   -1.3272    5.1647   -0.9090 C   0  0  0  0  0  0  0  0  0  0  0  0
   -0.6550    6.0862   -0.4440 O   0  0  0  0  0  0  0  0  0  0  0  0
   -2.3511    4.6115   -0.2464 N   0  0  0  0  0  0  0  0  0  0  0  0
   -2.8302    3.8392   -0.6818 H   0  0  0  0  0  0  0  0  0  0  0  0
   -2.7778    5.0139    1.0932 C   0  0  0  0  0  0  0  0  0  0  0  0
   -2.0655    4.6443    1.8327 H   0  0  0  0  0  0  0  0  0  0  0  0
   -2.8167    6.1037    1.1612 H   0  0  0  0  0  0  0  0  0  0  0  0
   -3.7656    4.6081    1.3118 H   0  0  0  0  0  0  0  0  0  0  0  0
  5  6  2  0  0  0  0
  5  7  1  0  0  0  0
  2  3  1  0  0  0  0
  2  4  1  0  0  0  0
  2  5  1  0  0  0  0
  1  2  1  0  0  0  0
 15 16  2  0  0  0  0
 15 17  1  0  0  0  0
 14 36  1  0  0  0  0
 11 12  1  0  0  0  0
 11 13  1  0  0  0  0
 11 14  1  0  0  0  0
  9 10  1  0  0  0  0
  9 11  1  0  0  0  0
  9 15  1  0  0  0  0
  7  8  1  0  0  0  0
  7  9  1  0  0  0  0
 19 20  1  0  0  0  0
 19 21  1  0  0  0  0
 19 22  1  0  0  0  0
 17 18  1  0  0  0  0
 17 19  1  0  0  0  0
 27 28  2  0  0  0  0
 27 29  1  0  0  0  0
 24 25  1  0  0  0  0
 24 26  1  0  0  0  0
 24 27  1  0  0  0  0
 23 24  1  0  0  0  0
 37 38  2  0  0  0  0
 37 39  1  0  0  0  0
 33 34  1  0  0  0  0
 33 35  1  0  0  0  0
 33 36  1  0  0  0  0
 31 32  1  0  0  0  0
 31 33  1  0  0  0  0
 31 37  1  0  0  0  0
 29 30  1  0  0  0  0
 29 31  1  0  0  0  0
 41 42  1  0  0  0  0
 41 43  1  0  0  0  0
 41 44  1  0  0  0  0
 39 40  1  0  0  0  0
 39 41  1  0  0  0  0
M  END
$$$$
default_name
  -OEChem-01062215323D

 44 43  0     1  0  0  0  0  0999 V2000
    2.4488   -3.0448    2.0990 H   0  0  0  0  0  0  0  0  0  0  0  0
    2.2788   -2.0018    2.3640 C   0  0  0  0  0  0  0  0  0  0  0  0
    2.9228   -1.7258    3.1960 H   0  0  0  0  0  0  0  0  0  0  0  0
    1.2358   -1.8618    2.6430 H   0  0  0  0  0  0  0  0  0  0  0  0
    2.6018   -1.1318    1.1730 C   0  0  0  0  0  0  0  0  0  0  0  0
    3.0048   -1.6348    0.1320 O   0  0  0  0  0  0  0  0  0  0  0  0
    2.4088    0.1752    1.3190 N   0  0  0  0  0  0  0  0  0  0  0  0
    2.0708    0.5242    2.2050 H   0  0  0  0  0  0  0  0  0  0  0  0
    2.6638    1.1782    0.2840 C   0  0  1  0  0  0  0  0  0  0  0  0
    2.2842    0.7922   -0.6636 H   0  0  0  0  0  0  0  0  0  0  0  0
    1.8969    2.4705    0.6147 C   0  0  0  0  0  0  0  0  0  0  0  0
    2.2203    3.2553   -0.0702 H   0  0  0  0  0  0  0  0  0  0  0  0
    2.1973    2.7903    1.6121 H   0  0  0  0  0  0  0  0  0  0  0  0
    0.0806    2.4076    0.6052 S   0  0  0  0  0  0  0  0  0  0  0  0
    4.1739    1.4311    0.1171 C   0  0  0  0  0  0  0  0  0  0  0  0
    4.7253    1.2315   -0.9651 O   0  0  0  0  0  0  0  0  0  0  0  0
    4.8411    1.8778    1.1895 N   0  0  0  0  0  0  0  0  0  0  0  0
    4.3270    2.0224    2.0436 H   0  0  0  0  0  0  0  0  0  0  0  0
    6.2746    2.1625    1.1924 C   0  0  0  0  0  0  0  0  0  0  0  0
    6.8313    1.2458    0.9865 H   0  0  0  0  0  0  0  0  0  0  0  0
    6.5082    2.8909    0.4137 H   0  0  0  0  0  0  0  0  0  0  0  0
    6.5803    2.5601    2.1609 H   0  0  0  0  0  0  0  0  0  0  0  0
    0.0111    6.7197   -6.2667 H   0  0  0  0  0  0  0  0  0  0  0  0
    0.1271    6.8429   -5.1910 C   0  0  0  0  0  0  0  0  0  0  0  0
   -0.3645    7.7603   -4.8712 H   0  0  0  0  0  0  0  0  0  0  0  0
    1.1854    6.8841   -4.9400 H   0  0  0  0  0  0  0  0  0  0  0  0
   -0.5079    5.6643   -4.4911 C   0  0  0  0  0  0  0  0  0  0  0  0
   -1.0283    4.7671   -5.1400 O   0  0  0  0  0  0  0  0  0  0  0  0
   -0.4561    5.6651   -3.1617 N   0  0  0  0  0  0  0  0  0  0  0  0
   -0.0193    6.4446   -2.6916 H   0  0  0  0  0  0  0  0  0  0  0  0
   -1.0078    4.6120   -2.3093 C   0  0  1  0  0  0  0  0  0  0  0  0
   -1.9367    4.2468   -2.7510 H   0  0  0  0  0  0  0  0  0  0  0  0
   -0.0019    3.4528   -2.2740 C   0  0  0  0  0  0  0  0  0  0  0  0
    0.1580    3.1254   -3.3023 H   0  0  0  0  0  0  0  0  0  0  0  0
    0.9531    3.8259   -1.9033 H   0  0  0  0  0  0  0  0  0  0  0  0
   -0.4564    1.9812   -1.3178 S   0  0  0  0  0  0  0  0  0  0  0  0
   -1.3272    5.1647   -0.9090 C   0  0  0  0  0  0  0  0  0  0  0  0
   -0.6550    6.0862   -0.4440 O   0  0  0  0  0  0  0  0  0  0  0  0
   -2.3511    4.6115   -0.2464 N   0  0  0  0  0  0  0  0  0  0  0  0
   -2.8302    3.8392   -0.6818 H   0  0  0  0  0  0  0  0  0  0  0  0
   -2.7778    5.0139    1.0932 C   0  0  0  0  0  0  0  0  0  0  0  0
   -2.0655    4.6443    1.8327 H   0  0  0  0  0  0  0  0  0  0  0  0
   -2.8167    6.1037    1.1612 H   0  0  0  0  0  0  0  0  0  0  0  0
   -3.7656    4.6081    1.3118 H   0  0  0  0  0  0  0  0  0  0  0  0
  5  6  2  0  0  0  0
  5  7  1  0  0  0  0
  2  3  1  0  0  0  0
  2  4  1  0  0  0  0
  2  5  1  0  0  0  0
  1  2  1  0  0  0  0
 15 16  2  0  0  0  0
 15 17  1  0  0  0  0
 14 36  1  0  0  0  0
 11 12  1  0  0  0  0
 11 13  1  0  0  0  0
 11 14  1  0  0  0  0
  9 10  1  0  0  0  0
  9 11  1  0  0  0  0
  9 15  1  0  0  0  0
  7  8  1  0  0  0  0
  7  9  1  0  0  0  0
 19 20  1  0  0  0  0
 19 21  1  0  0  0  0
 19 22  1  0  0  0  0
 17 18  1  0  0  0  0
 17 19  1  0  0  0  0
 27 28  2  0  0  0  0
 27 29  1  0  0  0  0
 24 25  1  0  0  0  0
 24 26  1  0  0  0  0
 24 27  1  0  0  0  0
 23 24  1  0  0  0  0
 37 38  2  0  0  0  0
 37 39  1  0  0  0  0
 33 34  1  0  0  0  0
 33 35  1  0  0  0  0
 33 36  1  0  0  0  0
 31 32  1  0  0  0  0
 31 33  1  0  0  0  0
 31 37  1  0  0  0  0
 29 30  1  0  0  0  0
 29 31  1  0  0  0  0
 41 42  1  0  0  0  0
 41 43  1  0  0  0  0
 41 44  1  0  0  0  0
 39 40  1  0  0  0  0
 39 41  1  0  0  0  0
M  END
$$$$
default_name
  -OEChem-01062215323D

 44 43  0     1  0  0  0  0  0999 V2000
    2.4488   -3.0448    2.0990 H   0  0  0  0  0  0  0  0  0  0  0  0
    2.2788   -2.0018    2.3640 C   0  0  0  0  0  0  0  0  0  0  0  0
    2.9228   -1.7258    3.1960 H   0  0  0  0  0  0  0  0  0  0  0  0
    1.2358   -1.8618    2.6430 H   0  0  0  0  0  0  0  0  0  0  0  0
    2.6018   -1.1318    1.1730 C   0  0  0  0  0  0  0  0  0  0  0  0
    3.0048   -1.6348    0.1320 O   0  0  0  0  0  0  0  0  0  0  0  0
    2.4088    0.1752    1.3190 N   0  0  0  0  0  0  0  0  0  0  0  0
    2.0708    0.5242    2.2050 H   0  0  0  0  0  0  0  0  0  0  0  0
    2.6638    1.1782    0.2840 C   0  0  1  0  0  0  0  0  0  0  0  0
    2.2842    0.7922   -0.6636 H   0  0  0  0  0  0  0  0  0  0  0  0
    1.8969    2.4705    0.6147 C   0  0  0  0  0  0  0  0  0  0  0  0
    2.2203    3.2553   -0.0702 H   0  0  0  0  0  0  0  0  0  0  0  0
    2.1973    2.7903    1.6121 H   0  0  0  0  0  0  0  0  0  0  0  0
    0.0806    2.4076    0.6052 S   0  0  0  0  0  0  0  0  0  0  0  0
    4.1739    1.4311    0.1171 C   0  0  0  0  0  0  0  0  0  0  0  0
    4.6758    1.5009   -1.0047 O   0  0  0  0  0  0  0  0  0  0  0  0
    4.8969    1.5752    1.2357 N   0  0  0  0  0  0  0  0  0  0  0  0
    4.4215    1.5093    2.1213 H   0  0  0  0  0  0  0  0  0  0  0  0
    6.3382    1.8174    1.2444 C   0  0  0  0  0  0  0  0  0  0  0  0
    6.8554    0.9709    0.7877 H   0  0  0  0  0  0  0  0  0  0  0  0
    6.5656    2.7144    0.6656 H   0  0  0  0  0  0  0  0  0  0  0  0
    6.6945    1.9485    2.2669 H   0  0  0  0  0  0  0  0  0  0  0  0
    0.0111    6.7197   -6.2667 H   0  0  0  0  0  0  0  0  0  0  0  0
    0.1271    6.8429   -5.1910 C   0  0  0  0  0  0  0  0  0  0  0  0
   -0.3645    7.7603   -4.8712 H   0  0  0  0  0  0  0  0  0  0  0  0
    1.1854    6.8841   -4.9400 H   0  0  0  0  0  0  0  0  0  0  0  0
   -0.5079    5.6643   -4.4911 C   0  0  0  0  0  0  0  0  0  0  0  0
   -1.0283    4.7671   -5.1400 O   0  0  0  0  0  0  0  0  0  0  0  0
   -0.4561    5.6651   -3.1617 N   0  0  0  0  0  0  0  0  0  0  0  0
   -0.0193    6.4446   -2.6916 H   0  0  0  0  0  0  0  0  0  0  0  0
   -1.0078    4.6120   -2.3093 C   0  0  1  0  0  0  0  0  0  0  0  0
   -1.9367    4.2468   -2.7510 H   0  0  0  0  0  0  0  0  0  0  0  0
   -0.0019    3.4528   -2.2740 C   0  0  0  0  0  0  0  0  0  0  0  0
    0.1580    3.1254   -3.3023 H   0  0  0  0  0  0  0  0  0  0  0  0
    0.9531    3.8259   -1.9033 H   0  0  0  0  0  0  0  0  0  0  0  0
   -0.4564    1.9812   -1.3178 S   0  0  0  0  0  0  0  0  0  0  0  0
   -1.3272    5.1647   -0.9090 C   0  0  0  0  0  0  0  0  0  0  0  0
   -0.6550    6.0862   -0.4440 O   0  0  0  0  0  0  0  0  0  0  0  0
   -2.3511    4.6115   -0.2464 N   0  0  0  0  0  0  0  0  0  0  0  0
   -2.8302    3.8392   -0.6818 H   0  0  0  0  0  0  0  0  0  0  0  0
   -2.7778    5.0139    1.0932 C   0  0  0  0  0  0  0  0  0  0  0  0
   -2.0655    4.6443    1.8327 H   0  0  0  0  0  0  0  0  0  0  0  0
   -2.8167    6.1037    1.1612 H   0  0  0  0  0  0  0  0  0  0  0  0
   -3.7656    4.6081    1.3118 H   0  0  0  0  0  0  0  0  0  0  0  0
  5  6  2  0  0  0  0
  5  7  1  0  0  0  0
  2  3  1  0  0  0  0
  2  4  1  0  0  0  0
  2  5  1  0  0  0  0
  1  2  1  0  0  0  0
 15 16  2  0  0  0  0
 15 17  1  0  0  0  0
 14 36  1  0  0  0  0
 11 12  1  0  0  0  0
 11 13  1  0  0  0  0
 11 14  1  0  0  0  0
  9 10  1  0  0  0  0
  9 11  1  0  0  0  0
  9 15  1  0  0  0  0
  7  8  1  0  0  0  0
  7  9  1  0  0  0  0
 19 20  1  0  0  0  0
 19 21  1  0  0  0  0
 19 22  1  0  0  0  0
 17 18  1  0  0  0  0
 17 19  1  0  0  0  0
 27 28  2  0  0  0  0
 27 29  1  0  0  0  0
 24 25  1  0  0  0  0
 24 26  1  0  0  0  0
 24 27  1  0  0  0  0
 23 24  1  0  0  0  0
 37 38  2  0  0  0  0
 37 39  1  0  0  0  0
 33 34  1  0  0  0  0
 33 35  1  0  0  0  0
 33 36  1  0  0  0  0
 31 32  1  0  0  0  0
 31 33  1  0  0  0  0
 31 37  1  0  0  0  0
 29 30  1  0  0  0  0
 29 31  1  0  0  0  0
 41 42  1  0  0  0  0
 41 43  1  0  0  0  0
 41 44  1  0  0  0  0
 39 40  1  0  0  0  0
 39 41  1  0  0  0  0
M  END
$$$$
default_name
  -OEChem-01062215323D

 44 43  0     1  0  0  0  0  0999 V2000
    2.4488   -3.0448    2.0990 H   0  0  0  0  0  0  0  0  0  0  0  0
    2.2788   -2.0018    2.3640 C   0  0  0  0  0  0  0  0  0  0  0  0
    2.9228   -1.7258    3.1960 H   0  0  0  0  0  0  0  0  0  0  0  0
    1.2358   -1.8618    2.6430 H   0  0  0  0  0  0  0  0  0  0  0  0
    2.6018   -1.1318    1.1730 C   0  0  0  0  0  0  0  0  0  0  0  0
    3.0048   -1.6348    0.1320 O   0  0  0  0  0  0  0  0  0  0  0  0
    2.4088    0.1752    1.3190 N   0  0  0  0  0  0  0  0  0  0  0  0
    2.0708    0.5242    2.2050 H   0  0  0  0  0  0  0  0  0  0  0  0
    2.6638    1.1782    0.2840 C   0  0  1  0  0  0  0  0  0  0  0  0
    2.2842    0.7922   -0.6636 H   0  0  0  0  0  0  0  0  0  0  0  0
    1.8969    2.4705    0.6147 C   0  0  0  0  0  0  0  0  0  0  0  0
    2.2203    3.2553   -0.0702 H   0  0  0  0  0  0  0  0  0  0  0  0
    2.1973    2.7903    1.6121 H   0  0  0  0  0  0  0  0  0  0  0  0
    0.0806    2.4076    0.6052 S   0  0  0  0  0  0  0  0  0  0  0  0
    4.1739    1.4311    0.1171 C   0  0  0  0  0  0  0  0  0  0  0  0
    4.6339    1.7726   -0.9724 O   0  0  0  0  0  0  0  0  0  0  0  0
    4.9443    1.2696    1.2012 N   0  0  0  0  0  0  0  0  0  0  0  0
    4.5017    0.9913    2.0622 H   0  0  0  0  0  0  0  0  0  0  0  0
    6.3921    1.4690    1.2044 C   0  0  0  0  0  0  0  0  0  0  0  0
    6.8625    0.7551    0.5249 H   0  0  0  0  0  0  0  0  0  0  0  0
    6.6268    2.4784    0.8617 H   0  0  0  0  0  0  0  0  0  0  0  0
    6.7921    1.3277    2.2093 H   0  0  0  0  0  0  0  0  0  0  0  0
    0.0111    6.7197   -6.2667 H   0  0  0  0  0  0  0  0  0  0  0  0
    0.1271    6.8429   -5.1910 C   0  0  0  0  0  0  0  0  0  0  0  0
   -0.3645    7.7603   -4.8712 H   0  0  0  0  0  0  0  0  0  0  0  0
    1.1854    6.8841   -4.9400 H   0  0  0  0  0  0  0  0  0  0  0  0
   -0.5079    5.6643   -4.4911 C   0  0  0  0  0  0  0  0  0  0  0  0
   -1.0283    4.7671   -5.1400 O   0  0  0  0  0  0  0  0  0  0  0  0
   -0.4561    5.6651   -3.1617 N   0  0  0  0  0  0  0  0  0  0  0  0
   -0.0193    6.4446   -2.6916 H   0  0  0  0  0  0  0  0  0  0  0  0
   -1.0078    4.6120   -2.3093 C   0  0  1  0  0  0  0  0  0  0  0  0
   -1.9367    4.2468   -2.7510 H   0  0  0  0  0  0  0  0  0  0  0  0
   -0.0019    3.4528   -2.2740 C   0  0  0  0  0  0  0  0  0  0  0  0
    0.1580    3.1254   -3.3023 H   0  0  0  0  0  0  0  0  0  0  0  0
    0.9531    3.8259   -1.9033 H   0  0  0  0  0  0  0  0  0  0  0  0
   -0.4564    1.9812   -1.3178 S   0  0  0  0  0  0  0  0  0  0  0  0
   -1.3272    5.1647   -0.9090 C   0  0  0  0  0  0  0  0  0  0  0  0
   -0.6550    6.0862   -0.4440 O   0  0  0  0  0  0  0  0  0  0  0  0
   -2.3511    4.6115   -0.2464 N   0  0  0  0  0  0  0  0  0  0  0  0
   -2.8302    3.8392   -0.6818 H   0  0  0  0  0  0  0  0  0  0  0  0
   -2.7778    5.0139    1.0932 C   0  0  0  0  0  0  0  0  0  0  0  0
   -2.0655    4.6443    1.8327 H   0  0  0  0  0  0  0  0  0  0  0  0
   -2.8167    6.1037    1.1612 H   0  0  0  0  0  0  0  0  0  0  0  0
   -3.7656    4.6081    1.3118 H   0  0  0  0  0  0  0  0  0  0  0  0
  5  6  2  0  0  0  0
  5  7  1  0  0  0  0
  2  3  1  0  0  0  0
  2  4  1  0  0  0  0
  2  5  1  0  0  0  0
  1  2  1  0  0  0  0
 15 16  2  0  0  0  0
 15 17  1  0  0  0  0
 14 36  1  0  0  0  0
 11 12  1  0  0  0  0
 11 13  1  0  0  0  0
 11 14  1  0  0  0  0
  9 10  1  0  0  0  0
  9 11  1  0  0  0  0
  9 15  1  0  0  0  0
  7  8  1  0  0  0  0
  7  9  1  0  0  0  0
 19 20  1  0  0  0  0
 19 21  1  0  0  0  0
 19 22  1  0  0  0  0
 17 18  1  0  0  0  0
 17 19  1  0  0  0  0
 27 28  2  0  0  0  0
 27 29  1  0  0  0  0
 24 25  1  0  0  0  0
 24 26  1  0  0  0  0
 24 27  1  0  0  0  0
 23 24  1  0  0  0  0
 37 38  2  0  0  0  0
 37 39  1  0  0  0  0
 33 34  1  0  0  0  0
 33 35  1  0  0  0  0
 33 36  1  0  0  0  0
 31 32  1  0  0  0  0
 31 33  1  0  0  0  0
 31 37  1  0  0  0  0
 29 30  1  0  0  0  0
 29 31  1  0  0  0  0
 41 42  1  0  0  0  0
 41 43  1  0  0  0  0
 41 44  1  0  0  0  0
 39 40  1  0  0  0  0
 39 41  1  0  0  0  0
M  END
$$$$
default_name
  -OEChem-01062215323D

 44 43  0     1  0  0  0  0  0999 V2000
    2.4488   -3.0448    2.0990 H   0  0  0  0  0  0  0  0  0  0  0  0
    2.2788   -2.0018    2.3640 C   0  0  0  0  0  0  0  0  0  0  0  0
    2.9228   -1.7258    3.1960 H   0  0  0  0  0  0  0  0  0  0  0  0
    1.2358   -1.8618    2.6430 H   0  0  0  0  0  0  0  0  0  0  0  0
    2.6018   -1.1318    1.1730 C   0  0  0  0  0  0  0  0  0  0  0  0
    3.0048   -1.6348    0.1320 O   0  0  0  0  0  0  0  0  0  0  0  0
    2.4088    0.1752    1.3190 N   0  0  0  0  0  0  0  0  0  0  0  0
    2.0708    0.5242    2.2050 H   0  0  0  0  0  0  0  0  0  0  0  0
    2.6638    1.1782    0.2840 C   0  0  1  0  0  0  0  0  0  0  0  0
    2.2842    0.7922   -0.6636 H   0  0  0  0  0  0  0  0  0  0  0  0
    1.8969    2.4705    0.6147 C   0  0  0  0  0  0  0  0  0  0  0  0
    2.2203    3.2553   -0.0702 H   0  0  0  0  0  0  0  0  0  0  0  0
    2.1973    2.7903    1.6121 H   0  0  0  0  0  0  0  0  0  0  0  0
    0.0806    2.4076    0.6052 S   0  0  0  0  0  0  0  0  0  0  0  0
    4.1739    1.4311    0.1171 C   0  0  0  0  0  0  0  0  0  0  0  0
    4.6024    2.0281   -0.8704 O   0  0  0  0  0  0  0  0  0  0  0  0
    4.9800    0.9818    1.0882 N   0  0  0  0  0  0  0  0  0  0  0  0
    4.5622    0.5037    1.8702 H   0  0  0  0  0  0  0  0  0  0  0  0
    6.4327    1.1412    1.0751 C   0  0  0  0  0  0  0  0  0  0  0  0
    6.8521    0.6132    0.2160 H   0  0  0  0  0  0  0  0  0  0  0  0
    6.6876    2.1990    0.9886 H   0  0  0  0  0  0  0  0  0  0  0  0
    6.8665    0.7399    1.9918 H   0  0  0  0  0  0  0  0  0  0  0  0
    0.0111    6.7197   -6.2667 H   0  0  0  0  0  0  0  0  0  0  0  0
    0.1271    6.8429   -5.1910 C   0  0  0  0  0  0  0  0  0  0  0  0
   -0.3645    7.7603   -4.8712 H   0  0  0  0  0  0  0  0  0  0  0  0
    1.1854    6.8841   -4.9400 H   0  0  0  0  0  0  0  0  0  0  0  0
   -0.5079    5.6643   -4.4911 C   0  0  0  0  0  0  0  0  0  0  0  0
   -1.0283    4.7671   -5.1400 O   0  0  0  0  0  0  0  0  0  0  0  0
   -0.4561    5.6651   -3.1617 N   0  0  0  0  0  0  0  0  0  0  0  0
   -0.0193    6.4446   -2.6916 H   0  0  0  0  0  0  0  0  0  0  0  0
   -1.0078    4.6120   -2.3093 C   0  0  1  0  0  0  0  0  0  0  0  0
   -1.9367    4.2468   -2.7510 H   0  0  0  0  0  0  0  0  0  0  0  0
   -0.0019    3.4528   -2.2740 C   0  0  0  0  0  0  0  0  0  0  0  0
    0.1580    3.1254   -3.3023 H   0  0  0  0  0  0  0  0  0  0  0  0
    0.9531    3.8259   -1.9033 H   0  0  0  0  0  0  0  0  0  0  0  0
   -0.4564    1.9812   -1.3178 S   0  0  0  0  0  0  0  0  0  0  0  0
   -1.3272    5.1647   -0.9090 C   0  0  0  0  0  0  0  0  0  0  0  0
   -0.6550    6.0862   -0.4440 O   0  0  0  0  0  0  0  0  0  0  0  0
   -2.3511    4.6115   -0.2464 N   0  0  0  0  0  0  0  0  0  0  0  0
   -2.8302    3.8392   -0.6818 H   0  0  0  0  0  0  0  0  0  0  0  0
   -2.7778    5.0139    1.0932 C   0  0  0  0  0  0  0  0  0  0  0  0
   -2.0655    4.6443    1.8327 H   0  0  0  0  0  0  0  0  0  0  0  0
   -2.8167    6.1037    1.1612 H   0  0  0  0  0  0  0  0  0  0  0  0
   -3.7656    4.6081    1.3118 H   0  0  0  0  0  0  0  0  0  0  0  0
  5  6  2  0  0  0  0
  5  7  1  0  0  0  0
  2  3  1  0  0  0  0
  2  4  1  0  0  0  0
  2  5  1  0  0  0  0
  1  2  1  0  0  0  0
 15 16  2  0  0  0  0
 15 17  1  0  0  0  0
 14 36  1  0  0  0  0
 11 12  1  0  0  0  0
 11 13  1  0  0  0  0
 11 14  1  0  0  0  0
  9 10  1  0  0  0  0
  9 11  1  0  0  0  0
  9 15  1  0  0  0  0
  7  8  1  0  0  0  0
  7  9  1  0  0  0  0
 19 20  1  0  0  0  0
 19 21  1  0  0  0  0
 19 22  1  0  0  0  0
 17 18  1  0  0  0  0
 17 19  1  0  0  0  0
 27 28  2  0  0  0  0
 27 29  1  0  0  0  0
 24 25  1  0  0  0  0
 24 26  1  0  0  0  0
 24 27  1  0  0  0  0
 23 24  1  0  0  0  0
 37 38  2  0  0  0  0
 37 39  1  0  0  0  0
 33 34  1  0  0  0  0
 33 35  1  0  0  0  0
 33 36  1  0  0  0  0
 31 32  1  0  0  0  0
 31 33  1  0  0  0  0
 31 37  1  0  0  0  0
 29 30  1  0  0  0  0
 29 31  1  0  0  0  0
 41 42  1  0  0  0  0
 41 43  1  0  0  0  0
 41 44  1  0  0  0  0
 39 40  1  0  0  0  0
 39 41  1  0  0  0  0
M  END
$$$$
default_name
  -OEChem-01062215323D

 44 43  0     1  0  0  0  0  0999 V2000
    2.4488   -3.0448    2.0990 H   0  0  0  0  0  0  0  0  0  0  0  0
    2.2788   -2.0018    2.3640 C   0  0  0  0  0  0  0  0  0  0  0  0
    2.9228   -1.7258    3.1960 H   0  0  0  0  0  0  0  0  0  0  0  0
    1.2358   -1.8618    2.6430 H   0  0  0  0  0  0  0  0  0  0  0  0
    2.6018   -1.1318    1.1730 C   0  0  0  0  0  0  0  0  0  0  0  0
    3.0048   -1.6348    0.1320 O   0  0  0  0  0  0  0  0  0  0  0  0
    2.4088    0.1752    1.3190 N   0  0  0  0  0  0  0  0  0  0  0  0
    2.0708    0.5242    2.2050 H   0  0  0  0  0  0  0  0  0  0  0  0
    2.6638    1.1782    0.2840 C   0  0  1  0  0  0  0  0  0  0  0  0
    2.2842    0.7922   -0.6636 H   0  0  0  0  0  0  0  0  0  0  0  0
    1.8969    2.4705    0.6147 C   0  0  0  0  0  0  0  0  0  0  0  0
    2.2203    3.2553   -0.0702 H   0  0  0  0  0  0  0  0  0  0  0  0
    2.1973    2.7903    1.6121 H   0  0  0  0  0  0  0  0  0  0  0  0
    0.0806    2.4076    0.6052 S   0  0  0  0  0  0  0  0  0  0  0  0
    4.1739    1.4311    0.1171 C   0  0  0  0  0  0  0  0  0  0  0  0
    4.5834    2.2498   -0.7058 O   0  0  0  0  0  0  0  0  0  0  0  0
    5.0017    0.7315    0.9046 N   0  0  0  0  0  0  0  0  0  0  0  0
    4.5988    0.0798    1.5585 H   0  0  0  0  0  0  0  0  0  0  0  0
    6.4573    0.8562    0.8652 C   0  0  0  0  0  0  0  0  0  0  0  0
    6.8250    0.5547   -0.1179 H   0  0  0  0  0  0  0  0  0  0  0  0
    6.7439    1.8952    1.0377 H   0  0  0  0  0  0  0  0  0  0  0  0
    6.9127    0.2252    1.6295 H   0  0  0  0  0  0  0  0  0  0  0  0
    0.0111    6.7197   -6.2667 H   0  0  0  0  0  0  0  0  0  0  0  0
    0.1271    6.8429   -5.1910 C   0  0  0  0  0  0  0  0  0  0  0  0
   -0.3645    7.7603   -4.8712 H   0  0  0  0  0  0  0  0  0  0  0  0
    1.1854    6.8841   -4.9400 H   0  0  0  0  0  0  0  0  0  0  0  0
   -0.5079    5.6643   -4.4911 C   0  0  0  0  0  0  0  0  0  0  0  0
   -1.0283    4.7671   -5.1400 O   0  0  0  0  0  0  0  0  0  0  0  0
   -0.4561    5.6651   -3.1617 N   0  0  0  0  0  0  0  0  0  0  0  0
   -0.0193    6.4446   -2.6916 H   0  0  0  0  0  0  0  0  0  0  0  0
   -1.0078    4.6120   -2.3093 C   0  0  1  0  0  0  0  0  0  0  0  0
   -1.9367    4.2468   -2.7510 H   0  0  0  0  0  0  0  0  0  0  0  0
   -0.0019    3.4528   -2.2740 C   0  0  0  0  0  0  0  0  0  0  0  0
    0.1580    3.1254   -3.3023 H   0  0  0  0  0  0  0  0  0  0  0  0
    0.9531    3.8259   -1.9033 H   0  0  0  0  0  0  0  0  0  0  0  0
   -0.4564    1.9812   -1.3178 S   0  0  0  0  0  0  0  0  0  0  0  0
   -1.3272    5.1647   -0.9090 C   0  0  0  0  0  0  0  0  0  0  0  0
   -0.6550    6.0862   -0.4440 O   0  0  0  0  0  0  0  0  0  0  0  0
   -2.3511    4.6115   -0.2464 N   0  0  0  0  0  0  0  0  0  0  0  0
   -2.8302    3.8392   -0.6818 H   0  0  0  0  0  0  0  0  0  0  0  0
   -2.7778    5.0139    1.0932 C   0  0  0  0  0  0  0  0  0  0  0  0
   -2.0655    4.6443    1.8327 H   0  0  0  0  0  0  0  0  0  0  0  0
   -2.8167    6.1037    1.1612 H   0  0  0  0  0  0  0  0  0  0  0  0
   -3.7656    4.6081    1.3118 H   0  0  0  0  0  0  0  0  0  0  0  0
  5  6  2  0  0  0  0
  5  7  1  0  0  0  0
  2  3  1  0  0  0  0
  2  4  1  0  0  0  0
  2  5  1  0  0  0  0
  1  2  1  0  0  0  0
 15 16  2  0  0  0  0
 15 17  1  0  0  0  0
 14 36  1  0  0  0  0
 11 12  1  0  0  0  0
 11 13  1  0  0  0  0
 11 14  1  0  0  0  0
  9 10  1  0  0  0  0
  9 11  1  0  0  0  0
  9 15  1  0  0  0  0
  7  8  1  0  0  0  0
  7  9  1  0  0  0  0
 19 20  1  0  0  0  0
 19 21  1  0  0  0  0
 19 22  1  0  0  0  0
 17 18  1  0  0  0  0
 17 19  1  0  0  0  0
 27 28  2  0  0  0  0
 27 29  1  0  0  0  0
 24 25  1  0  0  0  0
 24 26  1  0  0  0  0
 24 27  1  0  0  0  0
 23 24  1  0  0  0  0
 37 38  2  0  0  0  0
 37 39  1  0  0  0  0
 33 34  1  0  0  0  0
 33 35  1  0  0  0  0
 33 36  1  0  0  0  0
 31 32  1  0  0  0  0
 31 33  1  0  0  0  0
 31 37  1  0  0  0  0
 29 30  1  0  0  0  0
 29 31  1  0  0  0  0
 41 42  1  0  0  0  0
 41 43  1  0  0  0  0
 41 44  1  0  0  0  0
 39 40  1  0  0  0  0
 39 41  1  0  0  0  0
M  END
$$$$
default_name
  -OEChem-01062215323D

 44 43  0     1  0  0  0  0  0999 V2000
    2.4488   -3.0448    2.0990 H   0  0  0  0  0  0  0  0  0  0  0  0
    2.2788   -2.0018    2.3640 C   0  0  0  0  0  0  0  0  0  0  0  0
    2.9228   -1.7258    3.1960 H   0  0  0  0  0  0  0  0  0  0  0  0
    1.2358   -1.8618    2.6430 H   0  0  0  0  0  0  0  0  0  0  0  0
    2.6018   -1.1318    1.1730 C   0  0  0  0  0  0  0  0  0  0  0  0
    3.0048   -1.6348    0.1320 O   0  0  0  0  0  0  0  0  0  0  0  0
    2.4088    0.1752    1.3190 N   0  0  0  0  0  0  0  0  0  0  0  0
    2.0708    0.5242    2.2050 H   0  0  0  0  0  0  0  0  0  0  0  0
    2.6638    1.1782    0.2840 C   0  0  1  0  0  0  0  0  0  0  0  0
    2.2842    0.7922   -0.6636 H   0  0  0  0  0  0  0  0  0  0  0  0
    1.8969    2.4705    0.6147 C   0  0  0  0  0  0  0  0  0  0  0  0
    2.2203    3.2553   -0.0702 H   0  0  0  0  0  0  0  0  0  0  0  0
    2.1973    2.7903    1.6121 H   0  0  0  0  0  0  0  0  0  0  0  0
    0.0806    2.4076    0.6052 S   0  0  0  0  0  0  0  0  0  0  0  0
    4.1739    1.4311    0.1171 C   0  0  0  0  0  0  0  0  0  0  0  0
    4.5783    2.4228   -0.4898 O   0  0  0  0  0  0  0  0  0  0  0  0
    5.0078    0.5357    0.6628 N   0  0  0  0  0  0  0  0  0  0  0  0
    4.6090   -0.2516    1.1483 H   0  0  0  0  0  0  0  0  0  0  0  0
    6.4641    0.6334    0.5891 C   0  0  0  0  0  0  0  0  0  0  0  0
    6.7830    0.5838   -0.4542 H   0  0  0  0  0  0  0  0  0  0  0  0
    6.7919    1.5877    1.0056 H   0  0  0  0  0  0  0  0  0  0  0  0
    6.9275   -0.1813    1.1470 H   0  0  0  0  0  0  0  0  0  0  0  0
    0.0111    6.7197   -6.2667 H   0  0  0  0  0  0  0  0  0  0  0  0
    0.1271    6.8429   -5.1910 C   0  0  0  0  0  0  0  0  0  0  0  0
   -0.3645    7.7603   -4.8712 H   0  0  0  0  0  0  0  0  0  0  0  0
    1.1854    6.8841   -4.9400 H   0  0  0  0  0  0  0  0  0  0  0  0
   -0.5079    5.6643   -4.4911 C   0  0  0  0  0  0  0  0  0  0  0  0
   -1.0283    4.7671   -5.1400 O   0  0  0  0  0  0  0  0  0  0  0  0
   -0.4561    5.6651   -3.1617 N   0  0  0  0  0  0  0  0  0  0  0  0
   -0.0193    6.4446   -2.6916 H   0  0  0  0  0  0  0  0  0  0  0  0
   -1.0078    4.6120   -2.3093 C   0  0  1  0  0  0  0  0  0  0  0  0
   -1.9367    4.2468   -2.7510 H   0  0  0  0  0  0  0  0  0  0  0  0
   -0.0019    3.4528   -2.2740 C   0  0  0  0  0  0  0  0  0  0  0  0
    0.1580    3.1254   -3.3023 H   0  0  0  0  0  0  0  0  0  0  0  0
    0.9531    3.8259   -1.9033 H   0  0  0  0  0  0  0  0  0  0  0  0
   -0.4564    1.9812   -1.3178 S   0  0  0  0  0  0  0  0  0  0  0  0
   -1.3272    5.1647   -0.9090 C   0  0  0  0  0  0  0  0  0  0  0  0
   -0.6550    6.0862   -0.4440 O   0  0  0  0  0  0  0  0  0  0  0  0
   -2.3511    4.6115   -0.2464 N   0  0  0  0  0  0  0  0  0  0  0  0
   -2.8302    3.8392   -0.6818 H   0  0  0  0  0  0  0  0  0  0  0  0
   -2.7778    5.0139    1.0932 C   0  0  0  0  0  0  0  0  0  0  0  0
   -2.0655    4.6443    1.8327 H   0  0  0  0  0  0  0  0  0  0  0  0
   -2.8167    6.1037    1.1612 H   0  0  0  0  0  0  0  0  0  0  0  0
   -3.7656    4.6081    1.3118 H   0  0  0  0  0  0  0  0  0  0  0  0
  5  6  2  0  0  0  0
  5  7  1  0  0  0  0
  2  3  1  0  0  0  0
  2  4  1  0  0  0  0
  2  5  1  0  0  0  0
  1  2  1  0  0  0  0
 15 16  2  0  0  0  0
 15 17  1  0  0  0  0
 14 36  1  0  0  0  0
 11 12  1  0  0  0  0
 11 13  1  0  0  0  0
 11 14  1  0  0  0  0
  9 10  1  0  0  0  0
  9 11  1  0  0  0  0
  9 15  1  0  0  0  0
  7  8  1  0  0  0  0
  7  9  1  0  0  0  0
 19 20  1  0  0  0  0
 19 21  1  0  0  0  0
 19 22  1  0  0  0  0
 17 18  1  0  0  0  0
 17 19  1  0  0  0  0
 27 28  2  0  0  0  0
 27 29  1  0  0  0  0
 24 25  1  0  0  0  0
 24 26  1  0  0  0  0
 24 27  1  0  0  0  0
 23 24  1  0  0  0  0
 37 38  2  0  0  0  0
 37 39  1  0  0  0  0
 33 34  1  0  0  0  0
 33 35  1  0  0  0  0
 33 36  1  0  0  0  0
 31 32  1  0  0  0  0
 31 33  1  0  0  0  0
 31 37  1  0  0  0  0
 29 30  1  0  0  0  0
 29 31  1  0  0  0  0
 41 42  1  0  0  0  0
 41 43  1  0  0  0  0
 41 44  1  0  0  0  0
 39 40  1  0  0  0  0
 39 41  1  0  0  0  0
M  END
$$$$
default_name
  -OEChem-01062215323D

 44 43  0     1  0  0  0  0  0999 V2000
    2.4488   -3.0448    2.0990 H   0  0  0  0  0  0  0  0  0  0  0  0
    2.2788   -2.0018    2.3640 C   0  0  0  0  0  0  0  0  0  0  0  0
    2.9228   -1.7258    3.1960 H   0  0  0  0  0  0  0  0  0  0  0  0
    1.2358   -1.8618    2.6430 H   0  0  0  0  0  0  0  0  0  0  0  0
    2.6018   -1.1318    1.1730 C   0  0  0  0  0  0  0  0  0  0  0  0
    3.0048   -1.6348    0.1320 O   0  0  0  0  0  0  0  0  0  0  0  0
    2.4088    0.1752    1.3190 N   0  0  0  0  0  0  0  0  0  0  0  0
    2.0708    0.5242    2.2050 H   0  0  0  0  0  0  0  0  0  0  0  0
    2.6638    1.1782    0.2840 C   0  0  1  0  0  0  0  0  0  0  0  0
    2.2842    0.7922   -0.6636 H   0  0  0  0  0  0  0  0  0  0  0  0
    1.8969    2.4705    0.6147 C   0  0  0  0  0  0  0  0  0  0  0  0
    2.2203    3.2553   -0.0702 H   0  0  0  0  0  0  0  0  0  0  0  0
    2.1973    2.7903    1.6121 H   0  0  0  0  0  0  0  0  0  0  0  0
    0.0806    2.4076    0.6052 S   0  0  0  0  0  0  0  0  0  0  0  0
    4.1739    1.4311    0.1171 C   0  0  0  0  0  0  0  0  0  0  0  0
    4.5874    2.5351   -0.2369 O   0  0  0  0  0  0  0  0  0  0  0  0
    4.9979    0.4078    0.3792 N   0  0  0  0  0  0  0  0  0  0  0  0
    4.5921   -0.4679    0.6675 H   0  0  0  0  0  0  0  0  0  0  0  0
    6.4527    0.4882    0.2657 C   0  0  0  0  0  0  0  0  0  0  0  0
    6.7290    0.6983   -0.7698 H   0  0  0  0  0  0  0  0  0  0  0  0
    6.8282    1.2974    0.8946 H   0  0  0  0  0  0  0  0  0  0  0  0
    6.9098   -0.4519    0.5771 H   0  0  0  0  0  0  0  0  0  0  0  0
    0.0111    6.7197   -6.2667 H   0  0  0  0  0  0  0  0  0  0  0  0
    0.1271    6.8429   -5.1910 C   0  0  0  0  0  0  0  0  0  0  0  0
   -0.3645    7.7603   -4.8712 H   0  0  0  0  0  0  0  0  0  0  0  0
    1.1854    6.8841   -4.9400 H   0  0  0  0  0  0  0  0  0  0  0  0
   -0.5079    5.6643   -4.4911 C   0  0  0  0  0  0  0  0  0  0  0  0
   -1.0283    4.7671   -5.1400 O   0  0  0  0  0  0  0  0  0  0  0  0
   -0.4561    5.6651   -3.1617 N   0  0  0  0  0  0  0  0  0  0  0  0
   -0.0193    6.4446   -2.6916 H   0  0  0  0  0  0  0  0  0  0  0  0
   -1.0078    4.6120   -2.3093 C   0  0  1  0  0  0  0  0  0  0  0  0
   -1.9367    4.2468   -2.7510 H   0  0  0  0  0  0  0  0  0  0  0  0
   -0.0019    3.4528   -2.2740 C   0  0  0  0  0  0  0  0  0  0  0  0
    0.1580    3.1254   -3.3023 H   0  0  0  0  0  0  0  0  0  0  0  0
    0.9531    3.8259   -1.9033 H   0  0  0  0  0  0  0  0  0  0  0  0
   -0.4564    1.9812   -1.3178 S   0  0  0  0  0  0  0  0  0  0  0  0
   -1.3272    5.1647   -0.9090 C   0  0  0  0  0  0  0  0  0  0  0  0
   -0.6550    6.0862   -0.4440 O   0  0  0  0  0  0  0  0  0  0  0  0
   -2.3511    4.6115   -0.2464 N   0  0  0  0  0  0  0  0  0  0  0  0
   -2.8302    3.8392   -0.6818 H   0  0  0  0  0  0  0  0  0  0  0  0
   -2.7778    5.0139    1.0932 C   0  0  0  0  0  0  0  0  0  0  0  0
   -2.0655    4.6443    1.8327 H   0  0  0  0  0  0  0  0  0  0  0  0
   -2.8167    6.1037    1.1612 H   0  0  0  0  0  0  0  0  0  0  0  0
   -3.7656    4.6081    1.3118 H   0  0  0  0  0  0  0  0  0  0  0  0
  5  6  2  0  0  0  0
  5  7  1  0  0  0  0
  2  3  1  0  0  0  0
  2  4  1  0  0  0  0
  2  5  1  0  0  0  0
  1  2  1  0  0  0  0
 15 16  2  0  0  0  0
 15 17  1  0  0  0  0
 14 36  1  0  0  0  0
 11 12  1  0  0  0  0
 11 13  1  0  0  0  0
 11 14  1  0  0  0  0
  9 10  1  0  0  0  0
  9 11  1  0  0  0  0
  9 15  1  0  0  0  0
  7  8  1  0  0  0  0
  7  9  1  0  0  0  0
 19 20  1  0  0  0  0
 19 21  1  0  0  0  0
 19 22  1  0  0  0  0
 17 18  1  0  0  0  0
 17 19  1  0  0  0  0
 27 28  2  0  0  0  0
 27 29  1  0  0  0  0
 24 25  1  0  0  0  0
 24 26  1  0  0  0  0
 24 27  1  0  0  0  0
 23 24  1  0  0  0  0
 37 38  2  0  0  0  0
 37 39  1  0  0  0  0
 33 34  1  0  0  0  0
 33 35  1  0  0  0  0
 33 36  1  0  0  0  0
 31 32  1  0  0  0  0
 31 33  1  0  0  0  0
 31 37  1  0  0  0  0
 29 30  1  0  0  0  0
 29 31  1  0  0  0  0
 41 42  1  0  0  0  0
 41 43  1  0  0  0  0
 41 44  1  0  0  0  0
 39 40  1  0  0  0  0
 39 41  1  0  0  0  0
M  END
$$$$
default_name
  -OEChem-01062215323D

 44 43  0     1  0  0  0  0  0999 V2000
    2.4488   -3.0448    2.0990 H   0  0  0  0  0  0  0  0  0  0  0  0
    2.2788   -2.0018    2.3640 C   0  0  0  0  0  0  0  0  0  0  0  0
    2.9228   -1.7258    3.1960 H   0  0  0  0  0  0  0  0  0  0  0  0
    1.2358   -1.8618    2.6430 H   0  0  0  0  0  0  0  0  0  0  0  0
    2.6018   -1.1318    1.1730 C   0  0  0  0  0  0  0  0  0  0  0  0
    3.0048   -1.6348    0.1320 O   0  0  0  0  0  0  0  0  0  0  0  0
    2.4088    0.1752    1.3190 N   0  0  0  0  0  0  0  0  0  0  0  0
    2.0708    0.5242    2.2050 H   0  0  0  0  0  0  0  0  0  0  0  0
    2.6638    1.1782    0.2840 C   0  0  1  0  0  0  0  0  0  0  0  0
    2.2842    0.7922   -0.6636 H   0  0  0  0  0  0  0  0  0  0  0  0
    1.8969    2.4705    0.6147 C   0  0  0  0  0  0  0  0  0  0  0  0
    2.2203    3.2553   -0.0702 H   0  0  0  0  0  0  0  0  0  0  0  0
    2.1973    2.7903    1.6121 H   0  0  0  0  0  0  0  0  0  0  0  0
    0.0806    2.4076    0.6052 S   0  0  0  0  0  0  0  0  0  0  0  0
    4.1739    1.4311    0.1171 C   0  0  0  0  0  0  0  0  0  0  0  0
    4.6101    2.5793    0.0354 O   0  0  0  0  0  0  0  0  0  0  0  0
    4.9727    0.3565    0.0733 N   0  0  0  0  0  0  0  0  0  0  0  0
    4.5492   -0.5544    0.1489 H   0  0  0  0  0  0  0  0  0  0  0  0
    6.4238    0.4303   -0.0832 C   0  0  0  0  0  0  0  0  0  0  0  0
    6.6665    0.8906   -1.0433 H   0  0  0  0  0  0  0  0  0  0  0  0
    6.8505    1.0443    0.7121 H   0  0  0  0  0  0  0  0  0  0  0  0
    6.8610   -0.5682   -0.0413 H   0  0  0  0  0  0  0  0  0  0  0  0
    0.0111    6.7197   -6.2667 H   0  0  0  0  0  0  0  0  0  0  0  0
    0.1271    6.8429   -5.1910 C   0  0  0  0  0  0  0  0  0  0  0  0
   -0.3645    7.7603   -4.8712 H   0  0  0  0  0  0  0  0  0  0  0  0
    1.1854    6.8841   -4.9400 H   0  0  0  0  0  0  0  0  0  0  0  0
   -0.5079    5.6643   -4.4911 C   0  0  0  0  0  0  0  0  0  0  0  0
   -1.0283    4.7671   -5.1400 O   0  0  0  0  0  0  0  0  0  0  0  0
   -0.4561    5.6651   -3.1617 N   0  0  0  0  0  0  0  0  0  0  0  0
   -0.0193    6.4446   -2.6916 H   0  0  0  0  0  0  0  0  0  0  0  0
   -1.0078    4.6120   -2.3093 C   0  0  1  0  0  0  0  0  0  0  0  0
   -1.9367    4.2468   -2.7510 H   0  0  0  0  0  0  0  0  0  0  0  0
   -0.0019    3.4528   -2.2740 C   0  0  0  0  0  0  0  0  0  0  0  0
    0.1580    3.1254   -3.3023 H   0  0  0  0  0  0  0  0  0  0  0  0
    0.9531    3.8259   -1.9033 H   0  0  0  0  0  0  0  0  0  0  0  0
   -0.4564    1.9812   -1.3178 S   0  0  0  0  0  0  0  0  0  0  0  0
   -1.3272    5.1647   -0.9090 C   0  0  0  0  0  0  0  0  0  0  0  0
   -0.6550    6.0862   -0.4440 O   0  0  0  0  0  0  0  0  0  0  0  0
   -2.3511    4.6115   -0.2464 N   0  0  0  0  0  0  0  0  0  0  0  0
   -2.8302    3.8392   -0.6818 H   0  0  0  0  0  0  0  0  0  0  0  0
   -2.7778    5.0139    1.0932 C   0  0  0  0  0  0  0  0  0  0  0  0
   -2.0655    4.6443    1.8327 H   0  0  0  0  0  0  0  0  0  0  0  0
   -2.8167    6.1037    1.1612 H   0  0  0  0  0  0  0  0  0  0  0  0
   -3.7656    4.6081    1.3118 H   0  0  0  0  0  0  0  0  0  0  0  0
  5  6  2  0  0  0  0
  5  7  1  0  0  0  0
  2  3  1  0  0  0  0
  2  4  1  0  0  0  0
  2  5  1  0  0  0  0
  1  2  1  0  0  0  0
 15 16  2  0  0  0  0
 15 17  1  0  0  0  0
 14 36  1  0  0  0  0
 11 12  1  0  0  0  0
 11 13  1  0  0  0  0
 11 14  1  0  0  0  0
  9 10  1  0  0  0  0
  9 11  1  0  0  0  0
  9 15  1  0  0  0  0
  7  8  1  0  0  0  0
  7  9  1  0  0  0  0
 19 20  1  0  0  0  0
 19 21  1  0  0  0  0
 19 22  1  0  0  0  0
 17 18  1  0  0  0  0
 17 19  1  0  0  0  0
 27 28  2  0  0  0  0
 27 29  1  0  0  0  0
 24 25  1  0  0  0  0
 24 26  1  0  0  0  0
 24 27  1  0  0  0  0
 23 24  1  0  0  0  0
 37 38  2  0  0  0  0
 37 39  1  0  0  0  0
 33 34  1  0  0  0  0
 33 35  1  0  0  0  0
 33 36  1  0  0  0  0
 31 32  1  0  0  0  0
 31 33  1  0  0  0  0
 31 37  1  0  0  0  0
 29 30  1  0  0  0  0
 29 31  1  0  0  0  0
 41 42  1  0  0  0  0
 41 43  1  0  0  0  0
 41 44  1  0  0  0  0
 39 40  1  0  0  0  0
 39 41  1  0  0  0  0
M  END
$$$$
default_name
  -OEChem-01062215323D

 44 43  0     1  0  0  0  0  0999 V2000
    2.4488   -3.0448    2.0990 H   0  0  0  0  0  0  0  0  0  0  0  0
    2.2788   -2.0018    2.3640 C   0  0  0  0  0  0  0  0  0  0  0  0
    2.9228   -1.7258    3.1960 H   0  0  0  0  0  0  0  0  0  0  0  0
    1.2358   -1.8618    2.6430 H   0  0  0  0  0  0  0  0  0  0  0  0
    2.6018   -1.1318    1.1730 C   0  0  0  0  0  0  0  0  0  0  0  0
    3.0048   -1.6348    0.1320 O   0  0  0  0  0  0  0  0  0  0  0  0
    2.4088    0.1752    1.3190 N   0  0  0  0  0  0  0  0  0  0  0  0
    2.0708    0.5242    2.2050 H   0  0  0  0  0  0  0  0  0  0  0  0
    2.6638    1.1782    0.2840 C   0  0  1  0  0  0  0  0  0  0  0  0
    2.2842    0.7922   -0.6636 H   0  0  0  0  0  0  0  0  0  0  0  0
    1.8969    2.4705    0.6147 C   0  0  0  0  0  0  0  0  0  0  0  0
    2.2203    3.2553   -0.0702 H   0  0  0  0  0  0  0  0  0  0  0  0
    2.1973    2.7903    1.6121 H   0  0  0  0  0  0  0  0  0  0  0  0
    0.0806    2.4076    0.6052 S   0  0  0  0  0  0  0  0  0  0  0  0
    4.1739    1.4311    0.1171 C   0  0  0  0  0  0  0  0  0  0  0  0
    4.6449    2.5521    0.3087 O   0  0  0  0  0  0  0  0  0  0  0  0
    4.9339    0.3852   -0.2341 N   0  0  0  0  0  0  0  0  0  0  0  0
    4.4834   -0.5051   -0.3721 H   0  0  0  0  0  0  0  0  0  0  0  0
    6.3795    0.4636   -0.4336 C   0  0  0  0  0  0  0  0  0  0  0  0
    6.6000    1.1475   -1.2560 H   0  0  0  0  0  0  0  0  0  0  0  0
    6.8571    0.8454    0.4707 H   0  0  0  0  0  0  0  0  0  0  0  0
    6.7843   -0.5222   -0.6660 H   0  0  0  0  0  0  0  0  0  0  0  0
    0.0111    6.7197   -6.2667 H   0  0  0  0  0  0  0  0  0  0  0  0
    0.1271    6.8429   -5.1910 C   0  0  0  0  0  0  0  0  0  0  0  0
   -0.3645    7.7603   -4.8712 H   0  0  0  0  0  0  0  0  0  0  0  0
    1.1854    6.8841   -4.9400 H   0  0  0  0  0  0  0  0  0  0  0  0
   -0.5079    5.6643   -4.4911 C   0  0  0  0  0  0  0  0  0  0  0  0
   -1.0283    4.7671   -5.1400 O   0  0  0  0  0  0  0  0  0  0  0  0
   -0.4561    5.6651   -3.1617 N   0  0  0  0  0  0  0  0  0  0  0  0
   -0.0193    6.4446   -2.6916 H   0  0  0  0  0  0  0  0  0  0  0  0
   -1.0078    4.6120   -2.3093 C   0  0  1  0  0  0  0  0  0  0  0  0
   -1.9367    4.2468   -2.7510 H   0  0  0  0  0  0  0  0  0  0  0  0
   -0.0019    3.4528   -2.2740 C   0  0  0  0  0  0  0  0  0  0  0  0
    0.1580    3.1254   -3.3023 H   0  0  0  0  0  0  0  0  0  0  0  0
    0.9531    3.8259   -1.9033 H   0  0  0  0  0  0  0  0  0  0  0  0
   -0.4564    1.9812   -1.3178 S   0  0  0  0  0  0  0  0  0  0  0  0
   -1.3272    5.1647   -0.9090 C   0  0  0  0  0  0  0  0  0  0  0  0
   -0.6550    6.0862   -0.4440 O   0  0  0  0  0  0  0  0  0  0  0  0
   -2.3511    4.6115   -0.2464 N   0  0  0  0  0  0  0  0  0  0  0  0
   -2.8302    3.8392   -0.6818 H   0  0  0  0  0  0  0  0  0  0  0  0
   -2.7778    5.0139    1.0932 C   0  0  0  0  0  0  0  0  0  0  0  0
   -2.0655    4.6443    1.8327 H   0  0  0  0  0  0  0  0  0  0  0  0
   -2.8167    6.1037    1.1612 H   0  0  0  0  0  0  0  0  0  0  0  0
   -3.7656    4.6081    1.3118 H   0  0  0  0  0  0  0  0  0  0  0  0
  5  6  2  0  0  0  0
  5  7  1  0  0  0  0
  2  3  1  0  0  0  0
  2  4  1  0  0  0  0
  2  5  1  0  0  0  0
  1  2  1  0  0  0  0
 15 16  2  0  0  0  0
 15 17  1  0  0  0  0
 14 36  1  0  0  0  0
 11 12  1  0  0  0  0
 11 13  1  0  0  0  0
 11 14  1  0  0  0  0
  9 10  1  0  0  0  0
  9 11  1  0  0  0  0
  9 15  1  0  0  0  0
  7  8  1  0  0  0  0
  7  9  1  0  0  0  0
 19 20  1  0  0  0  0
 19 21  1  0  0  0  0
 19 22  1  0  0  0  0
 17 18  1  0  0  0  0
 17 19  1  0  0  0  0
 27 28  2  0  0  0  0
 27 29  1  0  0  0  0
 24 25  1  0  0  0  0
 24 26  1  0  0  0  0
 24 27  1  0  0  0  0
 23 24  1  0  0  0  0
 37 38  2  0  0  0  0
 37 39  1  0  0  0  0
 33 34  1  0  0  0  0
 33 35  1  0  0  0  0
 33 36  1  0  0  0  0
 31 32  1  0  0  0  0
 31 33  1  0  0  0  0
 31 37  1  0  0  0  0
 29 30  1  0  0  0  0
 29 31  1  0  0  0  0
 41 42  1  0  0  0  0
 41 43  1  0  0  0  0
 41 44  1  0  0  0  0
 39 40  1  0  0  0  0
 39 41  1  0  0  0  0
M  END
$$$$
default_name
  -OEChem-01062215323D

 44 43  0     1  0  0  0  0  0999 V2000
    2.4488   -3.0448    2.0990 H   0  0  0  0  0  0  0  0  0  0  0  0
    2.2788   -2.0018    2.3640 C   0  0  0  0  0  0  0  0  0  0  0  0
    2.9228   -1.7258    3.1960 H   0  0  0  0  0  0  0  0  0  0  0  0
    1.2358   -1.8618    2.6430 H   0  0  0  0  0  0  0  0  0  0  0  0
    2.6018   -1.1318    1.1730 C   0  0  0  0  0  0  0  0  0  0  0  0
    3.0048   -1.6348    0.1320 O   0  0  0  0  0  0  0  0  0  0  0  0
    2.4088    0.1752    1.3190 N   0  0  0  0  0  0  0  0  0  0  0  0
    2.0708    0.5242    2.2050 H   0  0  0  0  0  0  0  0  0  0  0  0
    2.6638    1.1782    0.2840 C   0  0  1  0  0  0  0  0  0  0  0  0
    2.2842    0.7922   -0.6636 H   0  0  0  0  0  0  0  0  0  0  0  0
    1.8969    2.4705    0.6147 C   0  0  0  0  0  0  0  0  0  0  0  0
    2.2203    3.2553   -0.0702 H   0  0  0  0  0  0  0  0  0  0  0  0
    2.1973    2.7903    1.6121 H   0  0  0  0  0  0  0  0  0  0  0  0
    0.0806    2.4076    0.6052 S   0  0  0  0  0  0  0  0  0  0  0  0
    4.1739    1.4311    0.1171 C   0  0  0  0  0  0  0  0  0  0  0  0
    4.6893    2.4556    0.5643 O   0  0  0  0  0  0  0  0  0  0  0  0
    4.8841    0.4921   -0.5221 N   0  0  0  0  0  0  0  0  0  0  0  0
    4.3991   -0.3235   -0.8601 H   0  0  0  0  0  0  0  0  0  0  0  0
    6.3228    0.5861   -0.7617 C   0  0  0  0  0  0  0  0  0  0  0  0
    6.5339    1.4514   -1.3935 H   0  0  0  0  0  0  0  0  0  0  0  0
    6.8477    0.7143    0.1867 H   0  0  0  0  0  0  0  0  0  0  0  0
    6.6849   -0.3171   -1.2545 H   0  0  0  0  0  0  0  0  0  0  0  0
    0.0111    6.7197   -6.2667 H   0  0  0  0  0  0  0  0  0  0  0  0
    0.1271    6.8429   -5.1910 C   0  0  0  0  0  0  0  0  0  0  0  0
   -0.3645    7.7603   -4.8712 H   0  0  0  0  0  0  0  0  0  0  0  0
    1.1854    6.8841   -4.9400 H   0  0  0  0  0  0  0  0  0  0  0  0
   -0.5079    5.6643   -4.4911 C   0  0  0  0  0  0  0  0  0  0  0  0
   -1.0283    4.7671   -5.1400 O   0  0  0  0  0  0  0  0  0  0  0  0
   -0.4561    5.6651   -3.1617 N   0  0  0  0  0  0  0  0  0  0  0  0
   -0.0193    6.4446   -2.6916 H   0  0  0  0  0  0  0  0  0  0  0  0
   -1.0078    4.6120   -2.3093 C   0  0  1  0  0  0  0  0  0  0  0  0
   -1.9367    4.2468   -2.7510 H   0  0  0  0  0  0  0  0  0  0  0  0
   -0.0019    3.4528   -2.2740 C   0  0  0  0  0  0  0  0  0  0  0  0
    0.1580    3.1254   -3.3023 H   0  0  0  0  0  0  0  0  0  0  0  0
    0.9531    3.8259   -1.9033 H   0  0  0  0  0  0  0  0  0  0  0  0
   -0.4564    1.9812   -1.3178 S   0  0  0  0  0  0  0  0  0  0  0  0
   -1.3272    5.1647   -0.9090 C   0  0  0  0  0  0  0  0  0  0  0  0
   -0.6550    6.0862   -0.4440 O   0  0  0  0  0  0  0  0  0  0  0  0
   -2.3511    4.6115   -0.2464 N   0  0  0  0  0  0  0  0  0  0  0  0
   -2.8302    3.8392   -0.6818 H   0  0  0  0  0  0  0  0  0  0  0  0
   -2.7778    5.0139    1.0932 C   0  0  0  0  0  0  0  0  0  0  0  0
   -2.0655    4.6443    1.8327 H   0  0  0  0  0  0  0  0  0  0  0  0
   -2.8167    6.1037    1.1612 H   0  0  0  0  0  0  0  0  0  0  0  0
   -3.7656    4.6081    1.3118 H   0  0  0  0  0  0  0  0  0  0  0  0
  5  6  2  0  0  0  0
  5  7  1  0  0  0  0
  2  3  1  0  0  0  0
  2  4  1  0  0  0  0
  2  5  1  0  0  0  0
  1  2  1  0  0  0  0
 15 16  2  0  0  0  0
 15 17  1  0  0  0  0
 14 36  1  0  0  0  0
 11 12  1  0  0  0  0
 11 13  1  0  0  0  0
 11 14  1  0  0  0  0
  9 10  1  0  0  0  0
  9 11  1  0  0  0  0
  9 15  1  0  0  0  0
  7  8  1  0  0  0  0
  7  9  1  0  0  0  0
 19 20  1  0  0  0  0
 19 21  1  0  0  0  0
 19 22  1  0  0  0  0
 17 18  1  0  0  0  0
 17 19  1  0  0  0  0
 27 28  2  0  0  0  0
 27 29  1  0  0  0  0
 24 25  1  0  0  0  0
 24 26  1  0  0  0  0
 24 27  1  0  0  0  0
 23 24  1  0  0  0  0
 37 38  2  0  0  0  0
 37 39  1  0  0  0  0
 33 34  1  0  0  0  0
 33 35  1  0  0  0  0
 33 36  1  0  0  0  0
 31 32  1  0  0  0  0
 31 33  1  0  0  0  0
 31 37  1  0  0  0  0
 29 30  1  0  0  0  0
 29 31  1  0  0  0  0
 41 42  1  0  0  0  0
 41 43  1  0  0  0  0
 41 44  1  0  0  0  0
 39 40  1  0  0  0  0
 39 41  1  0  0  0  0
M  END
$$$$
default_name
  -OEChem-01062215323D

 44 43  0     1  0  0  0  0  0999 V2000
    2.4488   -3.0448    2.0990 H   0  0  0  0  0  0  0  0  0  0  0  0
    2.2788   -2.0018    2.3640 C   0  0  0  0  0  0  0  0  0  0  0  0
    2.9228   -1.7258    3.1960 H   0  0  0  0  0  0  0  0  0  0  0  0
    1.2358   -1.8618    2.6430 H   0  0  0  0  0  0  0  0  0  0  0  0
    2.6018   -1.1318    1.1730 C   0  0  0  0  0  0  0  0  0  0  0  0
    3.0048   -1.6348    0.1320 O   0  0  0  0  0  0  0  0  0  0  0  0
    2.4088    0.1752    1.3190 N   0  0  0  0  0  0  0  0  0  0  0  0
    2.0708    0.5242    2.2050 H   0  0  0  0  0  0  0  0  0  0  0  0
    2.6638    1.1782    0.2840 C   0  0  1  0  0  0  0  0  0  0  0  0
    2.2842    0.7922   -0.6636 H   0  0  0  0  0  0  0  0  0  0  0  0
    1.8969    2.4705    0.6147 C   0  0  0  0  0  0  0  0  0  0  0  0
    2.2203    3.2553   -0.0702 H   0  0  0  0  0  0  0  0  0  0  0  0
    2.1973    2.7903    1.6121 H   0  0  0  0  0  0  0  0  0  0  0  0
    0.0806    2.4076    0.6052 S   0  0  0  0  0  0  0  0  0  0  0  0
    4.1739    1.4311    0.1171 C   0  0  0  0  0  0  0  0  0  0  0  0
    4.7403    2.2963    0.7848 O   0  0  0  0  0  0  0  0  0  0  0  0
    4.8269    0.6698   -0.7711 N   0  0  0  0  0  0  0  0  0  0  0  0
    4.3020   -0.0218   -1.2818 H   0  0  0  0  0  0  0  0  0  0  0  0
    6.2574    0.7892   -1.0452 C   0  0  0  0  0  0  0  0  0  0  0  0
    6.4727    1.7818   -1.4464 H   0  0  0  0  0  0  0  0  0  0  0  0
    6.8228    0.6601   -0.1204 H   0  0  0  0  0  0  0  0  0  0  0  0
    6.5696    0.0331   -1.7667 H   0  0  0  0  0  0  0  0  0  0  0  0
    0.0111    6.7197   -6.2667 H   0  0  0  0  0  0  0  0  0  0  0  0
    0.1271    6.8429   -5.1910 C   0  0  0  0  0  0  0  0  0  0  0  0
   -0.3645    7.7603   -4.8712 H   0  0  0  0  0  0  0  0  0  0  0  0
    1.1854    6.8841   -4.9400 H   0  0  0  0  0  0  0  0  0  0  0  0
   -0.5079    5.6643   -4.4911 C   0  0  0  0  0  0  0  0  0  0  0  0
   -1.0283    4.7671   -5.1400 O   0  0  0  0  0  0  0  0  0  0  0  0
   -0.4561    5.6651   -3.1617 N   0  0  0  0  0  0  0  0  0  0  0  0
   -0.0193    6.4446   -2.6916 H   0  0  0  0  0  0  0  0  0  0  0  0
   -1.0078    4.6120   -2.3093 C   0  0  1  0  0  0  0  0  0  0  0  0
   -1.9367    4.2468   -2.7510 H   0  0  0  0  0  0  0  0  0  0  0  0
   -0.0019    3.4528   -2.2740 C   0  0  0  0  0  0  0  0  0  0  0  0
    0.1580    3.1254   -3.3023 H   0  0  0  0  0  0  0  0  0  0  0  0
    0.9531    3.8259   -1.9033 H   0  0  0  0  0  0  0  0  0  0  0  0
   -0.4564    1.9812   -1.3178 S   0  0  0  0  0  0  0  0  0  0  0  0
   -1.3272    5.1647   -0.9090 C   0  0  0  0  0  0  0  0  0  0  0  0
   -0.6550    6.0862   -0.4440 O   0  0  0  0  0  0  0  0  0  0  0  0
   -2.3511    4.6115   -0.2464 N   0  0  0  0  0  0  0  0  0  0  0  0
   -2.8302    3.8392   -0.6818 H   0  0  0  0  0  0  0  0  0  0  0  0
   -2.7778    5.0139    1.0932 C   0  0  0  0  0  0  0  0  0  0  0  0
   -2.0655    4.6443    1.8327 H   0  0  0  0  0  0  0  0  0  0  0  0
   -2.8167    6.1037    1.1612 H   0  0  0  0  0  0  0  0  0  0  0  0
   -3.7656    4.6081    1.3118 H   0  0  0  0  0  0  0  0  0  0  0  0
  5  6  2  0  0  0  0
  5  7  1  0  0  0  0
  2  3  1  0  0  0  0
  2  4  1  0  0  0  0
  2  5  1  0  0  0  0
  1  2  1  0  0  0  0
 15 16  2  0  0  0  0
 15 17  1  0  0  0  0
 14 36  1  0  0  0  0
 11 12  1  0  0  0  0
 11 13  1  0  0  0  0
 11 14  1  0  0  0  0
  9 10  1  0  0  0  0
  9 11  1  0  0  0  0
  9 15  1  0  0  0  0
  7  8  1  0  0  0  0
  7  9  1  0  0  0  0
 19 20  1  0  0  0  0
 19 21  1  0  0  0  0
 19 22  1  0  0  0  0
 17 18  1  0  0  0  0
 17 19  1  0  0  0  0
 27 28  2  0  0  0  0
 27 29  1  0  0  0  0
 24 25  1  0  0  0  0
 24 26  1  0  0  0  0
 24 27  1  0  0  0  0
 23 24  1  0  0  0  0
 37 38  2  0  0  0  0
 37 39  1  0  0  0  0
 33 34  1  0  0  0  0
 33 35  1  0  0  0  0
 33 36  1  0  0  0  0
 31 32  1  0  0  0  0
 31 33  1  0  0  0  0
 31 37  1  0  0  0  0
 29 30  1  0  0  0  0
 29 31  1  0  0  0  0
 41 42  1  0  0  0  0
 41 43  1  0  0  0  0
 41 44  1  0  0  0  0
 39 40  1  0  0  0  0
 39 41  1  0  0  0  0
M  END
$$$$
default_name
  -OEChem-01062215323D

 44 43  0     1  0  0  0  0  0999 V2000
    2.4488   -3.0448    2.0990 H   0  0  0  0  0  0  0  0  0  0  0  0
    2.2788   -2.0018    2.3640 C   0  0  0  0  0  0  0  0  0  0  0  0
    2.9228   -1.7258    3.1960 H   0  0  0  0  0  0  0  0  0  0  0  0
    1.2358   -1.8618    2.6430 H   0  0  0  0  0  0  0  0  0  0  0  0
    2.6018   -1.1318    1.1730 C   0  0  0  0  0  0  0  0  0  0  0  0
    3.0048   -1.6348    0.1320 O   0  0  0  0  0  0  0  0  0  0  0  0
    2.4088    0.1752    1.3190 N   0  0  0  0  0  0  0  0  0  0  0  0
    2.0708    0.5242    2.2050 H   0  0  0  0  0  0  0  0  0  0  0  0
    2.6638    1.1782    0.2840 C   0  0  1  0  0  0  0  0  0  0  0  0
    2.2842    0.7922   -0.6636 H   0  0  0  0  0  0  0  0  0  0  0  0
    1.8969    2.4705    0.6147 C   0  0  0  0  0  0  0  0  0  0  0  0
    2.2203    3.2553   -0.0702 H   0  0  0  0  0  0  0  0  0  0  0  0
    2.1973    2.7903    1.6121 H   0  0  0  0  0  0  0  0  0  0  0  0
    0.0806    2.4076    0.6052 S   0  0  0  0  0  0  0  0  0  0  0  0
    4.1739    1.4311    0.1171 C   0  0  0  0  0  0  0  0  0  0  0  0
    4.7946    2.0850    0.9552 O   0  0  0  0  0  0  0  0  0  0  0  0
    4.7659    0.9062   -0.9640 N   0  0  0  0  0  0  0  0  0  0  0  0
    4.1987    0.3793   -1.6084 H   0  0  0  0  0  0  0  0  0  0  0  0
    6.1879    1.0591   -1.2646 C   0  0  0  0  0  0  0  0  0  0  0  0
    6.4206    2.1160   -1.4110 H   0  0  0  0  0  0  0  0  0  0  0  0
    6.7842    0.6864   -0.4298 H   0  0  0  0  0  0  0  0  0  0  0  0
    6.4463    0.5047   -2.1677 H   0  0  0  0  0  0  0  0  0  0  0  0
    0.0111    6.7197   -6.2667 H   0  0  0  0  0  0  0  0  0  0  0  0
    0.1271    6.8429   -5.1910 C   0  0  0  0  0  0  0  0  0  0  0  0
   -0.3645    7.7603   -4.8712 H   0  0  0  0  0  0  0  0  0  0  0  0
    1.1854    6.8841   -4.9400 H   0  0  0  0  0  0  0  0  0  0  0  0
   -0.5079    5.6643   -4.4911 C   0  0  0  0  0  0  0  0  0  0  0  0
   -1.0283    4.7671   -5.1400 O   0  0  0  0  0  0  0  0  0  0  0  0
   -0.4561    5.6651   -3.1617 N   0  0  0  0  0  0  0  0  0  0  0  0
   -0.0193    6.4446   -2.6916 H   0  0  0  0  0  0  0  0  0  0  0  0
   -1.0078    4.6120   -2.3093 C   0  0  1  0  0  0  0  0  0  0  0  0
   -1.9367    4.2468   -2.7510 H   0  0  0  0  0  0  0  0  0  0  0  0
   -0.0019    3.4528   -2.2740 C   0  0  0  0  0  0  0  0  0  0  0  0
    0.1580    3.1254   -3.3023 H   0  0  0  0  0  0  0  0  0  0  0  0
    0.9531    3.8259   -1.9033 H   0  0  0  0  0  0  0  0  0  0  0  0
   -0.4564    1.9812   -1.3178 S   0  0  0  0  0  0  0  0  0  0  0  0
   -1.3272    5.1647   -0.9090 C   0  0  0  0  0  0  0  0  0  0  0  0
   -0.6550    6.0862   -0.4440 O   0  0  0  0  0  0  0  0  0  0  0  0
   -2.3511    4.6115   -0.2464 N   0  0  0  0  0  0  0  0  0  0  0  0
   -2.8302    3.8392   -0.6818 H   0  0  0  0  0  0  0  0  0  0  0  0
   -2.7778    5.0139    1.0932 C   0  0  0  0  0  0  0  0  0  0  0  0
   -2.0655    4.6443    1.8327 H   0  0  0  0  0  0  0  0  0  0  0  0
   -2.8167    6.1037    1.1612 H   0  0  0  0  0  0  0  0  0  0  0  0
   -3.7656    4.6081    1.3118 H   0  0  0  0  0  0  0  0  0  0  0  0
  5  6  2  0  0  0  0
  5  7  1  0  0  0  0
  2  3  1  0  0  0  0
  2  4  1  0  0  0  0
  2  5  1  0  0  0  0
  1  2  1  0  0  0  0
 15 16  2  0  0  0  0
 15 17  1  0  0  0  0
 14 36  1  0  0  0  0
 11 12  1  0  0  0  0
 11 13  1  0  0  0  0
 11 14  1  0  0  0  0
  9 10  1  0  0  0  0
  9 11  1  0  0  0  0
  9 15  1  0  0  0  0
  7  8  1  0  0  0  0
  7  9  1  0  0  0  0
 19 20  1  0  0  0  0
 19 21  1  0  0  0  0
 19 22  1  0  0  0  0
 17 18  1  0  0  0  0
 17 19  1  0  0  0  0
 27 28  2  0  0  0  0
 27 29  1  0  0  0  0
 24 25  1  0  0  0  0
 24 26  1  0  0  0  0
 24 27  1  0  0  0  0
 23 24  1  0  0  0  0
 37 38  2  0  0  0  0
 37 39  1  0  0  0  0
 33 34  1  0  0  0  0
 33 35  1  0  0  0  0
 33 36  1  0  0  0  0
 31 32  1  0  0  0  0
 31 33  1  0  0  0  0
 31 37  1  0  0  0  0
 29 30  1  0  0  0  0
 29 31  1  0  0  0  0
 41 42  1  0  0  0  0
 41 43  1  0  0  0  0
 41 44  1  0  0  0  0
 39 40  1  0  0  0  0
 39 41  1  0  0  0  0
M  END
$$$$
default_name
  -OEChem-01062215323D

 44 43  0     1  0  0  0  0  0999 V2000
    2.4488   -3.0448    2.0990 H   0  0  0  0  0  0  0  0  0  0  0  0
    2.2788   -2.0018    2.3640 C   0  0  0  0  0  0  0  0  0  0  0  0
    2.9228   -1.7258    3.1960 H   0  0  0  0  0  0  0  0  0  0  0  0
    1.2358   -1.8618    2.6430 H   0  0  0  0  0  0  0  0  0  0  0  0
    2.6018   -1.1318    1.1730 C   0  0  0  0  0  0  0  0  0  0  0  0
    3.0048   -1.6348    0.1320 O   0  0  0  0  0  0  0  0  0  0  0  0
    2.4088    0.1752    1.3190 N   0  0  0  0  0  0  0  0  0  0  0  0
    2.0708    0.5242    2.2050 H   0  0  0  0  0  0  0  0  0  0  0  0
    2.6638    1.1782    0.2840 C   0  0  1  0  0  0  0  0  0  0  0  0
    2.2842    0.7922   -0.6636 H   0  0  0  0  0  0  0  0  0  0  0  0
    1.8969    2.4705    0.6147 C   0  0  0  0  0  0  0  0  0  0  0  0
    2.2203    3.2553   -0.0702 H   0  0  0  0  0  0  0  0  0  0  0  0
    2.1973    2.7903    1.6121 H   0  0  0  0  0  0  0  0  0  0  0  0
    0.0806    2.4076    0.6052 S   0  0  0  0  0  0  0  0  0  0  0  0
    4.1739    1.4311    0.1171 C   0  0  0  0  0  0  0  0  0  0  0  0
    4.8482    1.8361    1.0639 O   0  0  0  0  0  0  0  0  0  0  0  0
    4.7055    1.1853   -1.0878 N   0  0  0  0  0  0  0  0  0  0  0  0
    4.0963    0.8525   -1.8177 H   0  0  0  0  0  0  0  0  0  0  0  0
    6.1191    1.3775   -1.4052 C   0  0  0  0  0  0  0  0  0  0  0  0
    6.3812    2.4313   -1.2898 H   0  0  0  0  0  0  0  0  0  0  0  0
    6.7346    0.7913   -0.7203 H   0  0  0  0  0  0  0  0  0  0  0  0
    6.3234    1.0653   -2.4301 H   0  0  0  0  0  0  0  0  0  0  0  0
    0.0111    6.7197   -6.2667 H   0  0  0  0  0  0  0  0  0  0  0  0
    0.1271    6.8429   -5.1910 C   0  0  0  0  0  0  0  0  0  0  0  0
   -0.3645    7.7603   -4.8712 H   0  0  0  0  0  0  0  0  0  0  0  0
    1.1854    6.8841   -4.9400 H   0  0  0  0  0  0  0  0  0  0  0  0
   -0.5079    5.6643   -4.4911 C   0  0  0  0  0  0  0  0  0  0  0  0
   -1.0283    4.7671   -5.1400 O   0  0  0  0  0  0  0  0  0  0  0  0
   -0.4561    5.6651   -3.1617 N   0  0  0  0  0  0  0  0  0  0  0  0
   -0.0193    6.4446   -2.6916 H   0  0  0  0  0  0  0  0  0  0  0  0
   -1.0078    4.6120   -2.3093 C   0  0  1  0  0  0  0  0  0  0  0  0
   -1.9367    4.2468   -2.7510 H   0  0  0  0  0  0  0  0  0  0  0  0
   -0.0019    3.4528   -2.2740 C   0  0  0  0  0  0  0  0  0  0  0  0
    0.1580    3.1254   -3.3023 H   0  0  0  0  0  0  0  0  0  0  0  0
    0.9531    3.8259   -1.9033 H   0  0  0  0  0  0  0  0  0  0  0  0
   -0.4564    1.9812   -1.3178 S   0  0  0  0  0  0  0  0  0  0  0  0
   -1.3272    5.1647   -0.9090 C   0  0  0  0  0  0  0  0  0  0  0  0
   -0.6550    6.0862   -0.4440 O   0  0  0  0  0  0  0  0  0  0  0  0
   -2.3511    4.6115   -0.2464 N   0  0  0  0  0  0  0  0  0  0  0  0
   -2.8302    3.8392   -0.6818 H   0  0  0  0  0  0  0  0  0  0  0  0
   -2.7778    5.0139    1.0932 C   0  0  0  0  0  0  0  0  0  0  0  0
   -2.0655    4.6443    1.8327 H   0  0  0  0  0  0  0  0  0  0  0  0
   -2.8167    6.1037    1.1612 H   0  0  0  0  0  0  0  0  0  0  0  0
   -3.7656    4.6081    1.3118 H   0  0  0  0  0  0  0  0  0  0  0  0
  5  6  2  0  0  0  0
  5  7  1  0  0  0  0
  2  3  1  0  0  0  0
  2  4  1  0  0  0  0
  2  5  1  0  0  0  0
  1  2  1  0  0  0  0
 15 16  2  0  0  0  0
 15 17  1  0  0  0  0
 14 36  1  0  0  0  0
 11 12  1  0  0  0  0
 11 13  1  0  0  0  0
 11 14  1  0  0  0  0
  9 10  1  0  0  0  0
  9 11  1  0  0  0  0
  9 15  1  0  0  0  0
  7  8  1  0  0  0  0
  7  9  1  0  0  0  0
 19 20  1  0  0  0  0
 19 21  1  0  0  0  0
 19 22  1  0  0  0  0
 17 18  1  0  0  0  0
 17 19  1  0  0  0  0
 27 28  2  0  0  0  0
 27 29  1  0  0  0  0
 24 25  1  0  0  0  0
 24 26  1  0  0  0  0
 24 27  1  0  0  0  0
 23 24  1  0  0  0  0
 37 38  2  0  0  0  0
 37 39  1  0  0  0  0
 33 34  1  0  0  0  0
 33 35  1  0  0  0  0
 33 36  1  0  0  0  0
 31 32  1  0  0  0  0
 31 33  1  0  0  0  0
 31 37  1  0  0  0  0
 29 30  1  0  0  0  0
 29 31  1  0  0  0  0
 41 42  1  0  0  0  0
 41 43  1  0  0  0  0
 41 44  1  0  0  0  0
 39 40  1  0  0  0  0
 39 41  1  0  0  0  0
M  END
$$$$
default_name
  -OEChem-01062215323D

 44 43  0     1  0  0  0  0  0999 V2000
    2.4488   -3.0448    2.0990 H   0  0  0  0  0  0  0  0  0  0  0  0
    2.2788   -2.0018    2.3640 C   0  0  0  0  0  0  0  0  0  0  0  0
    2.9228   -1.7258    3.1960 H   0  0  0  0  0  0  0  0  0  0  0  0
    1.2358   -1.8618    2.6430 H   0  0  0  0  0  0  0  0  0  0  0  0
    2.6018   -1.1318    1.1730 C   0  0  0  0  0  0  0  0  0  0  0  0
    3.0048   -1.6348    0.1320 O   0  0  0  0  0  0  0  0  0  0  0  0
    2.4088    0.1752    1.3190 N   0  0  0  0  0  0  0  0  0  0  0  0
    2.0708    0.5242    2.2050 H   0  0  0  0  0  0  0  0  0  0  0  0
    2.6638    1.1782    0.2840 C   0  0  1  0  0  0  0  0  0  0  0  0
    2.2842    0.7922   -0.6636 H   0  0  0  0  0  0  0  0  0  0  0  0
    1.8969    2.4705    0.6147 C   0  0  0  0  0  0  0  0  0  0  0  0
    2.2203    3.2553   -0.0702 H   0  0  0  0  0  0  0  0  0  0  0  0
    2.1973    2.7903    1.6121 H   0  0  0  0  0  0  0  0  0  0  0  0
    0.0806    2.4076    0.6052 S   0  0  0  0  0  0  0  0  0  0  0  0
    4.1739    1.4311    0.1171 C   0  0  0  0  0  0  0  0  0  0  0  0
    4.8978    1.5667    1.1034 O   0  0  0  0  0  0  0  0  0  0  0  0
    4.6497    1.4879   -1.1340 N   0  0  0  0  0  0  0  0  0  0  0  0
    4.0017    1.3656   -1.8954 H   0  0  0  0  0  0  0  0  0  0  0  0
    6.0555    1.7226   -1.4572 C   0  0  0  0  0  0  0  0  0  0  0  0
    6.3571    2.7063   -1.0910 H   0  0  0  0  0  0  0  0  0  0  0  0
    6.6772    0.9678   -0.9722 H   0  0  0  0  0  0  0  0  0  0  0  0
    6.2093    1.6769   -2.5361 H   0  0  0  0  0  0  0  0  0  0  0  0
    0.0111    6.7197   -6.2667 H   0  0  0  0  0  0  0  0  0  0  0  0
    0.1271    6.8429   -5.1910 C   0  0  0  0  0  0  0  0  0  0  0  0
   -0.3645    7.7603   -4.8712 H   0  0  0  0  0  0  0  0  0  0  0  0
    1.1854    6.8841   -4.9400 H   0  0  0  0  0  0  0  0  0  0  0  0
   -0.5079    5.6643   -4.4911 C   0  0  0  0  0  0  0  0  0  0  0  0
   -1.0283    4.7671   -5.1400 O   0  0  0  0  0  0  0  0  0  0  0  0
   -0.4561    5.6651   -3.1617 N   0  0  0  0  0  0  0  0  0  0  0  0
   -0.0193    6.4446   -2.6916 H   0  0  0  0  0  0  0  0  0  0  0  0
   -1.0078    4.6120   -2.3093 C   0  0  1  0  0  0  0  0  0  0  0  0
   -1.9367    4.2468   -2.7510 H   0  0  0  0  0  0  0  0  0  0  0  0
   -0.0019    3.4528   -2.2740 C   0  0  0  0  0  0  0  0  0  0  0  0
    0.1580    3.1254   -3.3023 H   0  0  0  0  0  0  0  0  0  0  0  0
    0.9531    3.8259   -1.9033 H   0  0  0  0  0  0  0  0  0  0  0  0
   -0.4564    1.9812   -1.3178 S   0  0  0  0  0  0  0  0  0  0  0  0
   -1.3272    5.1647   -0.9090 C   0  0  0  0  0  0  0  0  0  0  0  0
   -0.6550    6.0862   -0.4440 O   0  0  0  0  0  0  0  0  0  0  0  0
   -2.3511    4.6115   -0.2464 N   0  0  0  0  0  0  0  0  0  0  0  0
   -2.8302    3.8392   -0.6818 H   0  0  0  0  0  0  0  0  0  0  0  0
   -2.7778    5.0139    1.0932 C   0  0  0  0  0  0  0  0  0  0  0  0
   -2.0655    4.6443    1.8327 H   0  0  0  0  0  0  0  0  0  0  0  0
   -2.8167    6.1037    1.1612 H   0  0  0  0  0  0  0  0  0  0  0  0
   -3.7656    4.6081    1.3118 H   0  0  0  0  0  0  0  0  0  0  0  0
  5  6  2  0  0  0  0
  5  7  1  0  0  0  0
  2  3  1  0  0  0  0
  2  4  1  0  0  0  0
  2  5  1  0  0  0  0
  1  2  1  0  0  0  0
 15 16  2  0  0  0  0
 15 17  1  0  0  0  0
 14 36  1  0  0  0  0
 11 12  1  0  0  0  0
 11 13  1  0  0  0  0
 11 14  1  0  0  0  0
  9 10  1  0  0  0  0
  9 11  1  0  0  0  0
  9 15  1  0  0  0  0
  7  8  1  0  0  0  0
  7  9  1  0  0  0  0
 19 20  1  0  0  0  0
 19 21  1  0  0  0  0
 19 22  1  0  0  0  0
 17 18  1  0  0  0  0
 17 19  1  0  0  0  0
 27 28  2  0  0  0  0
 27 29  1  0  0  0  0
 24 25  1  0  0  0  0
 24 26  1  0  0  0  0
 24 27  1  0  0  0  0
 23 24  1  0  0  0  0
 37 38  2  0  0  0  0
 37 39  1  0  0  0  0
 33 34  1  0  0  0  0
 33 35  1  0  0  0  0
 33 36  1  0  0  0  0
 31 32  1  0  0  0  0
 31 33  1  0  0  0  0
 31 37  1  0  0  0  0
 29 30  1  0  0  0  0
 29 31  1  0  0  0  0
 41 42  1  0  0  0  0
 41 43  1  0  0  0  0
 41 44  1  0  0  0  0
 39 40  1  0  0  0  0
 39 41  1  0  0  0  0
M  END
$$$$
default_name
  -OEChem-01062215323D

 44 43  0     1  0  0  0  0  0999 V2000
    2.4488   -3.0448    2.0990 H   0  0  0  0  0  0  0  0  0  0  0  0
    2.2788   -2.0018    2.3640 C   0  0  0  0  0  0  0  0  0  0  0  0
    2.9228   -1.7258    3.1960 H   0  0  0  0  0  0  0  0  0  0  0  0
    1.2358   -1.8618    2.6430 H   0  0  0  0  0  0  0  0  0  0  0  0
    2.6018   -1.1318    1.1730 C   0  0  0  0  0  0  0  0  0  0  0  0
    3.0048   -1.6348    0.1320 O   0  0  0  0  0  0  0  0  0  0  0  0
    2.4088    0.1752    1.3190 N   0  0  0  0  0  0  0  0  0  0  0  0
    2.0708    0.5242    2.2050 H   0  0  0  0  0  0  0  0  0  0  0  0
    2.6638    1.1782    0.2840 C   0  0  1  0  0  0  0  0  0  0  0  0
    2.2842    0.7922   -0.6636 H   0  0  0  0  0  0  0  0  0  0  0  0
    1.8969    2.4705    0.6147 C   0  0  0  0  0  0  0  0  0  0  0  0
    2.2203    3.2553   -0.0702 H   0  0  0  0  0  0  0  0  0  0  0  0
    2.1973    2.7903    1.6121 H   0  0  0  0  0  0  0  0  0  0  0  0
    0.0806    2.4076    0.6052 S   0  0  0  0  0  0  0  0  0  0  0  0
    4.1739    1.4311    0.1171 C   0  0  0  0  0  0  0  0  0  0  0  0
    4.9397    1.2950    1.0711 O   0  0  0  0  0  0  0  0  0  0  0  0
    4.6024    1.7935   -1.0994 N   0  0  0  0  0  0  0  0  0  0  0  0
    3.9215    1.8836   -1.8363 H   0  0  0  0  0  0  0  0  0  0  0  0
    6.0016    2.0710   -1.4172 C   0  0  0  0  0  0  0  0  0  0  0  0
    6.3500    2.9220   -0.8282 H   0  0  0  0  0  0  0  0  0  0  0  0
    6.6160    1.2038   -1.1683 H   0  0  0  0  0  0  0  0  0  0  0  0
    6.1116    2.2977   -2.4785 H   0  0  0  0  0  0  0  0  0  0  0  0
    0.0111    6.7197   -6.2667 H   0  0  0  0  0  0  0  0  0  0  0  0
    0.1271    6.8429   -5.1910 C   0  0  0  0  0  0  0  0  0  0  0  0
   -0.3645    7.7603   -4.8712 H   0  0  0  0  0  0  0  0  0  0  0  0
    1.1854    6.8841   -4.9400 H   0  0  0  0  0  0  0  0  0  0  0  0
   -0.5079    5.6643   -4.4911 C   0  0  0  0  0  0  0  0  0  0  0  0
   -1.0283    4.7671   -5.1400 O   0  0  0  0  0  0  0  0  0  0  0  0
   -0.4561    5.6651   -3.1617 N   0  0  0  0  0  0  0  0  0  0  0  0
   -0.0193    6.4446   -2.6916 H   0  0  0  0  0  0  0  0  0  0  0  0
   -1.0078    4.6120   -2.3093 C   0  0  1  0  0  0  0  0  0  0  0  0
   -1.9367    4.2468   -2.7510 H   0  0  0  0  0  0  0  0  0  0  0  0
   -0.0019    3.4528   -2.2740 C   0  0  0  0  0  0  0  0  0  0  0  0
    0.1580    3.1254   -3.3023 H   0  0  0  0  0  0  0  0  0  0  0  0
    0.9531    3.8259   -1.9033 H   0  0  0  0  0  0  0  0  0  0  0  0
   -0.4564    1.9812   -1.3178 S   0  0  0  0  0  0  0  0  0  0  0  0
   -1.3272    5.1647   -0.9090 C   0  0  0  0  0  0  0  0  0  0  0  0
   -0.6550    6.0862   -0.4440 O   0  0  0  0  0  0  0  0  0  0  0  0
   -2.3511    4.6115   -0.2464 N   0  0  0  0  0  0  0  0  0  0  0  0
   -2.8302    3.8392   -0.6818 H   0  0  0  0  0  0  0  0  0  0  0  0
   -2.7778    5.0139    1.0932 C   0  0  0  0  0  0  0  0  0  0  0  0
   -2.0655    4.6443    1.8327 H   0  0  0  0  0  0  0  0  0  0  0  0
   -2.8167    6.1037    1.1612 H   0  0  0  0  0  0  0  0  0  0  0  0
   -3.7656    4.6081    1.3118 H   0  0  0  0  0  0  0  0  0  0  0  0
  5  6  2  0  0  0  0
  5  7  1  0  0  0  0
  2  3  1  0  0  0  0
  2  4  1  0  0  0  0
  2  5  1  0  0  0  0
  1  2  1  0  0  0  0
 15 16  2  0  0  0  0
 15 17  1  0  0  0  0
 14 36  1  0  0  0  0
 11 12  1  0  0  0  0
 11 13  1  0  0  0  0
 11 14  1  0  0  0  0
  9 10  1  0  0  0  0
  9 11  1  0  0  0  0
  9 15  1  0  0  0  0
  7  8  1  0  0  0  0
  7  9  1  0  0  0  0
 19 20  1  0  0  0  0
 19 21  1  0  0  0  0
 19 22  1  0  0  0  0
 17 18  1  0  0  0  0
 17 19  1  0  0  0  0
 27 28  2  0  0  0  0
 27 29  1  0  0  0  0
 24 25  1  0  0  0  0
 24 26  1  0  0  0  0
 24 27  1  0  0  0  0
 23 24  1  0  0  0  0
 37 38  2  0  0  0  0
 37 39  1  0  0  0  0
 33 34  1  0  0  0  0
 33 35  1  0  0  0  0
 33 36  1  0  0  0  0
 31 32  1  0  0  0  0
 31 33  1  0  0  0  0
 31 37  1  0  0  0  0
 29 30  1  0  0  0  0
 29 31  1  0  0  0  0
 41 42  1  0  0  0  0
 41 43  1  0  0  0  0
 41 44  1  0  0  0  0
 39 40  1  0  0  0  0
 39 41  1  0  0  0  0
M  END
$$$$
default_name
  -OEChem-01062215323D

 44 43  0     1  0  0  0  0  0999 V2000
    2.4488   -3.0448    2.0990 H   0  0  0  0  0  0  0  0  0  0  0  0
    2.2788   -2.0018    2.3640 C   0  0  0  0  0  0  0  0  0  0  0  0
    2.9228   -1.7258    3.1960 H   0  0  0  0  0  0  0  0  0  0  0  0
    1.2358   -1.8618    2.6430 H   0  0  0  0  0  0  0  0  0  0  0  0
    2.6018   -1.1318    1.1730 C   0  0  0  0  0  0  0  0  0  0  0  0
    3.0048   -1.6348    0.1320 O   0  0  0  0  0  0  0  0  0  0  0  0
    2.4088    0.1752    1.3190 N   0  0  0  0  0  0  0  0  0  0  0  0
    2.0708    0.5242    2.2050 H   0  0  0  0  0  0  0  0  0  0  0  0
    2.6638    1.1782    0.2840 C   0  0  1  0  0  0  0  0  0  0  0  0
    2.2842    0.7922   -0.6636 H   0  0  0  0  0  0  0  0  0  0  0  0
    1.8969    2.4705    0.6147 C   0  0  0  0  0  0  0  0  0  0  0  0
    2.2203    3.2553   -0.0702 H   0  0  0  0  0  0  0  0  0  0  0  0
    2.1973    2.7903    1.6121 H   0  0  0  0  0  0  0  0  0  0  0  0
    0.0806    2.4076    0.6052 S   0  0  0  0  0  0  0  0  0  0  0  0
    4.1739    1.4311    0.1171 C   0  0  0  0  0  0  0  0  0  0  0  0
    4.9712    1.0395    0.9692 O   0  0  0  0  0  0  0  0  0  0  0  0
    4.5666    2.0813   -0.9865 N   0  0  0  0  0  0  0  0  0  0  0  0
    3.8610    2.3712   -1.6444 H   0  0  0  0  0  0  0  0  0  0  0  0
    5.9610    2.3988   -1.2879 C   0  0  0  0  0  0  0  0  0  0  0  0
    6.3604    3.0640   -0.5193 H   0  0  0  0  0  0  0  0  0  0  0  0
    6.5551    1.4832   -1.2952 H   0  0  0  0  0  0  0  0  0  0  0  0
    6.0372    2.8855   -2.2610 H   0  0  0  0  0  0  0  0  0  0  0  0
    0.0111    6.7197   -6.2667 H   0  0  0  0  0  0  0  0  0  0  0  0
    0.1271    6.8429   -5.1910 C   0  0  0  0  0  0  0  0  0  0  0  0
   -0.3645    7.7603   -4.8712 H   0  0  0  0  0  0  0  0  0  0  0  0
    1.1854    6.8841   -4.9400 H   0  0  0  0  0  0  0  0  0  0  0  0
   -0.5079    5.6643   -4.4911 C   0  0  0  0  0  0  0  0  0  0  0  0
   -1.0283    4.7671   -5.1400 O   0  0  0  0  0  0  0  0  0  0  0  0
   -0.4561    5.6651   -3.1617 N   0  0  0  0  0  0  0  0  0  0  0  0
   -0.0193    6.4446   -2.6916 H   0  0  0  0  0  0  0  0  0  0  0  0
   -1.0078    4.6120   -2.3093 C   0  0  1  0  0  0  0  0  0  0  0  0
   -1.9367    4.2468   -2.7510 H   0  0  0  0  0  0  0  0  0  0  0  0
   -0.0019    3.4528   -2.2740 C   0  0  0  0  0  0  0  0  0  0  0  0
    0.1580    3.1254   -3.3023 H   0  0  0  0  0  0  0  0  0  0  0  0
    0.9531    3.8259   -1.9033 H   0  0  0  0  0  0  0  0  0  0  0  0
   -0.4564    1.9812   -1.3178 S   0  0  0  0  0  0  0  0  0  0  0  0
   -1.3272    5.1647   -0.9090 C   0  0  0  0  0  0  0  0  0  0  0  0
   -0.6550    6.0862   -0.4440 O   0  0  0  0  0  0  0  0  0  0  0  0
   -2.3511    4.6115   -0.2464 N   0  0  0  0  0  0  0  0  0  0  0  0
   -2.8302    3.8392   -0.6818 H   0  0  0  0  0  0  0  0  0  0  0  0
   -2.7778    5.0139    1.0932 C   0  0  0  0  0  0  0  0  0  0  0  0
   -2.0655    4.6443    1.8327 H   0  0  0  0  0  0  0  0  0  0  0  0
   -2.8167    6.1037    1.1612 H   0  0  0  0  0  0  0  0  0  0  0  0
   -3.7656    4.6081    1.3118 H   0  0  0  0  0  0  0  0  0  0  0  0
  5  6  2  0  0  0  0
  5  7  1  0  0  0  0
  2  3  1  0  0  0  0
  2  4  1  0  0  0  0
  2  5  1  0  0  0  0
  1  2  1  0  0  0  0
 15 16  2  0  0  0  0
 15 17  1  0  0  0  0
 14 36  1  0  0  0  0
 11 12  1  0  0  0  0
 11 13  1  0  0  0  0
 11 14  1  0  0  0  0
  9 10  1  0  0  0  0
  9 11  1  0  0  0  0
  9 15  1  0  0  0  0
  7  8  1  0  0  0  0
  7  9  1  0  0  0  0
 19 20  1  0  0  0  0
 19 21  1  0  0  0  0
 19 22  1  0  0  0  0
 17 18  1  0  0  0  0
 17 19  1  0  0  0  0
 27 28  2  0  0  0  0
 27 29  1  0  0  0  0
 24 25  1  0  0  0  0
 24 26  1  0  0  0  0
 24 27  1  0  0  0  0
 23 24  1  0  0  0  0
 37 38  2  0  0  0  0
 37 39  1  0  0  0  0
 33 34  1  0  0  0  0
 33 35  1  0  0  0  0
 33 36  1  0  0  0  0
 31 32  1  0  0  0  0
 31 33  1  0  0  0  0
 31 37  1  0  0  0  0
 29 30  1  0  0  0  0
 29 31  1  0  0  0  0
 41 42  1  0  0  0  0
 41 43  1  0  0  0  0
 41 44  1  0  0  0  0
 39 40  1  0  0  0  0
 39 41  1  0  0  0  0
M  END
$$$$
default_name
  -OEChem-01062215323D

 44 43  0     1  0  0  0  0  0999 V2000
    2.4488   -3.0448    2.0990 H   0  0  0  0  0  0  0  0  0  0  0  0
    2.2788   -2.0018    2.3640 C   0  0  0  0  0  0  0  0  0  0  0  0
    2.9228   -1.7258    3.1960 H   0  0  0  0  0  0  0  0  0  0  0  0
    1.2358   -1.8618    2.6430 H   0  0  0  0  0  0  0  0  0  0  0  0
    2.6018   -1.1318    1.1730 C   0  0  0  0  0  0  0  0  0  0  0  0
    3.0048   -1.6348    0.1320 O   0  0  0  0  0  0  0  0  0  0  0  0
    2.4088    0.1752    1.3190 N   0  0  0  0  0  0  0  0  0  0  0  0
    2.0708    0.5242    2.2050 H   0  0  0  0  0  0  0  0  0  0  0  0
    2.6638    1.1782    0.2840 C   0  0  1  0  0  0  0  0  0  0  0  0
    2.0605    0.9255   -0.5896 H   0  0  0  0  0  0  0  0  0  0  0  0
    2.2213    2.5640    0.7852 C   0  0  0  0  0  0  0  0  0  0  0  0
    2.5622    3.3190    0.0758 H   0  0  0  0  0  0  0  0  0  0  0  0
    2.7443    2.7628    1.7203 H   0  0  0  0  0  0  0  0  0  0  0  0
    0.4516    2.8279    1.1039 S   0  0  0  0  0  0  0  0  0  0  0  0
    4.1424    1.1666   -0.1470 C   0  0  0  0  0  0  0  0  0  0  0  0
    4.9360    0.3759    0.3630 O   0  0  0  0  0  0  0  0  0  0  0  0
    4.5104    2.0411   -1.0929 N   0  0  0  0  0  0  0  0  0  0  0  0
    3.8087    2.6578   -1.4696 H   0  0  0  0  0  0  0  0  0  0  0  0
    5.8741    2.1549   -1.6060 C   0  0  0  0  0  0  0  0  0  0  0  0
    6.5469    2.4499   -0.7979 H   0  0  0  0  0  0  0  0  0  0  0  0
    6.2041    1.1900   -1.9955 H   0  0  0  0  0  0  0  0  0  0  0  0
    5.9189    2.8991   -2.4021 H   0  0  0  0  0  0  0  0  0  0  0  0
    0.0012    7.4978   -5.5152 H   0  0  0  0  0  0  0  0  0  0  0  0
    0.3227    7.5318   -4.4753 C   0  0  0  0  0  0  0  0  0  0  0  0
    0.0743    8.5009   -4.0455 H   0  0  0  0  0  0  0  0  0  0  0  0
    1.3971    7.3673   -4.4195 H   0  0  0  0  0  0  0  0  0  0  0  0
   -0.3906    6.4450   -3.7056 C   0  0  0  0  0  0  0  0  0  0  0  0
   -1.1741    5.6971   -4.2747 O   0  0  0  0  0  0  0  0  0  0  0  0
   -0.1102    6.3546   -2.4084 N   0  0  0  0  0  0  0  0  0  0  0  0
    0.5393    7.0129   -2.0032 H   0  0  0  0  0  0  0  0  0  0  0  0
   -0.6931    5.3667   -1.5004 C   0  0  1  0  0  0  0  0  0  0  0  0
   -1.7361    5.2016   -1.7763 H   0  0  0  0  0  0  0  0  0  0  0  0
    0.0688    4.0463   -1.6815 C   0  0  0  0  0  0  0  0  0  0  0  0
   -0.0159    3.7596   -2.7306 H   0  0  0  0  0  0  0  0  0  0  0  0
    1.1262    4.2189   -1.4798 H   0  0  0  0  0  0  0  0  0  0  0  0
   -0.4805    2.6237   -0.7010 S   0  0  0  0  0  0  0  0  0  0  0  0
   -0.6561    5.8804   -0.0501 C   0  0  0  0  0  0  0  0  0  0  0  0
    0.2468    6.6363    0.3113 O   0  0  0  0  0  0  0  0  0  0  0  0
   -1.6350    5.4795    0.7712 N   0  0  0  0  0  0  0  0  0  0  0  0
   -2.3180    4.8338    0.4081 H   0  0  0  0  0  0  0  0  0  0  0  0
   -1.7402    5.8685    2.1770 C   0  0  0  0  0  0  0  0  0  0  0  0
   -0.9926    5.3326    2.7640 H   0  0  0  0  0  0  0  0  0  0  0  0
   -1.5622    6.9414    2.2821 H   0  0  0  0  0  0  0  0  0  0  0  0
   -2.7335    5.6333    2.5597 H   0  0  0  0  0  0  0  0  0  0  0  0
  5  6  2  0  0  0  0
  5  7  1  0  0  0  0
  2  3  1  0  0  0  0
  2  4  1  0  0  0  0
  2  5  1  0  0  0  0
  1  2  1  0  0  0  0
 15 16  2  0  0  0  0
 15 17  1  0  0  0  0
 14 36  1  0  0  0  0
 11 12  1  0  0  0  0
 11 13  1  0  0  0  0
 11 14  1  0  0  0  0
  9 10  1  0  0  0  0
  9 11  1  0  0  0  0
  9 15  1  0  0  0  0
  7  8  1  0  0  0  0
  7  9  1  0  0  0  0
 19 20  1  0  0  0  0
 19 21  1  0  0  0  0
 19 22  1  0  0  0  0
 17 18  1  0  0  0  0
 17 19  1  0  0  0  0
 27 28  2  0  0  0  0
 27 29  1  0  0  0  0
 24 25  1  0  0  0  0
 24 26  1  0  0  0  0
 24 27  1  0  0  0  0
 23 24  1  0  0  0  0
 37 38  2  0  0  0  0
 37 39  1  0  0  0  0
 33 34  1  0  0  0  0
 33 35  1  0  0  0  0
 33 36  1  0  0  0  0
 31 32  1  0  0  0  0
 31 33  1  0  0  0  0
 31 37  1  0  0  0  0
 29 30  1  0  0  0  0
 29 31  1  0  0  0  0
 41 42  1  0  0  0  0
 41 43  1  0  0  0  0
 41 44  1  0  0  0  0
 39 40  1  0  0  0  0
 39 41  1  0  0  0  0
M  END
$$$$
default_name
  -OEChem-01062215323D

 44 43  0     1  0  0  0  0  0999 V2000
    2.4488   -3.0448    2.0990 H   0  0  0  0  0  0  0  0  0  0  0  0
    2.2788   -2.0018    2.3640 C   0  0  0  0  0  0  0  0  0  0  0  0
    2.9228   -1.7258    3.1960 H   0  0  0  0  0  0  0  0  0  0  0  0
    1.2358   -1.8618    2.6430 H   0  0  0  0  0  0  0  0  0  0  0  0
    2.6018   -1.1318    1.1730 C   0  0  0  0  0  0  0  0  0  0  0  0
    3.0048   -1.6348    0.1320 O   0  0  0  0  0  0  0  0  0  0  0  0
    2.4088    0.1752    1.3190 N   0  0  0  0  0  0  0  0  0  0  0  0
    2.0708    0.5242    2.2050 H   0  0  0  0  0  0  0  0  0  0  0  0
    2.6638    1.1782    0.2840 C   0  0  1  0  0  0  0  0  0  0  0  0
    2.0605    0.9255   -0.5896 H   0  0  0  0  0  0  0  0  0  0  0  0
    2.2213    2.5640    0.7852 C   0  0  0  0  0  0  0  0  0  0  0  0
    2.5622    3.3190    0.0758 H   0  0  0  0  0  0  0  0  0  0  0  0
    2.7443    2.7628    1.7203 H   0  0  0  0  0  0  0  0  0  0  0  0
    0.4516    2.8279    1.1039 S   0  0  0  0  0  0  0  0  0  0  0  0
    4.1424    1.1666   -0.1470 C   0  0  0  0  0  0  0  0  0  0  0  0
    4.8712    0.2185    0.1448 O   0  0  0  0  0  0  0  0  0  0  0  0
    4.5831    2.2195   -0.8485 N   0  0  0  0  0  0  0  0  0  0  0  0
    3.9319    2.9598   -1.0550 H   0  0  0  0  0  0  0  0  0  0  0  0
    5.9570    2.3578   -1.3270 C   0  0  0  0  0  0  0  0  0  0  0  0
    6.6403    2.3931   -0.4759 H   0  0  0  0  0  0  0  0  0  0  0  0
    6.2208    1.4986   -1.9465 H   0  0  0  0  0  0  0  0  0  0  0  0
    6.0642    3.2712   -1.9135 H   0  0  0  0  0  0  0  0  0  0  0  0
    0.0012    7.4978   -5.5152 H   0  0  0  0  0  0  0  0  0  0  0  0
    0.3227    7.5318   -4.4753 C   0  0  0  0  0  0  0  0  0  0  0  0
    0.0743    8.5009   -4.0455 H   0  0  0  0  0  0  0  0  0  0  0  0
    1.3971    7.3673   -4.4195 H   0  0  0  0  0  0  0  0  0  0  0  0
   -0.3906    6.4450   -3.7056 C   0  0  0  0  0  0  0  0  0  0  0  0
   -1.1741    5.6971   -4.2747 O   0  0  0  0  0  0  0  0  0  0  0  0
   -0.1102    6.3546   -2.4084 N   0  0  0  0  0  0  0  0  0  0  0  0
    0.5393    7.0129   -2.0032 H   0  0  0  0  0  0  0  0  0  0  0  0
   -0.6931    5.3667   -1.5004 C   0  0  1  0  0  0  0  0  0  0  0  0
   -1.7361    5.2016   -1.7763 H   0  0  0  0  0  0  0  0  0  0  0  0
    0.0688    4.0463   -1.6815 C   0  0  0  0  0  0  0  0  0  0  0  0
   -0.0159    3.7596   -2.7306 H   0  0  0  0  0  0  0  0  0  0  0  0
    1.1262    4.2189   -1.4798 H   0  0  0  0  0  0  0  0  0  0  0  0
   -0.4805    2.6237   -0.7010 S   0  0  0  0  0  0  0  0  0  0  0  0
   -0.6561    5.8804   -0.0501 C   0  0  0  0  0  0  0  0  0  0  0  0
    0.2468    6.6363    0.3113 O   0  0  0  0  0  0  0  0  0  0  0  0
   -1.6350    5.4795    0.7712 N   0  0  0  0  0  0  0  0  0  0  0  0
   -2.3180    4.8338    0.4081 H   0  0  0  0  0  0  0  0  0  0  0  0
   -1.7402    5.8685    2.1770 C   0  0  0  0  0  0  0  0  0  0  0  0
   -0.9926    5.3326    2.7640 H   0  0  0  0  0  0  0  0  0  0  0  0
   -1.5622    6.9414    2.2821 H   0  0  0  0  0  0  0  0  0  0  0  0
   -2.7335    5.6333    2.5597 H   0  0  0  0  0  0  0  0  0  0  0  0
  5  6  2  0  0  0  0
  5  7  1  0  0  0  0
  2  3  1  0  0  0  0
  2  4  1  0  0  0  0
  2  5  1  0  0  0  0
  1  2  1  0  0  0  0
 15 16  2  0  0  0  0
 15 17  1  0  0  0  0
 14 36  1  0  0  0  0
 11 12  1  0  0  0  0
 11 13  1  0  0  0  0
 11 14  1  0  0  0  0
  9 10  1  0  0  0  0
  9 11  1  0  0  0  0
  9 15  1  0  0  0  0
  7  8  1  0  0  0  0
  7  9  1  0  0  0  0
 19 20  1  0  0  0  0
 19 21  1  0  0  0  0
 19 22  1  0  0  0  0
 17 18  1  0  0  0  0
 17 19  1  0  0  0  0
 27 28  2  0  0  0  0
 27 29  1  0  0  0  0
 24 25  1  0  0  0  0
 24 26  1  0  0  0  0
 24 27  1  0  0  0  0
 23 24  1  0  0  0  0
 37 38  2  0  0  0  0
 37 39  1  0  0  0  0
 33 34  1  0  0  0  0
 33 35  1  0  0  0  0
 33 36  1  0  0  0  0
 31 32  1  0  0  0  0
 31 33  1  0  0  0  0
 31 37  1  0  0  0  0
 29 30  1  0  0  0  0
 29 31  1  0  0  0  0
 41 42  1  0  0  0  0
 41 43  1  0  0  0  0
 41 44  1  0  0  0  0
 39 40  1  0  0  0  0
 39 41  1  0  0  0  0
M  END
$$$$
default_name
  -OEChem-01062215323D

 44 43  0     1  0  0  0  0  0999 V2000
    2.4488   -3.0448    2.0990 H   0  0  0  0  0  0  0  0  0  0  0  0
    2.2788   -2.0018    2.3640 C   0  0  0  0  0  0  0  0  0  0  0  0
    2.9228   -1.7258    3.1960 H   0  0  0  0  0  0  0  0  0  0  0  0
    1.2358   -1.8618    2.6430 H   0  0  0  0  0  0  0  0  0  0  0  0
    2.6018   -1.1318    1.1730 C   0  0  0  0  0  0  0  0  0  0  0  0
    3.0048   -1.6348    0.1320 O   0  0  0  0  0  0  0  0  0  0  0  0
    2.4088    0.1752    1.3190 N   0  0  0  0  0  0  0  0  0  0  0  0
    2.0708    0.5242    2.2050 H   0  0  0  0  0  0  0  0  0  0  0  0
    2.6638    1.1782    0.2840 C   0  0  1  0  0  0  0  0  0  0  0  0
    2.0605    0.9255   -0.5896 H   0  0  0  0  0  0  0  0  0  0  0  0
    2.2213    2.5640    0.7852 C   0  0  0  0  0  0  0  0  0  0  0  0
    2.5622    3.3190    0.0758 H   0  0  0  0  0  0  0  0  0  0  0  0
    2.7443    2.7628    1.7203 H   0  0  0  0  0  0  0  0  0  0  0  0
    0.4516    2.8279    1.1039 S   0  0  0  0  0  0  0  0  0  0  0  0
    4.1424    1.1666   -0.1470 C   0  0  0  0  0  0  0  0  0  0  0  0
    4.7976    0.1254   -0.1053 O   0  0  0  0  0  0  0  0  0  0  0  0
    4.6657    2.3259   -0.5680 N   0  0  0  0  0  0  0  0  0  0  0  0
    4.0720    3.1395   -0.5793 H   0  0  0  0  0  0  0  0  0  0  0  0
    6.0512    2.4785   -1.0070 C   0  0  0  0  0  0  0  0  0  0  0  0
    6.7258    2.2515   -0.1787 H   0  0  0  0  0  0  0  0  0  0  0  0
    6.2592    1.7833   -1.8224 H   0  0  0  0  0  0  0  0  0  0  0  0
    6.2305    3.4986   -1.3488 H   0  0  0  0  0  0  0  0  0  0  0  0
    0.0012    7.4978   -5.5152 H   0  0  0  0  0  0  0  0  0  0  0  0
    0.3227    7.5318   -4.4753 C   0  0  0  0  0  0  0  0  0  0  0  0
    0.0743    8.5009   -4.0455 H   0  0  0  0  0  0  0  0  0  0  0  0
    1.3971    7.3673   -4.4195 H   0  0  0  0  0  0  0  0  0  0  0  0
   -0.3906    6.4450   -3.7056 C   0  0  0  0  0  0  0  0  0  0  0  0
   -1.1741    5.6971   -4.2747 O   0  0  0  0  0  0  0  0  0  0  0  0
   -0.1102    6.3546   -2.4084 N   0  0  0  0  0  0  0  0  0  0  0  0
    0.5393    7.0129   -2.0032 H   0  0  0  0  0  0  0  0  0  0  0  0
   -0.6931    5.3667   -1.5004 C   0  0  1  0  0  0  0  0  0  0  0  0
   -1.7361    5.2016   -1.7763 H   0  0  0  0  0  0  0  0  0  0  0  0
    0.0688    4.0463   -1.6815 C   0  0  0  0  0  0  0  0  0  0  0  0
   -0.0159    3.7596   -2.7306 H   0  0  0  0  0  0  0  0  0  0  0  0
    1.1262    4.2189   -1.4798 H   0  0  0  0  0  0  0  0  0  0  0  0
   -0.4805    2.6237   -0.7010 S   0  0  0  0  0  0  0  0  0  0  0  0
   -0.6561    5.8804   -0.0501 C   0  0  0  0  0  0  0  0  0  0  0  0
    0.2468    6.6363    0.3113 O   0  0  0  0  0  0  0  0  0  0  0  0
   -1.6350    5.4795    0.7712 N   0  0  0  0  0  0  0  0  0  0  0  0
   -2.3180    4.8338    0.4081 H   0  0  0  0  0  0  0  0  0  0  0  0
   -1.7402    5.8685    2.1770 C   0  0  0  0  0  0  0  0  0  0  0  0
   -0.9926    5.3326    2.7640 H   0  0  0  0  0  0  0  0  0  0  0  0
   -1.5622    6.9414    2.2821 H   0  0  0  0  0  0  0  0  0  0  0  0
   -2.7335    5.6333    2.5597 H   0  0  0  0  0  0  0  0  0  0  0  0
  5  6  2  0  0  0  0
  5  7  1  0  0  0  0
  2  3  1  0  0  0  0
  2  4  1  0  0  0  0
  2  5  1  0  0  0  0
  1  2  1  0  0  0  0
 15 16  2  0  0  0  0
 15 17  1  0  0  0  0
 14 36  1  0  0  0  0
 11 12  1  0  0  0  0
 11 13  1  0  0  0  0
 11 14  1  0  0  0  0
  9 10  1  0  0  0  0
  9 11  1  0  0  0  0
  9 15  1  0  0  0  0
  7  8  1  0  0  0  0
  7  9  1  0  0  0  0
 19 20  1  0  0  0  0
 19 21  1  0  0  0  0
 19 22  1  0  0  0  0
 17 18  1  0  0  0  0
 17 19  1  0  0  0  0
 27 28  2  0  0  0  0
 27 29  1  0  0  0  0
 24 25  1  0  0  0  0
 24 26  1  0  0  0  0
 24 27  1  0  0  0  0
 23 24  1  0  0  0  0
 37 38  2  0  0  0  0
 37 39  1  0  0  0  0
 33 34  1  0  0  0  0
 33 35  1  0  0  0  0
 33 36  1  0  0  0  0
 31 32  1  0  0  0  0
 31 33  1  0  0  0  0
 31 37  1  0  0  0  0
 29 30  1  0  0  0  0
 29 31  1  0  0  0  0
 41 42  1  0  0  0  0
 41 43  1  0  0  0  0
 41 44  1  0  0  0  0
 39 40  1  0  0  0  0
 39 41  1  0  0  0  0
M  END
$$$$
default_name
  -OEChem-01062215323D

 44 43  0     1  0  0  0  0  0999 V2000
    2.4488   -3.0448    2.0990 H   0  0  0  0  0  0  0  0  0  0  0  0
    2.2788   -2.0018    2.3640 C   0  0  0  0  0  0  0  0  0  0  0  0
    2.9228   -1.7258    3.1960 H   0  0  0  0  0  0  0  0  0  0  0  0
    1.2358   -1.8618    2.6430 H   0  0  0  0  0  0  0  0  0  0  0  0
    2.6018   -1.1318    1.1730 C   0  0  0  0  0  0  0  0  0  0  0  0
    3.0048   -1.6348    0.1320 O   0  0  0  0  0  0  0  0  0  0  0  0
    2.4088    0.1752    1.3190 N   0  0  0  0  0  0  0  0  0  0  0  0
    2.0708    0.5242    2.2050 H   0  0  0  0  0  0  0  0  0  0  0  0
    2.6638    1.1782    0.2840 C   0  0  1  0  0  0  0  0  0  0  0  0
    2.0605    0.9255   -0.5896 H   0  0  0  0  0  0  0  0  0  0  0  0
    2.2213    2.5640    0.7852 C   0  0  0  0  0  0  0  0  0  0  0  0
    2.5622    3.3190    0.0758 H   0  0  0  0  0  0  0  0  0  0  0  0
    2.7443    2.7628    1.7203 H   0  0  0  0  0  0  0  0  0  0  0  0
    0.4516    2.8279    1.1039 S   0  0  0  0  0  0  0  0  0  0  0  0
    4.1424    1.1666   -0.1470 C   0  0  0  0  0  0  0  0  0  0  0  0
    4.7202    0.1029   -0.3701 O   0  0  0  0  0  0  0  0  0  0  0  0
    4.7526    2.3529   -0.2704 N   0  0  0  0  0  0  0  0  0  0  0  0
    4.2193    3.1848   -0.0749 H   0  0  0  0  0  0  0  0  0  0  0  0
    6.1504    2.5087   -0.6677 C   0  0  0  0  0  0  0  0  0  0  0  0
    6.7976    2.0347    0.0733 H   0  0  0  0  0  0  0  0  0  0  0  0
    6.3166    2.0246   -1.6318 H   0  0  0  0  0  0  0  0  0  0  0  0
    6.4066    3.5660   -0.7465 H   0  0  0  0  0  0  0  0  0  0  0  0
    0.0012    7.4978   -5.5152 H   0  0  0  0  0  0  0  0  0  0  0  0
    0.3227    7.5318   -4.4753 C   0  0  0  0  0  0  0  0  0  0  0  0
    0.0743    8.5009   -4.0455 H   0  0  0  0  0  0  0  0  0  0  0  0
    1.3971    7.3673   -4.4195 H   0  0  0  0  0  0  0  0  0  0  0  0
   -0.3906    6.4450   -3.7056 C   0  0  0  0  0  0  0  0  0  0  0  0
   -1.1741    5.6971   -4.2747 O   0  0  0  0  0  0  0  0  0  0  0  0
   -0.1102    6.3546   -2.4084 N   0  0  0  0  0  0  0  0  0  0  0  0
    0.5393    7.0129   -2.0032 H   0  0  0  0  0  0  0  0  0  0  0  0
   -0.6931    5.3667   -1.5004 C   0  0  1  0  0  0  0  0  0  0  0  0
   -1.7361    5.2016   -1.7763 H   0  0  0  0  0  0  0  0  0  0  0  0
    0.0688    4.0463   -1.6815 C   0  0  0  0  0  0  0  0  0  0  0  0
   -0.0159    3.7596   -2.7306 H   0  0  0  0  0  0  0  0  0  0  0  0
    1.1262    4.2189   -1.4798 H   0  0  0  0  0  0  0  0  0  0  0  0
   -0.4805    2.6237   -0.7010 S   0  0  0  0  0  0  0  0  0  0  0  0
   -0.6561    5.8804   -0.0501 C   0  0  0  0  0  0  0  0  0  0  0  0
    0.2468    6.6363    0.3113 O   0  0  0  0  0  0  0  0  0  0  0  0
   -1.6350    5.4795    0.7712 N   0  0  0  0  0  0  0  0  0  0  0  0
   -2.3180    4.8338    0.4081 H   0  0  0  0  0  0  0  0  0  0  0  0
   -1.7402    5.8685    2.1770 C   0  0  0  0  0  0  0  0  0  0  0  0
   -0.9926    5.3326    2.7640 H   0  0  0  0  0  0  0  0  0  0  0  0
   -1.5622    6.9414    2.2821 H   0  0  0  0  0  0  0  0  0  0  0  0
   -2.7335    5.6333    2.5597 H   0  0  0  0  0  0  0  0  0  0  0  0
  5  6  2  0  0  0  0
  5  7  1  0  0  0  0
  2  3  1  0  0  0  0
  2  4  1  0  0  0  0
  2  5  1  0  0  0  0
  1  2  1  0  0  0  0
 15 16  2  0  0  0  0
 15 17  1  0  0  0  0
 14 36  1  0  0  0  0
 11 12  1  0  0  0  0
 11 13  1  0  0  0  0
 11 14  1  0  0  0  0
  9 10  1  0  0  0  0
  9 11  1  0  0  0  0
  9 15  1  0  0  0  0
  7  8  1  0  0  0  0
  7  9  1  0  0  0  0
 19 20  1  0  0  0  0
 19 21  1  0  0  0  0
 19 22  1  0  0  0  0
 17 18  1  0  0  0  0
 17 19  1  0  0  0  0
 27 28  2  0  0  0  0
 27 29  1  0  0  0  0
 24 25  1  0  0  0  0
 24 26  1  0  0  0  0
 24 27  1  0  0  0  0
 23 24  1  0  0  0  0
 37 38  2  0  0  0  0
 37 39  1  0  0  0  0
 33 34  1  0  0  0  0
 33 35  1  0  0  0  0
 33 36  1  0  0  0  0
 31 32  1  0  0  0  0
 31 33  1  0  0  0  0
 31 37  1  0  0  0  0
 29 30  1  0  0  0  0
 29 31  1  0  0  0  0
 41 42  1  0  0  0  0
 41 43  1  0  0  0  0
 41 44  1  0  0  0  0
 39 40  1  0  0  0  0
 39 41  1  0  0  0  0
M  END
$$$$
default_name
  -OEChem-01062215323D

 44 43  0     1  0  0  0  0  0999 V2000
    2.4488   -3.0448    2.0990 H   0  0  0  0  0  0  0  0  0  0  0  0
    2.2788   -2.0018    2.3640 C   0  0  0  0  0  0  0  0  0  0  0  0
    2.9228   -1.7258    3.1960 H   0  0  0  0  0  0  0  0  0  0  0  0
    1.2358   -1.8618    2.6430 H   0  0  0  0  0  0  0  0  0  0  0  0
    2.6018   -1.1318    1.1730 C   0  0  0  0  0  0  0  0  0  0  0  0
    3.0048   -1.6348    0.1320 O   0  0  0  0  0  0  0  0  0  0  0  0
    2.4088    0.1752    1.3190 N   0  0  0  0  0  0  0  0  0  0  0  0
    2.0708    0.5242    2.2050 H   0  0  0  0  0  0  0  0  0  0  0  0
    2.6638    1.1782    0.2840 C   0  0  1  0  0  0  0  0  0  0  0  0
    2.0605    0.9255   -0.5896 H   0  0  0  0  0  0  0  0  0  0  0  0
    2.2213    2.5640    0.7852 C   0  0  0  0  0  0  0  0  0  0  0  0
    2.5622    3.3190    0.0758 H   0  0  0  0  0  0  0  0  0  0  0  0
    2.7443    2.7628    1.7203 H   0  0  0  0  0  0  0  0  0  0  0  0
    0.4516    2.8279    1.1039 S   0  0  0  0  0  0  0  0  0  0  0  0
    4.1424    1.1666   -0.1470 C   0  0  0  0  0  0  0  0  0  0  0  0
    4.6444    0.1526   -0.6317 O   0  0  0  0  0  0  0  0  0  0  0  0
    4.8380    2.2988    0.0239 N   0  0  0  0  0  0  0  0  0  0  0  0
    4.3640    3.0926    0.4239 H   0  0  0  0  0  0  0  0  0  0  0  0
    6.2476    2.4464   -0.3322 C   0  0  0  0  0  0  0  0  0  0  0  0
    6.8507    1.7574    0.2630 H   0  0  0  0  0  0  0  0  0  0  0  0
    6.3892    2.2062   -1.3876 H   0  0  0  0  0  0  0  0  0  0  0  0
    6.5804    3.4686   -0.1476 H   0  0  0  0  0  0  0  0  0  0  0  0
    0.0012    7.4978   -5.5152 H   0  0  0  0  0  0  0  0  0  0  0  0
    0.3227    7.5318   -4.4753 C   0  0  0  0  0  0  0  0  0  0  0  0
    0.0743    8.5009   -4.0455 H   0  0  0  0  0  0  0  0  0  0  0  0
    1.3971    7.3673   -4.4195 H   0  0  0  0  0  0  0  0  0  0  0  0
   -0.3906    6.4450   -3.7056 C   0  0  0  0  0  0  0  0  0  0  0  0
   -1.1741    5.6971   -4.2747 O   0  0  0  0  0  0  0  0  0  0  0  0
   -0.1102    6.3546   -2.4084 N   0  0  0  0  0  0  0  0  0  0  0  0
    0.5393    7.0129   -2.0032 H   0  0  0  0  0  0  0  0  0  0  0  0
   -0.6931    5.3667   -1.5004 C   0  0  1  0  0  0  0  0  0  0  0  0
   -1.7361    5.2016   -1.7763 H   0  0  0  0  0  0  0  0  0  0  0  0
    0.0688    4.0463   -1.6815 C   0  0  0  0  0  0  0  0  0  0  0  0
   -0.0159    3.7596   -2.7306 H   0  0  0  0  0  0  0  0  0  0  0  0
    1.1262    4.2189   -1.4798 H   0  0  0  0  0  0  0  0  0  0  0  0
   -0.4805    2.6237   -0.7010 S   0  0  0  0  0  0  0  0  0  0  0  0
   -0.6561    5.8804   -0.0501 C   0  0  0  0  0  0  0  0  0  0  0  0
    0.2468    6.6363    0.3113 O   0  0  0  0  0  0  0  0  0  0  0  0
   -1.6350    5.4795    0.7712 N   0  0  0  0  0  0  0  0  0  0  0  0
   -2.3180    4.8338    0.4081 H   0  0  0  0  0  0  0  0  0  0  0  0
   -1.7402    5.8685    2.1770 C   0  0  0  0  0  0  0  0  0  0  0  0
   -0.9926    5.3326    2.7640 H   0  0  0  0  0  0  0  0  0  0  0  0
   -1.5622    6.9414    2.2821 H   0  0  0  0  0  0  0  0  0  0  0  0
   -2.7335    5.6333    2.5597 H   0  0  0  0  0  0  0  0  0  0  0  0
  5  6  2  0  0  0  0
  5  7  1  0  0  0  0
  2  3  1  0  0  0  0
  2  4  1  0  0  0  0
  2  5  1  0  0  0  0
  1  2  1  0  0  0  0
 15 16  2  0  0  0  0
 15 17  1  0  0  0  0
 14 36  1  0  0  0  0
 11 12  1  0  0  0  0
 11 13  1  0  0  0  0
 11 14  1  0  0  0  0
  9 10  1  0  0  0  0
  9 11  1  0  0  0  0
  9 15  1  0  0  0  0
  7  8  1  0  0  0  0
  7  9  1  0  0  0  0
 19 20  1  0  0  0  0
 19 21  1  0  0  0  0
 19 22  1  0  0  0  0
 17 18  1  0  0  0  0
 17 19  1  0  0  0  0
 27 28  2  0  0  0  0
 27 29  1  0  0  0  0
 24 25  1  0  0  0  0
 24 26  1  0  0  0  0
 24 27  1  0  0  0  0
 23 24  1  0  0  0  0
 37 38  2  0  0  0  0
 37 39  1  0  0  0  0
 33 34  1  0  0  0  0
 33 35  1  0  0  0  0
 33 36  1  0  0  0  0
 31 32  1  0  0  0  0
 31 33  1  0  0  0  0
 31 37  1  0  0  0  0
 29 30  1  0  0  0  0
 29 31  1  0  0  0  0
 41 42  1  0  0  0  0
 41 43  1  0  0  0  0
 41 44  1  0  0  0  0
 39 40  1  0  0  0  0
 39 41  1  0  0  0  0
M  END
$$$$
default_name
  -OEChem-01062215323D

 44 43  0     1  0  0  0  0  0999 V2000
    2.4488   -3.0448    2.0990 H   0  0  0  0  0  0  0  0  0  0  0  0
    2.2788   -2.0018    2.3640 C   0  0  0  0  0  0  0  0  0  0  0  0
    2.9228   -1.7258    3.1960 H   0  0  0  0  0  0  0  0  0  0  0  0
    1.2358   -1.8618    2.6430 H   0  0  0  0  0  0  0  0  0  0  0  0
    2.6018   -1.1318    1.1730 C   0  0  0  0  0  0  0  0  0  0  0  0
    3.0048   -1.6348    0.1320 O   0  0  0  0  0  0  0  0  0  0  0  0
    2.4088    0.1752    1.3190 N   0  0  0  0  0  0  0  0  0  0  0  0
    2.0708    0.5242    2.2050 H   0  0  0  0  0  0  0  0  0  0  0  0
    2.6638    1.1782    0.2840 C   0  0  1  0  0  0  0  0  0  0  0  0
    2.0605    0.9255   -0.5896 H   0  0  0  0  0  0  0  0  0  0  0  0
    2.2213    2.5640    0.7852 C   0  0  0  0  0  0  0  0  0  0  0  0
    2.5622    3.3190    0.0758 H   0  0  0  0  0  0  0  0  0  0  0  0
    2.7443    2.7628    1.7203 H   0  0  0  0  0  0  0  0  0  0  0  0
    0.4516    2.8279    1.1039 S   0  0  0  0  0  0  0  0  0  0  0  0
    4.1424    1.1666   -0.1470 C   0  0  0  0  0  0  0  0  0  0  0  0
    4.5752    0.2710   -0.8721 O   0  0  0  0  0  0  0  0  0  0  0  0
    4.9159    2.1672    0.2950 N   0  0  0  0  0  0  0  0  0  0  0  0
    4.4961    2.8690    0.8831 H   0  0  0  0  0  0  0  0  0  0  0  0
    6.3364    2.2958   -0.0235 C   0  0  0  0  0  0  0  0  0  0  0  0
    6.8816    1.4387    0.3775 H   0  0  0  0  0  0  0  0  0  0  0  0
    6.4720    2.3157   -1.1064 H   0  0  0  0  0  0  0  0  0  0  0  0
    6.7400    3.2132    0.4069 H   0  0  0  0  0  0  0  0  0  0  0  0
    0.0012    7.4978   -5.5152 H   0  0  0  0  0  0  0  0  0  0  0  0
    0.3227    7.5318   -4.4753 C   0  0  0  0  0  0  0  0  0  0  0  0
    0.0743    8.5009   -4.0455 H   0  0  0  0  0  0  0  0  0  0  0  0
    1.3971    7.3673   -4.4195 H   0  0  0  0  0  0  0  0  0  0  0  0
   -0.3906    6.4450   -3.7056 C   0  0  0  0  0  0  0  0  0  0  0  0
   -1.1741    5.6971   -4.2747 O   0  0  0  0  0  0  0  0  0  0  0  0
   -0.1102    6.3546   -2.4084 N   0  0  0  0  0  0  0  0  0  0  0  0
    0.5393    7.0129   -2.0032 H   0  0  0  0  0  0  0  0  0  0  0  0
   -0.6931    5.3667   -1.5004 C   0  0  1  0  0  0  0  0  0  0  0  0
   -1.7361    5.2016   -1.7763 H   0  0  0  0  0  0  0  0  0  0  0  0
    0.0688    4.0463   -1.6815 C   0  0  0  0  0  0  0  0  0  0  0  0
   -0.0159    3.7596   -2.7306 H   0  0  0  0  0  0  0  0  0  0  0  0
    1.1262    4.2189   -1.4798 H   0  0  0  0  0  0  0  0  0  0  0  0
   -0.4805    2.6237   -0.7010 S   0  0  0  0  0  0  0  0  0  0  0  0
   -0.6561    5.8804   -0.0501 C   0  0  0  0  0  0  0  0  0  0  0  0
    0.2468    6.6363    0.3113 O   0  0  0  0  0  0  0  0  0  0  0  0
   -1.6350    5.4795    0.7712 N   0  0  0  0  0  0  0  0  0  0  0  0
   -2.3180    4.8338    0.4081 H   0  0  0  0  0  0  0  0  0  0  0  0
   -1.7402    5.8685    2.1770 C   0  0  0  0  0  0  0  0  0  0  0  0
   -0.9926    5.3326    2.7640 H   0  0  0  0  0  0  0  0  0  0  0  0
   -1.5622    6.9414    2.2821 H   0  0  0  0  0  0  0  0  0  0  0  0
   -2.7335    5.6333    2.5597 H   0  0  0  0  0  0  0  0  0  0  0  0
  5  6  2  0  0  0  0
  5  7  1  0  0  0  0
  2  3  1  0  0  0  0
  2  4  1  0  0  0  0
  2  5  1  0  0  0  0
  1  2  1  0  0  0  0
 15 16  2  0  0  0  0
 15 17  1  0  0  0  0
 14 36  1  0  0  0  0
 11 12  1  0  0  0  0
 11 13  1  0  0  0  0
 11 14  1  0  0  0  0
  9 10  1  0  0  0  0
  9 11  1  0  0  0  0
  9 15  1  0  0  0  0
  7  8  1  0  0  0  0
  7  9  1  0  0  0  0
 19 20  1  0  0  0  0
 19 21  1  0  0  0  0
 19 22  1  0  0  0  0
 17 18  1  0  0  0  0
 17 19  1  0  0  0  0
 27 28  2  0  0  0  0
 27 29  1  0  0  0  0
 24 25  1  0  0  0  0
 24 26  1  0  0  0  0
 24 27  1  0  0  0  0
 23 24  1  0  0  0  0
 37 38  2  0  0  0  0
 37 39  1  0  0  0  0
 33 34  1  0  0  0  0
 33 35  1  0  0  0  0
 33 36  1  0  0  0  0
 31 32  1  0  0  0  0
 31 33  1  0  0  0  0
 31 37  1  0  0  0  0
 29 30  1  0  0  0  0
 29 31  1  0  0  0  0
 41 42  1  0  0  0  0
 41 43  1  0  0  0  0
 41 44  1  0  0  0  0
 39 40  1  0  0  0  0
 39 41  1  0  0  0  0
M  END
$$$$
default_name
  -OEChem-01062215323D

 44 43  0     1  0  0  0  0  0999 V2000
    2.4488   -3.0448    2.0990 H   0  0  0  0  0  0  0  0  0  0  0  0
    2.2788   -2.0018    2.3640 C   0  0  0  0  0  0  0  0  0  0  0  0
    2.9228   -1.7258    3.1960 H   0  0  0  0  0  0  0  0  0  0  0  0
    1.2358   -1.8618    2.6430 H   0  0  0  0  0  0  0  0  0  0  0  0
    2.6018   -1.1318    1.1730 C   0  0  0  0  0  0  0  0  0  0  0  0
    3.0048   -1.6348    0.1320 O   0  0  0  0  0  0  0  0  0  0  0  0
    2.4088    0.1752    1.3190 N   0  0  0  0  0  0  0  0  0  0  0  0
    2.0708    0.5242    2.2050 H   0  0  0  0  0  0  0  0  0  0  0  0
    2.6638    1.1782    0.2840 C   0  0  1  0  0  0  0  0  0  0  0  0
    2.0605    0.9255   -0.5896 H   0  0  0  0  0  0  0  0  0  0  0  0
    2.2213    2.5640    0.7852 C   0  0  0  0  0  0  0  0  0  0  0  0
    2.5622    3.3190    0.0758 H   0  0  0  0  0  0  0  0  0  0  0  0
    2.7443    2.7628    1.7203 H   0  0  0  0  0  0  0  0  0  0  0  0
    0.4516    2.8279    1.1039 S   0  0  0  0  0  0  0  0  0  0  0  0
    4.1424    1.1666   -0.1470 C   0  0  0  0  0  0  0  0  0  0  0  0
    4.5175    0.4502   -1.0750 O   0  0  0  0  0  0  0  0  0  0  0  0
    4.9812    1.9671    0.5242 N   0  0  0  0  0  0  0  0  0  0  0  0
    4.6065    2.5294    1.2713 H   0  0  0  0  0  0  0  0  0  0  0  0
    6.4107    2.0672    0.2375 C   0  0  0  0  0  0  0  0  0  0  0  0
    6.8881    1.1001    0.4089 H   0  0  0  0  0  0  0  0  0  0  0  0
    6.5594    2.3456   -0.8075 H   0  0  0  0  0  0  0  0  0  0  0  0
    6.8747    2.8171    0.8795 H   0  0  0  0  0  0  0  0  0  0  0  0
    0.0012    7.4978   -5.5152 H   0  0  0  0  0  0  0  0  0  0  0  0
    0.3227    7.5318   -4.4753 C   0  0  0  0  0  0  0  0  0  0  0  0
    0.0743    8.5009   -4.0455 H   0  0  0  0  0  0  0  0  0  0  0  0
    1.3971    7.3673   -4.4195 H   0  0  0  0  0  0  0  0  0  0  0  0
   -0.3906    6.4450   -3.7056 C   0  0  0  0  0  0  0  0  0  0  0  0
   -1.1741    5.6971   -4.2747 O   0  0  0  0  0  0  0  0  0  0  0  0
   -0.1102    6.3546   -2.4084 N   0  0  0  0  0  0  0  0  0  0  0  0
    0.5393    7.0129   -2.0032 H   0  0  0  0  0  0  0  0  0  0  0  0
   -0.6931    5.3667   -1.5004 C   0  0  1  0  0  0  0  0  0  0  0  0
   -1.7361    5.2016   -1.7763 H   0  0  0  0  0  0  0  0  0  0  0  0
    0.0688    4.0463   -1.6815 C   0  0  0  0  0  0  0  0  0  0  0  0
   -0.0159    3.7596   -2.7306 H   0  0  0  0  0  0  0  0  0  0  0  0
    1.1262    4.2189   -1.4798 H   0  0  0  0  0  0  0  0  0  0  0  0
   -0.4805    2.6237   -0.7010 S   0  0  0  0  0  0  0  0  0  0  0  0
   -0.6561    5.8804   -0.0501 C   0  0  0  0  0  0  0  0  0  0  0  0
    0.2468    6.6363    0.3113 O   0  0  0  0  0  0  0  0  0  0  0  0
   -1.6350    5.4795    0.7712 N   0  0  0  0  0  0  0  0  0  0  0  0
   -2.3180    4.8338    0.4081 H   0  0  0  0  0  0  0  0  0  0  0  0
   -1.7402    5.8685    2.1770 C   0  0  0  0  0  0  0  0  0  0  0  0
   -0.9926    5.3326    2.7640 H   0  0  0  0  0  0  0  0  0  0  0  0
   -1.5622    6.9414    2.2821 H   0  0  0  0  0  0  0  0  0  0  0  0
   -2.7335    5.6333    2.5597 H   0  0  0  0  0  0  0  0  0  0  0  0
  5  6  2  0  0  0  0
  5  7  1  0  0  0  0
  2  3  1  0  0  0  0
  2  4  1  0  0  0  0
  2  5  1  0  0  0  0
  1  2  1  0  0  0  0
 15 16  2  0  0  0  0
 15 17  1  0  0  0  0
 14 36  1  0  0  0  0
 11 12  1  0  0  0  0
 11 13  1  0  0  0  0
 11 14  1  0  0  0  0
  9 10  1  0  0  0  0
  9 11  1  0  0  0  0
  9 15  1  0  0  0  0
  7  8  1  0  0  0  0
  7  9  1  0  0  0  0
 19 20  1  0  0  0  0
 19 21  1  0  0  0  0
 19 22  1  0  0  0  0
 17 18  1  0  0  0  0
 17 19  1  0  0  0  0
 27 28  2  0  0  0  0
 27 29  1  0  0  0  0
 24 25  1  0  0  0  0
 24 26  1  0  0  0  0
 24 27  1  0  0  0  0
 23 24  1  0  0  0  0
 37 38  2  0  0  0  0
 37 39  1  0  0  0  0
 33 34  1  0  0  0  0
 33 35  1  0  0  0  0
 33 36  1  0  0  0  0
 31 32  1  0  0  0  0
 31 33  1  0  0  0  0
 31 37  1  0  0  0  0
 29 30  1  0  0  0  0
 29 31  1  0  0  0  0
 41 42  1  0  0  0  0
 41 43  1  0  0  0  0
 41 44  1  0  0  0  0
 39 40  1  0  0  0  0
 39 41  1  0  0  0  0
M  END
$$$$
default_name
  -OEChem-01062215323D

 44 43  0     1  0  0  0  0  0999 V2000
    2.4488   -3.0448    2.0990 H   0  0  0  0  0  0  0  0  0  0  0  0
    2.2788   -2.0018    2.3640 C   0  0  0  0  0  0  0  0  0  0  0  0
    2.9228   -1.7258    3.1960 H   0  0  0  0  0  0  0  0  0  0  0  0
    1.2358   -1.8618    2.6430 H   0  0  0  0  0  0  0  0  0  0  0  0
    2.6018   -1.1318    1.1730 C   0  0  0  0  0  0  0  0  0  0  0  0
    3.0048   -1.6348    0.1320 O   0  0  0  0  0  0  0  0  0  0  0  0
    2.4088    0.1752    1.3190 N   0  0  0  0  0  0  0  0  0  0  0  0
    2.0708    0.5242    2.2050 H   0  0  0  0  0  0  0  0  0  0  0  0
    2.6638    1.1782    0.2840 C   0  0  1  0  0  0  0  0  0  0  0  0
    2.0605    0.9255   -0.5896 H   0  0  0  0  0  0  0  0  0  0  0  0
    2.2213    2.5640    0.7852 C   0  0  0  0  0  0  0  0  0  0  0  0
    2.5622    3.3190    0.0758 H   0  0  0  0  0  0  0  0  0  0  0  0
    2.7443    2.7628    1.7203 H   0  0  0  0  0  0  0  0  0  0  0  0
    0.4516    2.8279    1.1039 S   0  0  0  0  0  0  0  0  0  0  0  0
    4.1424    1.1666   -0.1470 C   0  0  0  0  0  0  0  0  0  0  0  0
    4.4751    0.6779   -1.2266 O   0  0  0  0  0  0  0  0  0  0  0  0
    5.0293    1.7122    0.6960 N   0  0  0  0  0  0  0  0  0  0  0  0
    4.6879    2.0970    1.5621 H   0  0  0  0  0  0  0  0  0  0  0  0
    6.4654    1.7762    0.4329 C   0  0  0  0  0  0  0  0  0  0  0  0
    6.8698    0.7647    0.3551 H   0  0  0  0  0  0  0  0  0  0  0  0
    6.6453    2.2938   -0.5111 H   0  0  0  0  0  0  0  0  0  0  0  0
    6.9751    2.3073    1.2378 H   0  0  0  0  0  0  0  0  0  0  0  0
    0.0012    7.4978   -5.5152 H   0  0  0  0  0  0  0  0  0  0  0  0
    0.3227    7.5318   -4.4753 C   0  0  0  0  0  0  0  0  0  0  0  0
    0.0743    8.5009   -4.0455 H   0  0  0  0  0  0  0  0  0  0  0  0
    1.3971    7.3673   -4.4195 H   0  0  0  0  0  0  0  0  0  0  0  0
   -0.3906    6.4450   -3.7056 C   0  0  0  0  0  0  0  0  0  0  0  0
   -1.1741    5.6971   -4.2747 O   0  0  0  0  0  0  0  0  0  0  0  0
   -0.1102    6.3546   -2.4084 N   0  0  0  0  0  0  0  0  0  0  0  0
    0.5393    7.0129   -2.0032 H   0  0  0  0  0  0  0  0  0  0  0  0
   -0.6931    5.3667   -1.5004 C   0  0  1  0  0  0  0  0  0  0  0  0
   -1.7361    5.2016   -1.7763 H   0  0  0  0  0  0  0  0  0  0  0  0
    0.0688    4.0463   -1.6815 C   0  0  0  0  0  0  0  0  0  0  0  0
   -0.0159    3.7596   -2.7306 H   0  0  0  0  0  0  0  0  0  0  0  0
    1.1262    4.2189   -1.4798 H   0  0  0  0  0  0  0  0  0  0  0  0
   -0.4805    2.6237   -0.7010 S   0  0  0  0  0  0  0  0  0  0  0  0
   -0.6561    5.8804   -0.0501 C   0  0  0  0  0  0  0  0  0  0  0  0
    0.2468    6.6363    0.3113 O   0  0  0  0  0  0  0  0  0  0  0  0
   -1.6350    5.4795    0.7712 N   0  0  0  0  0  0  0  0  0  0  0  0
   -2.3180    4.8338    0.4081 H   0  0  0  0  0  0  0  0  0  0  0  0
   -1.7402    5.8685    2.1770 C   0  0  0  0  0  0  0  0  0  0  0  0
   -0.9926    5.3326    2.7640 H   0  0  0  0  0  0  0  0  0  0  0  0
   -1.5622    6.9414    2.2821 H   0  0  0  0  0  0  0  0  0  0  0  0
   -2.7335    5.6333    2.5597 H   0  0  0  0  0  0  0  0  0  0  0  0
  5  6  2  0  0  0  0
  5  7  1  0  0  0  0
  2  3  1  0  0  0  0
  2  4  1  0  0  0  0
  2  5  1  0  0  0  0
  1  2  1  0  0  0  0
 15 16  2  0  0  0  0
 15 17  1  0  0  0  0
 14 36  1  0  0  0  0
 11 12  1  0  0  0  0
 11 13  1  0  0  0  0
 11 14  1  0  0  0  0
  9 10  1  0  0  0  0
  9 11  1  0  0  0  0
  9 15  1  0  0  0  0
  7  8  1  0  0  0  0
  7  9  1  0  0  0  0
 19 20  1  0  0  0  0
 19 21  1  0  0  0  0
 19 22  1  0  0  0  0
 17 18  1  0  0  0  0
 17 19  1  0  0  0  0
 27 28  2  0  0  0  0
 27 29  1  0  0  0  0
 24 25  1  0  0  0  0
 24 26  1  0  0  0  0
 24 27  1  0  0  0  0
 23 24  1  0  0  0  0
 37 38  2  0  0  0  0
 37 39  1  0  0  0  0
 33 34  1  0  0  0  0
 33 35  1  0  0  0  0
 33 36  1  0  0  0  0
 31 32  1  0  0  0  0
 31 33  1  0  0  0  0
 31 37  1  0  0  0  0
 29 30  1  0  0  0  0
 29 31  1  0  0  0  0
 41 42  1  0  0  0  0
 41 43  1  0  0  0  0
 41 44  1  0  0  0  0
 39 40  1  0  0  0  0
 39 41  1  0  0  0  0
M  END
$$$$
default_name
  -OEChem-01062215323D

 44 43  0     1  0  0  0  0  0999 V2000
    2.4488   -3.0448    2.0990 H   0  0  0  0  0  0  0  0  0  0  0  0
    2.2788   -2.0018    2.3640 C   0  0  0  0  0  0  0  0  0  0  0  0
    2.9228   -1.7258    3.1960 H   0  0  0  0  0  0  0  0  0  0  0  0
    1.2358   -1.8618    2.6430 H   0  0  0  0  0  0  0  0  0  0  0  0
    2.6018   -1.1318    1.1730 C   0  0  0  0  0  0  0  0  0  0  0  0
    3.0048   -1.6348    0.1320 O   0  0  0  0  0  0  0  0  0  0  0  0
    2.4088    0.1752    1.3190 N   0  0  0  0  0  0  0  0  0  0  0  0
    2.0708    0.5242    2.2050 H   0  0  0  0  0  0  0  0  0  0  0  0
    2.6638    1.1782    0.2840 C   0  0  1  0  0  0  0  0  0  0  0  0
    2.0605    0.9255   -0.5896 H   0  0  0  0  0  0  0  0  0  0  0  0
    2.2213    2.5640    0.7852 C   0  0  0  0  0  0  0  0  0  0  0  0
    2.5622    3.3190    0.0758 H   0  0  0  0  0  0  0  0  0  0  0  0
    2.7443    2.7628    1.7203 H   0  0  0  0  0  0  0  0  0  0  0  0
    0.4516    2.8279    1.1039 S   0  0  0  0  0  0  0  0  0  0  0  0
    4.1424    1.1666   -0.1470 C   0  0  0  0  0  0  0  0  0  0  0  0
    4.4509    0.9385   -1.3166 O   0  0  0  0  0  0  0  0  0  0  0  0
    5.0569    1.4197    0.7988 N   0  0  0  0  0  0  0  0  0  0  0  0
    4.7347    1.6011    1.7358 H   0  0  0  0  0  0  0  0  0  0  0  0
    6.4968    1.4426    0.5494 C   0  0  0  0  0  0  0  0  0  0  0  0
    6.8279    0.4555    0.2198 H   0  0  0  0  0  0  0  0  0  0  0  0
    6.7240    2.1640   -0.2376 H   0  0  0  0  0  0  0  0  0  0  0  0
    7.0345    1.7186    1.4574 H   0  0  0  0  0  0  0  0  0  0  0  0
    0.0012    7.4978   -5.5152 H   0  0  0  0  0  0  0  0  0  0  0  0
    0.3227    7.5318   -4.4753 C   0  0  0  0  0  0  0  0  0  0  0  0
    0.0743    8.5009   -4.0455 H   0  0  0  0  0  0  0  0  0  0  0  0
    1.3971    7.3673   -4.4195 H   0  0  0  0  0  0  0  0  0  0  0  0
   -0.3906    6.4450   -3.7056 C   0  0  0  0  0  0  0  0  0  0  0  0
   -1.1741    5.6971   -4.2747 O   0  0  0  0  0  0  0  0  0  0  0  0
   -0.1102    6.3546   -2.4084 N   0  0  0  0  0  0  0  0  0  0  0  0
    0.5393    7.0129   -2.0032 H   0  0  0  0  0  0  0  0  0  0  0  0
   -0.6931    5.3667   -1.5004 C   0  0  1  0  0  0  0  0  0  0  0  0
   -1.7361    5.2016   -1.7763 H   0  0  0  0  0  0  0  0  0  0  0  0
    0.0688    4.0463   -1.6815 C   0  0  0  0  0  0  0  0  0  0  0  0
   -0.0159    3.7596   -2.7306 H   0  0  0  0  0  0  0  0  0  0  0  0
    1.1262    4.2189   -1.4798 H   0  0  0  0  0  0  0  0  0  0  0  0
   -0.4805    2.6237   -0.7010 S   0  0  0  0  0  0  0  0  0  0  0  0
   -0.6561    5.8804   -0.0501 C   0  0  0  0  0  0  0  0  0  0  0  0
    0.2468    6.6363    0.3113 O   0  0  0  0  0  0  0  0  0  0  0  0
   -1.6350    5.4795    0.7712 N   0  0  0  0  0  0  0  0  0  0  0  0
   -2.3180    4.8338    0.4081 H   0  0  0  0  0  0  0  0  0  0  0  0
   -1.7402    5.8685    2.1770 C   0  0  0  0  0  0  0  0  0  0  0  0
   -0.9926    5.3326    2.7640 H   0  0  0  0  0  0  0  0  0  0  0  0
   -1.5622    6.9414    2.2821 H   0  0  0  0  0  0  0  0  0  0  0  0
   -2.7335    5.6333    2.5597 H   0  0  0  0  0  0  0  0  0  0  0  0
  5  6  2  0  0  0  0
  5  7  1  0  0  0  0
  2  3  1  0  0  0  0
  2  4  1  0  0  0  0
  2  5  1  0  0  0  0
  1  2  1  0  0  0  0
 15 16  2  0  0  0  0
 15 17  1  0  0  0  0
 14 36  1  0  0  0  0
 11 12  1  0  0  0  0
 11 13  1  0  0  0  0
 11 14  1  0  0  0  0
  9 10  1  0  0  0  0
  9 11  1  0  0  0  0
  9 15  1  0  0  0  0
  7  8  1  0  0  0  0
  7  9  1  0  0  0  0
 19 20  1  0  0  0  0
 19 21  1  0  0  0  0
 19 22  1  0  0  0  0
 17 18  1  0  0  0  0
 17 19  1  0  0  0  0
 27 28  2  0  0  0  0
 27 29  1  0  0  0  0
 24 25  1  0  0  0  0
 24 26  1  0  0  0  0
 24 27  1  0  0  0  0
 23 24  1  0  0  0  0
 37 38  2  0  0  0  0
 37 39  1  0  0  0  0
 33 34  1  0  0  0  0
 33 35  1  0  0  0  0
 33 36  1  0  0  0  0
 31 32  1  0  0  0  0
 31 33  1  0  0  0  0
 31 37  1  0  0  0  0
 29 30  1  0  0  0  0
 29 31  1  0  0  0  0
 41 42  1  0  0  0  0
 41 43  1  0  0  0  0
 41 44  1  0  0  0  0
 39 40  1  0  0  0  0
 39 41  1  0  0  0  0
M  END
$$$$
default_name
  -OEChem-01062215323D

 44 43  0     1  0  0  0  0  0999 V2000
    2.4488   -3.0448    2.0990 H   0  0  0  0  0  0  0  0  0  0  0  0
    2.2788   -2.0018    2.3640 C   0  0  0  0  0  0  0  0  0  0  0  0
    2.9228   -1.7258    3.1960 H   0  0  0  0  0  0  0  0  0  0  0  0
    1.2358   -1.8618    2.6430 H   0  0  0  0  0  0  0  0  0  0  0  0
    2.6018   -1.1318    1.1730 C   0  0  0  0  0  0  0  0  0  0  0  0
    3.0048   -1.6348    0.1320 O   0  0  0  0  0  0  0  0  0  0  0  0
    2.4088    0.1752    1.3190 N   0  0  0  0  0  0  0  0  0  0  0  0
    2.0708    0.5242    2.2050 H   0  0  0  0  0  0  0  0  0  0  0  0
    2.6638    1.1782    0.2840 C   0  0  1  0  0  0  0  0  0  0  0  0
    2.0605    0.9255   -0.5896 H   0  0  0  0  0  0  0  0  0  0  0  0
    2.2213    2.5640    0.7852 C   0  0  0  0  0  0  0  0  0  0  0  0
    2.5622    3.3190    0.0758 H   0  0  0  0  0  0  0  0  0  0  0  0
    2.7443    2.7628    1.7203 H   0  0  0  0  0  0  0  0  0  0  0  0
    0.4516    2.8279    1.1039 S   0  0  0  0  0  0  0  0  0  0  0  0
    4.1424    1.1666   -0.1470 C   0  0  0  0  0  0  0  0  0  0  0  0
    4.4466    1.2144   -1.3388 O   0  0  0  0  0  0  0  0  0  0  0  0
    5.0622    1.1097    0.8254 N   0  0  0  0  0  0  0  0  0  0  0  0
    4.7435    1.0756    1.7803 H   0  0  0  0  0  0  0  0  0  0  0  0
    6.5027    1.0891    0.5792 C   0  0  0  0  0  0  0  0  0  0  0  0
    6.7653    0.1935    0.0122 H   0  0  0  0  0  0  0  0  0  0  0  0
    6.7901    1.9649   -0.0054 H   0  0  0  0  0  0  0  0  0  0  0  0
    7.0488    1.0912    1.5234 H   0  0  0  0  0  0  0  0  0  0  0  0
    0.0012    7.4978   -5.5152 H   0  0  0  0  0  0  0  0  0  0  0  0
    0.3227    7.5318   -4.4753 C   0  0  0  0  0  0  0  0  0  0  0  0
    0.0743    8.5009   -4.0455 H   0  0  0  0  0  0  0  0  0  0  0  0
    1.3971    7.3673   -4.4195 H   0  0  0  0  0  0  0  0  0  0  0  0
   -0.3906    6.4450   -3.7056 C   0  0  0  0  0  0  0  0  0  0  0  0
   -1.1741    5.6971   -4.2747 O   0  0  0  0  0  0  0  0  0  0  0  0
   -0.1102    6.3546   -2.4084 N   0  0  0  0  0  0  0  0  0  0  0  0
    0.5393    7.0129   -2.0032 H   0  0  0  0  0  0  0  0  0  0  0  0
   -0.6931    5.3667   -1.5004 C   0  0  1  0  0  0  0  0  0  0  0  0
   -1.7361    5.2016   -1.7763 H   0  0  0  0  0  0  0  0  0  0  0  0
    0.0688    4.0463   -1.6815 C   0  0  0  0  0  0  0  0  0  0  0  0
   -0.0159    3.7596   -2.7306 H   0  0  0  0  0  0  0  0  0  0  0  0
    1.1262    4.2189   -1.4798 H   0  0  0  0  0  0  0  0  0  0  0  0
   -0.4805    2.6237   -0.7010 S   0  0  0  0  0  0  0  0  0  0  0  0
   -0.6561    5.8804   -0.0501 C   0  0  0  0  0  0  0  0  0  0  0  0
    0.2468    6.6363    0.3113 O   0  0  0  0  0  0  0  0  0  0  0  0
   -1.6350    5.4795    0.7712 N   0  0  0  0  0  0  0  0  0  0  0  0
   -2.3180    4.8338    0.4081 H   0  0  0  0  0  0  0  0  0  0  0  0
   -1.7402    5.8685    2.1770 C   0  0  0  0  0  0  0  0  0  0  0  0
   -0.9926    5.3326    2.7640 H   0  0  0  0  0  0  0  0  0  0  0  0
   -1.5622    6.9414    2.2821 H   0  0  0  0  0  0  0  0  0  0  0  0
   -2.7335    5.6333    2.5597 H   0  0  0  0  0  0  0  0  0  0  0  0
  5  6  2  0  0  0  0
  5  7  1  0  0  0  0
  2  3  1  0  0  0  0
  2  4  1  0  0  0  0
  2  5  1  0  0  0  0
  1  2  1  0  0  0  0
 15 16  2  0  0  0  0
 15 17  1  0  0  0  0
 14 36  1  0  0  0  0
 11 12  1  0  0  0  0
 11 13  1  0  0  0  0
 11 14  1  0  0  0  0
  9 10  1  0  0  0  0
  9 11  1  0  0  0  0
  9 15  1  0  0  0  0
  7  8  1  0  0  0  0
  7  9  1  0  0  0  0
 19 20  1  0  0  0  0
 19 21  1  0  0  0  0
 19 22  1  0  0  0  0
 17 18  1  0  0  0  0
 17 19  1  0  0  0  0
 27 28  2  0  0  0  0
 27 29  1  0  0  0  0
 24 25  1  0  0  0  0
 24 26  1  0  0  0  0
 24 27  1  0  0  0  0
 23 24  1  0  0  0  0
 37 38  2  0  0  0  0
 37 39  1  0  0  0  0
 33 34  1  0  0  0  0
 33 35  1  0  0  0  0
 33 36  1  0  0  0  0
 31 32  1  0  0  0  0
 31 33  1  0  0  0  0
 31 37  1  0  0  0  0
 29 30  1  0  0  0  0
 29 31  1  0  0  0  0
 41 42  1  0  0  0  0
 41 43  1  0  0  0  0
 41 44  1  0  0  0  0
 39 40  1  0  0  0  0
 39 41  1  0  0  0  0
M  END
$$$$
default_name
  -OEChem-01062215323D

 44 43  0     1  0  0  0  0  0999 V2000
    2.4488   -3.0448    2.0990 H   0  0  0  0  0  0  0  0  0  0  0  0
    2.2788   -2.0018    2.3640 C   0  0  0  0  0  0  0  0  0  0  0  0
    2.9228   -1.7258    3.1960 H   0  0  0  0  0  0  0  0  0  0  0  0
    1.2358   -1.8618    2.6430 H   0  0  0  0  0  0  0  0  0  0  0  0
    2.6018   -1.1318    1.1730 C   0  0  0  0  0  0  0  0  0  0  0  0
    3.0048   -1.6348    0.1320 O   0  0  0  0  0  0  0  0  0  0  0  0
    2.4088    0.1752    1.3190 N   0  0  0  0  0  0  0  0  0  0  0  0
    2.0708    0.5242    2.2050 H   0  0  0  0  0  0  0  0  0  0  0  0
    2.6638    1.1782    0.2840 C   0  0  1  0  0  0  0  0  0  0  0  0
    2.0605    0.9255   -0.5896 H   0  0  0  0  0  0  0  0  0  0  0  0
    2.2213    2.5640    0.7852 C   0  0  0  0  0  0  0  0  0  0  0  0
    2.5622    3.3190    0.0758 H   0  0  0  0  0  0  0  0  0  0  0  0
    2.7443    2.7628    1.7203 H   0  0  0  0  0  0  0  0  0  0  0  0
    0.4516    2.8279    1.1039 S   0  0  0  0  0  0  0  0  0  0  0  0
    4.1424    1.1666   -0.1470 C   0  0  0  0  0  0  0  0  0  0  0  0
    4.4625    1.4867   -1.2917 O   0  0  0  0  0  0  0  0  0  0  0  0
    5.0449    0.8033    0.7741 N   0  0  0  0  0  0  0  0  0  0  0  0
    4.7140    0.5562    1.6929 H   0  0  0  0  0  0  0  0  0  0  0  0
    6.4827    0.7399    0.5201 C   0  0  0  0  0  0  0  0  0  0  0  0
    6.6863   -0.0035   -0.2536 H   0  0  0  0  0  0  0  0  0  0  0  0
    6.8391    1.7102    0.1695 H   0  0  0  0  0  0  0  0  0  0  0  0
    7.0171    0.4676    1.4312 H   0  0  0  0  0  0  0  0  0  0  0  0
    0.0012    7.4978   -5.5152 H   0  0  0  0  0  0  0  0  0  0  0  0
    0.3227    7.5318   -4.4753 C   0  0  0  0  0  0  0  0  0  0  0  0
    0.0743    8.5009   -4.0455 H   0  0  0  0  0  0  0  0  0  0  0  0
    1.3971    7.3673   -4.4195 H   0  0  0  0  0  0  0  0  0  0  0  0
   -0.3906    6.4450   -3.7056 C   0  0  0  0  0  0  0  0  0  0  0  0
   -1.1741    5.6971   -4.2747 O   0  0  0  0  0  0  0  0  0  0  0  0
   -0.1102    6.3546   -2.4084 N   0  0  0  0  0  0  0  0  0  0  0  0
    0.5393    7.0129   -2.0032 H   0  0  0  0  0  0  0  0  0  0  0  0
   -0.6931    5.3667   -1.5004 C   0  0  1  0  0  0  0  0  0  0  0  0
   -1.7361    5.2016   -1.7763 H   0  0  0  0  0  0  0  0  0  0  0  0
    0.0688    4.0463   -1.6815 C   0  0  0  0  0  0  0  0  0  0  0  0
   -0.0159    3.7596   -2.7306 H   0  0  0  0  0  0  0  0  0  0  0  0
    1.1262    4.2189   -1.4798 H   0  0  0  0  0  0  0  0  0  0  0  0
   -0.4805    2.6237   -0.7010 S   0  0  0  0  0  0  0  0  0  0  0  0
   -0.6561    5.8804   -0.0501 C   0  0  0  0  0  0  0  0  0  0  0  0
    0.2468    6.6363    0.3113 O   0  0  0  0  0  0  0  0  0  0  0  0
   -1.6350    5.4795    0.7712 N   0  0  0  0  0  0  0  0  0  0  0  0
   -2.3180    4.8338    0.4081 H   0  0  0  0  0  0  0  0  0  0  0  0
   -1.7402    5.8685    2.1770 C   0  0  0  0  0  0  0  0  0  0  0  0
   -0.9926    5.3326    2.7640 H   0  0  0  0  0  0  0  0  0  0  0  0
   -1.5622    6.9414    2.2821 H   0  0  0  0  0  0  0  0  0  0  0  0
   -2.7335    5.6333    2.5597 H   0  0  0  0  0  0  0  0  0  0  0  0
  5  6  2  0  0  0  0
  5  7  1  0  0  0  0
  2  3  1  0  0  0  0
  2  4  1  0  0  0  0
  2  5  1  0  0  0  0
  1  2  1  0  0  0  0
 15 16  2  0  0  0  0
 15 17  1  0  0  0  0
 14 36  1  0  0  0  0
 11 12  1  0  0  0  0
 11 13  1  0  0  0  0
 11 14  1  0  0  0  0
  9 10  1  0  0  0  0
  9 11  1  0  0  0  0
  9 15  1  0  0  0  0
  7  8  1  0  0  0  0
  7  9  1  0  0  0  0
 19 20  1  0  0  0  0
 19 21  1  0  0  0  0
 19 22  1  0  0  0  0
 17 18  1  0  0  0  0
 17 19  1  0  0  0  0
 27 28  2  0  0  0  0
 27 29  1  0  0  0  0
 24 25  1  0  0  0  0
 24 26  1  0  0  0  0
 24 27  1  0  0  0  0
 23 24  1  0  0  0  0
 37 38  2  0  0  0  0
 37 39  1  0  0  0  0
 33 34  1  0  0  0  0
 33 35  1  0  0  0  0
 33 36  1  0  0  0  0
 31 32  1  0  0  0  0
 31 33  1  0  0  0  0
 31 37  1  0  0  0  0
 29 30  1  0  0  0  0
 29 31  1  0  0  0  0
 41 42  1  0  0  0  0
 41 43  1  0  0  0  0
 41 44  1  0  0  0  0
 39 40  1  0  0  0  0
 39 41  1  0  0  0  0
M  END
$$$$
default_name
  -OEChem-01062215323D

 44 43  0     1  0  0  0  0  0999 V2000
    2.4488   -3.0448    2.0990 H   0  0  0  0  0  0  0  0  0  0  0  0
    2.2788   -2.0018    2.3640 C   0  0  0  0  0  0  0  0  0  0  0  0
    2.9228   -1.7258    3.1960 H   0  0  0  0  0  0  0  0  0  0  0  0
    1.2358   -1.8618    2.6430 H   0  0  0  0  0  0  0  0  0  0  0  0
    2.6018   -1.1318    1.1730 C   0  0  0  0  0  0  0  0  0  0  0  0
    3.0048   -1.6348    0.1320 O   0  0  0  0  0  0  0  0  0  0  0  0
    2.4088    0.1752    1.3190 N   0  0  0  0  0  0  0  0  0  0  0  0
    2.0708    0.5242    2.2050 H   0  0  0  0  0  0  0  0  0  0  0  0
    2.6638    1.1782    0.2840 C   0  0  1  0  0  0  0  0  0  0  0  0
    2.0605    0.9255   -0.5896 H   0  0  0  0  0  0  0  0  0  0  0  0
    2.2213    2.5640    0.7852 C   0  0  0  0  0  0  0  0  0  0  0  0
    2.5622    3.3190    0.0758 H   0  0  0  0  0  0  0  0  0  0  0  0
    2.7443    2.7628    1.7203 H   0  0  0  0  0  0  0  0  0  0  0  0
    0.4516    2.8279    1.1039 S   0  0  0  0  0  0  0  0  0  0  0  0
    4.1424    1.1666   -0.1470 C   0  0  0  0  0  0  0  0  0  0  0  0
    4.4974    1.7369   -1.1784 O   0  0  0  0  0  0  0  0  0  0  0  0
    5.0060    0.5213    0.6484 N   0  0  0  0  0  0  0  0  0  0  0  0
    4.6480    0.0785    1.4792 H   0  0  0  0  0  0  0  0  0  0  0  0
    6.4383    0.4186    0.3762 C   0  0  0  0  0  0  0  0  0  0  0  0
    6.5963   -0.1220   -0.5594 H   0  0  0  0  0  0  0  0  0  0  0  0
    6.8676    1.4171    0.2752 H   0  0  0  0  0  0  0  0  0  0  0  0
    6.9414   -0.1095    1.1872 H   0  0  0  0  0  0  0  0  0  0  0  0
    0.0012    7.4978   -5.5152 H   0  0  0  0  0  0  0  0  0  0  0  0
    0.3227    7.5318   -4.4753 C   0  0  0  0  0  0  0  0  0  0  0  0
    0.0743    8.5009   -4.0455 H   0  0  0  0  0  0  0  0  0  0  0  0
    1.3971    7.3673   -4.4195 H   0  0  0  0  0  0  0  0  0  0  0  0
   -0.3906    6.4450   -3.7056 C   0  0  0  0  0  0  0  0  0  0  0  0
   -1.1741    5.6971   -4.2747 O   0  0  0  0  0  0  0  0  0  0  0  0
   -0.1102    6.3546   -2.4084 N   0  0  0  0  0  0  0  0  0  0  0  0
    0.5393    7.0129   -2.0032 H   0  0  0  0  0  0  0  0  0  0  0  0
   -0.6931    5.3667   -1.5004 C   0  0  1  0  0  0  0  0  0  0  0  0
   -1.7361    5.2016   -1.7763 H   0  0  0  0  0  0  0  0  0  0  0  0
    0.0688    4.0463   -1.6815 C   0  0  0  0  0  0  0  0  0  0  0  0
   -0.0159    3.7596   -2.7306 H   0  0  0  0  0  0  0  0  0  0  0  0
    1.1262    4.2189   -1.4798 H   0  0  0  0  0  0  0  0  0  0  0  0
   -0.4805    2.6237   -0.7010 S   0  0  0  0  0  0  0  0  0  0  0  0
   -0.6561    5.8804   -0.0501 C   0  0  0  0  0  0  0  0  0  0  0  0
    0.2468    6.6363    0.3113 O   0  0  0  0  0  0  0  0  0  0  0  0
   -1.6350    5.4795    0.7712 N   0  0  0  0  0  0  0  0  0  0  0  0
   -2.3180    4.8338    0.4081 H   0  0  0  0  0  0  0  0  0  0  0  0
   -1.7402    5.8685    2.1770 C   0  0  0  0  0  0  0  0  0  0  0  0
   -0.9926    5.3326    2.7640 H   0  0  0  0  0  0  0  0  0  0  0  0
   -1.5622    6.9414    2.2821 H   0  0  0  0  0  0  0  0  0  0  0  0
   -2.7335    5.6333    2.5597 H   0  0  0  0  0  0  0  0  0  0  0  0
  5  6  2  0  0  0  0
  5  7  1  0  0  0  0
  2  3  1  0  0  0  0
  2  4  1  0  0  0  0
  2  5  1  0  0  0  0
  1  2  1  0  0  0  0
 15 16  2  0  0  0  0
 15 17  1  0  0  0  0
 14 36  1  0  0  0  0
 11 12  1  0  0  0  0
 11 13  1  0  0  0  0
 11 14  1  0  0  0  0
  9 10  1  0  0  0  0
  9 11  1  0  0  0  0
  9 15  1  0  0  0  0
  7  8  1  0  0  0  0
  7  9  1  0  0  0  0
 19 20  1  0  0  0  0
 19 21  1  0  0  0  0
 19 22  1  0  0  0  0
 17 18  1  0  0  0  0
 17 19  1  0  0  0  0
 27 28  2  0  0  0  0
 27 29  1  0  0  0  0
 24 25  1  0  0  0  0
 24 26  1  0  0  0  0
 24 27  1  0  0  0  0
 23 24  1  0  0  0  0
 37 38  2  0  0  0  0
 37 39  1  0  0  0  0
 33 34  1  0  0  0  0
 33 35  1  0  0  0  0
 33 36  1  0  0  0  0
 31 32  1  0  0  0  0
 31 33  1  0  0  0  0
 31 37  1  0  0  0  0
 29 30  1  0  0  0  0
 29 31  1  0  0  0  0
 41 42  1  0  0  0  0
 41 43  1  0  0  0  0
 41 44  1  0  0  0  0
 39 40  1  0  0  0  0
 39 41  1  0  0  0  0
M  END
$$$$
default_name
  -OEChem-01062215323D

 44 43  0     1  0  0  0  0  0999 V2000
    2.4488   -3.0448    2.0990 H   0  0  0  0  0  0  0  0  0  0  0  0
    2.2788   -2.0018    2.3640 C   0  0  0  0  0  0  0  0  0  0  0  0
    2.9228   -1.7258    3.1960 H   0  0  0  0  0  0  0  0  0  0  0  0
    1.2358   -1.8618    2.6430 H   0  0  0  0  0  0  0  0  0  0  0  0
    2.6018   -1.1318    1.1730 C   0  0  0  0  0  0  0  0  0  0  0  0
    3.0048   -1.6348    0.1320 O   0  0  0  0  0  0  0  0  0  0  0  0
    2.4088    0.1752    1.3190 N   0  0  0  0  0  0  0  0  0  0  0  0
    2.0708    0.5242    2.2050 H   0  0  0  0  0  0  0  0  0  0  0  0
    2.6638    1.1782    0.2840 C   0  0  1  0  0  0  0  0  0  0  0  0
    2.0605    0.9255   -0.5896 H   0  0  0  0  0  0  0  0  0  0  0  0
    2.2213    2.5640    0.7852 C   0  0  0  0  0  0  0  0  0  0  0  0
    2.5622    3.3190    0.0758 H   0  0  0  0  0  0  0  0  0  0  0  0
    2.7443    2.7628    1.7203 H   0  0  0  0  0  0  0  0  0  0  0  0
    0.4516    2.8279    1.1039 S   0  0  0  0  0  0  0  0  0  0  0  0
    4.1424    1.1666   -0.1470 C   0  0  0  0  0  0  0  0  0  0  0  0
    4.5491    1.9479   -1.0069 O   0  0  0  0  0  0  0  0  0  0  0  0
    4.9483    0.2830    0.4568 N   0  0  0  0  0  0  0  0  0  0  0  0
    4.5500   -0.3251    1.1541 H   0  0  0  0  0  0  0  0  0  0  0  0
    6.3723    0.1473    0.1574 C   0  0  0  0  0  0  0  0  0  0  0  0
    6.5013   -0.1539   -0.8844 H   0  0  0  0  0  0  0  0  0  0  0  0
    6.8738    1.1056    0.3045 H   0  0  0  0  0  0  0  0  0  0  0  0
    6.8270   -0.6008    0.8079 H   0  0  0  0  0  0  0  0  0  0  0  0
    0.0012    7.4978   -5.5152 H   0  0  0  0  0  0  0  0  0  0  0  0
    0.3227    7.5318   -4.4753 C   0  0  0  0  0  0  0  0  0  0  0  0
    0.0743    8.5009   -4.0455 H   0  0  0  0  0  0  0  0  0  0  0  0
    1.3971    7.3673   -4.4195 H   0  0  0  0  0  0  0  0  0  0  0  0
   -0.3906    6.4450   -3.7056 C   0  0  0  0  0  0  0  0  0  0  0  0
   -1.1741    5.6971   -4.2747 O   0  0  0  0  0  0  0  0  0  0  0  0
   -0.1102    6.3546   -2.4084 N   0  0  0  0  0  0  0  0  0  0  0  0
    0.5393    7.0129   -2.0032 H   0  0  0  0  0  0  0  0  0  0  0  0
   -0.6931    5.3667   -1.5004 C   0  0  1  0  0  0  0  0  0  0  0  0
   -1.7361    5.2016   -1.7763 H   0  0  0  0  0  0  0  0  0  0  0  0
    0.0688    4.0463   -1.6815 C   0  0  0  0  0  0  0  0  0  0  0  0
   -0.0159    3.7596   -2.7306 H   0  0  0  0  0  0  0  0  0  0  0  0
    1.1262    4.2189   -1.4798 H   0  0  0  0  0  0  0  0  0  0  0  0
   -0.4805    2.6237   -0.7010 S   0  0  0  0  0  0  0  0  0  0  0  0
   -0.6561    5.8804   -0.0501 C   0  0  0  0  0  0  0  0  0  0  0  0
    0.2468    6.6363    0.3113 O   0  0  0  0  0  0  0  0  0  0  0  0
   -1.6350    5.4795    0.7712 N   0  0  0  0  0  0  0  0  0  0  0  0
   -2.3180    4.8338    0.4081 H   0  0  0  0  0  0  0  0  0  0  0  0
   -1.7402    5.8685    2.1770 C   0  0  0  0  0  0  0  0  0  0  0  0
   -0.9926    5.3326    2.7640 H   0  0  0  0  0  0  0  0  0  0  0  0
   -1.5622    6.9414    2.2821 H   0  0  0  0  0  0  0  0  0  0  0  0
   -2.7335    5.6333    2.5597 H   0  0  0  0  0  0  0  0  0  0  0  0
  5  6  2  0  0  0  0
  5  7  1  0  0  0  0
  2  3  1  0  0  0  0
  2  4  1  0  0  0  0
  2  5  1  0  0  0  0
  1  2  1  0  0  0  0
 15 16  2  0  0  0  0
 15 17  1  0  0  0  0
 14 36  1  0  0  0  0
 11 12  1  0  0  0  0
 11 13  1  0  0  0  0
 11 14  1  0  0  0  0
  9 10  1  0  0  0  0
  9 11  1  0  0  0  0
  9 15  1  0  0  0  0
  7  8  1  0  0  0  0
  7  9  1  0  0  0  0
 19 20  1  0  0  0  0
 19 21  1  0  0  0  0
 19 22  1  0  0  0  0
 17 18  1  0  0  0  0
 17 19  1  0  0  0  0
 27 28  2  0  0  0  0
 27 29  1  0  0  0  0
 24 25  1  0  0  0  0
 24 26  1  0  0  0  0
 24 27  1  0  0  0  0
 23 24  1  0  0  0  0
 37 38  2  0  0  0  0
 37 39  1  0  0  0  0
 33 34  1  0  0  0  0
 33 35  1  0  0  0  0
 33 36  1  0  0  0  0
 31 32  1  0  0  0  0
 31 33  1  0  0  0  0
 31 37  1  0  0  0  0
 29 30  1  0  0  0  0
 29 31  1  0  0  0  0
 41 42  1  0  0  0  0
 41 43  1  0  0  0  0
 41 44  1  0  0  0  0
 39 40  1  0  0  0  0
 39 41  1  0  0  0  0
M  END
$$$$
default_name
  -OEChem-01062215323D

 44 43  0     1  0  0  0  0  0999 V2000
    2.4488   -3.0448    2.0990 H   0  0  0  0  0  0  0  0  0  0  0  0
    2.2788   -2.0018    2.3640 C   0  0  0  0  0  0  0  0  0  0  0  0
    2.9228   -1.7258    3.1960 H   0  0  0  0  0  0  0  0  0  0  0  0
    1.2358   -1.8618    2.6430 H   0  0  0  0  0  0  0  0  0  0  0  0
    2.6018   -1.1318    1.1730 C   0  0  0  0  0  0  0  0  0  0  0  0
    3.0048   -1.6348    0.1320 O   0  0  0  0  0  0  0  0  0  0  0  0
    2.4088    0.1752    1.3190 N   0  0  0  0  0  0  0  0  0  0  0  0
    2.0708    0.5242    2.2050 H   0  0  0  0  0  0  0  0  0  0  0  0
    2.6638    1.1782    0.2840 C   0  0  1  0  0  0  0  0  0  0  0  0
    2.0605    0.9255   -0.5896 H   0  0  0  0  0  0  0  0  0  0  0  0
    2.2213    2.5640    0.7852 C   0  0  0  0  0  0  0  0  0  0  0  0
    2.5622    3.3190    0.0758 H   0  0  0  0  0  0  0  0  0  0  0  0
    2.7443    2.7628    1.7203 H   0  0  0  0  0  0  0  0  0  0  0  0
    0.4516    2.8279    1.1039 S   0  0  0  0  0  0  0  0  0  0  0  0
    4.1424    1.1666   -0.1470 C   0  0  0  0  0  0  0  0  0  0  0  0
    4.6139    2.1053   -0.7886 O   0  0  0  0  0  0  0  0  0  0  0  0
    4.8757    0.1045    0.2124 N   0  0  0  0  0  0  0  0  0  0  0  0
    4.4269   -0.6271    0.7395 H   0  0  0  0  0  0  0  0  0  0  0  0
    6.2894   -0.0556   -0.1216 C   0  0  0  0  0  0  0  0  0  0  0  0
    6.4079   -0.0972   -1.2065 H   0  0  0  0  0  0  0  0  0  0  0  0
    6.8571    0.7971    0.2555 H   0  0  0  0  0  0  0  0  0  0  0  0
    6.6817   -0.9729    0.3193 H   0  0  0  0  0  0  0  0  0  0  0  0
    0.0012    7.4978   -5.5152 H   0  0  0  0  0  0  0  0  0  0  0  0
    0.3227    7.5318   -4.4753 C   0  0  0  0  0  0  0  0  0  0  0  0
    0.0743    8.5009   -4.0455 H   0  0  0  0  0  0  0  0  0  0  0  0
    1.3971    7.3673   -4.4195 H   0  0  0  0  0  0  0  0  0  0  0  0
   -0.3906    6.4450   -3.7056 C   0  0  0  0  0  0  0  0  0  0  0  0
   -1.1741    5.6971   -4.2747 O   0  0  0  0  0  0  0  0  0  0  0  0
   -0.1102    6.3546   -2.4084 N   0  0  0  0  0  0  0  0  0  0  0  0
    0.5393    7.0129   -2.0032 H   0  0  0  0  0  0  0  0  0  0  0  0
   -0.6931    5.3667   -1.5004 C   0  0  1  0  0  0  0  0  0  0  0  0
   -1.7361    5.2016   -1.7763 H   0  0  0  0  0  0  0  0  0  0  0  0
    0.0688    4.0463   -1.6815 C   0  0  0  0  0  0  0  0  0  0  0  0
   -0.0159    3.7596   -2.7306 H   0  0  0  0  0  0  0  0  0  0  0  0
    1.1262    4.2189   -1.4798 H   0  0  0  0  0  0  0  0  0  0  0  0
   -0.4805    2.6237   -0.7010 S   0  0  0  0  0  0  0  0  0  0  0  0
   -0.6561    5.8804   -0.0501 C   0  0  0  0  0  0  0  0  0  0  0  0
    0.2468    6.6363    0.3113 O   0  0  0  0  0  0  0  0  0  0  0  0
   -1.6350    5.4795    0.7712 N   0  0  0  0  0  0  0  0  0  0  0  0
   -2.3180    4.8338    0.4081 H   0  0  0  0  0  0  0  0  0  0  0  0
   -1.7402    5.8685    2.1770 C   0  0  0  0  0  0  0  0  0  0  0  0
   -0.9926    5.3326    2.7640 H   0  0  0  0  0  0  0  0  0  0  0  0
   -1.5622    6.9414    2.2821 H   0  0  0  0  0  0  0  0  0  0  0  0
   -2.7335    5.6333    2.5597 H   0  0  0  0  0  0  0  0  0  0  0  0
  5  6  2  0  0  0  0
  5  7  1  0  0  0  0
  2  3  1  0  0  0  0
  2  4  1  0  0  0  0
  2  5  1  0  0  0  0
  1  2  1  0  0  0  0
 15 16  2  0  0  0  0
 15 17  1  0  0  0  0
 14 36  1  0  0  0  0
 11 12  1  0  0  0  0
 11 13  1  0  0  0  0
 11 14  1  0  0  0  0
  9 10  1  0  0  0  0
  9 11  1  0  0  0  0
  9 15  1  0  0  0  0
  7  8  1  0  0  0  0
  7  9  1  0  0  0  0
 19 20  1  0  0  0  0
 19 21  1  0  0  0  0
 19 22  1  0  0  0  0
 17 18  1  0  0  0  0
 17 19  1  0  0  0  0
 27 28  2  0  0  0  0
 27 29  1  0  0  0  0
 24 25  1  0  0  0  0
 24 26  1  0  0  0  0
 24 27  1  0  0  0  0
 23 24  1  0  0  0  0
 37 38  2  0  0  0  0
 37 39  1  0  0  0  0
 33 34  1  0  0  0  0
 33 35  1  0  0  0  0
 33 36  1  0  0  0  0
 31 32  1  0  0  0  0
 31 33  1  0  0  0  0
 31 37  1  0  0  0  0
 29 30  1  0  0  0  0
 29 31  1  0  0  0  0
 41 42  1  0  0  0  0
 41 43  1  0  0  0  0
 41 44  1  0  0  0  0
 39 40  1  0  0  0  0
 39 41  1  0  0  0  0
M  END
$$$$
default_name
  -OEChem-01062215323D

 44 43  0     1  0  0  0  0  0999 V2000
    2.4488   -3.0448    2.0990 H   0  0  0  0  0  0  0  0  0  0  0  0
    2.2788   -2.0018    2.3640 C   0  0  0  0  0  0  0  0  0  0  0  0
    2.9228   -1.7258    3.1960 H   0  0  0  0  0  0  0  0  0  0  0  0
    1.2358   -1.8618    2.6430 H   0  0  0  0  0  0  0  0  0  0  0  0
    2.6018   -1.1318    1.1730 C   0  0  0  0  0  0  0  0  0  0  0  0
    3.0048   -1.6348    0.1320 O   0  0  0  0  0  0  0  0  0  0  0  0
    2.4088    0.1752    1.3190 N   0  0  0  0  0  0  0  0  0  0  0  0
    2.0708    0.5242    2.2050 H   0  0  0  0  0  0  0  0  0  0  0  0
    2.6638    1.1782    0.2840 C   0  0  1  0  0  0  0  0  0  0  0  0
    2.0605    0.9255   -0.5896 H   0  0  0  0  0  0  0  0  0  0  0  0
    2.2213    2.5640    0.7852 C   0  0  0  0  0  0  0  0  0  0  0  0
    2.5622    3.3190    0.0758 H   0  0  0  0  0  0  0  0  0  0  0  0
    2.7443    2.7628    1.7203 H   0  0  0  0  0  0  0  0  0  0  0  0
    0.4516    2.8279    1.1039 S   0  0  0  0  0  0  0  0  0  0  0  0
    4.1424    1.1666   -0.1470 C   0  0  0  0  0  0  0  0  0  0  0  0
    4.6875    2.1985   -0.5385 O   0  0  0  0  0  0  0  0  0  0  0  0
    4.7931   -0.0018   -0.0682 N   0  0  0  0  0  0  0  0  0  0  0  0
    4.2868   -0.8069    0.2638 H   0  0  0  0  0  0  0  0  0  0  0  0
    6.1952   -0.1763   -0.4417 C   0  0  0  0  0  0  0  0  0  0  0  0
    6.3224    0.0444   -1.5036 H   0  0  0  0  0  0  0  0  0  0  0  0
    6.8187    0.5124    0.1315 H   0  0  0  0  0  0  0  0  0  0  0  0
    6.5154   -1.2003   -0.2454 H   0  0  0  0  0  0  0  0  0  0  0  0
    0.0012    7.4978   -5.5152 H   0  0  0  0  0  0  0  0  0  0  0  0
    0.3227    7.5318   -4.4753 C   0  0  0  0  0  0  0  0  0  0  0  0
    0.0743    8.5009   -4.0455 H   0  0  0  0  0  0  0  0  0  0  0  0
    1.3971    7.3673   -4.4195 H   0  0  0  0  0  0  0  0  0  0  0  0
   -0.3906    6.4450   -3.7056 C   0  0  0  0  0  0  0  0  0  0  0  0
   -1.1741    5.6971   -4.2747 O   0  0  0  0  0  0  0  0  0  0  0  0
   -0.1102    6.3546   -2.4084 N   0  0  0  0  0  0  0  0  0  0  0  0
    0.5393    7.0129   -2.0032 H   0  0  0  0  0  0  0  0  0  0  0  0
   -0.6931    5.3667   -1.5004 C   0  0  1  0  0  0  0  0  0  0  0  0
   -1.7361    5.2016   -1.7763 H   0  0  0  0  0  0  0  0  0  0  0  0
    0.0688    4.0463   -1.6815 C   0  0  0  0  0  0  0  0  0  0  0  0
   -0.0159    3.7596   -2.7306 H   0  0  0  0  0  0  0  0  0  0  0  0
    1.1262    4.2189   -1.4798 H   0  0  0  0  0  0  0  0  0  0  0  0
   -0.4805    2.6237   -0.7010 S   0  0  0  0  0  0  0  0  0  0  0  0
   -0.6561    5.8804   -0.0501 C   0  0  0  0  0  0  0  0  0  0  0  0
    0.2468    6.6363    0.3113 O   0  0  0  0  0  0  0  0  0  0  0  0
   -1.6350    5.4795    0.7712 N   0  0  0  0  0  0  0  0  0  0  0  0
   -2.3180    4.8338    0.4081 H   0  0  0  0  0  0  0  0  0  0  0  0
   -1.7402    5.8685    2.1770 C   0  0  0  0  0  0  0  0  0  0  0  0
   -0.9926    5.3326    2.7640 H   0  0  0  0  0  0  0  0  0  0  0  0
   -1.5622    6.9414    2.2821 H   0  0  0  0  0  0  0  0  0  0  0  0
   -2.7335    5.6333    2.5597 H   0  0  0  0  0  0  0  0  0  0  0  0
  5  6  2  0  0  0  0
  5  7  1  0  0  0  0
  2  3  1  0  0  0  0
  2  4  1  0  0  0  0
  2  5  1  0  0  0  0
  1  2  1  0  0  0  0
 15 16  2  0  0  0  0
 15 17  1  0  0  0  0
 14 36  1  0  0  0  0
 11 12  1  0  0  0  0
 11 13  1  0  0  0  0
 11 14  1  0  0  0  0
  9 10  1  0  0  0  0
  9 11  1  0  0  0  0
  9 15  1  0  0  0  0
  7  8  1  0  0  0  0
  7  9  1  0  0  0  0
 19 20  1  0  0  0  0
 19 21  1  0  0  0  0
 19 22  1  0  0  0  0
 17 18  1  0  0  0  0
 17 19  1  0  0  0  0
 27 28  2  0  0  0  0
 27 29  1  0  0  0  0
 24 25  1  0  0  0  0
 24 26  1  0  0  0  0
 24 27  1  0  0  0  0
 23 24  1  0  0  0  0
 37 38  2  0  0  0  0
 37 39  1  0  0  0  0
 33 34  1  0  0  0  0
 33 35  1  0  0  0  0
 33 36  1  0  0  0  0
 31 32  1  0  0  0  0
 31 33  1  0  0  0  0
 31 37  1  0  0  0  0
 29 30  1  0  0  0  0
 29 31  1  0  0  0  0
 41 42  1  0  0  0  0
 41 43  1  0  0  0  0
 41 44  1  0  0  0  0
 39 40  1  0  0  0  0
 39 41  1  0  0  0  0
M  END
$$$$
default_name
  -OEChem-01062215323D

 44 43  0     1  0  0  0  0  0999 V2000
    2.4488   -3.0448    2.0990 H   0  0  0  0  0  0  0  0  0  0  0  0
    2.2788   -2.0018    2.3640 C   0  0  0  0  0  0  0  0  0  0  0  0
    2.9228   -1.7258    3.1960 H   0  0  0  0  0  0  0  0  0  0  0  0
    1.2358   -1.8618    2.6430 H   0  0  0  0  0  0  0  0  0  0  0  0
    2.6018   -1.1318    1.1730 C   0  0  0  0  0  0  0  0  0  0  0  0
    3.0048   -1.6348    0.1320 O   0  0  0  0  0  0  0  0  0  0  0  0
    2.4088    0.1752    1.3190 N   0  0  0  0  0  0  0  0  0  0  0  0
    2.0708    0.5242    2.2050 H   0  0  0  0  0  0  0  0  0  0  0  0
    2.6638    1.1782    0.2840 C   0  0  1  0  0  0  0  0  0  0  0  0
    2.0605    0.9255   -0.5896 H   0  0  0  0  0  0  0  0  0  0  0  0
    2.2213    2.5640    0.7852 C   0  0  0  0  0  0  0  0  0  0  0  0
    2.5622    3.3190    0.0758 H   0  0  0  0  0  0  0  0  0  0  0  0
    2.7443    2.7628    1.7203 H   0  0  0  0  0  0  0  0  0  0  0  0
    0.4516    2.8279    1.1039 S   0  0  0  0  0  0  0  0  0  0  0  0
    4.1424    1.1666   -0.1470 C   0  0  0  0  0  0  0  0  0  0  0  0
    4.7649    2.2209   -0.2737 O   0  0  0  0  0  0  0  0  0  0  0  0
    4.7062   -0.0289   -0.3658 N   0  0  0  0  0  0  0  0  0  0  0  0
    4.1394   -0.8522   -0.2406 H   0  0  0  0  0  0  0  0  0  0  0  0
    6.0961   -0.2065   -0.7810 C   0  0  0  0  0  0  0  0  0  0  0  0
    6.2506    0.2613   -1.7556 H   0  0  0  0  0  0  0  0  0  0  0  0
    6.7612    0.2711   -0.0592 H   0  0  0  0  0  0  0  0  0  0  0  0
    6.3393   -1.2677   -0.8477 H   0  0  0  0  0  0  0  0  0  0  0  0
    0.0012    7.4978   -5.5152 H   0  0  0  0  0  0  0  0  0  0  0  0
    0.3227    7.5318   -4.4753 C   0  0  0  0  0  0  0  0  0  0  0  0
    0.0743    8.5009   -4.0455 H   0  0  0  0  0  0  0  0  0  0  0  0
    1.3971    7.3673   -4.4195 H   0  0  0  0  0  0  0  0  0  0  0  0
   -0.3906    6.4450   -3.7056 C   0  0  0  0  0  0  0  0  0  0  0  0
   -1.1741    5.6971   -4.2747 O   0  0  0  0  0  0  0  0  0  0  0  0
   -0.1102    6.3546   -2.4084 N   0  0  0  0  0  0  0  0  0  0  0  0
    0.5393    7.0129   -2.0032 H   0  0  0  0  0  0  0  0  0  0  0  0
   -0.6931    5.3667   -1.5004 C   0  0  1  0  0  0  0  0  0  0  0  0
   -1.7361    5.2016   -1.7763 H   0  0  0  0  0  0  0  0  0  0  0  0
    0.0688    4.0463   -1.6815 C   0  0  0  0  0  0  0  0  0  0  0  0
   -0.0159    3.7596   -2.7306 H   0  0  0  0  0  0  0  0  0  0  0  0
    1.1262    4.2189   -1.4798 H   0  0  0  0  0  0  0  0  0  0  0  0
   -0.4805    2.6237   -0.7010 S   0  0  0  0  0  0  0  0  0  0  0  0
   -0.6561    5.8804   -0.0501 C   0  0  0  0  0  0  0  0  0  0  0  0
    0.2468    6.6363    0.3113 O   0  0  0  0  0  0  0  0  0  0  0  0
   -1.6350    5.4795    0.7712 N   0  0  0  0  0  0  0  0  0  0  0  0
   -2.3180    4.8338    0.4081 H   0  0  0  0  0  0  0  0  0  0  0  0
   -1.7402    5.8685    2.1770 C   0  0  0  0  0  0  0  0  0  0  0  0
   -0.9926    5.3326    2.7640 H   0  0  0  0  0  0  0  0  0  0  0  0
   -1.5622    6.9414    2.2821 H   0  0  0  0  0  0  0  0  0  0  0  0
   -2.7335    5.6333    2.5597 H   0  0  0  0  0  0  0  0  0  0  0  0
  5  6  2  0  0  0  0
  5  7  1  0  0  0  0
  2  3  1  0  0  0  0
  2  4  1  0  0  0  0
  2  5  1  0  0  0  0
  1  2  1  0  0  0  0
 15 16  2  0  0  0  0
 15 17  1  0  0  0  0
 14 36  1  0  0  0  0
 11 12  1  0  0  0  0
 11 13  1  0  0  0  0
 11 14  1  0  0  0  0
  9 10  1  0  0  0  0
  9 11  1  0  0  0  0
  9 15  1  0  0  0  0
  7  8  1  0  0  0  0
  7  9  1  0  0  0  0
 19 20  1  0  0  0  0
 19 21  1  0  0  0  0
 19 22  1  0  0  0  0
 17 18  1  0  0  0  0
 17 19  1  0  0  0  0
 27 28  2  0  0  0  0
 27 29  1  0  0  0  0
 24 25  1  0  0  0  0
 24 26  1  0  0  0  0
 24 27  1  0  0  0  0
 23 24  1  0  0  0  0
 37 38  2  0  0  0  0
 37 39  1  0  0  0  0
 33 34  1  0  0  0  0
 33 35  1  0  0  0  0
 33 36  1  0  0  0  0
 31 32  1  0  0  0  0
 31 33  1  0  0  0  0
 31 37  1  0  0  0  0
 29 30  1  0  0  0  0
 29 31  1  0  0  0  0
 41 42  1  0  0  0  0
 41 43  1  0  0  0  0
 41 44  1  0  0  0  0
 39 40  1  0  0  0  0
 39 41  1  0  0  0  0
M  END
$$$$
default_name
  -OEChem-01062215323D

 44 43  0     1  0  0  0  0  0999 V2000
    2.4488   -3.0448    2.0990 H   0  0  0  0  0  0  0  0  0  0  0  0
    2.2788   -2.0018    2.3640 C   0  0  0  0  0  0  0  0  0  0  0  0
    2.9228   -1.7258    3.1960 H   0  0  0  0  0  0  0  0  0  0  0  0
    1.2358   -1.8618    2.6430 H   0  0  0  0  0  0  0  0  0  0  0  0
    2.6018   -1.1318    1.1730 C   0  0  0  0  0  0  0  0  0  0  0  0
    3.0048   -1.6348    0.1320 O   0  0  0  0  0  0  0  0  0  0  0  0
    2.4088    0.1752    1.3190 N   0  0  0  0  0  0  0  0  0  0  0  0
    2.0708    0.5242    2.2050 H   0  0  0  0  0  0  0  0  0  0  0  0
    2.6638    1.1782    0.2840 C   0  0  1  0  0  0  0  0  0  0  0  0
    2.0605    0.9255   -0.5896 H   0  0  0  0  0  0  0  0  0  0  0  0
    2.2213    2.5640    0.7852 C   0  0  0  0  0  0  0  0  0  0  0  0
    2.5622    3.3190    0.0758 H   0  0  0  0  0  0  0  0  0  0  0  0
    2.7443    2.7628    1.7203 H   0  0  0  0  0  0  0  0  0  0  0  0
    0.4516    2.8279    1.1039 S   0  0  0  0  0  0  0  0  0  0  0  0
    4.1424    1.1666   -0.1470 C   0  0  0  0  0  0  0  0  0  0  0  0
    4.8407    2.1713   -0.0122 O   0  0  0  0  0  0  0  0  0  0  0  0
    4.6208    0.0252   -0.6601 N   0  0  0  0  0  0  0  0  0  0  0  0
    3.9948   -0.7599   -0.7394 H   0  0  0  0  0  0  0  0  0  0  0  0
    5.9988   -0.1442   -1.1164 C   0  0  0  0  0  0  0  0  0  0  0  0
    6.1975    0.5385   -1.9453 H   0  0  0  0  0  0  0  0  0  0  0  0
    6.6886    0.0895   -0.3034 H   0  0  0  0  0  0  0  0  0  0  0  0
    6.1655   -1.1703   -1.4465 H   0  0  0  0  0  0  0  0  0  0  0  0
    0.0012    7.4978   -5.5152 H   0  0  0  0  0  0  0  0  0  0  0  0
    0.3227    7.5318   -4.4753 C   0  0  0  0  0  0  0  0  0  0  0  0
    0.0743    8.5009   -4.0455 H   0  0  0  0  0  0  0  0  0  0  0  0
    1.3971    7.3673   -4.4195 H   0  0  0  0  0  0  0  0  0  0  0  0
   -0.3906    6.4450   -3.7056 C   0  0  0  0  0  0  0  0  0  0  0  0
   -1.1741    5.6971   -4.2747 O   0  0  0  0  0  0  0  0  0  0  0  0
   -0.1102    6.3546   -2.4084 N   0  0  0  0  0  0  0  0  0  0  0  0
    0.5393    7.0129   -2.0032 H   0  0  0  0  0  0  0  0  0  0  0  0
   -0.6931    5.3667   -1.5004 C   0  0  1  0  0  0  0  0  0  0  0  0
   -1.7361    5.2016   -1.7763 H   0  0  0  0  0  0  0  0  0  0  0  0
    0.0688    4.0463   -1.6815 C   0  0  0  0  0  0  0  0  0  0  0  0
   -0.0159    3.7596   -2.7306 H   0  0  0  0  0  0  0  0  0  0  0  0
    1.1262    4.2189   -1.4798 H   0  0  0  0  0  0  0  0  0  0  0  0
   -0.4805    2.6237   -0.7010 S   0  0  0  0  0  0  0  0  0  0  0  0
   -0.6561    5.8804   -0.0501 C   0  0  0  0  0  0  0  0  0  0  0  0
    0.2468    6.6363    0.3113 O   0  0  0  0  0  0  0  0  0  0  0  0
   -1.6350    5.4795    0.7712 N   0  0  0  0  0  0  0  0  0  0  0  0
   -2.3180    4.8338    0.4081 H   0  0  0  0  0  0  0  0  0  0  0  0
   -1.7402    5.8685    2.1770 C   0  0  0  0  0  0  0  0  0  0  0  0
   -0.9926    5.3326    2.7640 H   0  0  0  0  0  0  0  0  0  0  0  0
   -1.5622    6.9414    2.2821 H   0  0  0  0  0  0  0  0  0  0  0  0
   -2.7335    5.6333    2.5597 H   0  0  0  0  0  0  0  0  0  0  0  0
  5  6  2  0  0  0  0
  5  7  1  0  0  0  0
  2  3  1  0  0  0  0
  2  4  1  0  0  0  0
  2  5  1  0  0  0  0
  1  2  1  0  0  0  0
 15 16  2  0  0  0  0
 15 17  1  0  0  0  0
 14 36  1  0  0  0  0
 11 12  1  0  0  0  0
 11 13  1  0  0  0  0
 11 14  1  0  0  0  0
  9 10  1  0  0  0  0
  9 11  1  0  0  0  0
  9 15  1  0  0  0  0
  7  8  1  0  0  0  0
  7  9  1  0  0  0  0
 19 20  1  0  0  0  0
 19 21  1  0  0  0  0
 19 22  1  0  0  0  0
 17 18  1  0  0  0  0
 17 19  1  0  0  0  0
 27 28  2  0  0  0  0
 27 29  1  0  0  0  0
 24 25  1  0  0  0  0
 24 26  1  0  0  0  0
 24 27  1  0  0  0  0
 23 24  1  0  0  0  0
 37 38  2  0  0  0  0
 37 39  1  0  0  0  0
 33 34  1  0  0  0  0
 33 35  1  0  0  0  0
 33 36  1  0  0  0  0
 31 32  1  0  0  0  0
 31 33  1  0  0  0  0
 31 37  1  0  0  0  0
 29 30  1  0  0  0  0
 29 31  1  0  0  0  0
 41 42  1  0  0  0  0
 41 43  1  0  0  0  0
 41 44  1  0  0  0  0
 39 40  1  0  0  0  0
 39 41  1  0  0  0  0
M  END
$$$$
default_name
  -OEChem-01062215323D

 44 43  0     1  0  0  0  0  0999 V2000
    2.4488   -3.0448    2.0990 H   0  0  0  0  0  0  0  0  0  0  0  0
    2.2788   -2.0018    2.3640 C   0  0  0  0  0  0  0  0  0  0  0  0
    2.9228   -1.7258    3.1960 H   0  0  0  0  0  0  0  0  0  0  0  0
    1.2358   -1.8618    2.6430 H   0  0  0  0  0  0  0  0  0  0  0  0
    2.6018   -1.1318    1.1730 C   0  0  0  0  0  0  0  0  0  0  0  0
    3.0048   -1.6348    0.1320 O   0  0  0  0  0  0  0  0  0  0  0  0
    2.4088    0.1752    1.3190 N   0  0  0  0  0  0  0  0  0  0  0  0
    2.0708    0.5242    2.2050 H   0  0  0  0  0  0  0  0  0  0  0  0
    2.6638    1.1782    0.2840 C   0  0  1  0  0  0  0  0  0  0  0  0
    2.0605    0.9255   -0.5896 H   0  0  0  0  0  0  0  0  0  0  0  0
    2.2213    2.5640    0.7852 C   0  0  0  0  0  0  0  0  0  0  0  0
    2.5622    3.3190    0.0758 H   0  0  0  0  0  0  0  0  0  0  0  0
    2.7443    2.7628    1.7203 H   0  0  0  0  0  0  0  0  0  0  0  0
    0.4516    2.8279    1.1039 S   0  0  0  0  0  0  0  0  0  0  0  0
    4.1424    1.1666   -0.1470 C   0  0  0  0  0  0  0  0  0  0  0  0
    4.9099    2.0528    0.2283 O   0  0  0  0  0  0  0  0  0  0  0  0
    4.5428    0.1568   -0.9311 N   0  0  0  0  0  0  0  0  0  0  0  0
    3.8627   -0.5364   -1.1986 H   0  0  0  0  0  0  0  0  0  0  0  0
    5.9100    0.0064   -1.4251 C   0  0  0  0  0  0  0  0  0  0  0  0
    6.1667    0.8573   -2.0598 H   0  0  0  0  0  0  0  0  0  0  0  0
    6.6058   -0.0200   -0.5845 H   0  0  0  0  0  0  0  0  0  0  0  0
    6.0059   -0.9149   -2.0011 H   0  0  0  0  0  0  0  0  0  0  0  0
    0.0012    7.4978   -5.5152 H   0  0  0  0  0  0  0  0  0  0  0  0
    0.3227    7.5318   -4.4753 C   0  0  0  0  0  0  0  0  0  0  0  0
    0.0743    8.5009   -4.0455 H   0  0  0  0  0  0  0  0  0  0  0  0
    1.3971    7.3673   -4.4195 H   0  0  0  0  0  0  0  0  0  0  0  0
   -0.3906    6.4450   -3.7056 C   0  0  0  0  0  0  0  0  0  0  0  0
   -1.1741    5.6971   -4.2747 O   0  0  0  0  0  0  0  0  0  0  0  0
   -0.1102    6.3546   -2.4084 N   0  0  0  0  0  0  0  0  0  0  0  0
    0.5393    7.0129   -2.0032 H   0  0  0  0  0  0  0  0  0  0  0  0
   -0.6931    5.3667   -1.5004 C   0  0  1  0  0  0  0  0  0  0  0  0
   -1.7361    5.2016   -1.7763 H   0  0  0  0  0  0  0  0  0  0  0  0
    0.0688    4.0463   -1.6815 C   0  0  0  0  0  0  0  0  0  0  0  0
   -0.0159    3.7596   -2.7306 H   0  0  0  0  0  0  0  0  0  0  0  0
    1.1262    4.2189   -1.4798 H   0  0  0  0  0  0  0  0  0  0  0  0
   -0.4805    2.6237   -0.7010 S   0  0  0  0  0  0  0  0  0  0  0  0
   -0.6561    5.8804   -0.0501 C   0  0  0  0  0  0  0  0  0  0  0  0
    0.2468    6.6363    0.3113 O   0  0  0  0  0  0  0  0  0  0  0  0
   -1.6350    5.4795    0.7712 N   0  0  0  0  0  0  0  0  0  0  0  0
   -2.3180    4.8338    0.4081 H   0  0  0  0  0  0  0  0  0  0  0  0
   -1.7402    5.8685    2.1770 C   0  0  0  0  0  0  0  0  0  0  0  0
   -0.9926    5.3326    2.7640 H   0  0  0  0  0  0  0  0  0  0  0  0
   -1.5622    6.9414    2.2821 H   0  0  0  0  0  0  0  0  0  0  0  0
   -2.7335    5.6333    2.5597 H   0  0  0  0  0  0  0  0  0  0  0  0
  5  6  2  0  0  0  0
  5  7  1  0  0  0  0
  2  3  1  0  0  0  0
  2  4  1  0  0  0  0
  2  5  1  0  0  0  0
  1  2  1  0  0  0  0
 15 16  2  0  0  0  0
 15 17  1  0  0  0  0
 14 36  1  0  0  0  0
 11 12  1  0  0  0  0
 11 13  1  0  0  0  0
 11 14  1  0  0  0  0
  9 10  1  0  0  0  0
  9 11  1  0  0  0  0
  9 15  1  0  0  0  0
  7  8  1  0  0  0  0
  7  9  1  0  0  0  0
 19 20  1  0  0  0  0
 19 21  1  0  0  0  0
 19 22  1  0  0  0  0
 17 18  1  0  0  0  0
 17 19  1  0  0  0  0
 27 28  2  0  0  0  0
 27 29  1  0  0  0  0
 24 25  1  0  0  0  0
 24 26  1  0  0  0  0
 24 27  1  0  0  0  0
 23 24  1  0  0  0  0
 37 38  2  0  0  0  0
 37 39  1  0  0  0  0
 33 34  1  0  0  0  0
 33 35  1  0  0  0  0
 33 36  1  0  0  0  0
 31 32  1  0  0  0  0
 31 33  1  0  0  0  0
 31 37  1  0  0  0  0
 29 30  1  0  0  0  0
 29 31  1  0  0  0  0
 41 42  1  0  0  0  0
 41 43  1  0  0  0  0
 41 44  1  0  0  0  0
 39 40  1  0  0  0  0
 39 41  1  0  0  0  0
M  END
$$$$
default_name
  -OEChem-01062215323D

 44 43  0     1  0  0  0  0  0999 V2000
    2.4488   -3.0448    2.0990 H   0  0  0  0  0  0  0  0  0  0  0  0
    2.2788   -2.0018    2.3640 C   0  0  0  0  0  0  0  0  0  0  0  0
    2.9228   -1.7258    3.1960 H   0  0  0  0  0  0  0  0  0  0  0  0
    1.2358   -1.8618    2.6430 H   0  0  0  0  0  0  0  0  0  0  0  0
    2.6018   -1.1318    1.1730 C   0  0  0  0  0  0  0  0  0  0  0  0
    3.0048   -1.6348    0.1320 O   0  0  0  0  0  0  0  0  0  0  0  0
    2.4088    0.1752    1.3190 N   0  0  0  0  0  0  0  0  0  0  0  0
    2.0708    0.5242    2.2050 H   0  0  0  0  0  0  0  0  0  0  0  0
    2.6638    1.1782    0.2840 C   0  0  1  0  0  0  0  0  0  0  0  0
    2.0605    0.9255   -0.5896 H   0  0  0  0  0  0  0  0  0  0  0  0
    2.2213    2.5640    0.7852 C   0  0  0  0  0  0  0  0  0  0  0  0
    2.5622    3.3190    0.0758 H   0  0  0  0  0  0  0  0  0  0  0  0
    2.7443    2.7628    1.7203 H   0  0  0  0  0  0  0  0  0  0  0  0
    0.4516    2.8279    1.1039 S   0  0  0  0  0  0  0  0  0  0  0  0
    4.1424    1.1666   -0.1470 C   0  0  0  0  0  0  0  0  0  0  0  0
    4.9676    1.8736    0.4312 O   0  0  0  0  0  0  0  0  0  0  0  0
    4.4776    0.3569   -1.1603 N   0  0  0  0  0  0  0  0  0  0  0  0
    3.7522   -0.1968   -1.5868 H   0  0  0  0  0  0  0  0  0  0  0  0
    5.8357    0.2350   -1.6861 C   0  0  0  0  0  0  0  0  0  0  0  0
    6.1602    1.1959   -2.0912 H   0  0  0  0  0  0  0  0  0  0  0  0
    6.5185   -0.0499   -0.8835 H   0  0  0  0  0  0  0  0  0  0  0  0
    5.8712   -0.5188   -2.4737 H   0  0  0  0  0  0  0  0  0  0  0  0
    0.0012    7.4978   -5.5152 H   0  0  0  0  0  0  0  0  0  0  0  0
    0.3227    7.5318   -4.4753 C   0  0  0  0  0  0  0  0  0  0  0  0
    0.0743    8.5009   -4.0455 H   0  0  0  0  0  0  0  0  0  0  0  0
    1.3971    7.3673   -4.4195 H   0  0  0  0  0  0  0  0  0  0  0  0
   -0.3906    6.4450   -3.7056 C   0  0  0  0  0  0  0  0  0  0  0  0
   -1.1741    5.6971   -4.2747 O   0  0  0  0  0  0  0  0  0  0  0  0
   -0.1102    6.3546   -2.4084 N   0  0  0  0  0  0  0  0  0  0  0  0
    0.5393    7.0129   -2.0032 H   0  0  0  0  0  0  0  0  0  0  0  0
   -0.6931    5.3667   -1.5004 C   0  0  1  0  0  0  0  0  0  0  0  0
   -1.7361    5.2016   -1.7763 H   0  0  0  0  0  0  0  0  0  0  0  0
    0.0688    4.0463   -1.6815 C   0  0  0  0  0  0  0  0  0  0  0  0
   -0.0159    3.7596   -2.7306 H   0  0  0  0  0  0  0  0  0  0  0  0
    1.1262    4.2189   -1.4798 H   0  0  0  0  0  0  0  0  0  0  0  0
   -0.4805    2.6237   -0.7010 S   0  0  0  0  0  0  0  0  0  0  0  0
   -0.6561    5.8804   -0.0501 C   0  0  0  0  0  0  0  0  0  0  0  0
    0.2468    6.6363    0.3113 O   0  0  0  0  0  0  0  0  0  0  0  0
   -1.6350    5.4795    0.7712 N   0  0  0  0  0  0  0  0  0  0  0  0
   -2.3180    4.8338    0.4081 H   0  0  0  0  0  0  0  0  0  0  0  0
   -1.7402    5.8685    2.1770 C   0  0  0  0  0  0  0  0  0  0  0  0
   -0.9926    5.3326    2.7640 H   0  0  0  0  0  0  0  0  0  0  0  0
   -1.5622    6.9414    2.2821 H   0  0  0  0  0  0  0  0  0  0  0  0
   -2.7335    5.6333    2.5597 H   0  0  0  0  0  0  0  0  0  0  0  0
  5  6  2  0  0  0  0
  5  7  1  0  0  0  0
  2  3  1  0  0  0  0
  2  4  1  0  0  0  0
  2  5  1  0  0  0  0
  1  2  1  0  0  0  0
 15 16  2  0  0  0  0
 15 17  1  0  0  0  0
 14 36  1  0  0  0  0
 11 12  1  0  0  0  0
 11 13  1  0  0  0  0
 11 14  1  0  0  0  0
  9 10  1  0  0  0  0
  9 11  1  0  0  0  0
  9 15  1  0  0  0  0
  7  8  1  0  0  0  0
  7  9  1  0  0  0  0
 19 20  1  0  0  0  0
 19 21  1  0  0  0  0
 19 22  1  0  0  0  0
 17 18  1  0  0  0  0
 17 19  1  0  0  0  0
 27 28  2  0  0  0  0
 27 29  1  0  0  0  0
 24 25  1  0  0  0  0
 24 26  1  0  0  0  0
 24 27  1  0  0  0  0
 23 24  1  0  0  0  0
 37 38  2  0  0  0  0
 37 39  1  0  0  0  0
 33 34  1  0  0  0  0
 33 35  1  0  0  0  0
 33 36  1  0  0  0  0
 31 32  1  0  0  0  0
 31 33  1  0  0  0  0
 31 37  1  0  0  0  0
 29 30  1  0  0  0  0
 29 31  1  0  0  0  0
 41 42  1  0  0  0  0
 41 43  1  0  0  0  0
 41 44  1  0  0  0  0
 39 40  1  0  0  0  0
 39 41  1  0  0  0  0
M  END
$$$$
default_name
  -OEChem-01062215323D

 44 43  0     1  0  0  0  0  0999 V2000
    2.4488   -3.0448    2.0990 H   0  0  0  0  0  0  0  0  0  0  0  0
    2.2788   -2.0018    2.3640 C   0  0  0  0  0  0  0  0  0  0  0  0
    2.9228   -1.7258    3.1960 H   0  0  0  0  0  0  0  0  0  0  0  0
    1.2358   -1.8618    2.6430 H   0  0  0  0  0  0  0  0  0  0  0  0
    2.6018   -1.1318    1.1730 C   0  0  0  0  0  0  0  0  0  0  0  0
    3.0048   -1.6348    0.1320 O   0  0  0  0  0  0  0  0  0  0  0  0
    2.4088    0.1752    1.3190 N   0  0  0  0  0  0  0  0  0  0  0  0
    2.0708    0.5242    2.2050 H   0  0  0  0  0  0  0  0  0  0  0  0
    2.6638    1.1782    0.2840 C   0  0  1  0  0  0  0  0  0  0  0  0
    2.0605    0.9255   -0.5896 H   0  0  0  0  0  0  0  0  0  0  0  0
    2.2213    2.5640    0.7852 C   0  0  0  0  0  0  0  0  0  0  0  0
    2.5622    3.3190    0.0758 H   0  0  0  0  0  0  0  0  0  0  0  0
    2.7443    2.7628    1.7203 H   0  0  0  0  0  0  0  0  0  0  0  0
    0.4516    2.8279    1.1039 S   0  0  0  0  0  0  0  0  0  0  0  0
    4.1424    1.1666   -0.1470 C   0  0  0  0  0  0  0  0  0  0  0  0
    5.0100    1.6459    0.5828 O   0  0  0  0  0  0  0  0  0  0  0  0
    4.4295    0.6118   -1.3322 N   0  0  0  0  0  0  0  0  0  0  0  0
    3.6708    0.2357   -1.8777 H   0  0  0  0  0  0  0  0  0  0  0  0
    5.7811    0.5260   -1.8815 C   0  0  0  0  0  0  0  0  0  0  0  0
    6.1785    1.5312   -2.0374 H   0  0  0  0  0  0  0  0  0  0  0  0
    6.4325    0.0019   -1.1798 H   0  0  0  0  0  0  0  0  0  0  0  0
    5.7708   -0.0090   -2.8320 H   0  0  0  0  0  0  0  0  0  0  0  0
    0.0012    7.4978   -5.5152 H   0  0  0  0  0  0  0  0  0  0  0  0
    0.3227    7.5318   -4.4753 C   0  0  0  0  0  0  0  0  0  0  0  0
    0.0743    8.5009   -4.0455 H   0  0  0  0  0  0  0  0  0  0  0  0
    1.3971    7.3673   -4.4195 H   0  0  0  0  0  0  0  0  0  0  0  0
   -0.3906    6.4450   -3.7056 C   0  0  0  0  0  0  0  0  0  0  0  0
   -1.1741    5.6971   -4.2747 O   0  0  0  0  0  0  0  0  0  0  0  0
   -0.1102    6.3546   -2.4084 N   0  0  0  0  0  0  0  0  0  0  0  0
    0.5393    7.0129   -2.0032 H   0  0  0  0  0  0  0  0  0  0  0  0
   -0.6931    5.3667   -1.5004 C   0  0  1  0  0  0  0  0  0  0  0  0
   -1.7361    5.2016   -1.7763 H   0  0  0  0  0  0  0  0  0  0  0  0
    0.0688    4.0463   -1.6815 C   0  0  0  0  0  0  0  0  0  0  0  0
   -0.0159    3.7596   -2.7306 H   0  0  0  0  0  0  0  0  0  0  0  0
    1.1262    4.2189   -1.4798 H   0  0  0  0  0  0  0  0  0  0  0  0
   -0.4805    2.6237   -0.7010 S   0  0  0  0  0  0  0  0  0  0  0  0
   -0.6561    5.8804   -0.0501 C   0  0  0  0  0  0  0  0  0  0  0  0
    0.2468    6.6363    0.3113 O   0  0  0  0  0  0  0  0  0  0  0  0
   -1.6350    5.4795    0.7712 N   0  0  0  0  0  0  0  0  0  0  0  0
   -2.3180    4.8338    0.4081 H   0  0  0  0  0  0  0  0  0  0  0  0
   -1.7402    5.8685    2.1770 C   0  0  0  0  0  0  0  0  0  0  0  0
   -0.9926    5.3326    2.7640 H   0  0  0  0  0  0  0  0  0  0  0  0
   -1.5622    6.9414    2.2821 H   0  0  0  0  0  0  0  0  0  0  0  0
   -2.7335    5.6333    2.5597 H   0  0  0  0  0  0  0  0  0  0  0  0
  5  6  2  0  0  0  0
  5  7  1  0  0  0  0
  2  3  1  0  0  0  0
  2  4  1  0  0  0  0
  2  5  1  0  0  0  0
  1  2  1  0  0  0  0
 15 16  2  0  0  0  0
 15 17  1  0  0  0  0
 14 36  1  0  0  0  0
 11 12  1  0  0  0  0
 11 13  1  0  0  0  0
 11 14  1  0  0  0  0
  9 10  1  0  0  0  0
  9 11  1  0  0  0  0
  9 15  1  0  0  0  0
  7  8  1  0  0  0  0
  7  9  1  0  0  0  0
 19 20  1  0  0  0  0
 19 21  1  0  0  0  0
 19 22  1  0  0  0  0
 17 18  1  0  0  0  0
 17 19  1  0  0  0  0
 27 28  2  0  0  0  0
 27 29  1  0  0  0  0
 24 25  1  0  0  0  0
 24 26  1  0  0  0  0
 24 27  1  0  0  0  0
 23 24  1  0  0  0  0
 37 38  2  0  0  0  0
 37 39  1  0  0  0  0
 33 34  1  0  0  0  0
 33 35  1  0  0  0  0
 33 36  1  0  0  0  0
 31 32  1  0  0  0  0
 31 33  1  0  0  0  0
 31 37  1  0  0  0  0
 29 30  1  0  0  0  0
 29 31  1  0  0  0  0
 41 42  1  0  0  0  0
 41 43  1  0  0  0  0
 41 44  1  0  0  0  0
 39 40  1  0  0  0  0
 39 41  1  0  0  0  0
M  END
$$$$
default_name
  -OEChem-01062215323D

 44 43  0     1  0  0  0  0  0999 V2000
    2.4488   -3.0448    2.0990 H   0  0  0  0  0  0  0  0  0  0  0  0
    2.2788   -2.0018    2.3640 C   0  0  0  0  0  0  0  0  0  0  0  0
    2.9228   -1.7258    3.1960 H   0  0  0  0  0  0  0  0  0  0  0  0
    1.2358   -1.8618    2.6430 H   0  0  0  0  0  0  0  0  0  0  0  0
    2.6018   -1.1318    1.1730 C   0  0  0  0  0  0  0  0  0  0  0  0
    3.0048   -1.6348    0.1320 O   0  0  0  0  0  0  0  0  0  0  0  0
    2.4088    0.1752    1.3190 N   0  0  0  0  0  0  0  0  0  0  0  0
    2.0708    0.5242    2.2050 H   0  0  0  0  0  0  0  0  0  0  0  0
    2.6638    1.1782    0.2840 C   0  0  1  0  0  0  0  0  0  0  0  0
    2.0605    0.9255   -0.5896 H   0  0  0  0  0  0  0  0  0  0  0  0
    2.2213    2.5640    0.7852 C   0  0  0  0  0  0  0  0  0  0  0  0
    2.5622    3.3190    0.0758 H   0  0  0  0  0  0  0  0  0  0  0  0
    2.7443    2.7628    1.7203 H   0  0  0  0  0  0  0  0  0  0  0  0
    0.4516    2.8279    1.1039 S   0  0  0  0  0  0  0  0  0  0  0  0
    4.1424    1.1666   -0.1470 C   0  0  0  0  0  0  0  0  0  0  0  0
    5.0342    1.3853    0.6728 O   0  0  0  0  0  0  0  0  0  0  0  0
    4.4019    0.9043   -1.4349 N   0  0  0  0  0  0  0  0  0  0  0  0
    3.6241    0.7315   -2.0513 H   0  0  0  0  0  0  0  0  0  0  0  0
    5.7497    0.8596   -1.9981 C   0  0  0  0  0  0  0  0  0  0  0  0
    6.2203    1.8404   -1.9021 H   0  0  0  0  0  0  0  0  0  0  0  0
    6.3538    0.1317   -1.4534 H   0  0  0  0  0  0  0  0  0  0  0  0
    5.7114    0.5796   -3.0516 H   0  0  0  0  0  0  0  0  0  0  0  0
    0.0012    7.4978   -5.5152 H   0  0  0  0  0  0  0  0  0  0  0  0
    0.3227    7.5318   -4.4753 C   0  0  0  0  0  0  0  0  0  0  0  0
    0.0743    8.5009   -4.0455 H   0  0  0  0  0  0  0  0  0  0  0  0
    1.3971    7.3673   -4.4195 H   0  0  0  0  0  0  0  0  0  0  0  0
   -0.3906    6.4450   -3.7056 C   0  0  0  0  0  0  0  0  0  0  0  0
   -1.1741    5.6971   -4.2747 O   0  0  0  0  0  0  0  0  0  0  0  0
   -0.1102    6.3546   -2.4084 N   0  0  0  0  0  0  0  0  0  0  0  0
    0.5393    7.0129   -2.0032 H   0  0  0  0  0  0  0  0  0  0  0  0
   -0.6931    5.3667   -1.5004 C   0  0  1  0  0  0  0  0  0  0  0  0
   -1.7361    5.2016   -1.7763 H   0  0  0  0  0  0  0  0  0  0  0  0
    0.0688    4.0463   -1.6815 C   0  0  0  0  0  0  0  0  0  0  0  0
   -0.0159    3.7596   -2.7306 H   0  0  0  0  0  0  0  0  0  0  0  0
    1.1262    4.2189   -1.4798 H   0  0  0  0  0  0  0  0  0  0  0  0
   -0.4805    2.6237   -0.7010 S   0  0  0  0  0  0  0  0  0  0  0  0
   -0.6561    5.8804   -0.0501 C   0  0  0  0  0  0  0  0  0  0  0  0
    0.2468    6.6363    0.3113 O   0  0  0  0  0  0  0  0  0  0  0  0
   -1.6350    5.4795    0.7712 N   0  0  0  0  0  0  0  0  0  0  0  0
   -2.3180    4.8338    0.4081 H   0  0  0  0  0  0  0  0  0  0  0  0
   -1.7402    5.8685    2.1770 C   0  0  0  0  0  0  0  0  0  0  0  0
   -0.9926    5.3326    2.7640 H   0  0  0  0  0  0  0  0  0  0  0  0
   -1.5622    6.9414    2.2821 H   0  0  0  0  0  0  0  0  0  0  0  0
   -2.7335    5.6333    2.5597 H   0  0  0  0  0  0  0  0  0  0  0  0
  5  6  2  0  0  0  0
  5  7  1  0  0  0  0
  2  3  1  0  0  0  0
  2  4  1  0  0  0  0
  2  5  1  0  0  0  0
  1  2  1  0  0  0  0
 15 16  2  0  0  0  0
 15 17  1  0  0  0  0
 14 36  1  0  0  0  0
 11 12  1  0  0  0  0
 11 13  1  0  0  0  0
 11 14  1  0  0  0  0
  9 10  1  0  0  0  0
  9 11  1  0  0  0  0
  9 15  1  0  0  0  0
  7  8  1  0  0  0  0
  7  9  1  0  0  0  0
 19 20  1  0  0  0  0
 19 21  1  0  0  0  0
 19 22  1  0  0  0  0
 17 18  1  0  0  0  0
 17 19  1  0  0  0  0
 27 28  2  0  0  0  0
 27 29  1  0  0  0  0
 24 25  1  0  0  0  0
 24 26  1  0  0  0  0
 24 27  1  0  0  0  0
 23 24  1  0  0  0  0
 37 38  2  0  0  0  0
 37 39  1  0  0  0  0
 33 34  1  0  0  0  0
 33 35  1  0  0  0  0
 33 36  1  0  0  0  0
 31 32  1  0  0  0  0
 31 33  1  0  0  0  0
 31 37  1  0  0  0  0
 29 30  1  0  0  0  0
 29 31  1  0  0  0  0
 41 42  1  0  0  0  0
 41 43  1  0  0  0  0
 41 44  1  0  0  0  0
 39 40  1  0  0  0  0
 39 41  1  0  0  0  0
M  END
$$$$
default_name
  -OEChem-01062215323D

 44 43  0     1  0  0  0  0  0999 V2000
    2.4488   -3.0448    2.0990 H   0  0  0  0  0  0  0  0  0  0  0  0
    2.2788   -2.0018    2.3640 C   0  0  0  0  0  0  0  0  0  0  0  0
    2.9228   -1.7258    3.1960 H   0  0  0  0  0  0  0  0  0  0  0  0
    1.2358   -1.8618    2.6430 H   0  0  0  0  0  0  0  0  0  0  0  0
    2.6018   -1.1318    1.1730 C   0  0  0  0  0  0  0  0  0  0  0  0
    3.0048   -1.6348    0.1320 O   0  0  0  0  0  0  0  0  0  0  0  0
    2.4088    0.1752    1.3190 N   0  0  0  0  0  0  0  0  0  0  0  0
    2.0708    0.5242    2.2050 H   0  0  0  0  0  0  0  0  0  0  0  0
    2.6638    1.1782    0.2840 C   0  0  1  0  0  0  0  0  0  0  0  0
    2.0605    0.9255   -0.5896 H   0  0  0  0  0  0  0  0  0  0  0  0
    2.2213    2.5640    0.7852 C   0  0  0  0  0  0  0  0  0  0  0  0
    2.5622    3.3190    0.0758 H   0  0  0  0  0  0  0  0  0  0  0  0
    2.7443    2.7628    1.7203 H   0  0  0  0  0  0  0  0  0  0  0  0
    0.4516    2.8279    1.1039 S   0  0  0  0  0  0  0  0  0  0  0  0
    4.1424    1.1666   -0.1470 C   0  0  0  0  0  0  0  0  0  0  0  0
    5.0385    1.1094    0.6950 O   0  0  0  0  0  0  0  0  0  0  0  0
    4.3965    1.2143   -1.4615 N   0  0  0  0  0  0  0  0  0  0  0  0
    3.6152    1.2571   -2.0959 H   0  0  0  0  0  0  0  0  0  0  0  0
    5.7438    1.2131   -2.0278 C   0  0  0  0  0  0  0  0  0  0  0  0
    6.2829    2.1024   -1.6945 H   0  0  0  0  0  0  0  0  0  0  0  0
    6.2877    0.3308   -1.6855 H   0  0  0  0  0  0  0  0  0  0  0  0
    5.6971    1.2071   -3.1175 H   0  0  0  0  0  0  0  0  0  0  0  0
    0.0012    7.4978   -5.5152 H   0  0  0  0  0  0  0  0  0  0  0  0
    0.3227    7.5318   -4.4753 C   0  0  0  0  0  0  0  0  0  0  0  0
    0.0743    8.5009   -4.0455 H   0  0  0  0  0  0  0  0  0  0  0  0
    1.3971    7.3673   -4.4195 H   0  0  0  0  0  0  0  0  0  0  0  0
   -0.3906    6.4450   -3.7056 C   0  0  0  0  0  0  0  0  0  0  0  0
   -1.1741    5.6971   -4.2747 O   0  0  0  0  0  0  0  0  0  0  0  0
   -0.1102    6.3546   -2.4084 N   0  0  0  0  0  0  0  0  0  0  0  0
    0.5393    7.0129   -2.0032 H   0  0  0  0  0  0  0  0  0  0  0  0
   -0.6931    5.3667   -1.5004 C   0  0  1  0  0  0  0  0  0  0  0  0
   -1.7361    5.2016   -1.7763 H   0  0  0  0  0  0  0  0  0  0  0  0
    0.0688    4.0463   -1.6815 C   0  0  0  0  0  0  0  0  0  0  0  0
   -0.0159    3.7596   -2.7306 H   0  0  0  0  0  0  0  0  0  0  0  0
    1.1262    4.2189   -1.4798 H   0  0  0  0  0  0  0  0  0  0  0  0
   -0.4805    2.6237   -0.7010 S   0  0  0  0  0  0  0  0  0  0  0  0
   -0.6561    5.8804   -0.0501 C   0  0  0  0  0  0  0  0  0  0  0  0
    0.2468    6.6363    0.3113 O   0  0  0  0  0  0  0  0  0  0  0  0
   -1.6350    5.4795    0.7712 N   0  0  0  0  0  0  0  0  0  0  0  0
   -2.3180    4.8338    0.4081 H   0  0  0  0  0  0  0  0  0  0  0  0
   -1.7402    5.8685    2.1770 C   0  0  0  0  0  0  0  0  0  0  0  0
   -0.9926    5.3326    2.7640 H   0  0  0  0  0  0  0  0  0  0  0  0
   -1.5622    6.9414    2.2821 H   0  0  0  0  0  0  0  0  0  0  0  0
   -2.7335    5.6333    2.5597 H   0  0  0  0  0  0  0  0  0  0  0  0
  5  6  2  0  0  0  0
  5  7  1  0  0  0  0
  2  3  1  0  0  0  0
  2  4  1  0  0  0  0
  2  5  1  0  0  0  0
  1  2  1  0  0  0  0
 15 16  2  0  0  0  0
 15 17  1  0  0  0  0
 14 36  1  0  0  0  0
 11 12  1  0  0  0  0
 11 13  1  0  0  0  0
 11 14  1  0  0  0  0
  9 10  1  0  0  0  0
  9 11  1  0  0  0  0
  9 15  1  0  0  0  0
  7  8  1  0  0  0  0
  7  9  1  0  0  0  0
 19 20  1  0  0  0  0
 19 21  1  0  0  0  0
 19 22  1  0  0  0  0
 17 18  1  0  0  0  0
 17 19  1  0  0  0  0
 27 28  2  0  0  0  0
 27 29  1  0  0  0  0
 24 25  1  0  0  0  0
 24 26  1  0  0  0  0
 24 27  1  0  0  0  0
 23 24  1  0  0  0  0
 37 38  2  0  0  0  0
 37 39  1  0  0  0  0
 33 34  1  0  0  0  0
 33 35  1  0  0  0  0
 33 36  1  0  0  0  0
 31 32  1  0  0  0  0
 31 33  1  0  0  0  0
 31 37  1  0  0  0  0
 29 30  1  0  0  0  0
 29 31  1  0  0  0  0
 41 42  1  0  0  0  0
 41 43  1  0  0  0  0
 41 44  1  0  0  0  0
 39 40  1  0  0  0  0
 39 41  1  0  0  0  0
M  END
$$$$
default_name
  -OEChem-01062215323D

 44 43  0     1  0  0  0  0  0999 V2000
    2.4488   -3.0448    2.0990 H   0  0  0  0  0  0  0  0  0  0  0  0
    2.2788   -2.0018    2.3640 C   0  0  0  0  0  0  0  0  0  0  0  0
    2.9228   -1.7258    3.1960 H   0  0  0  0  0  0  0  0  0  0  0  0
    1.2358   -1.8618    2.6430 H   0  0  0  0  0  0  0  0  0  0  0  0
    2.6018   -1.1318    1.1730 C   0  0  0  0  0  0  0  0  0  0  0  0
    3.0048   -1.6348    0.1320 O   0  0  0  0  0  0  0  0  0  0  0  0
    2.4088    0.1752    1.3190 N   0  0  0  0  0  0  0  0  0  0  0  0
    2.0708    0.5242    2.2050 H   0  0  0  0  0  0  0  0  0  0  0  0
    2.6638    1.1782    0.2840 C   0  0  1  0  0  0  0  0  0  0  0  0
    2.0605    0.9255   -0.5896 H   0  0  0  0  0  0  0  0  0  0  0  0
    2.2213    2.5640    0.7852 C   0  0  0  0  0  0  0  0  0  0  0  0
    2.5622    3.3190    0.0758 H   0  0  0  0  0  0  0  0  0  0  0  0
    2.7443    2.7628    1.7203 H   0  0  0  0  0  0  0  0  0  0  0  0
    0.4516    2.8279    1.1039 S   0  0  0  0  0  0  0  0  0  0  0  0
    4.1424    1.1666   -0.1470 C   0  0  0  0  0  0  0  0  0  0  0  0
    5.0227    0.8371    0.6478 O   0  0  0  0  0  0  0  0  0  0  0  0
    4.4139    1.5207   -1.4102 N   0  0  0  0  0  0  0  0  0  0  0  0
    3.6448    1.7764   -2.0084 H   0  0  0  0  0  0  0  0  0  0  0  0
    5.7637    1.5623   -1.9687 C   0  0  0  0  0  0  0  0  0  0  0  0
    6.3619    2.2994   -1.4287 H   0  0  0  0  0  0  0  0  0  0  0  0
    6.2387    0.5855   -1.8604 H   0  0  0  0  0  0  0  0  0  0  0  0
    5.7288    1.8307   -3.0254 H   0  0  0  0  0  0  0  0  0  0  0  0
    0.0012    7.4978   -5.5152 H   0  0  0  0  0  0  0  0  0  0  0  0
    0.3227    7.5318   -4.4753 C   0  0  0  0  0  0  0  0  0  0  0  0
    0.0743    8.5009   -4.0455 H   0  0  0  0  0  0  0  0  0  0  0  0
    1.3971    7.3673   -4.4195 H   0  0  0  0  0  0  0  0  0  0  0  0
   -0.3906    6.4450   -3.7056 C   0  0  0  0  0  0  0  0  0  0  0  0
   -1.1741    5.6971   -4.2747 O   0  0  0  0  0  0  0  0  0  0  0  0
   -0.1102    6.3546   -2.4084 N   0  0  0  0  0  0  0  0  0  0  0  0
    0.5393    7.0129   -2.0032 H   0  0  0  0  0  0  0  0  0  0  0  0
   -0.6931    5.3667   -1.5004 C   0  0  1  0  0  0  0  0  0  0  0  0
   -1.7361    5.2016   -1.7763 H   0  0  0  0  0  0  0  0  0  0  0  0
    0.0688    4.0463   -1.6815 C   0  0  0  0  0  0  0  0  0  0  0  0
   -0.0159    3.7596   -2.7306 H   0  0  0  0  0  0  0  0  0  0  0  0
    1.1262    4.2189   -1.4798 H   0  0  0  0  0  0  0  0  0  0  0  0
   -0.4805    2.6237   -0.7010 S   0  0  0  0  0  0  0  0  0  0  0  0
   -0.6561    5.8804   -0.0501 C   0  0  0  0  0  0  0  0  0  0  0  0
    0.2468    6.6363    0.3113 O   0  0  0  0  0  0  0  0  0  0  0  0
   -1.6350    5.4795    0.7712 N   0  0  0  0  0  0  0  0  0  0  0  0
   -2.3180    4.8338    0.4081 H   0  0  0  0  0  0  0  0  0  0  0  0
   -1.7402    5.8685    2.1770 C   0  0  0  0  0  0  0  0  0  0  0  0
   -0.9926    5.3326    2.7640 H   0  0  0  0  0  0  0  0  0  0  0  0
   -1.5622    6.9414    2.2821 H   0  0  0  0  0  0  0  0  0  0  0  0
   -2.7335    5.6333    2.5597 H   0  0  0  0  0  0  0  0  0  0  0  0
  5  6  2  0  0  0  0
  5  7  1  0  0  0  0
  2  3  1  0  0  0  0
  2  4  1  0  0  0  0
  2  5  1  0  0  0  0
  1  2  1  0  0  0  0
 15 16  2  0  0  0  0
 15 17  1  0  0  0  0
 14 36  1  0  0  0  0
 11 12  1  0  0  0  0
 11 13  1  0  0  0  0
 11 14  1  0  0  0  0
  9 10  1  0  0  0  0
  9 11  1  0  0  0  0
  9 15  1  0  0  0  0
  7  8  1  0  0  0  0
  7  9  1  0  0  0  0
 19 20  1  0  0  0  0
 19 21  1  0  0  0  0
 19 22  1  0  0  0  0
 17 18  1  0  0  0  0
 17 19  1  0  0  0  0
 27 28  2  0  0  0  0
 27 29  1  0  0  0  0
 24 25  1  0  0  0  0
 24 26  1  0  0  0  0
 24 27  1  0  0  0  0
 23 24  1  0  0  0  0
 37 38  2  0  0  0  0
 37 39  1  0  0  0  0
 33 34  1  0  0  0  0
 33 35  1  0  0  0  0
 33 36  1  0  0  0  0
 31 32  1  0  0  0  0
 31 33  1  0  0  0  0
 31 37  1  0  0  0  0
 29 30  1  0  0  0  0
 29 31  1  0  0  0  0
 41 42  1  0  0  0  0
 41 43  1  0  0  0  0
 41 44  1  0  0  0  0
 39 40  1  0  0  0  0
 39 41  1  0  0  0  0
M  END
$$$$
default_name
  -OEChem-01062215323D

 44 43  0     1  0  0  0  0  0999 V2000
    2.4488   -3.0448    2.0990 H   0  0  0  0  0  0  0  0  0  0  0  0
    2.2788   -2.0018    2.3640 C   0  0  0  0  0  0  0  0  0  0  0  0
    2.9228   -1.7258    3.1960 H   0  0  0  0  0  0  0  0  0  0  0  0
    1.2358   -1.8618    2.6430 H   0  0  0  0  0  0  0  0  0  0  0  0
    2.6018   -1.1318    1.1730 C   0  0  0  0  0  0  0  0  0  0  0  0
    3.0048   -1.6348    0.1320 O   0  0  0  0  0  0  0  0  0  0  0  0
    2.4088    0.1752    1.3190 N   0  0  0  0  0  0  0  0  0  0  0  0
    2.0708    0.5242    2.2050 H   0  0  0  0  0  0  0  0  0  0  0  0
    2.6638    1.1782    0.2840 C   0  0  1  0  0  0  0  0  0  0  0  0
    2.0605    0.9255   -0.5896 H   0  0  0  0  0  0  0  0  0  0  0  0
    2.2213    2.5640    0.7852 C   0  0  0  0  0  0  0  0  0  0  0  0
    2.5622    3.3190    0.0758 H   0  0  0  0  0  0  0  0  0  0  0  0
    2.7443    2.7628    1.7203 H   0  0  0  0  0  0  0  0  0  0  0  0
    0.4516    2.8279    1.1039 S   0  0  0  0  0  0  0  0  0  0  0  0
    4.1424    1.1666   -0.1470 C   0  0  0  0  0  0  0  0  0  0  0  0
    4.9877    0.5869    0.5346 O   0  0  0  0  0  0  0  0  0  0  0  0
    4.4527    1.8027   -1.2845 N   0  0  0  0  0  0  0  0  0  0  0  0
    3.7108    2.2542   -1.7948 H   0  0  0  0  0  0  0  0  0  0  0  0
    5.8082    1.8836   -1.8249 C   0  0  0  0  0  0  0  0  0  0  0  0
    6.4519    2.4179   -1.1229 H   0  0  0  0  0  0  0  0  0  0  0  0
    6.2102    0.8786   -1.9661 H   0  0  0  0  0  0  0  0  0  0  0  0
    5.8045    2.4078   -2.7814 H   0  0  0  0  0  0  0  0  0  0  0  0
    0.0012    7.4978   -5.5152 H   0  0  0  0  0  0  0  0  0  0  0  0
    0.3227    7.5318   -4.4753 C   0  0  0  0  0  0  0  0  0  0  0  0
    0.0743    8.5009   -4.0455 H   0  0  0  0  0  0  0  0  0  0  0  0
    1.3971    7.3673   -4.4195 H   0  0  0  0  0  0  0  0  0  0  0  0
   -0.3906    6.4450   -3.7056 C   0  0  0  0  0  0  0  0  0  0  0  0
   -1.1741    5.6971   -4.2747 O   0  0  0  0  0  0  0  0  0  0  0  0
   -0.1102    6.3546   -2.4084 N   0  0  0  0  0  0  0  0  0  0  0  0
    0.5393    7.0129   -2.0032 H   0  0  0  0  0  0  0  0  0  0  0  0
   -0.6931    5.3667   -1.5004 C   0  0  1  0  0  0  0  0  0  0  0  0
   -1.7361    5.2016   -1.7763 H   0  0  0  0  0  0  0  0  0  0  0  0
    0.0688    4.0463   -1.6815 C   0  0  0  0  0  0  0  0  0  0  0  0
   -0.0159    3.7596   -2.7306 H   0  0  0  0  0  0  0  0  0  0  0  0
    1.1262    4.2189   -1.4798 H   0  0  0  0  0  0  0  0  0  0  0  0
   -0.4805    2.6237   -0.7010 S   0  0  0  0  0  0  0  0  0  0  0  0
   -0.6561    5.8804   -0.0501 C   0  0  0  0  0  0  0  0  0  0  0  0
    0.2468    6.6363    0.3113 O   0  0  0  0  0  0  0  0  0  0  0  0
   -1.6350    5.4795    0.7712 N   0  0  0  0  0  0  0  0  0  0  0  0
   -2.3180    4.8338    0.4081 H   0  0  0  0  0  0  0  0  0  0  0  0
   -1.7402    5.8685    2.1770 C   0  0  0  0  0  0  0  0  0  0  0  0
   -0.9926    5.3326    2.7640 H   0  0  0  0  0  0  0  0  0  0  0  0
   -1.5622    6.9414    2.2821 H   0  0  0  0  0  0  0  0  0  0  0  0
   -2.7335    5.6333    2.5597 H   0  0  0  0  0  0  0  0  0  0  0  0
  5  6  2  0  0  0  0
  5  7  1  0  0  0  0
  2  3  1  0  0  0  0
  2  4  1  0  0  0  0
  2  5  1  0  0  0  0
  1  2  1  0  0  0  0
 15 16  2  0  0  0  0
 15 17  1  0  0  0  0
 14 36  1  0  0  0  0
 11 12  1  0  0  0  0
 11 13  1  0  0  0  0
 11 14  1  0  0  0  0
  9 10  1  0  0  0  0
  9 11  1  0  0  0  0
  9 15  1  0  0  0  0
  7  8  1  0  0  0  0
  7  9  1  0  0  0  0
 19 20  1  0  0  0  0
 19 21  1  0  0  0  0
 19 22  1  0  0  0  0
 17 18  1  0  0  0  0
 17 19  1  0  0  0  0
 27 28  2  0  0  0  0
 27 29  1  0  0  0  0
 24 25  1  0  0  0  0
 24 26  1  0  0  0  0
 24 27  1  0  0  0  0
 23 24  1  0  0  0  0
 37 38  2  0  0  0  0
 37 39  1  0  0  0  0
 33 34  1  0  0  0  0
 33 35  1  0  0  0  0
 33 36  1  0  0  0  0
 31 32  1  0  0  0  0
 31 33  1  0  0  0  0
 31 37  1  0  0  0  0
 29 30  1  0  0  0  0
 29 31  1  0  0  0  0
 41 42  1  0  0  0  0
 41 43  1  0  0  0  0
 41 44  1  0  0  0  0
 39 40  1  0  0  0  0
 39 41  1  0  0  0  0
M  END
$$$$
default_name
  -OEChem-01062215323D

 44 43  0     1  0  0  0  0  0999 V2000
    2.4488   -3.0448    2.0990 H   0  0  0  0  0  0  0  0  0  0  0  0
    2.2788   -2.0018    2.3640 C   0  0  0  0  0  0  0  0  0  0  0  0
    2.9228   -1.7258    3.1960 H   0  0  0  0  0  0  0  0  0  0  0  0
    1.2358   -1.8618    2.6430 H   0  0  0  0  0  0  0  0  0  0  0  0
    2.6018   -1.1318    1.1730 C   0  0  0  0  0  0  0  0  0  0  0  0
    3.0048   -1.6348    0.1320 O   0  0  0  0  0  0  0  0  0  0  0  0
    2.4088    0.1752    1.3190 N   0  0  0  0  0  0  0  0  0  0  0  0
    2.0708    0.5242    2.2050 H   0  0  0  0  0  0  0  0  0  0  0  0
    2.6638    1.1782    0.2840 C   0  0  1  0  0  0  0  0  0  0  0  0
    1.8819    1.0918   -0.4724 H   0  0  0  0  0  0  0  0  0  0  0  0
    2.5820    2.5873    0.8967 C   0  0  0  0  0  0  0  0  0  0  0  0
    2.9301    3.3113    0.1589 H   0  0  0  0  0  0  0  0  0  0  0  0
    3.2869    2.6312    1.7265 H   0  0  0  0  0  0  0  0  0  0  0  0
    0.9753    3.1434    1.5387 S   0  0  0  0  0  0  0  0  0  0  0  0
    4.0168    0.9288   -0.4085 C   0  0  0  0  0  0  0  0  0  0  0  0
    4.7246   -0.0211   -0.0738 O   0  0  0  0  0  0  0  0  0  0  0  0
    4.3724    1.7798   -1.3801 N   0  0  0  0  0  0  0  0  0  0  0  0
    3.7440    2.5342   -1.6053 H   0  0  0  0  0  0  0  0  0  0  0  0
    5.6235    1.6792   -2.1287 C   0  0  0  0  0  0  0  0  0  0  0  0
    6.4692    1.7986   -1.4482 H   0  0  0  0  0  0  0  0  0  0  0  0
    5.6946    0.6967   -2.5991 H   0  0  0  0  0  0  0  0  0  0  0  0
    5.6681    2.4510   -2.8982 H   0  0  0  0  0  0  0  0  0  0  0  0
    0.2673    8.2173   -4.7523 H   0  0  0  0  0  0  0  0  0  0  0  0
    0.7646    8.1291   -3.7876 C   0  0  0  0  0  0  0  0  0  0  0  0
    0.7802    9.0987   -3.2923 H   0  0  0  0  0  0  0  0  0  0  0  0
    1.7824    7.7719   -3.9325 H   0  0  0  0  0  0  0  0  0  0  0  0
    0.0048    7.1422   -2.9326 C   0  0  0  0  0  0  0  0  0  0  0  0
   -0.9912    6.5830   -3.3711 O   0  0  0  0  0  0  0  0  0  0  0  0
    0.4837    6.9233   -1.7109 N   0  0  0  0  0  0  0  0  0  0  0  0
    1.3051    7.4285   -1.4118 H   0  0  0  0  0  0  0  0  0  0  0  0
   -0.1076    6.0016   -0.7408 C   0  0  1  0  0  0  0  0  0  0  0  0
   -1.1948    6.0432   -0.8274 H   0  0  0  0  0  0  0  0  0  0  0  0
    0.3508    4.5800   -1.0949 C   0  0  0  0  0  0  0  0  0  0  0  0
    0.0335    4.3782   -2.1190 H   0  0  0  0  0  0  0  0  0  0  0  0
    1.4404    4.5477   -1.0837 H   0  0  0  0  0  0  0  0  0  0  0  0
   -0.2767    3.2209   -0.0721 S   0  0  0  0  0  0  0  0  0  0  0  0
    0.2755    6.4101    0.6927 C   0  0  0  0  0  0  0  0  0  0  0  0
    1.3526    6.9685    0.9056 O   0  0  0  0  0  0  0  0  0  0  0  0
   -0.6038    6.1411    1.6664 N   0  0  0  0  0  0  0  0  0  0  0  0
   -1.4480    5.6516    1.4150 H   0  0  0  0  0  0  0  0  0  0  0  0
   -0.3894    6.4553    3.0784 C   0  0  0  0  0  0  0  0  0  0  0  0
    0.3349    5.7590    3.5044 H   0  0  0  0  0  0  0  0  0  0  0  0
    0.0017    7.4704    3.1800 H   0  0  0  0  0  0  0  0  0  0  0  0
   -1.3276    6.3785    3.6282 H   0  0  0  0  0  0  0  0  0  0  0  0
  5  6  2  0  0  0  0
  5  7  1  0  0  0  0
  2  3  1  0  0  0  0
  2  4  1  0  0  0  0
  2  5  1  0  0  0  0
  1  2  1  0  0  0  0
 15 16  2  0  0  0  0
 15 17  1  0  0  0  0
 14 36  1  0  0  0  0
 11 12  1  0  0  0  0
 11 13  1  0  0  0  0
 11 14  1  0  0  0  0
  9 10  1  0  0  0  0
  9 11  1  0  0  0  0
  9 15  1  0  0  0  0
  7  8  1  0  0  0  0
  7  9  1  0  0  0  0
 19 20  1  0  0  0  0
 19 21  1  0  0  0  0
 19 22  1  0  0  0  0
 17 18  1  0  0  0  0
 17 19  1  0  0  0  0
 27 28  2  0  0  0  0
 27 29  1  0  0  0  0
 24 25  1  0  0  0  0
 24 26  1  0  0  0  0
 24 27  1  0  0  0  0
 23 24  1  0  0  0  0
 37 38  2  0  0  0  0
 37 39  1  0  0  0  0
 33 34  1  0  0  0  0
 33 35  1  0  0  0  0
 33 36  1  0  0  0  0
 31 32  1  0  0  0  0
 31 33  1  0  0  0  0
 31 37  1  0  0  0  0
 29 30  1  0  0  0  0
 29 31  1  0  0  0  0
 41 42  1  0  0  0  0
 41 43  1  0  0  0  0
 41 44  1  0  0  0  0
 39 40  1  0  0  0  0
 39 41  1  0  0  0  0
M  END
$$$$
default_name
  -OEChem-01062215323D

 44 43  0     1  0  0  0  0  0999 V2000
    2.4488   -3.0448    2.0990 H   0  0  0  0  0  0  0  0  0  0  0  0
    2.2788   -2.0018    2.3640 C   0  0  0  0  0  0  0  0  0  0  0  0
    2.9228   -1.7258    3.1960 H   0  0  0  0  0  0  0  0  0  0  0  0
    1.2358   -1.8618    2.6430 H   0  0  0  0  0  0  0  0  0  0  0  0
    2.6018   -1.1318    1.1730 C   0  0  0  0  0  0  0  0  0  0  0  0
    3.0048   -1.6348    0.1320 O   0  0  0  0  0  0  0  0  0  0  0  0
    2.4088    0.1752    1.3190 N   0  0  0  0  0  0  0  0  0  0  0  0
    2.0708    0.5242    2.2050 H   0  0  0  0  0  0  0  0  0  0  0  0
    2.6638    1.1782    0.2840 C   0  0  1  0  0  0  0  0  0  0  0  0
    1.8819    1.0918   -0.4724 H   0  0  0  0  0  0  0  0  0  0  0  0
    2.5820    2.5873    0.8967 C   0  0  0  0  0  0  0  0  0  0  0  0
    2.9301    3.3113    0.1589 H   0  0  0  0  0  0  0  0  0  0  0  0
    3.2869    2.6312    1.7265 H   0  0  0  0  0  0  0  0  0  0  0  0
    0.9753    3.1434    1.5387 S   0  0  0  0  0  0  0  0  0  0  0  0
    4.0168    0.9288   -0.4085 C   0  0  0  0  0  0  0  0  0  0  0  0
    4.5946   -0.1506   -0.2811 O   0  0  0  0  0  0  0  0  0  0  0  0
    4.5184    1.9270   -1.1479 N   0  0  0  0  0  0  0  0  0  0  0  0
    3.9914    2.7831   -1.2116 H   0  0  0  0  0  0  0  0  0  0  0  0
    5.7899    1.8464   -1.8638 C   0  0  0  0  0  0  0  0  0  0  0  0
    6.6047    1.7063   -1.1502 H   0  0  0  0  0  0  0  0  0  0  0  0
    5.7770    0.9937   -2.5451 H   0  0  0  0  0  0  0  0  0  0  0  0
    5.9629    2.7602   -2.4336 H   0  0  0  0  0  0  0  0  0  0  0  0
    0.2673    8.2173   -4.7523 H   0  0  0  0  0  0  0  0  0  0  0  0
    0.7646    8.1291   -3.7876 C   0  0  0  0  0  0  0  0  0  0  0  0
    0.7802    9.0987   -3.2923 H   0  0  0  0  0  0  0  0  0  0  0  0
    1.7824    7.7719   -3.9325 H   0  0  0  0  0  0  0  0  0  0  0  0
    0.0048    7.1422   -2.9326 C   0  0  0  0  0  0  0  0  0  0  0  0
   -0.9912    6.5830   -3.3711 O   0  0  0  0  0  0  0  0  0  0  0  0
    0.4837    6.9233   -1.7109 N   0  0  0  0  0  0  0  0  0  0  0  0
    1.3051    7.4285   -1.4118 H   0  0  0  0  0  0  0  0  0  0  0  0
   -0.1076    6.0016   -0.7408 C   0  0  1  0  0  0  0  0  0  0  0  0
   -1.1948    6.0432   -0.8274 H   0  0  0  0  0  0  0  0  0  0  0  0
    0.3508    4.5800   -1.0949 C   0  0  0  0  0  0  0  0  0  0  0  0
    0.0335    4.3782   -2.1190 H   0  0  0  0  0  0  0  0  0  0  0  0
    1.4404    4.5477   -1.0837 H   0  0  0  0  0  0  0  0  0  0  0  0
   -0.2767    3.2209   -0.0721 S   0  0  0  0  0  0  0  0  0  0  0  0
    0.2755    6.4101    0.6927 C   0  0  0  0  0  0  0  0  0  0  0  0
    1.3526    6.9685    0.9056 O   0  0  0  0  0  0  0  0  0  0  0  0
   -0.6038    6.1411    1.6664 N   0  0  0  0  0  0  0  0  0  0  0  0
   -1.4480    5.6516    1.4150 H   0  0  0  0  0  0  0  0  0  0  0  0
   -0.3894    6.4553    3.0784 C   0  0  0  0  0  0  0  0  0  0  0  0
    0.3349    5.7590    3.5044 H   0  0  0  0  0  0  0  0  0  0  0  0
    0.0017    7.4704    3.1800 H   0  0  0  0  0  0  0  0  0  0  0  0
   -1.3276    6.3785    3.6282 H   0  0  0  0  0  0  0  0  0  0  0  0
  5  6  2  0  0  0  0
  5  7  1  0  0  0  0
  2  3  1  0  0  0  0
  2  4  1  0  0  0  0
  2  5  1  0  0  0  0
  1  2  1  0  0  0  0
 15 16  2  0  0  0  0
 15 17  1  0  0  0  0
 14 36  1  0  0  0  0
 11 12  1  0  0  0  0
 11 13  1  0  0  0  0
 11 14  1  0  0  0  0
  9 10  1  0  0  0  0
  9 11  1  0  0  0  0
  9 15  1  0  0  0  0
  7  8  1  0  0  0  0
  7  9  1  0  0  0  0
 19 20  1  0  0  0  0
 19 21  1  0  0  0  0
 19 22  1  0  0  0  0
 17 18  1  0  0  0  0
 17 19  1  0  0  0  0
 27 28  2  0  0  0  0
 27 29  1  0  0  0  0
 24 25  1  0  0  0  0
 24 26  1  0  0  0  0
 24 27  1  0  0  0  0
 23 24  1  0  0  0  0
 37 38  2  0  0  0  0
 37 39  1  0  0  0  0
 33 34  1  0  0  0  0
 33 35  1  0  0  0  0
 33 36  1  0  0  0  0
 31 32  1  0  0  0  0
 31 33  1  0  0  0  0
 31 37  1  0  0  0  0
 29 30  1  0  0  0  0
 29 31  1  0  0  0  0
 41 42  1  0  0  0  0
 41 43  1  0  0  0  0
 41 44  1  0  0  0  0
 39 40  1  0  0  0  0
 39 41  1  0  0  0  0
M  END
$$$$
default_name
  -OEChem-01062215323D

 44 43  0     1  0  0  0  0  0999 V2000
    2.4488   -3.0448    2.0990 H   0  0  0  0  0  0  0  0  0  0  0  0
    2.2788   -2.0018    2.3640 C   0  0  0  0  0  0  0  0  0  0  0  0
    2.9228   -1.7258    3.1960 H   0  0  0  0  0  0  0  0  0  0  0  0
    1.2358   -1.8618    2.6430 H   0  0  0  0  0  0  0  0  0  0  0  0
    2.6018   -1.1318    1.1730 C   0  0  0  0  0  0  0  0  0  0  0  0
    3.0048   -1.6348    0.1320 O   0  0  0  0  0  0  0  0  0  0  0  0
    2.4088    0.1752    1.3190 N   0  0  0  0  0  0  0  0  0  0  0  0
    2.0708    0.5242    2.2050 H   0  0  0  0  0  0  0  0  0  0  0  0
    2.6638    1.1782    0.2840 C   0  0  1  0  0  0  0  0  0  0  0  0
    1.8819    1.0918   -0.4724 H   0  0  0  0  0  0  0  0  0  0  0  0
    2.5820    2.5873    0.8967 C   0  0  0  0  0  0  0  0  0  0  0  0
    2.9301    3.3113    0.1589 H   0  0  0  0  0  0  0  0  0  0  0  0
    3.2869    2.6312    1.7265 H   0  0  0  0  0  0  0  0  0  0  0  0
    0.9753    3.1434    1.5387 S   0  0  0  0  0  0  0  0  0  0  0  0
    4.0168    0.9288   -0.4085 C   0  0  0  0  0  0  0  0  0  0  0  0
    4.4627   -0.2135   -0.5162 O   0  0  0  0  0  0  0  0  0  0  0  0
    4.6667    1.9994   -0.8841 N   0  0  0  0  0  0  0  0  0  0  0  0
    4.2429    2.9053   -0.7642 H   0  0  0  0  0  0  0  0  0  0  0  0
    5.9590    1.9283   -1.5628 C   0  0  0  0  0  0  0  0  0  0  0  0
    6.7123    1.5337   -0.8776 H   0  0  0  0  0  0  0  0  0  0  0  0
    5.8888    1.2587   -2.4220 H   0  0  0  0  0  0  0  0  0  0  0  0
    6.2641    2.9190   -1.9022 H   0  0  0  0  0  0  0  0  0  0  0  0
    0.2673    8.2173   -4.7523 H   0  0  0  0  0  0  0  0  0  0  0  0
    0.7646    8.1291   -3.7876 C   0  0  0  0  0  0  0  0  0  0  0  0
    0.7802    9.0987   -3.2923 H   0  0  0  0  0  0  0  0  0  0  0  0
    1.7824    7.7719   -3.9325 H   0  0  0  0  0  0  0  0  0  0  0  0
    0.0048    7.1422   -2.9326 C   0  0  0  0  0  0  0  0  0  0  0  0
   -0.9912    6.5830   -3.3711 O   0  0  0  0  0  0  0  0  0  0  0  0
    0.4837    6.9233   -1.7109 N   0  0  0  0  0  0  0  0  0  0  0  0
    1.3051    7.4285   -1.4118 H   0  0  0  0  0  0  0  0  0  0  0  0
   -0.1076    6.0016   -0.7408 C   0  0  1  0  0  0  0  0  0  0  0  0
   -1.1948    6.0432   -0.8274 H   0  0  0  0  0  0  0  0  0  0  0  0
    0.3508    4.5800   -1.0949 C   0  0  0  0  0  0  0  0  0  0  0  0
    0.0335    4.3782   -2.1190 H   0  0  0  0  0  0  0  0  0  0  0  0
    1.4404    4.5477   -1.0837 H   0  0  0  0  0  0  0  0  0  0  0  0
   -0.2767    3.2209   -0.0721 S   0  0  0  0  0  0  0  0  0  0  0  0
    0.2755    6.4101    0.6927 C   0  0  0  0  0  0  0  0  0  0  0  0
    1.3526    6.9685    0.9056 O   0  0  0  0  0  0  0  0  0  0  0  0
   -0.6038    6.1411    1.6664 N   0  0  0  0  0  0  0  0  0  0  0  0
   -1.4480    5.6516    1.4150 H   0  0  0  0  0  0  0  0  0  0  0  0
   -0.3894    6.4553    3.0784 C   0  0  0  0  0  0  0  0  0  0  0  0
    0.3349    5.7590    3.5044 H   0  0  0  0  0  0  0  0  0  0  0  0
    0.0017    7.4704    3.1800 H   0  0  0  0  0  0  0  0  0  0  0  0
   -1.3276    6.3785    3.6282 H   0  0  0  0  0  0  0  0  0  0  0  0
  5  6  2  0  0  0  0
  5  7  1  0  0  0  0
  2  3  1  0  0  0  0
  2  4  1  0  0  0  0
  2  5  1  0  0  0  0
  1  2  1  0  0  0  0
 15 16  2  0  0  0  0
 15 17  1  0  0  0  0
 14 36  1  0  0  0  0
 11 12  1  0  0  0  0
 11 13  1  0  0  0  0
 11 14  1  0  0  0  0
  9 10  1  0  0  0  0
  9 11  1  0  0  0  0
  9 15  1  0  0  0  0
  7  8  1  0  0  0  0
  7  9  1  0  0  0  0
 19 20  1  0  0  0  0
 19 21  1  0  0  0  0
 19 22  1  0  0  0  0
 17 18  1  0  0  0  0
 17 19  1  0  0  0  0
 27 28  2  0  0  0  0
 27 29  1  0  0  0  0
 24 25  1  0  0  0  0
 24 26  1  0  0  0  0
 24 27  1  0  0  0  0
 23 24  1  0  0  0  0
 37 38  2  0  0  0  0
 37 39  1  0  0  0  0
 33 34  1  0  0  0  0
 33 35  1  0  0  0  0
 33 36  1  0  0  0  0
 31 32  1  0  0  0  0
 31 33  1  0  0  0  0
 31 37  1  0  0  0  0
 29 30  1  0  0  0  0
 29 31  1  0  0  0  0
 41 42  1  0  0  0  0
 41 43  1  0  0  0  0
 41 44  1  0  0  0  0
 39 40  1  0  0  0  0
 39 41  1  0  0  0  0
M  END
$$$$
default_name
  -OEChem-01062215323D

 44 43  0     1  0  0  0  0  0999 V2000
    2.4488   -3.0448    2.0990 H   0  0  0  0  0  0  0  0  0  0  0  0
    2.2788   -2.0018    2.3640 C   0  0  0  0  0  0  0  0  0  0  0  0
    2.9228   -1.7258    3.1960 H   0  0  0  0  0  0  0  0  0  0  0  0
    1.2358   -1.8618    2.6430 H   0  0  0  0  0  0  0  0  0  0  0  0
    2.6018   -1.1318    1.1730 C   0  0  0  0  0  0  0  0  0  0  0  0
    3.0048   -1.6348    0.1320 O   0  0  0  0  0  0  0  0  0  0  0  0
    2.4088    0.1752    1.3190 N   0  0  0  0  0  0  0  0  0  0  0  0
    2.0708    0.5242    2.2050 H   0  0  0  0  0  0  0  0  0  0  0  0
    2.6638    1.1782    0.2840 C   0  0  1  0  0  0  0  0  0  0  0  0
    1.8819    1.0918   -0.4724 H   0  0  0  0  0  0  0  0  0  0  0  0
    2.5820    2.5873    0.8967 C   0  0  0  0  0  0  0  0  0  0  0  0
    2.9301    3.3113    0.1589 H   0  0  0  0  0  0  0  0  0  0  0  0
    3.2869    2.6312    1.7265 H   0  0  0  0  0  0  0  0  0  0  0  0
    0.9753    3.1434    1.5387 S   0  0  0  0  0  0  0  0  0  0  0  0
    4.0168    0.9288   -0.4085 C   0  0  0  0  0  0  0  0  0  0  0  0
    4.3378   -0.2054   -0.7631 O   0  0  0  0  0  0  0  0  0  0  0  0
    4.8074    1.9920   -0.6066 N   0  0  0  0  0  0  0  0  0  0  0  0
    4.4812    2.8923   -0.2938 H   0  0  0  0  0  0  0  0  0  0  0  0
    6.1193    1.9193   -1.2464 C   0  0  0  0  0  0  0  0  0  0  0  0
    6.7848    1.2924   -0.6491 H   0  0  0  0  0  0  0  0  0  0  0  0
    6.0225    1.4736   -2.2382 H   0  0  0  0  0  0  0  0  0  0  0  0
    6.5512    2.9165   -1.3402 H   0  0  0  0  0  0  0  0  0  0  0  0
    0.2673    8.2173   -4.7523 H   0  0  0  0  0  0  0  0  0  0  0  0
    0.7646    8.1291   -3.7876 C   0  0  0  0  0  0  0  0  0  0  0  0
    0.7802    9.0987   -3.2923 H   0  0  0  0  0  0  0  0  0  0  0  0
    1.7824    7.7719   -3.9325 H   0  0  0  0  0  0  0  0  0  0  0  0
    0.0048    7.1422   -2.9326 C   0  0  0  0  0  0  0  0  0  0  0  0
   -0.9912    6.5830   -3.3711 O   0  0  0  0  0  0  0  0  0  0  0  0
    0.4837    6.9233   -1.7109 N   0  0  0  0  0  0  0  0  0  0  0  0
    1.3051    7.4285   -1.4118 H   0  0  0  0  0  0  0  0  0  0  0  0
   -0.1076    6.0016   -0.7408 C   0  0  1  0  0  0  0  0  0  0  0  0
   -1.1948    6.0432   -0.8274 H   0  0  0  0  0  0  0  0  0  0  0  0
    0.3508    4.5800   -1.0949 C   0  0  0  0  0  0  0  0  0  0  0  0
    0.0335    4.3782   -2.1190 H   0  0  0  0  0  0  0  0  0  0  0  0
    1.4404    4.5477   -1.0837 H   0  0  0  0  0  0  0  0  0  0  0  0
   -0.2767    3.2209   -0.0721 S   0  0  0  0  0  0  0  0  0  0  0  0
    0.2755    6.4101    0.6927 C   0  0  0  0  0  0  0  0  0  0  0  0
    1.3526    6.9685    0.9056 O   0  0  0  0  0  0  0  0  0  0  0  0
   -0.6038    6.1411    1.6664 N   0  0  0  0  0  0  0  0  0  0  0  0
   -1.4480    5.6516    1.4150 H   0  0  0  0  0  0  0  0  0  0  0  0
   -0.3894    6.4553    3.0784 C   0  0  0  0  0  0  0  0  0  0  0  0
    0.3349    5.7590    3.5044 H   0  0  0  0  0  0  0  0  0  0  0  0
    0.0017    7.4704    3.1800 H   0  0  0  0  0  0  0  0  0  0  0  0
   -1.3276    6.3785    3.6282 H   0  0  0  0  0  0  0  0  0  0  0  0
  5  6  2  0  0  0  0
  5  7  1  0  0  0  0
  2  3  1  0  0  0  0
  2  4  1  0  0  0  0
  2  5  1  0  0  0  0
  1  2  1  0  0  0  0
 15 16  2  0  0  0  0
 15 17  1  0  0  0  0
 14 36  1  0  0  0  0
 11 12  1  0  0  0  0
 11 13  1  0  0  0  0
 11 14  1  0  0  0  0
  9 10  1  0  0  0  0
  9 11  1  0  0  0  0
  9 15  1  0  0  0  0
  7  8  1  0  0  0  0
  7  9  1  0  0  0  0
 19 20  1  0  0  0  0
 19 21  1  0  0  0  0
 19 22  1  0  0  0  0
 17 18  1  0  0  0  0
 17 19  1  0  0  0  0
 27 28  2  0  0  0  0
 27 29  1  0  0  0  0
 24 25  1  0  0  0  0
 24 26  1  0  0  0  0
 24 27  1  0  0  0  0
 23 24  1  0  0  0  0
 37 38  2  0  0  0  0
 37 39  1  0  0  0  0
 33 34  1  0  0  0  0
 33 35  1  0  0  0  0
 33 36  1  0  0  0  0
 31 32  1  0  0  0  0
 31 33  1  0  0  0  0
 31 37  1  0  0  0  0
 29 30  1  0  0  0  0
 29 31  1  0  0  0  0
 41 42  1  0  0  0  0
 41 43  1  0  0  0  0
 41 44  1  0  0  0  0
 39 40  1  0  0  0  0
 39 41  1  0  0  0  0
M  END
$$$$
default_name
  -OEChem-01062215323D

 44 43  0     1  0  0  0  0  0999 V2000
    2.4488   -3.0448    2.0990 H   0  0  0  0  0  0  0  0  0  0  0  0
    2.2788   -2.0018    2.3640 C   0  0  0  0  0  0  0  0  0  0  0  0
    2.9228   -1.7258    3.1960 H   0  0  0  0  0  0  0  0  0  0  0  0
    1.2358   -1.8618    2.6430 H   0  0  0  0  0  0  0  0  0  0  0  0
    2.6018   -1.1318    1.1730 C   0  0  0  0  0  0  0  0  0  0  0  0
    3.0048   -1.6348    0.1320 O   0  0  0  0  0  0  0  0  0  0  0  0
    2.4088    0.1752    1.3190 N   0  0  0  0  0  0  0  0  0  0  0  0
    2.0708    0.5242    2.2050 H   0  0  0  0  0  0  0  0  0  0  0  0
    2.6638    1.1782    0.2840 C   0  0  1  0  0  0  0  0  0  0  0  0
    1.8819    1.0918   -0.4724 H   0  0  0  0  0  0  0  0  0  0  0  0
    2.5820    2.5873    0.8967 C   0  0  0  0  0  0  0  0  0  0  0  0
    2.9301    3.3113    0.1589 H   0  0  0  0  0  0  0  0  0  0  0  0
    3.2869    2.6312    1.7265 H   0  0  0  0  0  0  0  0  0  0  0  0
    0.9753    3.1434    1.5387 S   0  0  0  0  0  0  0  0  0  0  0  0
    4.0168    0.9288   -0.4085 C   0  0  0  0  0  0  0  0  0  0  0  0
    4.2285   -0.1269   -1.0050 O   0  0  0  0  0  0  0  0  0  0  0  0
    4.9308    1.9055   -0.3344 N   0  0  0  0  0  0  0  0  0  0  0  0
    4.6902    2.7451    0.1676 H   0  0  0  0  0  0  0  0  0  0  0  0
    6.2598    1.8201   -0.9362 C   0  0  0  0  0  0  0  0  0  0  0  0
    6.8171    0.9990   -0.4802 H   0  0  0  0  0  0  0  0  0  0  0  0
    6.1690    1.6239   -2.0061 H   0  0  0  0  0  0  0  0  0  0  0  0
    6.8048    2.7529   -0.7859 H   0  0  0  0  0  0  0  0  0  0  0  0
    0.2673    8.2173   -4.7523 H   0  0  0  0  0  0  0  0  0  0  0  0
    0.7646    8.1291   -3.7876 C   0  0  0  0  0  0  0  0  0  0  0  0
    0.7802    9.0987   -3.2923 H   0  0  0  0  0  0  0  0  0  0  0  0
    1.7824    7.7719   -3.9325 H   0  0  0  0  0  0  0  0  0  0  0  0
    0.0048    7.1422   -2.9326 C   0  0  0  0  0  0  0  0  0  0  0  0
   -0.9912    6.5830   -3.3711 O   0  0  0  0  0  0  0  0  0  0  0  0
    0.4837    6.9233   -1.7109 N   0  0  0  0  0  0  0  0  0  0  0  0
    1.3051    7.4285   -1.4118 H   0  0  0  0  0  0  0  0  0  0  0  0
   -0.1076    6.0016   -0.7408 C   0  0  1  0  0  0  0  0  0  0  0  0
   -1.1948    6.0432   -0.8274 H   0  0  0  0  0  0  0  0  0  0  0  0
    0.3508    4.5800   -1.0949 C   0  0  0  0  0  0  0  0  0  0  0  0
    0.0335    4.3782   -2.1190 H   0  0  0  0  0  0  0  0  0  0  0  0
    1.4404    4.5477   -1.0837 H   0  0  0  0  0  0  0  0  0  0  0  0
   -0.2767    3.2209   -0.0721 S   0  0  0  0  0  0  0  0  0  0  0  0
    0.2755    6.4101    0.6927 C   0  0  0  0  0  0  0  0  0  0  0  0
    1.3526    6.9685    0.9056 O   0  0  0  0  0  0  0  0  0  0  0  0
   -0.6038    6.1411    1.6664 N   0  0  0  0  0  0  0  0  0  0  0  0
   -1.4480    5.6516    1.4150 H   0  0  0  0  0  0  0  0  0  0  0  0
   -0.3894    6.4553    3.0784 C   0  0  0  0  0  0  0  0  0  0  0  0
    0.3349    5.7590    3.5044 H   0  0  0  0  0  0  0  0  0  0  0  0
    0.0017    7.4704    3.1800 H   0  0  0  0  0  0  0  0  0  0  0  0
   -1.3276    6.3785    3.6282 H   0  0  0  0  0  0  0  0  0  0  0  0
  5  6  2  0  0  0  0
  5  7  1  0  0  0  0
  2  3  1  0  0  0  0
  2  4  1  0  0  0  0
  2  5  1  0  0  0  0
  1  2  1  0  0  0  0
 15 16  2  0  0  0  0
 15 17  1  0  0  0  0
 14 36  1  0  0  0  0
 11 12  1  0  0  0  0
 11 13  1  0  0  0  0
 11 14  1  0  0  0  0
  9 10  1  0  0  0  0
  9 11  1  0  0  0  0
  9 15  1  0  0  0  0
  7  8  1  0  0  0  0
  7  9  1  0  0  0  0
 19 20  1  0  0  0  0
 19 21  1  0  0  0  0
 19 22  1  0  0  0  0
 17 18  1  0  0  0  0
 17 19  1  0  0  0  0
 27 28  2  0  0  0  0
 27 29  1  0  0  0  0
 24 25  1  0  0  0  0
 24 26  1  0  0  0  0
 24 27  1  0  0  0  0
 23 24  1  0  0  0  0
 37 38  2  0  0  0  0
 37 39  1  0  0  0  0
 33 34  1  0  0  0  0
 33 35  1  0  0  0  0
 33 36  1  0  0  0  0
 31 32  1  0  0  0  0
 31 33  1  0  0  0  0
 31 37  1  0  0  0  0
 29 30  1  0  0  0  0
 29 31  1  0  0  0  0
 41 42  1  0  0  0  0
 41 43  1  0  0  0  0
 41 44  1  0  0  0  0
 39 40  1  0  0  0  0
 39 41  1  0  0  0  0
M  END
$$$$
default_name
  -OEChem-01062215323D

 44 43  0     1  0  0  0  0  0999 V2000
    2.4488   -3.0448    2.0990 H   0  0  0  0  0  0  0  0  0  0  0  0
    2.2788   -2.0018    2.3640 C   0  0  0  0  0  0  0  0  0  0  0  0
    2.9228   -1.7258    3.1960 H   0  0  0  0  0  0  0  0  0  0  0  0
    1.2358   -1.8618    2.6430 H   0  0  0  0  0  0  0  0  0  0  0  0
    2.6018   -1.1318    1.1730 C   0  0  0  0  0  0  0  0  0  0  0  0
    3.0048   -1.6348    0.1320 O   0  0  0  0  0  0  0  0  0  0  0  0
    2.4088    0.1752    1.3190 N   0  0  0  0  0  0  0  0  0  0  0  0
    2.0708    0.5242    2.2050 H   0  0  0  0  0  0  0  0  0  0  0  0
    2.6638    1.1782    0.2840 C   0  0  1  0  0  0  0  0  0  0  0  0
    1.8819    1.0918   -0.4724 H   0  0  0  0  0  0  0  0  0  0  0  0
    2.5820    2.5873    0.8967 C   0  0  0  0  0  0  0  0  0  0  0  0
    2.9301    3.3113    0.1589 H   0  0  0  0  0  0  0  0  0  0  0  0
    3.2869    2.6312    1.7265 H   0  0  0  0  0  0  0  0  0  0  0  0
    0.9753    3.1434    1.5387 S   0  0  0  0  0  0  0  0  0  0  0  0
    4.0168    0.9288   -0.4085 C   0  0  0  0  0  0  0  0  0  0  0  0
    4.1422    0.0166   -1.2254 O   0  0  0  0  0  0  0  0  0  0  0  0
    5.0285    1.7456   -0.0859 N   0  0  0  0  0  0  0  0  0  0  0  0
    4.8556    2.4737    0.5885 H   0  0  0  0  0  0  0  0  0  0  0  0
    6.3710    1.6373   -0.6531 C   0  0  0  0  0  0  0  0  0  0  0  0
    6.8071    0.6734   -0.3825 H   0  0  0  0  0  0  0  0  0  0  0  0
    6.3182    1.6993   -1.7416 H   0  0  0  0  0  0  0  0  0  0  0  0
    7.0074    2.4394   -0.2771 H   0  0  0  0  0  0  0  0  0  0  0  0
    0.2673    8.2173   -4.7523 H   0  0  0  0  0  0  0  0  0  0  0  0
    0.7646    8.1291   -3.7876 C   0  0  0  0  0  0  0  0  0  0  0  0
    0.7802    9.0987   -3.2923 H   0  0  0  0  0  0  0  0  0  0  0  0
    1.7824    7.7719   -3.9325 H   0  0  0  0  0  0  0  0  0  0  0  0
    0.0048    7.1422   -2.9326 C   0  0  0  0  0  0  0  0  0  0  0  0
   -0.9912    6.5830   -3.3711 O   0  0  0  0  0  0  0  0  0  0  0  0
    0.4837    6.9233   -1.7109 N   0  0  0  0  0  0  0  0  0  0  0  0
    1.3051    7.4285   -1.4118 H   0  0  0  0  0  0  0  0  0  0  0  0
   -0.1076    6.0016   -0.7408 C   0  0  1  0  0  0  0  0  0  0  0  0
   -1.1948    6.0432   -0.8274 H   0  0  0  0  0  0  0  0  0  0  0  0
    0.3508    4.5800   -1.0949 C   0  0  0  0  0  0  0  0  0  0  0  0
    0.0335    4.3782   -2.1190 H   0  0  0  0  0  0  0  0  0  0  0  0
    1.4404    4.5477   -1.0837 H   0  0  0  0  0  0  0  0  0  0  0  0
   -0.2767    3.2209   -0.0721 S   0  0  0  0  0  0  0  0  0  0  0  0
    0.2755    6.4101    0.6927 C   0  0  0  0  0  0  0  0  0  0  0  0
    1.3526    6.9685    0.9056 O   0  0  0  0  0  0  0  0  0  0  0  0
   -0.6038    6.1411    1.6664 N   0  0  0  0  0  0  0  0  0  0  0  0
   -1.4480    5.6516    1.4150 H   0  0  0  0  0  0  0  0  0  0  0  0
   -0.3894    6.4553    3.0784 C   0  0  0  0  0  0  0  0  0  0  0  0
    0.3349    5.7590    3.5044 H   0  0  0  0  0  0  0  0  0  0  0  0
    0.0017    7.4704    3.1800 H   0  0  0  0  0  0  0  0  0  0  0  0
   -1.3276    6.3785    3.6282 H   0  0  0  0  0  0  0  0  0  0  0  0
  5  6  2  0  0  0  0
  5  7  1  0  0  0  0
  2  3  1  0  0  0  0
  2  4  1  0  0  0  0
  2  5  1  0  0  0  0
  1  2  1  0  0  0  0
 15 16  2  0  0  0  0
 15 17  1  0  0  0  0
 14 36  1  0  0  0  0
 11 12  1  0  0  0  0
 11 13  1  0  0  0  0
 11 14  1  0  0  0  0
  9 10  1  0  0  0  0
  9 11  1  0  0  0  0
  9 15  1  0  0  0  0
  7  8  1  0  0  0  0
  7  9  1  0  0  0  0
 19 20  1  0  0  0  0
 19 21  1  0  0  0  0
 19 22  1  0  0  0  0
 17 18  1  0  0  0  0
 17 19  1  0  0  0  0
 27 28  2  0  0  0  0
 27 29  1  0  0  0  0
 24 25  1  0  0  0  0
 24 26  1  0  0  0  0
 24 27  1  0  0  0  0
 23 24  1  0  0  0  0
 37 38  2  0  0  0  0
 37 39  1  0  0  0  0
 33 34  1  0  0  0  0
 33 35  1  0  0  0  0
 33 36  1  0  0  0  0
 31 32  1  0  0  0  0
 31 33  1  0  0  0  0
 31 37  1  0  0  0  0
 29 30  1  0  0  0  0
 29 31  1  0  0  0  0
 41 42  1  0  0  0  0
 41 43  1  0  0  0  0
 41 44  1  0  0  0  0
 39 40  1  0  0  0  0
 39 41  1  0  0  0  0
M  END
$$$$
default_name
  -OEChem-01062215323D

 44 43  0     1  0  0  0  0  0999 V2000
    2.4488   -3.0448    2.0990 H   0  0  0  0  0  0  0  0  0  0  0  0
    2.2788   -2.0018    2.3640 C   0  0  0  0  0  0  0  0  0  0  0  0
    2.9228   -1.7258    3.1960 H   0  0  0  0  0  0  0  0  0  0  0  0
    1.2358   -1.8618    2.6430 H   0  0  0  0  0  0  0  0  0  0  0  0
    2.6018   -1.1318    1.1730 C   0  0  0  0  0  0  0  0  0  0  0  0
    3.0048   -1.6348    0.1320 O   0  0  0  0  0  0  0  0  0  0  0  0
    2.4088    0.1752    1.3190 N   0  0  0  0  0  0  0  0  0  0  0  0
    2.0708    0.5242    2.2050 H   0  0  0  0  0  0  0  0  0  0  0  0
    2.6638    1.1782    0.2840 C   0  0  1  0  0  0  0  0  0  0  0  0
    1.8819    1.0918   -0.4724 H   0  0  0  0  0  0  0  0  0  0  0  0
    2.5820    2.5873    0.8967 C   0  0  0  0  0  0  0  0  0  0  0  0
    2.9301    3.3113    0.1589 H   0  0  0  0  0  0  0  0  0  0  0  0
    3.2869    2.6312    1.7265 H   0  0  0  0  0  0  0  0  0  0  0  0
    0.9753    3.1434    1.5387 S   0  0  0  0  0  0  0  0  0  0  0  0
    4.0168    0.9288   -0.4085 C   0  0  0  0  0  0  0  0  0  0  0  0
    4.0847    0.2153   -1.4092 O   0  0  0  0  0  0  0  0  0  0  0  0
    5.0938    1.5234    0.1219 N   0  0  0  0  0  0  0  0  0  0  0  0
    4.9661    2.0965    0.9404 H   0  0  0  0  0  0  0  0  0  0  0  0
    6.4452    1.3835   -0.4166 C   0  0  0  0  0  0  0  0  0  0  0  0
    6.7555    0.3378   -0.3624 H   0  0  0  0  0  0  0  0  0  0  0  0
    6.4601    1.6946   -1.4628 H   0  0  0  0  0  0  0  0  0  0  0  0
    7.1453    1.9972    0.1517 H   0  0  0  0  0  0  0  0  0  0  0  0
    0.2673    8.2173   -4.7523 H   0  0  0  0  0  0  0  0  0  0  0  0
    0.7646    8.1291   -3.7876 C   0  0  0  0  0  0  0  0  0  0  0  0
    0.7802    9.0987   -3.2923 H   0  0  0  0  0  0  0  0  0  0  0  0
    1.7824    7.7719   -3.9325 H   0  0  0  0  0  0  0  0  0  0  0  0
    0.0048    7.1422   -2.9326 C   0  0  0  0  0  0  0  0  0  0  0  0
   -0.9912    6.5830   -3.3711 O   0  0  0  0  0  0  0  0  0  0  0  0
    0.4837    6.9233   -1.7109 N   0  0  0  0  0  0  0  0  0  0  0  0
    1.3051    7.4285   -1.4118 H   0  0  0  0  0  0  0  0  0  0  0  0
   -0.1076    6.0016   -0.7408 C   0  0  1  0  0  0  0  0  0  0  0  0
   -1.1948    6.0432   -0.8274 H   0  0  0  0  0  0  0  0  0  0  0  0
    0.3508    4.5800   -1.0949 C   0  0  0  0  0  0  0  0  0  0  0  0
    0.0335    4.3782   -2.1190 H   0  0  0  0  0  0  0  0  0  0  0  0
    1.4404    4.5477   -1.0837 H   0  0  0  0  0  0  0  0  0  0  0  0
   -0.2767    3.2209   -0.0721 S   0  0  0  0  0  0  0  0  0  0  0  0
    0.2755    6.4101    0.6927 C   0  0  0  0  0  0  0  0  0  0  0  0
    1.3526    6.9685    0.9056 O   0  0  0  0  0  0  0  0  0  0  0  0
   -0.6038    6.1411    1.6664 N   0  0  0  0  0  0  0  0  0  0  0  0
   -1.4480    5.6516    1.4150 H   0  0  0  0  0  0  0  0  0  0  0  0
   -0.3894    6.4553    3.0784 C   0  0  0  0  0  0  0  0  0  0  0  0
    0.3349    5.7590    3.5044 H   0  0  0  0  0  0  0  0  0  0  0  0
    0.0017    7.4704    3.1800 H   0  0  0  0  0  0  0  0  0  0  0  0
   -1.3276    6.3785    3.6282 H   0  0  0  0  0  0  0  0  0  0  0  0
  5  6  2  0  0  0  0
  5  7  1  0  0  0  0
  2  3  1  0  0  0  0
  2  4  1  0  0  0  0
  2  5  1  0  0  0  0
  1  2  1  0  0  0  0
 15 16  2  0  0  0  0
 15 17  1  0  0  0  0
 14 36  1  0  0  0  0
 11 12  1  0  0  0  0
 11 13  1  0  0  0  0
 11 14  1  0  0  0  0
  9 10  1  0  0  0  0
  9 11  1  0  0  0  0
  9 15  1  0  0  0  0
  7  8  1  0  0  0  0
  7  9  1  0  0  0  0
 19 20  1  0  0  0  0
 19 21  1  0  0  0  0
 19 22  1  0  0  0  0
 17 18  1  0  0  0  0
 17 19  1  0  0  0  0
 27 28  2  0  0  0  0
 27 29  1  0  0  0  0
 24 25  1  0  0  0  0
 24 26  1  0  0  0  0
 24 27  1  0  0  0  0
 23 24  1  0  0  0  0
 37 38  2  0  0  0  0
 37 39  1  0  0  0  0
 33 34  1  0  0  0  0
 33 35  1  0  0  0  0
 33 36  1  0  0  0  0
 31 32  1  0  0  0  0
 31 33  1  0  0  0  0
 31 37  1  0  0  0  0
 29 30  1  0  0  0  0
 29 31  1  0  0  0  0
 41 42  1  0  0  0  0
 41 43  1  0  0  0  0
 41 44  1  0  0  0  0
 39 40  1  0  0  0  0
 39 41  1  0  0  0  0
M  END
$$$$
default_name
  -OEChem-01062215323D

 44 43  0     1  0  0  0  0  0999 V2000
    2.4488   -3.0448    2.0990 H   0  0  0  0  0  0  0  0  0  0  0  0
    2.2788   -2.0018    2.3640 C   0  0  0  0  0  0  0  0  0  0  0  0
    2.9228   -1.7258    3.1960 H   0  0  0  0  0  0  0  0  0  0  0  0
    1.2358   -1.8618    2.6430 H   0  0  0  0  0  0  0  0  0  0  0  0
    2.6018   -1.1318    1.1730 C   0  0  0  0  0  0  0  0  0  0  0  0
    3.0048   -1.6348    0.1320 O   0  0  0  0  0  0  0  0  0  0  0  0
    2.4088    0.1752    1.3190 N   0  0  0  0  0  0  0  0  0  0  0  0
    2.0708    0.5242    2.2050 H   0  0  0  0  0  0  0  0  0  0  0  0
    2.6638    1.1782    0.2840 C   0  0  1  0  0  0  0  0  0  0  0  0
    1.8819    1.0918   -0.4724 H   0  0  0  0  0  0  0  0  0  0  0  0
    2.5820    2.5873    0.8967 C   0  0  0  0  0  0  0  0  0  0  0  0
    2.9301    3.3113    0.1589 H   0  0  0  0  0  0  0  0  0  0  0  0
    3.2869    2.6312    1.7265 H   0  0  0  0  0  0  0  0  0  0  0  0
    0.9753    3.1434    1.5387 S   0  0  0  0  0  0  0  0  0  0  0  0
    4.0168    0.9288   -0.4085 C   0  0  0  0  0  0  0  0  0  0  0  0
    4.0601    0.4558   -1.5441 O   0  0  0  0  0  0  0  0  0  0  0  0
    5.1224    1.2538    0.2748 N   0  0  0  0  0  0  0  0  0  0  0  0
    5.0143    1.6394    1.1991 H   0  0  0  0  0  0  0  0  0  0  0  0
    6.4775    1.0759   -0.2428 C   0  0  0  0  0  0  0  0  0  0  0  0
    6.6658    0.0152   -0.4216 H   0  0  0  0  0  0  0  0  0  0  0  0
    6.5848    1.6101   -1.1886 H   0  0  0  0  0  0  0  0  0  0  0  0
    7.2091    1.4566    0.4710 H   0  0  0  0  0  0  0  0  0  0  0  0
    0.2673    8.2173   -4.7523 H   0  0  0  0  0  0  0  0  0  0  0  0
    0.7646    8.1291   -3.7876 C   0  0  0  0  0  0  0  0  0  0  0  0
    0.7802    9.0987   -3.2923 H   0  0  0  0  0  0  0  0  0  0  0  0
    1.7824    7.7719   -3.9325 H   0  0  0  0  0  0  0  0  0  0  0  0
    0.0048    7.1422   -2.9326 C   0  0  0  0  0  0  0  0  0  0  0  0
   -0.9912    6.5830   -3.3711 O   0  0  0  0  0  0  0  0  0  0  0  0
    0.4837    6.9233   -1.7109 N   0  0  0  0  0  0  0  0  0  0  0  0
    1.3051    7.4285   -1.4118 H   0  0  0  0  0  0  0  0  0  0  0  0
   -0.1076    6.0016   -0.7408 C   0  0  1  0  0  0  0  0  0  0  0  0
   -1.1948    6.0432   -0.8274 H   0  0  0  0  0  0  0  0  0  0  0  0
    0.3508    4.5800   -1.0949 C   0  0  0  0  0  0  0  0  0  0  0  0
    0.0335    4.3782   -2.1190 H   0  0  0  0  0  0  0  0  0  0  0  0
    1.4404    4.5477   -1.0837 H   0  0  0  0  0  0  0  0  0  0  0  0
   -0.2767    3.2209   -0.0721 S   0  0  0  0  0  0  0  0  0  0  0  0
    0.2755    6.4101    0.6927 C   0  0  0  0  0  0  0  0  0  0  0  0
    1.3526    6.9685    0.9056 O   0  0  0  0  0  0  0  0  0  0  0  0
   -0.6038    6.1411    1.6664 N   0  0  0  0  0  0  0  0  0  0  0  0
   -1.4480    5.6516    1.4150 H   0  0  0  0  0  0  0  0  0  0  0  0
   -0.3894    6.4553    3.0784 C   0  0  0  0  0  0  0  0  0  0  0  0
    0.3349    5.7590    3.5044 H   0  0  0  0  0  0  0  0  0  0  0  0
    0.0017    7.4704    3.1800 H   0  0  0  0  0  0  0  0  0  0  0  0
   -1.3276    6.3785    3.6282 H   0  0  0  0  0  0  0  0  0  0  0  0
  5  6  2  0  0  0  0
  5  7  1  0  0  0  0
  2  3  1  0  0  0  0
  2  4  1  0  0  0  0
  2  5  1  0  0  0  0
  1  2  1  0  0  0  0
 15 16  2  0  0  0  0
 15 17  1  0  0  0  0
 14 36  1  0  0  0  0
 11 12  1  0  0  0  0
 11 13  1  0  0  0  0
 11 14  1  0  0  0  0
  9 10  1  0  0  0  0
  9 11  1  0  0  0  0
  9 15  1  0  0  0  0
  7  8  1  0  0  0  0
  7  9  1  0  0  0  0
 19 20  1  0  0  0  0
 19 21  1  0  0  0  0
 19 22  1  0  0  0  0
 17 18  1  0  0  0  0
 17 19  1  0  0  0  0
 27 28  2  0  0  0  0
 27 29  1  0  0  0  0
 24 25  1  0  0  0  0
 24 26  1  0  0  0  0
 24 27  1  0  0  0  0
 23 24  1  0  0  0  0
 37 38  2  0  0  0  0
 37 39  1  0  0  0  0
 33 34  1  0  0  0  0
 33 35  1  0  0  0  0
 33 36  1  0  0  0  0
 31 32  1  0  0  0  0
 31 33  1  0  0  0  0
 31 37  1  0  0  0  0
 29 30  1  0  0  0  0
 29 31  1  0  0  0  0
 41 42  1  0  0  0  0
 41 43  1  0  0  0  0
 41 44  1  0  0  0  0
 39 40  1  0  0  0  0
 39 41  1  0  0  0  0
M  END
$$$$
default_name
  -OEChem-01062215323D

 44 43  0     1  0  0  0  0  0999 V2000
    2.4488   -3.0448    2.0990 H   0  0  0  0  0  0  0  0  0  0  0  0
    2.2788   -2.0018    2.3640 C   0  0  0  0  0  0  0  0  0  0  0  0
    2.9228   -1.7258    3.1960 H   0  0  0  0  0  0  0  0  0  0  0  0
    1.2358   -1.8618    2.6430 H   0  0  0  0  0  0  0  0  0  0  0  0
    2.6018   -1.1318    1.1730 C   0  0  0  0  0  0  0  0  0  0  0  0
    3.0048   -1.6348    0.1320 O   0  0  0  0  0  0  0  0  0  0  0  0
    2.4088    0.1752    1.3190 N   0  0  0  0  0  0  0  0  0  0  0  0
    2.0708    0.5242    2.2050 H   0  0  0  0  0  0  0  0  0  0  0  0
    2.6638    1.1782    0.2840 C   0  0  1  0  0  0  0  0  0  0  0  0
    1.8819    1.0918   -0.4724 H   0  0  0  0  0  0  0  0  0  0  0  0
    2.5820    2.5873    0.8967 C   0  0  0  0  0  0  0  0  0  0  0  0
    2.9301    3.3113    0.1589 H   0  0  0  0  0  0  0  0  0  0  0  0
    3.2869    2.6312    1.7265 H   0  0  0  0  0  0  0  0  0  0  0  0
    0.9753    3.1434    1.5387 S   0  0  0  0  0  0  0  0  0  0  0  0
    4.0168    0.9288   -0.4085 C   0  0  0  0  0  0  0  0  0  0  0  0
    4.0699    0.7217   -1.6207 O   0  0  0  0  0  0  0  0  0  0  0  0
    5.1122    0.9554    0.3624 N   0  0  0  0  0  0  0  0  0  0  0  0
    4.9968    1.1334    1.3471 H   0  0  0  0  0  0  0  0  0  0  0  0
    6.4656    0.7355   -0.1434 C   0  0  0  0  0  0  0  0  0  0  0  0
    6.5440   -0.2726   -0.5558 H   0  0  0  0  0  0  0  0  0  0  0  0
    6.6840    1.4517   -0.9377 H   0  0  0  0  0  0  0  0  0  0  0  0
    7.1944    0.8544    0.6593 H   0  0  0  0  0  0  0  0  0  0  0  0
    0.2673    8.2173   -4.7523 H   0  0  0  0  0  0  0  0  0  0  0  0
    0.7646    8.1291   -3.7876 C   0  0  0  0  0  0  0  0  0  0  0  0
    0.7802    9.0987   -3.2923 H   0  0  0  0  0  0  0  0  0  0  0  0
    1.7824    7.7719   -3.9325 H   0  0  0  0  0  0  0  0  0  0  0  0
    0.0048    7.1422   -2.9326 C   0  0  0  0  0  0  0  0  0  0  0  0
   -0.9912    6.5830   -3.3711 O   0  0  0  0  0  0  0  0  0  0  0  0
    0.4837    6.9233   -1.7109 N   0  0  0  0  0  0  0  0  0  0  0  0
    1.3051    7.4285   -1.4118 H   0  0  0  0  0  0  0  0  0  0  0  0
   -0.1076    6.0016   -0.7408 C   0  0  1  0  0  0  0  0  0  0  0  0
   -1.1948    6.0432   -0.8274 H   0  0  0  0  0  0  0  0  0  0  0  0
    0.3508    4.5800   -1.0949 C   0  0  0  0  0  0  0  0  0  0  0  0
    0.0335    4.3782   -2.1190 H   0  0  0  0  0  0  0  0  0  0  0  0
    1.4404    4.5477   -1.0837 H   0  0  0  0  0  0  0  0  0  0  0  0
   -0.2767    3.2209   -0.0721 S   0  0  0  0  0  0  0  0  0  0  0  0
    0.2755    6.4101    0.6927 C   0  0  0  0  0  0  0  0  0  0  0  0
    1.3526    6.9685    0.9056 O   0  0  0  0  0  0  0  0  0  0  0  0
   -0.6038    6.1411    1.6664 N   0  0  0  0  0  0  0  0  0  0  0  0
   -1.4480    5.6516    1.4150 H   0  0  0  0  0  0  0  0  0  0  0  0
   -0.3894    6.4553    3.0784 C   0  0  0  0  0  0  0  0  0  0  0  0
    0.3349    5.7590    3.5044 H   0  0  0  0  0  0  0  0  0  0  0  0
    0.0017    7.4704    3.1800 H   0  0  0  0  0  0  0  0  0  0  0  0
   -1.3276    6.3785    3.6282 H   0  0  0  0  0  0  0  0  0  0  0  0
  5  6  2  0  0  0  0
  5  7  1  0  0  0  0
  2  3  1  0  0  0  0
  2  4  1  0  0  0  0
  2  5  1  0  0  0  0
  1  2  1  0  0  0  0
 15 16  2  0  0  0  0
 15 17  1  0  0  0  0
 14 36  1  0  0  0  0
 11 12  1  0  0  0  0
 11 13  1  0  0  0  0
 11 14  1  0  0  0  0
  9 10  1  0  0  0  0
  9 11  1  0  0  0  0
  9 15  1  0  0  0  0
  7  8  1  0  0  0  0
  7  9  1  0  0  0  0
 19 20  1  0  0  0  0
 19 21  1  0  0  0  0
 19 22  1  0  0  0  0
 17 18  1  0  0  0  0
 17 19  1  0  0  0  0
 27 28  2  0  0  0  0
 27 29  1  0  0  0  0
 24 25  1  0  0  0  0
 24 26  1  0  0  0  0
 24 27  1  0  0  0  0
 23 24  1  0  0  0  0
 37 38  2  0  0  0  0
 37 39  1  0  0  0  0
 33 34  1  0  0  0  0
 33 35  1  0  0  0  0
 33 36  1  0  0  0  0
 31 32  1  0  0  0  0
 31 33  1  0  0  0  0
 31 37  1  0  0  0  0
 29 30  1  0  0  0  0
 29 31  1  0  0  0  0
 41 42  1  0  0  0  0
 41 43  1  0  0  0  0
 41 44  1  0  0  0  0
 39 40  1  0  0  0  0
 39 41  1  0  0  0  0
M  END
$$$$
default_name
  -OEChem-01062215323D

 44 43  0     1  0  0  0  0  0999 V2000
    2.4488   -3.0448    2.0990 H   0  0  0  0  0  0  0  0  0  0  0  0
    2.2788   -2.0018    2.3640 C   0  0  0  0  0  0  0  0  0  0  0  0
    2.9228   -1.7258    3.1960 H   0  0  0  0  0  0  0  0  0  0  0  0
    1.2358   -1.8618    2.6430 H   0  0  0  0  0  0  0  0  0  0  0  0
    2.6018   -1.1318    1.1730 C   0  0  0  0  0  0  0  0  0  0  0  0
    3.0048   -1.6348    0.1320 O   0  0  0  0  0  0  0  0  0  0  0  0
    2.4088    0.1752    1.3190 N   0  0  0  0  0  0  0  0  0  0  0  0
    2.0708    0.5242    2.2050 H   0  0  0  0  0  0  0  0  0  0  0  0
    2.6638    1.1782    0.2840 C   0  0  1  0  0  0  0  0  0  0  0  0
    1.8819    1.0918   -0.4724 H   0  0  0  0  0  0  0  0  0  0  0  0
    2.5820    2.5873    0.8967 C   0  0  0  0  0  0  0  0  0  0  0  0
    2.9301    3.3113    0.1589 H   0  0  0  0  0  0  0  0  0  0  0  0
    3.2869    2.6312    1.7265 H   0  0  0  0  0  0  0  0  0  0  0  0
    0.9753    3.1434    1.5387 S   0  0  0  0  0  0  0  0  0  0  0  0
    4.0168    0.9288   -0.4085 C   0  0  0  0  0  0  0  0  0  0  0  0
    4.1135    0.9947   -1.6338 O   0  0  0  0  0  0  0  0  0  0  0  0
    5.0640    0.6484    0.3788 N   0  0  0  0  0  0  0  0  0  0  0  0
    4.9147    0.6131    1.3743 H   0  0  0  0  0  0  0  0  0  0  0  0
    6.4103    0.3856   -0.1254 C   0  0  0  0  0  0  0  0  0  0  0  0
    6.3985   -0.5059   -0.7560 H   0  0  0  0  0  0  0  0  0  0  0  0
    6.7509    1.2301   -0.7272 H   0  0  0  0  0  0  0  0  0  0  0  0
    7.1023    0.2317    0.7036 H   0  0  0  0  0  0  0  0  0  0  0  0
    0.2673    8.2173   -4.7523 H   0  0  0  0  0  0  0  0  0  0  0  0
    0.7646    8.1291   -3.7876 C   0  0  0  0  0  0  0  0  0  0  0  0
    0.7802    9.0987   -3.2923 H   0  0  0  0  0  0  0  0  0  0  0  0
    1.7824    7.7719   -3.9325 H   0  0  0  0  0  0  0  0  0  0  0  0
    0.0048    7.1422   -2.9326 C   0  0  0  0  0  0  0  0  0  0  0  0
   -0.9912    6.5830   -3.3711 O   0  0  0  0  0  0  0  0  0  0  0  0
    0.4837    6.9233   -1.7109 N   0  0  0  0  0  0  0  0  0  0  0  0
    1.3051    7.4285   -1.4118 H   0  0  0  0  0  0  0  0  0  0  0  0
   -0.1076    6.0016   -0.7408 C   0  0  1  0  0  0  0  0  0  0  0  0
   -1.1948    6.0432   -0.8274 H   0  0  0  0  0  0  0  0  0  0  0  0
    0.3508    4.5800   -1.0949 C   0  0  0  0  0  0  0  0  0  0  0  0
    0.0335    4.3782   -2.1190 H   0  0  0  0  0  0  0  0  0  0  0  0
    1.4404    4.5477   -1.0837 H   0  0  0  0  0  0  0  0  0  0  0  0
   -0.2767    3.2209   -0.0721 S   0  0  0  0  0  0  0  0  0  0  0  0
    0.2755    6.4101    0.6927 C   0  0  0  0  0  0  0  0  0  0  0  0
    1.3526    6.9685    0.9056 O   0  0  0  0  0  0  0  0  0  0  0  0
   -0.6038    6.1411    1.6664 N   0  0  0  0  0  0  0  0  0  0  0  0
   -1.4480    5.6516    1.4150 H   0  0  0  0  0  0  0  0  0  0  0  0
   -0.3894    6.4553    3.0784 C   0  0  0  0  0  0  0  0  0  0  0  0
    0.3349    5.7590    3.5044 H   0  0  0  0  0  0  0  0  0  0  0  0
    0.0017    7.4704    3.1800 H   0  0  0  0  0  0  0  0  0  0  0  0
   -1.3276    6.3785    3.6282 H   0  0  0  0  0  0  0  0  0  0  0  0
  5  6  2  0  0  0  0
  5  7  1  0  0  0  0
  2  3  1  0  0  0  0
  2  4  1  0  0  0  0
  2  5  1  0  0  0  0
  1  2  1  0  0  0  0
 15 16  2  0  0  0  0
 15 17  1  0  0  0  0
 14 36  1  0  0  0  0
 11 12  1  0  0  0  0
 11 13  1  0  0  0  0
 11 14  1  0  0  0  0
  9 10  1  0  0  0  0
  9 11  1  0  0  0  0
  9 15  1  0  0  0  0
  7  8  1  0  0  0  0
  7  9  1  0  0  0  0
 19 20  1  0  0  0  0
 19 21  1  0  0  0  0
 19 22  1  0  0  0  0
 17 18  1  0  0  0  0
 17 19  1  0  0  0  0
 27 28  2  0  0  0  0
 27 29  1  0  0  0  0
 24 25  1  0  0  0  0
 24 26  1  0  0  0  0
 24 27  1  0  0  0  0
 23 24  1  0  0  0  0
 37 38  2  0  0  0  0
 37 39  1  0  0  0  0
 33 34  1  0  0  0  0
 33 35  1  0  0  0  0
 33 36  1  0  0  0  0
 31 32  1  0  0  0  0
 31 33  1  0  0  0  0
 31 37  1  0  0  0  0
 29 30  1  0  0  0  0
 29 31  1  0  0  0  0
 41 42  1  0  0  0  0
 41 43  1  0  0  0  0
 41 44  1  0  0  0  0
 39 40  1  0  0  0  0
 39 41  1  0  0  0  0
M  END
$$$$
default_name
  -OEChem-01062215323D

 44 43  0     1  0  0  0  0  0999 V2000
    2.4488   -3.0448    2.0990 H   0  0  0  0  0  0  0  0  0  0  0  0
    2.2788   -2.0018    2.3640 C   0  0  0  0  0  0  0  0  0  0  0  0
    2.9228   -1.7258    3.1960 H   0  0  0  0  0  0  0  0  0  0  0  0
    1.2358   -1.8618    2.6430 H   0  0  0  0  0  0  0  0  0  0  0  0
    2.6018   -1.1318    1.1730 C   0  0  0  0  0  0  0  0  0  0  0  0
    3.0048   -1.6348    0.1320 O   0  0  0  0  0  0  0  0  0  0  0  0
    2.4088    0.1752    1.3190 N   0  0  0  0  0  0  0  0  0  0  0  0
    2.0708    0.5242    2.2050 H   0  0  0  0  0  0  0  0  0  0  0  0
    2.6638    1.1782    0.2840 C   0  0  1  0  0  0  0  0  0  0  0  0
    1.8819    1.0918   -0.4724 H   0  0  0  0  0  0  0  0  0  0  0  0
    2.5820    2.5873    0.8967 C   0  0  0  0  0  0  0  0  0  0  0  0
    2.9301    3.3113    0.1589 H   0  0  0  0  0  0  0  0  0  0  0  0
    3.2869    2.6312    1.7265 H   0  0  0  0  0  0  0  0  0  0  0  0
    0.9753    3.1434    1.5387 S   0  0  0  0  0  0  0  0  0  0  0  0
    4.0168    0.9288   -0.4085 C   0  0  0  0  0  0  0  0  0  0  0  0
    4.1879    1.2564   -1.5826 O   0  0  0  0  0  0  0  0  0  0  0  0
    4.9810    0.3538    0.3227 N   0  0  0  0  0  0  0  0  0  0  0  0
    4.7738    0.1138    1.2789 H   0  0  0  0  0  0  0  0  0  0  0  0
    6.3154    0.0498   -0.1898 C   0  0  0  0  0  0  0  0  0  0  0  0
    6.2393   -0.6688   -1.0085 H   0  0  0  0  0  0  0  0  0  0  0  0
    6.7809    0.9604   -0.5715 H   0  0  0  0  0  0  0  0  0  0  0  0
    6.9389   -0.3692    0.6010 H   0  0  0  0  0  0  0  0  0  0  0  0
    0.2673    8.2173   -4.7523 H   0  0  0  0  0  0  0  0  0  0  0  0
    0.7646    8.1291   -3.7876 C   0  0  0  0  0  0  0  0  0  0  0  0
    0.7802    9.0987   -3.2923 H   0  0  0  0  0  0  0  0  0  0  0  0
    1.7824    7.7719   -3.9325 H   0  0  0  0  0  0  0  0  0  0  0  0
    0.0048    7.1422   -2.9326 C   0  0  0  0  0  0  0  0  0  0  0  0
   -0.9912    6.5830   -3.3711 O   0  0  0  0  0  0  0  0  0  0  0  0
    0.4837    6.9233   -1.7109 N   0  0  0  0  0  0  0  0  0  0  0  0
    1.3051    7.4285   -1.4118 H   0  0  0  0  0  0  0  0  0  0  0  0
   -0.1076    6.0016   -0.7408 C   0  0  1  0  0  0  0  0  0  0  0  0
   -1.1948    6.0432   -0.8274 H   0  0  0  0  0  0  0  0  0  0  0  0
    0.3508    4.5800   -1.0949 C   0  0  0  0  0  0  0  0  0  0  0  0
    0.0335    4.3782   -2.1190 H   0  0  0  0  0  0  0  0  0  0  0  0
    1.4404    4.5477   -1.0837 H   0  0  0  0  0  0  0  0  0  0  0  0
   -0.2767    3.2209   -0.0721 S   0  0  0  0  0  0  0  0  0  0  0  0
    0.2755    6.4101    0.6927 C   0  0  0  0  0  0  0  0  0  0  0  0
    1.3526    6.9685    0.9056 O   0  0  0  0  0  0  0  0  0  0  0  0
   -0.6038    6.1411    1.6664 N   0  0  0  0  0  0  0  0  0  0  0  0
   -1.4480    5.6516    1.4150 H   0  0  0  0  0  0  0  0  0  0  0  0
   -0.3894    6.4553    3.0784 C   0  0  0  0  0  0  0  0  0  0  0  0
    0.3349    5.7590    3.5044 H   0  0  0  0  0  0  0  0  0  0  0  0
    0.0017    7.4704    3.1800 H   0  0  0  0  0  0  0  0  0  0  0  0
   -1.3276    6.3785    3.6282 H   0  0  0  0  0  0  0  0  0  0  0  0
  5  6  2  0  0  0  0
  5  7  1  0  0  0  0
  2  3  1  0  0  0  0
  2  4  1  0  0  0  0
  2  5  1  0  0  0  0
  1  2  1  0  0  0  0
 15 16  2  0  0  0  0
 15 17  1  0  0  0  0
 14 36  1  0  0  0  0
 11 12  1  0  0  0  0
 11 13  1  0  0  0  0
 11 14  1  0  0  0  0
  9 10  1  0  0  0  0
  9 11  1  0  0  0  0
  9 15  1  0  0  0  0
  7  8  1  0  0  0  0
  7  9  1  0  0  0  0
 19 20  1  0  0  0  0
 19 21  1  0  0  0  0
 19 22  1  0  0  0  0
 17 18  1  0  0  0  0
 17 19  1  0  0  0  0
 27 28  2  0  0  0  0
 27 29  1  0  0  0  0
 24 25  1  0  0  0  0
 24 26  1  0  0  0  0
 24 27  1  0  0  0  0
 23 24  1  0  0  0  0
 37 38  2  0  0  0  0
 37 39  1  0  0  0  0
 33 34  1  0  0  0  0
 33 35  1  0  0  0  0
 33 36  1  0  0  0  0
 31 32  1  0  0  0  0
 31 33  1  0  0  0  0
 31 37  1  0  0  0  0
 29 30  1  0  0  0  0
 29 31  1  0  0  0  0
 41 42  1  0  0  0  0
 41 43  1  0  0  0  0
 41 44  1  0  0  0  0
 39 40  1  0  0  0  0
 39 41  1  0  0  0  0
M  END
$$$$
default_name
  -OEChem-01062215323D

 44 43  0     1  0  0  0  0  0999 V2000
    2.4488   -3.0448    2.0990 H   0  0  0  0  0  0  0  0  0  0  0  0
    2.2788   -2.0018    2.3640 C   0  0  0  0  0  0  0  0  0  0  0  0
    2.9228   -1.7258    3.1960 H   0  0  0  0  0  0  0  0  0  0  0  0
    1.2358   -1.8618    2.6430 H   0  0  0  0  0  0  0  0  0  0  0  0
    2.6018   -1.1318    1.1730 C   0  0  0  0  0  0  0  0  0  0  0  0
    3.0048   -1.6348    0.1320 O   0  0  0  0  0  0  0  0  0  0  0  0
    2.4088    0.1752    1.3190 N   0  0  0  0  0  0  0  0  0  0  0  0
    2.0708    0.5242    2.2050 H   0  0  0  0  0  0  0  0  0  0  0  0
    2.6638    1.1782    0.2840 C   0  0  1  0  0  0  0  0  0  0  0  0
    1.8819    1.0918   -0.4724 H   0  0  0  0  0  0  0  0  0  0  0  0
    2.5820    2.5873    0.8967 C   0  0  0  0  0  0  0  0  0  0  0  0
    2.9301    3.3113    0.1589 H   0  0  0  0  0  0  0  0  0  0  0  0
    3.2869    2.6312    1.7265 H   0  0  0  0  0  0  0  0  0  0  0  0
    0.9753    3.1434    1.5387 S   0  0  0  0  0  0  0  0  0  0  0  0
    4.0168    0.9288   -0.4085 C   0  0  0  0  0  0  0  0  0  0  0  0
    4.2881    1.4888   -1.4705 O   0  0  0  0  0  0  0  0  0  0  0  0
    4.8689    0.0916    0.1981 N   0  0  0  0  0  0  0  0  0  0  0  0
    4.5837   -0.3304    1.0672 H   0  0  0  0  0  0  0  0  0  0  0  0
    6.1874   -0.2488   -0.3323 C   0  0  0  0  0  0  0  0  0  0  0  0
    6.0771   -0.7502   -1.2962 H   0  0  0  0  0  0  0  0  0  0  0  0
    6.7719    0.6610   -0.4811 H   0  0  0  0  0  0  0  0  0  0  0  0
    6.7156   -0.9073    0.3583 H   0  0  0  0  0  0  0  0  0  0  0  0
    0.2673    8.2173   -4.7523 H   0  0  0  0  0  0  0  0  0  0  0  0
    0.7646    8.1291   -3.7876 C   0  0  0  0  0  0  0  0  0  0  0  0
    0.7802    9.0987   -3.2923 H   0  0  0  0  0  0  0  0  0  0  0  0
    1.7824    7.7719   -3.9325 H   0  0  0  0  0  0  0  0  0  0  0  0
    0.0048    7.1422   -2.9326 C   0  0  0  0  0  0  0  0  0  0  0  0
   -0.9912    6.5830   -3.3711 O   0  0  0  0  0  0  0  0  0  0  0  0
    0.4837    6.9233   -1.7109 N   0  0  0  0  0  0  0  0  0  0  0  0
    1.3051    7.4285   -1.4118 H   0  0  0  0  0  0  0  0  0  0  0  0
   -0.1076    6.0016   -0.7408 C   0  0  1  0  0  0  0  0  0  0  0  0
   -1.1948    6.0432   -0.8274 H   0  0  0  0  0  0  0  0  0  0  0  0
    0.3508    4.5800   -1.0949 C   0  0  0  0  0  0  0  0  0  0  0  0
    0.0335    4.3782   -2.1190 H   0  0  0  0  0  0  0  0  0  0  0  0
    1.4404    4.5477   -1.0837 H   0  0  0  0  0  0  0  0  0  0  0  0
   -0.2767    3.2209   -0.0721 S   0  0  0  0  0  0  0  0  0  0  0  0
    0.2755    6.4101    0.6927 C   0  0  0  0  0  0  0  0  0  0  0  0
    1.3526    6.9685    0.9056 O   0  0  0  0  0  0  0  0  0  0  0  0
   -0.6038    6.1411    1.6664 N   0  0  0  0  0  0  0  0  0  0  0  0
   -1.4480    5.6516    1.4150 H   0  0  0  0  0  0  0  0  0  0  0  0
   -0.3894    6.4553    3.0784 C   0  0  0  0  0  0  0  0  0  0  0  0
    0.3349    5.7590    3.5044 H   0  0  0  0  0  0  0  0  0  0  0  0
    0.0017    7.4704    3.1800 H   0  0  0  0  0  0  0  0  0  0  0  0
   -1.3276    6.3785    3.6282 H   0  0  0  0  0  0  0  0  0  0  0  0
  5  6  2  0  0  0  0
  5  7  1  0  0  0  0
  2  3  1  0  0  0  0
  2  4  1  0  0  0  0
  2  5  1  0  0  0  0
  1  2  1  0  0  0  0
 15 16  2  0  0  0  0
 15 17  1  0  0  0  0
 14 36  1  0  0  0  0
 11 12  1  0  0  0  0
 11 13  1  0  0  0  0
 11 14  1  0  0  0  0
  9 10  1  0  0  0  0
  9 11  1  0  0  0  0
  9 15  1  0  0  0  0
  7  8  1  0  0  0  0
  7  9  1  0  0  0  0
 19 20  1  0  0  0  0
 19 21  1  0  0  0  0
 19 22  1  0  0  0  0
 17 18  1  0  0  0  0
 17 19  1  0  0  0  0
 27 28  2  0  0  0  0
 27 29  1  0  0  0  0
 24 25  1  0  0  0  0
 24 26  1  0  0  0  0
 24 27  1  0  0  0  0
 23 24  1  0  0  0  0
 37 38  2  0  0  0  0
 37 39  1  0  0  0  0
 33 34  1  0  0  0  0
 33 35  1  0  0  0  0
 33 36  1  0  0  0  0
 31 32  1  0  0  0  0
 31 33  1  0  0  0  0
 31 37  1  0  0  0  0
 29 30  1  0  0  0  0
 29 31  1  0  0  0  0
 41 42  1  0  0  0  0
 41 43  1  0  0  0  0
 41 44  1  0  0  0  0
 39 40  1  0  0  0  0
 39 41  1  0  0  0  0
M  END
$$$$
default_name
  -OEChem-01062215323D

 44 43  0     1  0  0  0  0  0999 V2000
    2.4488   -3.0448    2.0990 H   0  0  0  0  0  0  0  0  0  0  0  0
    2.2788   -2.0018    2.3640 C   0  0  0  0  0  0  0  0  0  0  0  0
    2.9228   -1.7258    3.1960 H   0  0  0  0  0  0  0  0  0  0  0  0
    1.2358   -1.8618    2.6430 H   0  0  0  0  0  0  0  0  0  0  0  0
    2.6018   -1.1318    1.1730 C   0  0  0  0  0  0  0  0  0  0  0  0
    3.0048   -1.6348    0.1320 O   0  0  0  0  0  0  0  0  0  0  0  0
    2.4088    0.1752    1.3190 N   0  0  0  0  0  0  0  0  0  0  0  0
    2.0708    0.5242    2.2050 H   0  0  0  0  0  0  0  0  0  0  0  0
    2.6638    1.1782    0.2840 C   0  0  1  0  0  0  0  0  0  0  0  0
    1.8819    1.0918   -0.4724 H   0  0  0  0  0  0  0  0  0  0  0  0
    2.5820    2.5873    0.8967 C   0  0  0  0  0  0  0  0  0  0  0  0
    2.9301    3.3113    0.1589 H   0  0  0  0  0  0  0  0  0  0  0  0
    3.2869    2.6312    1.7265 H   0  0  0  0  0  0  0  0  0  0  0  0
    0.9753    3.1434    1.5387 S   0  0  0  0  0  0  0  0  0  0  0  0
    4.0168    0.9288   -0.4085 C   0  0  0  0  0  0  0  0  0  0  0  0
    4.4073    1.6761   -1.3052 O   0  0  0  0  0  0  0  0  0  0  0  0
    4.7353   -0.1203    0.0135 N   0  0  0  0  0  0  0  0  0  0  0  0
    4.3571   -0.6891    0.7538 H   0  0  0  0  0  0  0  0  0  0  0  0
    6.0350   -0.4899   -0.5433 C   0  0  0  0  0  0  0  0  0  0  0  0
    5.9230   -0.7446   -1.5993 H   0  0  0  0  0  0  0  0  0  0  0  0
    6.7247    0.3523   -0.4622 H   0  0  0  0  0  0  0  0  0  0  0  0
    6.4474   -1.3460   -0.0077 H   0  0  0  0  0  0  0  0  0  0  0  0
    0.2673    8.2173   -4.7523 H   0  0  0  0  0  0  0  0  0  0  0  0
    0.7646    8.1291   -3.7876 C   0  0  0  0  0  0  0  0  0  0  0  0
    0.7802    9.0987   -3.2923 H   0  0  0  0  0  0  0  0  0  0  0  0
    1.7824    7.7719   -3.9325 H   0  0  0  0  0  0  0  0  0  0  0  0
    0.0048    7.1422   -2.9326 C   0  0  0  0  0  0  0  0  0  0  0  0
   -0.9912    6.5830   -3.3711 O   0  0  0  0  0  0  0  0  0  0  0  0
    0.4837    6.9233   -1.7109 N   0  0  0  0  0  0  0  0  0  0  0  0
    1.3051    7.4285   -1.4118 H   0  0  0  0  0  0  0  0  0  0  0  0
   -0.1076    6.0016   -0.7408 C   0  0  1  0  0  0  0  0  0  0  0  0
   -1.1948    6.0432   -0.8274 H   0  0  0  0  0  0  0  0  0  0  0  0
    0.3508    4.5800   -1.0949 C   0  0  0  0  0  0  0  0  0  0  0  0
    0.0335    4.3782   -2.1190 H   0  0  0  0  0  0  0  0  0  0  0  0
    1.4404    4.5477   -1.0837 H   0  0  0  0  0  0  0  0  0  0  0  0
   -0.2767    3.2209   -0.0721 S   0  0  0  0  0  0  0  0  0  0  0  0
    0.2755    6.4101    0.6927 C   0  0  0  0  0  0  0  0  0  0  0  0
    1.3526    6.9685    0.9056 O   0  0  0  0  0  0  0  0  0  0  0  0
   -0.6038    6.1411    1.6664 N   0  0  0  0  0  0  0  0  0  0  0  0
   -1.4480    5.6516    1.4150 H   0  0  0  0  0  0  0  0  0  0  0  0
   -0.3894    6.4553    3.0784 C   0  0  0  0  0  0  0  0  0  0  0  0
    0.3349    5.7590    3.5044 H   0  0  0  0  0  0  0  0  0  0  0  0
    0.0017    7.4704    3.1800 H   0  0  0  0  0  0  0  0  0  0  0  0
   -1.3276    6.3785    3.6282 H   0  0  0  0  0  0  0  0  0  0  0  0
  5  6  2  0  0  0  0
  5  7  1  0  0  0  0
  2  3  1  0  0  0  0
  2  4  1  0  0  0  0
  2  5  1  0  0  0  0
  1  2  1  0  0  0  0
 15 16  2  0  0  0  0
 15 17  1  0  0  0  0
 14 36  1  0  0  0  0
 11 12  1  0  0  0  0
 11 13  1  0  0  0  0
 11 14  1  0  0  0  0
  9 10  1  0  0  0  0
  9 11  1  0  0  0  0
  9 15  1  0  0  0  0
  7  8  1  0  0  0  0
  7  9  1  0  0  0  0
 19 20  1  0  0  0  0
 19 21  1  0  0  0  0
 19 22  1  0  0  0  0
 17 18  1  0  0  0  0
 17 19  1  0  0  0  0
 27 28  2  0  0  0  0
 27 29  1  0  0  0  0
 24 25  1  0  0  0  0
 24 26  1  0  0  0  0
 24 27  1  0  0  0  0
 23 24  1  0  0  0  0
 37 38  2  0  0  0  0
 37 39  1  0  0  0  0
 33 34  1  0  0  0  0
 33 35  1  0  0  0  0
 33 36  1  0  0  0  0
 31 32  1  0  0  0  0
 31 33  1  0  0  0  0
 31 37  1  0  0  0  0
 29 30  1  0  0  0  0
 29 31  1  0  0  0  0
 41 42  1  0  0  0  0
 41 43  1  0  0  0  0
 41 44  1  0  0  0  0
 39 40  1  0  0  0  0
 39 41  1  0  0  0  0
M  END
$$$$
default_name
  -OEChem-01062215323D

 44 43  0     1  0  0  0  0  0999 V2000
    2.4488   -3.0448    2.0990 H   0  0  0  0  0  0  0  0  0  0  0  0
    2.2788   -2.0018    2.3640 C   0  0  0  0  0  0  0  0  0  0  0  0
    2.9228   -1.7258    3.1960 H   0  0  0  0  0  0  0  0  0  0  0  0
    1.2358   -1.8618    2.6430 H   0  0  0  0  0  0  0  0  0  0  0  0
    2.6018   -1.1318    1.1730 C   0  0  0  0  0  0  0  0  0  0  0  0
    3.0048   -1.6348    0.1320 O   0  0  0  0  0  0  0  0  0  0  0  0
    2.4088    0.1752    1.3190 N   0  0  0  0  0  0  0  0  0  0  0  0
    2.0708    0.5242    2.2050 H   0  0  0  0  0  0  0  0  0  0  0  0
    2.6638    1.1782    0.2840 C   0  0  1  0  0  0  0  0  0  0  0  0
    1.8819    1.0918   -0.4724 H   0  0  0  0  0  0  0  0  0  0  0  0
    2.5820    2.5873    0.8967 C   0  0  0  0  0  0  0  0  0  0  0  0
    2.9301    3.3113    0.1589 H   0  0  0  0  0  0  0  0  0  0  0  0
    3.2869    2.6312    1.7265 H   0  0  0  0  0  0  0  0  0  0  0  0
    0.9753    3.1434    1.5387 S   0  0  0  0  0  0  0  0  0  0  0  0
    4.0168    0.9288   -0.4085 C   0  0  0  0  0  0  0  0  0  0  0  0
    4.5372    1.8057   -1.0979 O   0  0  0  0  0  0  0  0  0  0  0  0
    4.5894   -0.2675   -0.2187 N   0  0  0  0  0  0  0  0  0  0  0  0
    4.1097   -0.9381    0.3601 H   0  0  0  0  0  0  0  0  0  0  0  0
    5.8686   -0.6571   -0.8082 C   0  0  0  0  0  0  0  0  0  0  0  0
    5.7875   -0.6523   -1.8973 H   0  0  0  0  0  0  0  0  0  0  0  0
    6.6423    0.0553   -0.5162 H   0  0  0  0  0  0  0  0  0  0  0  0
    6.1527   -1.6552   -0.4723 H   0  0  0  0  0  0  0  0  0  0  0  0
    0.2673    8.2173   -4.7523 H   0  0  0  0  0  0  0  0  0  0  0  0
    0.7646    8.1291   -3.7876 C   0  0  0  0  0  0  0  0  0  0  0  0
    0.7802    9.0987   -3.2923 H   0  0  0  0  0  0  0  0  0  0  0  0
    1.7824    7.7719   -3.9325 H   0  0  0  0  0  0  0  0  0  0  0  0
    0.0048    7.1422   -2.9326 C   0  0  0  0  0  0  0  0  0  0  0  0
   -0.9912    6.5830   -3.3711 O   0  0  0  0  0  0  0  0  0  0  0  0
    0.4837    6.9233   -1.7109 N   0  0  0  0  0  0  0  0  0  0  0  0
    1.3051    7.4285   -1.4118 H   0  0  0  0  0  0  0  0  0  0  0  0
   -0.1076    6.0016   -0.7408 C   0  0  1  0  0  0  0  0  0  0  0  0
   -1.1948    6.0432   -0.8274 H   0  0  0  0  0  0  0  0  0  0  0  0
    0.3508    4.5800   -1.0949 C   0  0  0  0  0  0  0  0  0  0  0  0
    0.0335    4.3782   -2.1190 H   0  0  0  0  0  0  0  0  0  0  0  0
    1.4404    4.5477   -1.0837 H   0  0  0  0  0  0  0  0  0  0  0  0
   -0.2767    3.2209   -0.0721 S   0  0  0  0  0  0  0  0  0  0  0  0
    0.2755    6.4101    0.6927 C   0  0  0  0  0  0  0  0  0  0  0  0
    1.3526    6.9685    0.9056 O   0  0  0  0  0  0  0  0  0  0  0  0
   -0.6038    6.1411    1.6664 N   0  0  0  0  0  0  0  0  0  0  0  0
   -1.4480    5.6516    1.4150 H   0  0  0  0  0  0  0  0  0  0  0  0
   -0.3894    6.4553    3.0784 C   0  0  0  0  0  0  0  0  0  0  0  0
    0.3349    5.7590    3.5044 H   0  0  0  0  0  0  0  0  0  0  0  0
    0.0017    7.4704    3.1800 H   0  0  0  0  0  0  0  0  0  0  0  0
   -1.3276    6.3785    3.6282 H   0  0  0  0  0  0  0  0  0  0  0  0
  5  6  2  0  0  0  0
  5  7  1  0  0  0  0
  2  3  1  0  0  0  0
  2  4  1  0  0  0  0
  2  5  1  0  0  0  0
  1  2  1  0  0  0  0
 15 16  2  0  0  0  0
 15 17  1  0  0  0  0
 14 36  1  0  0  0  0
 11 12  1  0  0  0  0
 11 13  1  0  0  0  0
 11 14  1  0  0  0  0
  9 10  1  0  0  0  0
  9 11  1  0  0  0  0
  9 15  1  0  0  0  0
  7  8  1  0  0  0  0
  7  9  1  0  0  0  0
 19 20  1  0  0  0  0
 19 21  1  0  0  0  0
 19 22  1  0  0  0  0
 17 18  1  0  0  0  0
 17 19  1  0  0  0  0
 27 28  2  0  0  0  0
 27 29  1  0  0  0  0
 24 25  1  0  0  0  0
 24 26  1  0  0  0  0
 24 27  1  0  0  0  0
 23 24  1  0  0  0  0
 37 38  2  0  0  0  0
 37 39  1  0  0  0  0
 33 34  1  0  0  0  0
 33 35  1  0  0  0  0
 33 36  1  0  0  0  0
 31 32  1  0  0  0  0
 31 33  1  0  0  0  0
 31 37  1  0  0  0  0
 29 30  1  0  0  0  0
 29 31  1  0  0  0  0
 41 42  1  0  0  0  0
 41 43  1  0  0  0  0
 41 44  1  0  0  0  0
 39 40  1  0  0  0  0
 39 41  1  0  0  0  0
M  END
$$$$
default_name
  -OEChem-01062215323D

 44 43  0     1  0  0  0  0  0999 V2000
    2.4488   -3.0448    2.0990 H   0  0  0  0  0  0  0  0  0  0  0  0
    2.2788   -2.0018    2.3640 C   0  0  0  0  0  0  0  0  0  0  0  0
    2.9228   -1.7258    3.1960 H   0  0  0  0  0  0  0  0  0  0  0  0
    1.2358   -1.8618    2.6430 H   0  0  0  0  0  0  0  0  0  0  0  0
    2.6018   -1.1318    1.1730 C   0  0  0  0  0  0  0  0  0  0  0  0
    3.0048   -1.6348    0.1320 O   0  0  0  0  0  0  0  0  0  0  0  0
    2.4088    0.1752    1.3190 N   0  0  0  0  0  0  0  0  0  0  0  0
    2.0708    0.5242    2.2050 H   0  0  0  0  0  0  0  0  0  0  0  0
    2.6638    1.1782    0.2840 C   0  0  1  0  0  0  0  0  0  0  0  0
    1.8819    1.0918   -0.4724 H   0  0  0  0  0  0  0  0  0  0  0  0
    2.5820    2.5873    0.8967 C   0  0  0  0  0  0  0  0  0  0  0  0
    2.9301    3.3113    0.1589 H   0  0  0  0  0  0  0  0  0  0  0  0
    3.2869    2.6312    1.7265 H   0  0  0  0  0  0  0  0  0  0  0  0
    0.9753    3.1434    1.5387 S   0  0  0  0  0  0  0  0  0  0  0  0
    4.0168    0.9288   -0.4085 C   0  0  0  0  0  0  0  0  0  0  0  0
    4.6691    1.8685   -0.8628 O   0  0  0  0  0  0  0  0  0  0  0  0
    4.4410   -0.3399   -0.4825 N   0  0  0  0  0  0  0  0  0  0  0  0
    3.8583   -1.0602   -0.0873 H   0  0  0  0  0  0  0  0  0  0  0  0
    5.6995   -0.7390   -1.1092 C   0  0  0  0  0  0  0  0  0  0  0  0
    5.6799   -0.4797   -2.1698 H   0  0  0  0  0  0  0  0  0  0  0  0
    6.5304   -0.2097   -0.6393 H   0  0  0  0  0  0  0  0  0  0  0  0
    5.8514   -1.8140   -1.0036 H   0  0  0  0  0  0  0  0  0  0  0  0
    0.2673    8.2173   -4.7523 H   0  0  0  0  0  0  0  0  0  0  0  0
    0.7646    8.1291   -3.7876 C   0  0  0  0  0  0  0  0  0  0  0  0
    0.7802    9.0987   -3.2923 H   0  0  0  0  0  0  0  0  0  0  0  0
    1.7824    7.7719   -3.9325 H   0  0  0  0  0  0  0  0  0  0  0  0
    0.0048    7.1422   -2.9326 C   0  0  0  0  0  0  0  0  0  0  0  0
   -0.9912    6.5830   -3.3711 O   0  0  0  0  0  0  0  0  0  0  0  0
    0.4837    6.9233   -1.7109 N   0  0  0  0  0  0  0  0  0  0  0  0
    1.3051    7.4285   -1.4118 H   0  0  0  0  0  0  0  0  0  0  0  0
   -0.1076    6.0016   -0.7408 C   0  0  1  0  0  0  0  0  0  0  0  0
   -1.1948    6.0432   -0.8274 H   0  0  0  0  0  0  0  0  0  0  0  0
    0.3508    4.5800   -1.0949 C   0  0  0  0  0  0  0  0  0  0  0  0
    0.0335    4.3782   -2.1190 H   0  0  0  0  0  0  0  0  0  0  0  0
    1.4404    4.5477   -1.0837 H   0  0  0  0  0  0  0  0  0  0  0  0
   -0.2767    3.2209   -0.0721 S   0  0  0  0  0  0  0  0  0  0  0  0
    0.2755    6.4101    0.6927 C   0  0  0  0  0  0  0  0  0  0  0  0
    1.3526    6.9685    0.9056 O   0  0  0  0  0  0  0  0  0  0  0  0
   -0.6038    6.1411    1.6664 N   0  0  0  0  0  0  0  0  0  0  0  0
   -1.4480    5.6516    1.4150 H   0  0  0  0  0  0  0  0  0  0  0  0
   -0.3894    6.4553    3.0784 C   0  0  0  0  0  0  0  0  0  0  0  0
    0.3349    5.7590    3.5044 H   0  0  0  0  0  0  0  0  0  0  0  0
    0.0017    7.4704    3.1800 H   0  0  0  0  0  0  0  0  0  0  0  0
   -1.3276    6.3785    3.6282 H   0  0  0  0  0  0  0  0  0  0  0  0
  5  6  2  0  0  0  0
  5  7  1  0  0  0  0
  2  3  1  0  0  0  0
  2  4  1  0  0  0  0
  2  5  1  0  0  0  0
  1  2  1  0  0  0  0
 15 16  2  0  0  0  0
 15 17  1  0  0  0  0
 14 36  1  0  0  0  0
 11 12  1  0  0  0  0
 11 13  1  0  0  0  0
 11 14  1  0  0  0  0
  9 10  1  0  0  0  0
  9 11  1  0  0  0  0
  9 15  1  0  0  0  0
  7  8  1  0  0  0  0
  7  9  1  0  0  0  0
 19 20  1  0  0  0  0
 19 21  1  0  0  0  0
 19 22  1  0  0  0  0
 17 18  1  0  0  0  0
 17 19  1  0  0  0  0
 27 28  2  0  0  0  0
 27 29  1  0  0  0  0
 24 25  1  0  0  0  0
 24 26  1  0  0  0  0
 24 27  1  0  0  0  0
 23 24  1  0  0  0  0
 37 38  2  0  0  0  0
 37 39  1  0  0  0  0
 33 34  1  0  0  0  0
 33 35  1  0  0  0  0
 33 36  1  0  0  0  0
 31 32  1  0  0  0  0
 31 33  1  0  0  0  0
 31 37  1  0  0  0  0
 29 30  1  0  0  0  0
 29 31  1  0  0  0  0
 41 42  1  0  0  0  0
 41 43  1  0  0  0  0
 41 44  1  0  0  0  0
 39 40  1  0  0  0  0
 39 41  1  0  0  0  0
M  END
$$$$
default_name
  -OEChem-01062215323D

 44 43  0     1  0  0  0  0  0999 V2000
    2.4488   -3.0448    2.0990 H   0  0  0  0  0  0  0  0  0  0  0  0
    2.2788   -2.0018    2.3640 C   0  0  0  0  0  0  0  0  0  0  0  0
    2.9228   -1.7258    3.1960 H   0  0  0  0  0  0  0  0  0  0  0  0
    1.2358   -1.8618    2.6430 H   0  0  0  0  0  0  0  0  0  0  0  0
    2.6018   -1.1318    1.1730 C   0  0  0  0  0  0  0  0  0  0  0  0
    3.0048   -1.6348    0.1320 O   0  0  0  0  0  0  0  0  0  0  0  0
    2.4088    0.1752    1.3190 N   0  0  0  0  0  0  0  0  0  0  0  0
    2.0708    0.5242    2.2050 H   0  0  0  0  0  0  0  0  0  0  0  0
    2.6638    1.1782    0.2840 C   0  0  1  0  0  0  0  0  0  0  0  0
    1.8819    1.0918   -0.4724 H   0  0  0  0  0  0  0  0  0  0  0  0
    2.5820    2.5873    0.8967 C   0  0  0  0  0  0  0  0  0  0  0  0
    2.9301    3.3113    0.1589 H   0  0  0  0  0  0  0  0  0  0  0  0
    3.2869    2.6312    1.7265 H   0  0  0  0  0  0  0  0  0  0  0  0
    0.9753    3.1434    1.5387 S   0  0  0  0  0  0  0  0  0  0  0  0
    4.0168    0.9288   -0.4085 C   0  0  0  0  0  0  0  0  0  0  0  0
    4.7940    1.8605   -0.6159 O   0  0  0  0  0  0  0  0  0  0  0  0
    4.3004   -0.3325   -0.7600 N   0  0  0  0  0  0  0  0  0  0  0  0
    3.6200   -1.0472   -0.5577 H   0  0  0  0  0  0  0  0  0  0  0  0
    5.5392   -0.7301   -1.4256 C   0  0  0  0  0  0  0  0  0  0  0  0
    5.6074   -0.2384   -2.3983 H   0  0  0  0  0  0  0  0  0  0  0  0
    6.3967   -0.4246   -0.8232 H   0  0  0  0  0  0  0  0  0  0  0  0
    5.5643   -1.8115   -1.5656 H   0  0  0  0  0  0  0  0  0  0  0  0
    0.2673    8.2173   -4.7523 H   0  0  0  0  0  0  0  0  0  0  0  0
    0.7646    8.1291   -3.7876 C   0  0  0  0  0  0  0  0  0  0  0  0
    0.7802    9.0987   -3.2923 H   0  0  0  0  0  0  0  0  0  0  0  0
    1.7824    7.7719   -3.9325 H   0  0  0  0  0  0  0  0  0  0  0  0
    0.0048    7.1422   -2.9326 C   0  0  0  0  0  0  0  0  0  0  0  0
   -0.9912    6.5830   -3.3711 O   0  0  0  0  0  0  0  0  0  0  0  0
    0.4837    6.9233   -1.7109 N   0  0  0  0  0  0  0  0  0  0  0  0
    1.3051    7.4285   -1.4118 H   0  0  0  0  0  0  0  0  0  0  0  0
   -0.1076    6.0016   -0.7408 C   0  0  1  0  0  0  0  0  0  0  0  0
   -1.1948    6.0432   -0.8274 H   0  0  0  0  0  0  0  0  0  0  0  0
    0.3508    4.5800   -1.0949 C   0  0  0  0  0  0  0  0  0  0  0  0
    0.0335    4.3782   -2.1190 H   0  0  0  0  0  0  0  0  0  0  0  0
    1.4404    4.5477   -1.0837 H   0  0  0  0  0  0  0  0  0  0  0  0
   -0.2767    3.2209   -0.0721 S   0  0  0  0  0  0  0  0  0  0  0  0
    0.2755    6.4101    0.6927 C   0  0  0  0  0  0  0  0  0  0  0  0
    1.3526    6.9685    0.9056 O   0  0  0  0  0  0  0  0  0  0  0  0
   -0.6038    6.1411    1.6664 N   0  0  0  0  0  0  0  0  0  0  0  0
   -1.4480    5.6516    1.4150 H   0  0  0  0  0  0  0  0  0  0  0  0
   -0.3894    6.4553    3.0784 C   0  0  0  0  0  0  0  0  0  0  0  0
    0.3349    5.7590    3.5044 H   0  0  0  0  0  0  0  0  0  0  0  0
    0.0017    7.4704    3.1800 H   0  0  0  0  0  0  0  0  0  0  0  0
   -1.3276    6.3785    3.6282 H   0  0  0  0  0  0  0  0  0  0  0  0
  5  6  2  0  0  0  0
  5  7  1  0  0  0  0
  2  3  1  0  0  0  0
  2  4  1  0  0  0  0
  2  5  1  0  0  0  0
  1  2  1  0  0  0  0
 15 16  2  0  0  0  0
 15 17  1  0  0  0  0
 14 36  1  0  0  0  0
 11 12  1  0  0  0  0
 11 13  1  0  0  0  0
 11 14  1  0  0  0  0
  9 10  1  0  0  0  0
  9 11  1  0  0  0  0
  9 15  1  0  0  0  0
  7  8  1  0  0  0  0
  7  9  1  0  0  0  0
 19 20  1  0  0  0  0
 19 21  1  0  0  0  0
 19 22  1  0  0  0  0
 17 18  1  0  0  0  0
 17 19  1  0  0  0  0
 27 28  2  0  0  0  0
 27 29  1  0  0  0  0
 24 25  1  0  0  0  0
 24 26  1  0  0  0  0
 24 27  1  0  0  0  0
 23 24  1  0  0  0  0
 37 38  2  0  0  0  0
 37 39  1  0  0  0  0
 33 34  1  0  0  0  0
 33 35  1  0  0  0  0
 33 36  1  0  0  0  0
 31 32  1  0  0  0  0
 31 33  1  0  0  0  0
 31 37  1  0  0  0  0
 29 30  1  0  0  0  0
 29 31  1  0  0  0  0
 41 42  1  0  0  0  0
 41 43  1  0  0  0  0
 41 44  1  0  0  0  0
 39 40  1  0  0  0  0
 39 41  1  0  0  0  0
M  END
$$$$
default_name
  -OEChem-01062215323D

 44 43  0     1  0  0  0  0  0999 V2000
    2.4488   -3.0448    2.0990 H   0  0  0  0  0  0  0  0  0  0  0  0
    2.2788   -2.0018    2.3640 C   0  0  0  0  0  0  0  0  0  0  0  0
    2.9228   -1.7258    3.1960 H   0  0  0  0  0  0  0  0  0  0  0  0
    1.2358   -1.8618    2.6430 H   0  0  0  0  0  0  0  0  0  0  0  0
    2.6018   -1.1318    1.1730 C   0  0  0  0  0  0  0  0  0  0  0  0
    3.0048   -1.6348    0.1320 O   0  0  0  0  0  0  0  0  0  0  0  0
    2.4088    0.1752    1.3190 N   0  0  0  0  0  0  0  0  0  0  0  0
    2.0708    0.5242    2.2050 H   0  0  0  0  0  0  0  0  0  0  0  0
    2.6638    1.1782    0.2840 C   0  0  1  0  0  0  0  0  0  0  0  0
    1.8819    1.0918   -0.4724 H   0  0  0  0  0  0  0  0  0  0  0  0
    2.5820    2.5873    0.8967 C   0  0  0  0  0  0  0  0  0  0  0  0
    2.9301    3.3113    0.1589 H   0  0  0  0  0  0  0  0  0  0  0  0
    3.2869    2.6312    1.7265 H   0  0  0  0  0  0  0  0  0  0  0  0
    0.9753    3.1434    1.5387 S   0  0  0  0  0  0  0  0  0  0  0  0
    4.0168    0.9288   -0.4085 C   0  0  0  0  0  0  0  0  0  0  0  0
    4.9033    1.7820   -0.3740 O   0  0  0  0  0  0  0  0  0  0  0  0
    4.1770   -0.2460   -1.0323 N   0  0  0  0  0  0  0  0  0  0  0  0
    3.4110   -0.9000   -1.0191 H   0  0  0  0  0  0  0  0  0  0  0  0
    5.3987   -0.6308   -1.7358 C   0  0  0  0  0  0  0  0  0  0  0  0
    5.5751    0.0550   -2.5672 H   0  0  0  0  0  0  0  0  0  0  0  0
    6.2503   -0.5749   -1.0552 H   0  0  0  0  0  0  0  0  0  0  0  0
    5.3108   -1.6479   -2.1200 H   0  0  0  0  0  0  0  0  0  0  0  0
    0.2673    8.2173   -4.7523 H   0  0  0  0  0  0  0  0  0  0  0  0
    0.7646    8.1291   -3.7876 C   0  0  0  0  0  0  0  0  0  0  0  0
    0.7802    9.0987   -3.2923 H   0  0  0  0  0  0  0  0  0  0  0  0
    1.7824    7.7719   -3.9325 H   0  0  0  0  0  0  0  0  0  0  0  0
    0.0048    7.1422   -2.9326 C   0  0  0  0  0  0  0  0  0  0  0  0
   -0.9912    6.5830   -3.3711 O   0  0  0  0  0  0  0  0  0  0  0  0
    0.4837    6.9233   -1.7109 N   0  0  0  0  0  0  0  0  0  0  0  0
    1.3051    7.4285   -1.4118 H   0  0  0  0  0  0  0  0  0  0  0  0
   -0.1076    6.0016   -0.7408 C   0  0  1  0  0  0  0  0  0  0  0  0
   -1.1948    6.0432   -0.8274 H   0  0  0  0  0  0  0  0  0  0  0  0
    0.3508    4.5800   -1.0949 C   0  0  0  0  0  0  0  0  0  0  0  0
    0.0335    4.3782   -2.1190 H   0  0  0  0  0  0  0  0  0  0  0  0
    1.4404    4.5477   -1.0837 H   0  0  0  0  0  0  0  0  0  0  0  0
   -0.2767    3.2209   -0.0721 S   0  0  0  0  0  0  0  0  0  0  0  0
    0.2755    6.4101    0.6927 C   0  0  0  0  0  0  0  0  0  0  0  0
    1.3526    6.9685    0.9056 O   0  0  0  0  0  0  0  0  0  0  0  0
   -0.6038    6.1411    1.6664 N   0  0  0  0  0  0  0  0  0  0  0  0
   -1.4480    5.6516    1.4150 H   0  0  0  0  0  0  0  0  0  0  0  0
   -0.3894    6.4553    3.0784 C   0  0  0  0  0  0  0  0  0  0  0  0
    0.3349    5.7590    3.5044 H   0  0  0  0  0  0  0  0  0  0  0  0
    0.0017    7.4704    3.1800 H   0  0  0  0  0  0  0  0  0  0  0  0
   -1.3276    6.3785    3.6282 H   0  0  0  0  0  0  0  0  0  0  0  0
  5  6  2  0  0  0  0
  5  7  1  0  0  0  0
  2  3  1  0  0  0  0
  2  4  1  0  0  0  0
  2  5  1  0  0  0  0
  1  2  1  0  0  0  0
 15 16  2  0  0  0  0
 15 17  1  0  0  0  0
 14 36  1  0  0  0  0
 11 12  1  0  0  0  0
 11 13  1  0  0  0  0
 11 14  1  0  0  0  0
  9 10  1  0  0  0  0
  9 11  1  0  0  0  0
  9 15  1  0  0  0  0
  7  8  1  0  0  0  0
  7  9  1  0  0  0  0
 19 20  1  0  0  0  0
 19 21  1  0  0  0  0
 19 22  1  0  0  0  0
 17 18  1  0  0  0  0
 17 19  1  0  0  0  0
 27 28  2  0  0  0  0
 27 29  1  0  0  0  0
 24 25  1  0  0  0  0
 24 26  1  0  0  0  0
 24 27  1  0  0  0  0
 23 24  1  0  0  0  0
 37 38  2  0  0  0  0
 37 39  1  0  0  0  0
 33 34  1  0  0  0  0
 33 35  1  0  0  0  0
 33 36  1  0  0  0  0
 31 32  1  0  0  0  0
 31 33  1  0  0  0  0
 31 37  1  0  0  0  0
 29 30  1  0  0  0  0
 29 31  1  0  0  0  0
 41 42  1  0  0  0  0
 41 43  1  0  0  0  0
 41 44  1  0  0  0  0
 39 40  1  0  0  0  0
 39 41  1  0  0  0  0
M  END
$$$$
default_name
  -OEChem-01062215323D

 44 43  0     1  0  0  0  0  0999 V2000
    2.4488   -3.0448    2.0990 H   0  0  0  0  0  0  0  0  0  0  0  0
    2.2788   -2.0018    2.3640 C   0  0  0  0  0  0  0  0  0  0  0  0
    2.9228   -1.7258    3.1960 H   0  0  0  0  0  0  0  0  0  0  0  0
    1.2358   -1.8618    2.6430 H   0  0  0  0  0  0  0  0  0  0  0  0
    2.6018   -1.1318    1.1730 C   0  0  0  0  0  0  0  0  0  0  0  0
    3.0048   -1.6348    0.1320 O   0  0  0  0  0  0  0  0  0  0  0  0
    2.4088    0.1752    1.3190 N   0  0  0  0  0  0  0  0  0  0  0  0
    2.0708    0.5242    2.2050 H   0  0  0  0  0  0  0  0  0  0  0  0
    2.6638    1.1782    0.2840 C   0  0  1  0  0  0  0  0  0  0  0  0
    1.8819    1.0918   -0.4724 H   0  0  0  0  0  0  0  0  0  0  0  0
    2.5820    2.5873    0.8967 C   0  0  0  0  0  0  0  0  0  0  0  0
    2.9301    3.3113    0.1589 H   0  0  0  0  0  0  0  0  0  0  0  0
    3.2869    2.6312    1.7265 H   0  0  0  0  0  0  0  0  0  0  0  0
    0.9753    3.1434    1.5387 S   0  0  0  0  0  0  0  0  0  0  0  0
    4.0168    0.9288   -0.4085 C   0  0  0  0  0  0  0  0  0  0  0  0
    4.9897    1.6385   -0.1536 O   0  0  0  0  0  0  0  0  0  0  0  0
    4.0793   -0.0861   -1.2808 N   0  0  0  0  0  0  0  0  0  0  0  0
    3.2456   -0.6286   -1.4400 H   0  0  0  0  0  0  0  0  0  0  0  0
    5.2876   -0.4481   -2.0189 C   0  0  0  0  0  0  0  0  0  0  0  0
    5.5850    0.3806   -2.6650 H   0  0  0  0  0  0  0  0  0  0  0  0
    6.1010   -0.6503   -1.3197 H   0  0  0  0  0  0  0  0  0  0  0  0
    5.1082   -1.3343   -2.6288 H   0  0  0  0  0  0  0  0  0  0  0  0
    0.2673    8.2173   -4.7523 H   0  0  0  0  0  0  0  0  0  0  0  0
    0.7646    8.1291   -3.7876 C   0  0  0  0  0  0  0  0  0  0  0  0
    0.7802    9.0987   -3.2923 H   0  0  0  0  0  0  0  0  0  0  0  0
    1.7824    7.7719   -3.9325 H   0  0  0  0  0  0  0  0  0  0  0  0
    0.0048    7.1422   -2.9326 C   0  0  0  0  0  0  0  0  0  0  0  0
   -0.9912    6.5830   -3.3711 O   0  0  0  0  0  0  0  0  0  0  0  0
    0.4837    6.9233   -1.7109 N   0  0  0  0  0  0  0  0  0  0  0  0
    1.3051    7.4285   -1.4118 H   0  0  0  0  0  0  0  0  0  0  0  0
   -0.1076    6.0016   -0.7408 C   0  0  1  0  0  0  0  0  0  0  0  0
   -1.1948    6.0432   -0.8274 H   0  0  0  0  0  0  0  0  0  0  0  0
    0.3508    4.5800   -1.0949 C   0  0  0  0  0  0  0  0  0  0  0  0
    0.0335    4.3782   -2.1190 H   0  0  0  0  0  0  0  0  0  0  0  0
    1.4404    4.5477   -1.0837 H   0  0  0  0  0  0  0  0  0  0  0  0
   -0.2767    3.2209   -0.0721 S   0  0  0  0  0  0  0  0  0  0  0  0
    0.2755    6.4101    0.6927 C   0  0  0  0  0  0  0  0  0  0  0  0
    1.3526    6.9685    0.9056 O   0  0  0  0  0  0  0  0  0  0  0  0
   -0.6038    6.1411    1.6664 N   0  0  0  0  0  0  0  0  0  0  0  0
   -1.4480    5.6516    1.4150 H   0  0  0  0  0  0  0  0  0  0  0  0
   -0.3894    6.4553    3.0784 C   0  0  0  0  0  0  0  0  0  0  0  0
    0.3349    5.7590    3.5044 H   0  0  0  0  0  0  0  0  0  0  0  0
    0.0017    7.4704    3.1800 H   0  0  0  0  0  0  0  0  0  0  0  0
   -1.3276    6.3785    3.6282 H   0  0  0  0  0  0  0  0  0  0  0  0
  5  6  2  0  0  0  0
  5  7  1  0  0  0  0
  2  3  1  0  0  0  0
  2  4  1  0  0  0  0
  2  5  1  0  0  0  0
  1  2  1  0  0  0  0
 15 16  2  0  0  0  0
 15 17  1  0  0  0  0
 14 36  1  0  0  0  0
 11 12  1  0  0  0  0
 11 13  1  0  0  0  0
 11 14  1  0  0  0  0
  9 10  1  0  0  0  0
  9 11  1  0  0  0  0
  9 15  1  0  0  0  0
  7  8  1  0  0  0  0
  7  9  1  0  0  0  0
 19 20  1  0  0  0  0
 19 21  1  0  0  0  0
 19 22  1  0  0  0  0
 17 18  1  0  0  0  0
 17 19  1  0  0  0  0
 27 28  2  0  0  0  0
 27 29  1  0  0  0  0
 24 25  1  0  0  0  0
 24 26  1  0  0  0  0
 24 27  1  0  0  0  0
 23 24  1  0  0  0  0
 37 38  2  0  0  0  0
 37 39  1  0  0  0  0
 33 34  1  0  0  0  0
 33 35  1  0  0  0  0
 33 36  1  0  0  0  0
 31 32  1  0  0  0  0
 31 33  1  0  0  0  0
 31 37  1  0  0  0  0
 29 30  1  0  0  0  0
 29 31  1  0  0  0  0
 41 42  1  0  0  0  0
 41 43  1  0  0  0  0
 41 44  1  0  0  0  0
 39 40  1  0  0  0  0
 39 41  1  0  0  0  0
M  END
$$$$
default_name
  -OEChem-01062215323D

 44 43  0     1  0  0  0  0  0999 V2000
    2.4488   -3.0448    2.0990 H   0  0  0  0  0  0  0  0  0  0  0  0
    2.2788   -2.0018    2.3640 C   0  0  0  0  0  0  0  0  0  0  0  0
    2.9228   -1.7258    3.1960 H   0  0  0  0  0  0  0  0  0  0  0  0
    1.2358   -1.8618    2.6430 H   0  0  0  0  0  0  0  0  0  0  0  0
    2.6018   -1.1318    1.1730 C   0  0  0  0  0  0  0  0  0  0  0  0
    3.0048   -1.6348    0.1320 O   0  0  0  0  0  0  0  0  0  0  0  0
    2.4088    0.1752    1.3190 N   0  0  0  0  0  0  0  0  0  0  0  0
    2.0708    0.5242    2.2050 H   0  0  0  0  0  0  0  0  0  0  0  0
    2.6638    1.1782    0.2840 C   0  0  1  0  0  0  0  0  0  0  0  0
    1.8819    1.0918   -0.4724 H   0  0  0  0  0  0  0  0  0  0  0  0
    2.5820    2.5873    0.8967 C   0  0  0  0  0  0  0  0  0  0  0  0
    2.9301    3.3113    0.1589 H   0  0  0  0  0  0  0  0  0  0  0  0
    3.2869    2.6312    1.7265 H   0  0  0  0  0  0  0  0  0  0  0  0
    0.9753    3.1434    1.5387 S   0  0  0  0  0  0  0  0  0  0  0  0
    4.0168    0.9288   -0.4085 C   0  0  0  0  0  0  0  0  0  0  0  0
    5.0471    1.4397    0.0303 O   0  0  0  0  0  0  0  0  0  0  0  0
    4.0139    0.1361   -1.4885 N   0  0  0  0  0  0  0  0  0  0  0  0
    3.1350   -0.2515   -1.7919 H   0  0  0  0  0  0  0  0  0  0  0  0
    5.2133   -0.1942   -2.2554 C   0  0  0  0  0  0  0  0  0  0  0  0
    5.6367    0.7162   -2.6850 H   0  0  0  0  0  0  0  0  0  0  0  0
    5.9592   -0.6456   -1.5985 H   0  0  0  0  0  0  0  0  0  0  0  0
    4.9703   -0.8922   -3.0575 H   0  0  0  0  0  0  0  0  0  0  0  0
    0.2673    8.2173   -4.7523 H   0  0  0  0  0  0  0  0  0  0  0  0
    0.7646    8.1291   -3.7876 C   0  0  0  0  0  0  0  0  0  0  0  0
    0.7802    9.0987   -3.2923 H   0  0  0  0  0  0  0  0  0  0  0  0
    1.7824    7.7719   -3.9325 H   0  0  0  0  0  0  0  0  0  0  0  0
    0.0048    7.1422   -2.9326 C   0  0  0  0  0  0  0  0  0  0  0  0
   -0.9912    6.5830   -3.3711 O   0  0  0  0  0  0  0  0  0  0  0  0
    0.4837    6.9233   -1.7109 N   0  0  0  0  0  0  0  0  0  0  0  0
    1.3051    7.4285   -1.4118 H   0  0  0  0  0  0  0  0  0  0  0  0
   -0.1076    6.0016   -0.7408 C   0  0  1  0  0  0  0  0  0  0  0  0
   -1.1948    6.0432   -0.8274 H   0  0  0  0  0  0  0  0  0  0  0  0
    0.3508    4.5800   -1.0949 C   0  0  0  0  0  0  0  0  0  0  0  0
    0.0335    4.3782   -2.1190 H   0  0  0  0  0  0  0  0  0  0  0  0
    1.4404    4.5477   -1.0837 H   0  0  0  0  0  0  0  0  0  0  0  0
   -0.2767    3.2209   -0.0721 S   0  0  0  0  0  0  0  0  0  0  0  0
    0.2755    6.4101    0.6927 C   0  0  0  0  0  0  0  0  0  0  0  0
    1.3526    6.9685    0.9056 O   0  0  0  0  0  0  0  0  0  0  0  0
   -0.6038    6.1411    1.6664 N   0  0  0  0  0  0  0  0  0  0  0  0
   -1.4480    5.6516    1.4150 H   0  0  0  0  0  0  0  0  0  0  0  0
   -0.3894    6.4553    3.0784 C   0  0  0  0  0  0  0  0  0  0  0  0
    0.3349    5.7590    3.5044 H   0  0  0  0  0  0  0  0  0  0  0  0
    0.0017    7.4704    3.1800 H   0  0  0  0  0  0  0  0  0  0  0  0
   -1.3276    6.3785    3.6282 H   0  0  0  0  0  0  0  0  0  0  0  0
  5  6  2  0  0  0  0
  5  7  1  0  0  0  0
  2  3  1  0  0  0  0
  2  4  1  0  0  0  0
  2  5  1  0  0  0  0
  1  2  1  0  0  0  0
 15 16  2  0  0  0  0
 15 17  1  0  0  0  0
 14 36  1  0  0  0  0
 11 12  1  0  0  0  0
 11 13  1  0  0  0  0
 11 14  1  0  0  0  0
  9 10  1  0  0  0  0
  9 11  1  0  0  0  0
  9 15  1  0  0  0  0
  7  8  1  0  0  0  0
  7  9  1  0  0  0  0
 19 20  1  0  0  0  0
 19 21  1  0  0  0  0
 19 22  1  0  0  0  0
 17 18  1  0  0  0  0
 17 19  1  0  0  0  0
 27 28  2  0  0  0  0
 27 29  1  0  0  0  0
 24 25  1  0  0  0  0
 24 26  1  0  0  0  0
 24 27  1  0  0  0  0
 23 24  1  0  0  0  0
 37 38  2  0  0  0  0
 37 39  1  0  0  0  0
 33 34  1  0  0  0  0
 33 35  1  0  0  0  0
 33 36  1  0  0  0  0
 31 32  1  0  0  0  0
 31 33  1  0  0  0  0
 31 37  1  0  0  0  0
 29 30  1  0  0  0  0
 29 31  1  0  0  0  0
 41 42  1  0  0  0  0
 41 43  1  0  0  0  0
 41 44  1  0  0  0  0
 39 40  1  0  0  0  0
 39 41  1  0  0  0  0
M  END
$$$$
default_name
  -OEChem-01062215323D

 44 43  0     1  0  0  0  0  0999 V2000
    2.4488   -3.0448    2.0990 H   0  0  0  0  0  0  0  0  0  0  0  0
    2.2788   -2.0018    2.3640 C   0  0  0  0  0  0  0  0  0  0  0  0
    2.9228   -1.7258    3.1960 H   0  0  0  0  0  0  0  0  0  0  0  0
    1.2358   -1.8618    2.6430 H   0  0  0  0  0  0  0  0  0  0  0  0
    2.6018   -1.1318    1.1730 C   0  0  0  0  0  0  0  0  0  0  0  0
    3.0048   -1.6348    0.1320 O   0  0  0  0  0  0  0  0  0  0  0  0
    2.4088    0.1752    1.3190 N   0  0  0  0  0  0  0  0  0  0  0  0
    2.0708    0.5242    2.2050 H   0  0  0  0  0  0  0  0  0  0  0  0
    2.6638    1.1782    0.2840 C   0  0  1  0  0  0  0  0  0  0  0  0
    1.8819    1.0918   -0.4724 H   0  0  0  0  0  0  0  0  0  0  0  0
    2.5820    2.5873    0.8967 C   0  0  0  0  0  0  0  0  0  0  0  0
    2.9301    3.3113    0.1589 H   0  0  0  0  0  0  0  0  0  0  0  0
    3.2869    2.6312    1.7265 H   0  0  0  0  0  0  0  0  0  0  0  0
    0.9753    3.1434    1.5387 S   0  0  0  0  0  0  0  0  0  0  0  0
    4.0168    0.9288   -0.4085 C   0  0  0  0  0  0  0  0  0  0  0  0
    5.0718    1.1992    0.1651 O   0  0  0  0  0  0  0  0  0  0  0  0
    3.9854    0.4056   -1.6414 N   0  0  0  0  0  0  0  0  0  0  0  0
    3.0869    0.2056   -2.0506 H   0  0  0  0  0  0  0  0  0  0  0  0
    5.1811    0.1133   -2.4292 C   0  0  0  0  0  0  0  0  0  0  0  0
    5.7264    1.0388   -2.6259 H   0  0  0  0  0  0  0  0  0  0  0  0
    5.8344   -0.5611   -1.8727 H   0  0  0  0  0  0  0  0  0  0  0  0
    4.9065   -0.3516   -3.3769 H   0  0  0  0  0  0  0  0  0  0  0  0
    0.2673    8.2173   -4.7523 H   0  0  0  0  0  0  0  0  0  0  0  0
    0.7646    8.1291   -3.7876 C   0  0  0  0  0  0  0  0  0  0  0  0
    0.7802    9.0987   -3.2923 H   0  0  0  0  0  0  0  0  0  0  0  0
    1.7824    7.7719   -3.9325 H   0  0  0  0  0  0  0  0  0  0  0  0
    0.0048    7.1422   -2.9326 C   0  0  0  0  0  0  0  0  0  0  0  0
   -0.9912    6.5830   -3.3711 O   0  0  0  0  0  0  0  0  0  0  0  0
    0.4837    6.9233   -1.7109 N   0  0  0  0  0  0  0  0  0  0  0  0
    1.3051    7.4285   -1.4118 H   0  0  0  0  0  0  0  0  0  0  0  0
   -0.1076    6.0016   -0.7408 C   0  0  1  0  0  0  0  0  0  0  0  0
   -1.1948    6.0432   -0.8274 H   0  0  0  0  0  0  0  0  0  0  0  0
    0.3508    4.5800   -1.0949 C   0  0  0  0  0  0  0  0  0  0  0  0
    0.0335    4.3782   -2.1190 H   0  0  0  0  0  0  0  0  0  0  0  0
    1.4404    4.5477   -1.0837 H   0  0  0  0  0  0  0  0  0  0  0  0
   -0.2767    3.2209   -0.0721 S   0  0  0  0  0  0  0  0  0  0  0  0
    0.2755    6.4101    0.6927 C   0  0  0  0  0  0  0  0  0  0  0  0
    1.3526    6.9685    0.9056 O   0  0  0  0  0  0  0  0  0  0  0  0
   -0.6038    6.1411    1.6664 N   0  0  0  0  0  0  0  0  0  0  0  0
   -1.4480    5.6516    1.4150 H   0  0  0  0  0  0  0  0  0  0  0  0
   -0.3894    6.4553    3.0784 C   0  0  0  0  0  0  0  0  0  0  0  0
    0.3349    5.7590    3.5044 H   0  0  0  0  0  0  0  0  0  0  0  0
    0.0017    7.4704    3.1800 H   0  0  0  0  0  0  0  0  0  0  0  0
   -1.3276    6.3785    3.6282 H   0  0  0  0  0  0  0  0  0  0  0  0
  5  6  2  0  0  0  0
  5  7  1  0  0  0  0
  2  3  1  0  0  0  0
  2  4  1  0  0  0  0
  2  5  1  0  0  0  0
  1  2  1  0  0  0  0
 15 16  2  0  0  0  0
 15 17  1  0  0  0  0
 14 36  1  0  0  0  0
 11 12  1  0  0  0  0
 11 13  1  0  0  0  0
 11 14  1  0  0  0  0
  9 10  1  0  0  0  0
  9 11  1  0  0  0  0
  9 15  1  0  0  0  0
  7  8  1  0  0  0  0
  7  9  1  0  0  0  0
 19 20  1  0  0  0  0
 19 21  1  0  0  0  0
 19 22  1  0  0  0  0
 17 18  1  0  0  0  0
 17 19  1  0  0  0  0
 27 28  2  0  0  0  0
 27 29  1  0  0  0  0
 24 25  1  0  0  0  0
 24 26  1  0  0  0  0
 24 27  1  0  0  0  0
 23 24  1  0  0  0  0
 37 38  2  0  0  0  0
 37 39  1  0  0  0  0
 33 34  1  0  0  0  0
 33 35  1  0  0  0  0
 33 36  1  0  0  0  0
 31 32  1  0  0  0  0
 31 33  1  0  0  0  0
 31 37  1  0  0  0  0
 29 30  1  0  0  0  0
 29 31  1  0  0  0  0
 41 42  1  0  0  0  0
 41 43  1  0  0  0  0
 41 44  1  0  0  0  0
 39 40  1  0  0  0  0
 39 41  1  0  0  0  0
M  END
$$$$
default_name
  -OEChem-01062215323D

 44 43  0     1  0  0  0  0  0999 V2000
    2.4488   -3.0448    2.0990 H   0  0  0  0  0  0  0  0  0  0  0  0
    2.2788   -2.0018    2.3640 C   0  0  0  0  0  0  0  0  0  0  0  0
    2.9228   -1.7258    3.1960 H   0  0  0  0  0  0  0  0  0  0  0  0
    1.2358   -1.8618    2.6430 H   0  0  0  0  0  0  0  0  0  0  0  0
    2.6018   -1.1318    1.1730 C   0  0  0  0  0  0  0  0  0  0  0  0
    3.0048   -1.6348    0.1320 O   0  0  0  0  0  0  0  0  0  0  0  0
    2.4088    0.1752    1.3190 N   0  0  0  0  0  0  0  0  0  0  0  0
    2.0708    0.5242    2.2050 H   0  0  0  0  0  0  0  0  0  0  0  0
    2.6638    1.1782    0.2840 C   0  0  1  0  0  0  0  0  0  0  0  0
    1.8819    1.0918   -0.4724 H   0  0  0  0  0  0  0  0  0  0  0  0
    2.5820    2.5873    0.8967 C   0  0  0  0  0  0  0  0  0  0  0  0
    2.9301    3.3113    0.1589 H   0  0  0  0  0  0  0  0  0  0  0  0
    3.2869    2.6312    1.7265 H   0  0  0  0  0  0  0  0  0  0  0  0
    0.9753    3.1434    1.5387 S   0  0  0  0  0  0  0  0  0  0  0  0
    4.0168    0.9288   -0.4085 C   0  0  0  0  0  0  0  0  0  0  0  0
    5.0620    0.9334    0.2417 O   0  0  0  0  0  0  0  0  0  0  0  0
    3.9955    0.7041   -1.7290 N   0  0  0  0  0  0  0  0  0  0  0  0
    3.1044    0.7116   -2.1986 H   0  0  0  0  0  0  0  0  0  0  0  0
    5.1930    0.4537   -2.5286 C   0  0  0  0  0  0  0  0  0  0  0  0
    5.8482    1.3266   -2.4916 H   0  0  0  0  0  0  0  0  0  0  0  0
    5.7352   -0.4027   -2.1236 H   0  0  0  0  0  0  0  0  0  0  0  0
    4.9211    0.2506   -3.5652 H   0  0  0  0  0  0  0  0  0  0  0  0
    0.2673    8.2173   -4.7523 H   0  0  0  0  0  0  0  0  0  0  0  0
    0.7646    8.1291   -3.7876 C   0  0  0  0  0  0  0  0  0  0  0  0
    0.7802    9.0987   -3.2923 H   0  0  0  0  0  0  0  0  0  0  0  0
    1.7824    7.7719   -3.9325 H   0  0  0  0  0  0  0  0  0  0  0  0
    0.0048    7.1422   -2.9326 C   0  0  0  0  0  0  0  0  0  0  0  0
   -0.9912    6.5830   -3.3711 O   0  0  0  0  0  0  0  0  0  0  0  0
    0.4837    6.9233   -1.7109 N   0  0  0  0  0  0  0  0  0  0  0  0
    1.3051    7.4285   -1.4118 H   0  0  0  0  0  0  0  0  0  0  0  0
   -0.1076    6.0016   -0.7408 C   0  0  1  0  0  0  0  0  0  0  0  0
   -1.1948    6.0432   -0.8274 H   0  0  0  0  0  0  0  0  0  0  0  0
    0.3508    4.5800   -1.0949 C   0  0  0  0  0  0  0  0  0  0  0  0
    0.0335    4.3782   -2.1190 H   0  0  0  0  0  0  0  0  0  0  0  0
    1.4404    4.5477   -1.0837 H   0  0  0  0  0  0  0  0  0  0  0  0
   -0.2767    3.2209   -0.0721 S   0  0  0  0  0  0  0  0  0  0  0  0
    0.2755    6.4101    0.6927 C   0  0  0  0  0  0  0  0  0  0  0  0
    1.3526    6.9685    0.9056 O   0  0  0  0  0  0  0  0  0  0  0  0
   -0.6038    6.1411    1.6664 N   0  0  0  0  0  0  0  0  0  0  0  0
   -1.4480    5.6516    1.4150 H   0  0  0  0  0  0  0  0  0  0  0  0
   -0.3894    6.4553    3.0784 C   0  0  0  0  0  0  0  0  0  0  0  0
    0.3349    5.7590    3.5044 H   0  0  0  0  0  0  0  0  0  0  0  0
    0.0017    7.4704    3.1800 H   0  0  0  0  0  0  0  0  0  0  0  0
   -1.3276    6.3785    3.6282 H   0  0  0  0  0  0  0  0  0  0  0  0
  5  6  2  0  0  0  0
  5  7  1  0  0  0  0
  2  3  1  0  0  0  0
  2  4  1  0  0  0  0
  2  5  1  0  0  0  0
  1  2  1  0  0  0  0
 15 16  2  0  0  0  0
 15 17  1  0  0  0  0
 14 36  1  0  0  0  0
 11 12  1  0  0  0  0
 11 13  1  0  0  0  0
 11 14  1  0  0  0  0
  9 10  1  0  0  0  0
  9 11  1  0  0  0  0
  9 15  1  0  0  0  0
  7  8  1  0  0  0  0
  7  9  1  0  0  0  0
 19 20  1  0  0  0  0
 19 21  1  0  0  0  0
 19 22  1  0  0  0  0
 17 18  1  0  0  0  0
 17 19  1  0  0  0  0
 27 28  2  0  0  0  0
 27 29  1  0  0  0  0
 24 25  1  0  0  0  0
 24 26  1  0  0  0  0
 24 27  1  0  0  0  0
 23 24  1  0  0  0  0
 37 38  2  0  0  0  0
 37 39  1  0  0  0  0
 33 34  1  0  0  0  0
 33 35  1  0  0  0  0
 33 36  1  0  0  0  0
 31 32  1  0  0  0  0
 31 33  1  0  0  0  0
 31 37  1  0  0  0  0
 29 30  1  0  0  0  0
 29 31  1  0  0  0  0
 41 42  1  0  0  0  0
 41 43  1  0  0  0  0
 41 44  1  0  0  0  0
 39 40  1  0  0  0  0
 39 41  1  0  0  0  0
M  END
$$$$
default_name
  -OEChem-01062215323D

 44 43  0     1  0  0  0  0  0999 V2000
    2.4488   -3.0448    2.0990 H   0  0  0  0  0  0  0  0  0  0  0  0
    2.2788   -2.0018    2.3640 C   0  0  0  0  0  0  0  0  0  0  0  0
    2.9228   -1.7258    3.1960 H   0  0  0  0  0  0  0  0  0  0  0  0
    1.2358   -1.8618    2.6430 H   0  0  0  0  0  0  0  0  0  0  0  0
    2.6018   -1.1318    1.1730 C   0  0  0  0  0  0  0  0  0  0  0  0
    3.0048   -1.6348    0.1320 O   0  0  0  0  0  0  0  0  0  0  0  0
    2.4088    0.1752    1.3190 N   0  0  0  0  0  0  0  0  0  0  0  0
    2.0708    0.5242    2.2050 H   0  0  0  0  0  0  0  0  0  0  0  0
    2.6638    1.1782    0.2840 C   0  0  1  0  0  0  0  0  0  0  0  0
    1.8819    1.0918   -0.4724 H   0  0  0  0  0  0  0  0  0  0  0  0
    2.5820    2.5873    0.8967 C   0  0  0  0  0  0  0  0  0  0  0  0
    2.9301    3.3113    0.1589 H   0  0  0  0  0  0  0  0  0  0  0  0
    3.2869    2.6312    1.7265 H   0  0  0  0  0  0  0  0  0  0  0  0
    0.9753    3.1434    1.5387 S   0  0  0  0  0  0  0  0  0  0  0  0
    4.0168    0.9288   -0.4085 C   0  0  0  0  0  0  0  0  0  0  0  0
    5.0184    0.6603    0.2548 O   0  0  0  0  0  0  0  0  0  0  0  0
    4.0438    1.0111   -1.7454 N   0  0  0  0  0  0  0  0  0  0  0  0
    3.1864    1.2320   -2.2258 H   0  0  0  0  0  0  0  0  0  0  0  0
    5.2482    0.8037   -2.5467 C   0  0  0  0  0  0  0  0  0  0  0  0
    5.9936    1.5599   -2.2914 H   0  0  0  0  0  0  0  0  0  0  0  0
    5.6684   -0.1811   -2.3341 H   0  0  0  0  0  0  0  0  0  0  0  0
    5.0133    0.8733   -3.6095 H   0  0  0  0  0  0  0  0  0  0  0  0
    0.2673    8.2173   -4.7523 H   0  0  0  0  0  0  0  0  0  0  0  0
    0.7646    8.1291   -3.7876 C   0  0  0  0  0  0  0  0  0  0  0  0
    0.7802    9.0987   -3.2923 H   0  0  0  0  0  0  0  0  0  0  0  0
    1.7824    7.7719   -3.9325 H   0  0  0  0  0  0  0  0  0  0  0  0
    0.0048    7.1422   -2.9326 C   0  0  0  0  0  0  0  0  0  0  0  0
   -0.9912    6.5830   -3.3711 O   0  0  0  0  0  0  0  0  0  0  0  0
    0.4837    6.9233   -1.7109 N   0  0  0  0  0  0  0  0  0  0  0  0
    1.3051    7.4285   -1.4118 H   0  0  0  0  0  0  0  0  0  0  0  0
   -0.1076    6.0016   -0.7408 C   0  0  1  0  0  0  0  0  0  0  0  0
   -1.1948    6.0432   -0.8274 H   0  0  0  0  0  0  0  0  0  0  0  0
    0.3508    4.5800   -1.0949 C   0  0  0  0  0  0  0  0  0  0  0  0
    0.0335    4.3782   -2.1190 H   0  0  0  0  0  0  0  0  0  0  0  0
    1.4404    4.5477   -1.0837 H   0  0  0  0  0  0  0  0  0  0  0  0
   -0.2767    3.2209   -0.0721 S   0  0  0  0  0  0  0  0  0  0  0  0
    0.2755    6.4101    0.6927 C   0  0  0  0  0  0  0  0  0  0  0  0
    1.3526    6.9685    0.9056 O   0  0  0  0  0  0  0  0  0  0  0  0
   -0.6038    6.1411    1.6664 N   0  0  0  0  0  0  0  0  0  0  0  0
   -1.4480    5.6516    1.4150 H   0  0  0  0  0  0  0  0  0  0  0  0
   -0.3894    6.4553    3.0784 C   0  0  0  0  0  0  0  0  0  0  0  0
    0.3349    5.7590    3.5044 H   0  0  0  0  0  0  0  0  0  0  0  0
    0.0017    7.4704    3.1800 H   0  0  0  0  0  0  0  0  0  0  0  0
   -1.3276    6.3785    3.6282 H   0  0  0  0  0  0  0  0  0  0  0  0
  5  6  2  0  0  0  0
  5  7  1  0  0  0  0
  2  3  1  0  0  0  0
  2  4  1  0  0  0  0
  2  5  1  0  0  0  0
  1  2  1  0  0  0  0
 15 16  2  0  0  0  0
 15 17  1  0  0  0  0
 14 36  1  0  0  0  0
 11 12  1  0  0  0  0
 11 13  1  0  0  0  0
 11 14  1  0  0  0  0
  9 10  1  0  0  0  0
  9 11  1  0  0  0  0
  9 15  1  0  0  0  0
  7  8  1  0  0  0  0
  7  9  1  0  0  0  0
 19 20  1  0  0  0  0
 19 21  1  0  0  0  0
 19 22  1  0  0  0  0
 17 18  1  0  0  0  0
 17 19  1  0  0  0  0
 27 28  2  0  0  0  0
 27 29  1  0  0  0  0
 24 25  1  0  0  0  0
 24 26  1  0  0  0  0
 24 27  1  0  0  0  0
 23 24  1  0  0  0  0
 37 38  2  0  0  0  0
 37 39  1  0  0  0  0
 33 34  1  0  0  0  0
 33 35  1  0  0  0  0
 33 36  1  0  0  0  0
 31 32  1  0  0  0  0
 31 33  1  0  0  0  0
 31 37  1  0  0  0  0
 29 30  1  0  0  0  0
 29 31  1  0  0  0  0
 41 42  1  0  0  0  0
 41 43  1  0  0  0  0
 41 44  1  0  0  0  0
 39 40  1  0  0  0  0
 39 41  1  0  0  0  0
M  END
$$$$
default_name
  -OEChem-01062215323D

 44 43  0     1  0  0  0  0  0999 V2000
    2.4488   -3.0448    2.0990 H   0  0  0  0  0  0  0  0  0  0  0  0
    2.2788   -2.0018    2.3640 C   0  0  0  0  0  0  0  0  0  0  0  0
    2.9228   -1.7258    3.1960 H   0  0  0  0  0  0  0  0  0  0  0  0
    1.2358   -1.8618    2.6430 H   0  0  0  0  0  0  0  0  0  0  0  0
    2.6018   -1.1318    1.1730 C   0  0  0  0  0  0  0  0  0  0  0  0
    3.0048   -1.6348    0.1320 O   0  0  0  0  0  0  0  0  0  0  0  0
    2.4088    0.1752    1.3190 N   0  0  0  0  0  0  0  0  0  0  0  0
    2.0708    0.5242    2.2050 H   0  0  0  0  0  0  0  0  0  0  0  0
    2.6638    1.1782    0.2840 C   0  0  1  0  0  0  0  0  0  0  0  0
    1.8819    1.0918   -0.4724 H   0  0  0  0  0  0  0  0  0  0  0  0
    2.5820    2.5873    0.8967 C   0  0  0  0  0  0  0  0  0  0  0  0
    2.9301    3.3113    0.1589 H   0  0  0  0  0  0  0  0  0  0  0  0
    3.2869    2.6312    1.7265 H   0  0  0  0  0  0  0  0  0  0  0  0
    0.9753    3.1434    1.5387 S   0  0  0  0  0  0  0  0  0  0  0  0
    4.0168    0.9288   -0.4085 C   0  0  0  0  0  0  0  0  0  0  0  0
    4.9439    0.3987    0.2036 O   0  0  0  0  0  0  0  0  0  0  0  0
    4.1268    1.3057   -1.6893 N   0  0  0  0  0  0  0  0  0  0  0  0
    3.3273    1.7313   -2.1304 H   0  0  0  0  0  0  0  0  0  0  0  0
    5.3431    1.1394   -2.4822 C   0  0  0  0  0  0  0  0  0  0  0  0
    6.1529    1.7228   -2.0389 H   0  0  0  0  0  0  0  0  0  0  0  0
    5.6384    0.0886   -2.4899 H   0  0  0  0  0  0  0  0  0  0  0  0
    5.1766    1.4743   -3.5069 H   0  0  0  0  0  0  0  0  0  0  0  0
    0.2673    8.2173   -4.7523 H   0  0  0  0  0  0  0  0  0  0  0  0
    0.7646    8.1291   -3.7876 C   0  0  0  0  0  0  0  0  0  0  0  0
    0.7802    9.0987   -3.2923 H   0  0  0  0  0  0  0  0  0  0  0  0
    1.7824    7.7719   -3.9325 H   0  0  0  0  0  0  0  0  0  0  0  0
    0.0048    7.1422   -2.9326 C   0  0  0  0  0  0  0  0  0  0  0  0
   -0.9912    6.5830   -3.3711 O   0  0  0  0  0  0  0  0  0  0  0  0
    0.4837    6.9233   -1.7109 N   0  0  0  0  0  0  0  0  0  0  0  0
    1.3051    7.4285   -1.4118 H   0  0  0  0  0  0  0  0  0  0  0  0
   -0.1076    6.0016   -0.7408 C   0  0  1  0  0  0  0  0  0  0  0  0
   -1.1948    6.0432   -0.8274 H   0  0  0  0  0  0  0  0  0  0  0  0
    0.3508    4.5800   -1.0949 C   0  0  0  0  0  0  0  0  0  0  0  0
    0.0335    4.3782   -2.1190 H   0  0  0  0  0  0  0  0  0  0  0  0
    1.4404    4.5477   -1.0837 H   0  0  0  0  0  0  0  0  0  0  0  0
   -0.2767    3.2209   -0.0721 S   0  0  0  0  0  0  0  0  0  0  0  0
    0.2755    6.4101    0.6927 C   0  0  0  0  0  0  0  0  0  0  0  0
    1.3526    6.9685    0.9056 O   0  0  0  0  0  0  0  0  0  0  0  0
   -0.6038    6.1411    1.6664 N   0  0  0  0  0  0  0  0  0  0  0  0
   -1.4480    5.6516    1.4150 H   0  0  0  0  0  0  0  0  0  0  0  0
   -0.3894    6.4553    3.0784 C   0  0  0  0  0  0  0  0  0  0  0  0
    0.3349    5.7590    3.5044 H   0  0  0  0  0  0  0  0  0  0  0  0
    0.0017    7.4704    3.1800 H   0  0  0  0  0  0  0  0  0  0  0  0
   -1.3276    6.3785    3.6282 H   0  0  0  0  0  0  0  0  0  0  0  0
  5  6  2  0  0  0  0
  5  7  1  0  0  0  0
  2  3  1  0  0  0  0
  2  4  1  0  0  0  0
  2  5  1  0  0  0  0
  1  2  1  0  0  0  0
 15 16  2  0  0  0  0
 15 17  1  0  0  0  0
 14 36  1  0  0  0  0
 11 12  1  0  0  0  0
 11 13  1  0  0  0  0
 11 14  1  0  0  0  0
  9 10  1  0  0  0  0
  9 11  1  0  0  0  0
  9 15  1  0  0  0  0
  7  8  1  0  0  0  0
  7  9  1  0  0  0  0
 19 20  1  0  0  0  0
 19 21  1  0  0  0  0
 19 22  1  0  0  0  0
 17 18  1  0  0  0  0
 17 19  1  0  0  0  0
 27 28  2  0  0  0  0
 27 29  1  0  0  0  0
 24 25  1  0  0  0  0
 24 26  1  0  0  0  0
 24 27  1  0  0  0  0
 23 24  1  0  0  0  0
 37 38  2  0  0  0  0
 37 39  1  0  0  0  0
 33 34  1  0  0  0  0
 33 35  1  0  0  0  0
 33 36  1  0  0  0  0
 31 32  1  0  0  0  0
 31 33  1  0  0  0  0
 31 37  1  0  0  0  0
 29 30  1  0  0  0  0
 29 31  1  0  0  0  0
 41 42  1  0  0  0  0
 41 43  1  0  0  0  0
 41 44  1  0  0  0  0
 39 40  1  0  0  0  0
 39 41  1  0  0  0  0
M  END
$$$$
default_name
  -OEChem-01062215323D

 44 43  0     1  0  0  0  0  0999 V2000
    2.4488   -3.0448    2.0990 H   0  0  0  0  0  0  0  0  0  0  0  0
    2.2788   -2.0018    2.3640 C   0  0  0  0  0  0  0  0  0  0  0  0
    2.9228   -1.7258    3.1960 H   0  0  0  0  0  0  0  0  0  0  0  0
    1.2358   -1.8618    2.6430 H   0  0  0  0  0  0  0  0  0  0  0  0
    2.6018   -1.1318    1.1730 C   0  0  0  0  0  0  0  0  0  0  0  0
    3.0048   -1.6348    0.1320 O   0  0  0  0  0  0  0  0  0  0  0  0
    2.4088    0.1752    1.3190 N   0  0  0  0  0  0  0  0  0  0  0  0
    2.0708    0.5242    2.2050 H   0  0  0  0  0  0  0  0  0  0  0  0
    2.6638    1.1782    0.2840 C   0  0  1  0  0  0  0  0  0  0  0  0
    1.8819    1.0918   -0.4724 H   0  0  0  0  0  0  0  0  0  0  0  0
    2.5820    2.5873    0.8967 C   0  0  0  0  0  0  0  0  0  0  0  0
    2.9301    3.3113    0.1589 H   0  0  0  0  0  0  0  0  0  0  0  0
    3.2869    2.6312    1.7265 H   0  0  0  0  0  0  0  0  0  0  0  0
    0.9753    3.1434    1.5387 S   0  0  0  0  0  0  0  0  0  0  0  0
    4.0168    0.9288   -0.4085 C   0  0  0  0  0  0  0  0  0  0  0  0
    4.8437    0.1663    0.0915 O   0  0  0  0  0  0  0  0  0  0  0  0
    4.2389    1.5679   -1.5647 N   0  0  0  0  0  0  0  0  0  0  0  0
    3.5175    2.1754   -1.9187 H   0  0  0  0  0  0  0  0  0  0  0  0
    5.4711    1.4380   -2.3397 C   0  0  0  0  0  0  0  0  0  0  0  0
    6.3151    1.8043   -1.7513 H   0  0  0  0  0  0  0  0  0  0  0  0
    5.6473    0.3880   -2.5802 H   0  0  0  0  0  0  0  0  0  0  0  0
    5.3999    2.0124   -3.2642 H   0  0  0  0  0  0  0  0  0  0  0  0
    0.2673    8.2173   -4.7523 H   0  0  0  0  0  0  0  0  0  0  0  0
    0.7646    8.1291   -3.7876 C   0  0  0  0  0  0  0  0  0  0  0  0
    0.7802    9.0987   -3.2923 H   0  0  0  0  0  0  0  0  0  0  0  0
    1.7824    7.7719   -3.9325 H   0  0  0  0  0  0  0  0  0  0  0  0
    0.0048    7.1422   -2.9326 C   0  0  0  0  0  0  0  0  0  0  0  0
   -0.9912    6.5830   -3.3711 O   0  0  0  0  0  0  0  0  0  0  0  0
    0.4837    6.9233   -1.7109 N   0  0  0  0  0  0  0  0  0  0  0  0
    1.3051    7.4285   -1.4118 H   0  0  0  0  0  0  0  0  0  0  0  0
   -0.1076    6.0016   -0.7408 C   0  0  1  0  0  0  0  0  0  0  0  0
   -1.1948    6.0432   -0.8274 H   0  0  0  0  0  0  0  0  0  0  0  0
    0.3508    4.5800   -1.0949 C   0  0  0  0  0  0  0  0  0  0  0  0
    0.0335    4.3782   -2.1190 H   0  0  0  0  0  0  0  0  0  0  0  0
    1.4404    4.5477   -1.0837 H   0  0  0  0  0  0  0  0  0  0  0  0
   -0.2767    3.2209   -0.0721 S   0  0  0  0  0  0  0  0  0  0  0  0
    0.2755    6.4101    0.6927 C   0  0  0  0  0  0  0  0  0  0  0  0
    1.3526    6.9685    0.9056 O   0  0  0  0  0  0  0  0  0  0  0  0
   -0.6038    6.1411    1.6664 N   0  0  0  0  0  0  0  0  0  0  0  0
   -1.4480    5.6516    1.4150 H   0  0  0  0  0  0  0  0  0  0  0  0
   -0.3894    6.4553    3.0784 C   0  0  0  0  0  0  0  0  0  0  0  0
    0.3349    5.7590    3.5044 H   0  0  0  0  0  0  0  0  0  0  0  0
    0.0017    7.4704    3.1800 H   0  0  0  0  0  0  0  0  0  0  0  0
   -1.3276    6.3785    3.6282 H   0  0  0  0  0  0  0  0  0  0  0  0
  5  6  2  0  0  0  0
  5  7  1  0  0  0  0
  2  3  1  0  0  0  0
  2  4  1  0  0  0  0
  2  5  1  0  0  0  0
  1  2  1  0  0  0  0
 15 16  2  0  0  0  0
 15 17  1  0  0  0  0
 14 36  1  0  0  0  0
 11 12  1  0  0  0  0
 11 13  1  0  0  0  0
 11 14  1  0  0  0  0
  9 10  1  0  0  0  0
  9 11  1  0  0  0  0
  9 15  1  0  0  0  0
  7  8  1  0  0  0  0
  7  9  1  0  0  0  0
 19 20  1  0  0  0  0
 19 21  1  0  0  0  0
 19 22  1  0  0  0  0
 17 18  1  0  0  0  0
 17 19  1  0  0  0  0
 27 28  2  0  0  0  0
 27 29  1  0  0  0  0
 24 25  1  0  0  0  0
 24 26  1  0  0  0  0
 24 27  1  0  0  0  0
 23 24  1  0  0  0  0
 37 38  2  0  0  0  0
 37 39  1  0  0  0  0
 33 34  1  0  0  0  0
 33 35  1  0  0  0  0
 33 36  1  0  0  0  0
 31 32  1  0  0  0  0
 31 33  1  0  0  0  0
 31 37  1  0  0  0  0
 29 30  1  0  0  0  0
 29 31  1  0  0  0  0
 41 42  1  0  0  0  0
 41 43  1  0  0  0  0
 41 44  1  0  0  0  0
 39 40  1  0  0  0  0
 39 41  1  0  0  0  0
M  END
$$$$
default_name
  -OEChem-01062215323D

 44 43  0     1  0  0  0  0  0999 V2000
    2.4488   -3.0448    2.0990 H   0  0  0  0  0  0  0  0  0  0  0  0
    2.2788   -2.0018    2.3640 C   0  0  0  0  0  0  0  0  0  0  0  0
    2.9228   -1.7258    3.1960 H   0  0  0  0  0  0  0  0  0  0  0  0
    1.2358   -1.8618    2.6430 H   0  0  0  0  0  0  0  0  0  0  0  0
    2.6018   -1.1318    1.1730 C   0  0  0  0  0  0  0  0  0  0  0  0
    3.0048   -1.6348    0.1320 O   0  0  0  0  0  0  0  0  0  0  0  0
    2.4088    0.1752    1.3190 N   0  0  0  0  0  0  0  0  0  0  0  0
    2.0708    0.5242    2.2050 H   0  0  0  0  0  0  0  0  0  0  0  0
    2.6638    1.1782    0.2840 C   0  0  1  0  0  0  0  0  0  0  0  0
    1.7606    1.2799   -0.3200 H   0  0  0  0  0  0  0  0  0  0  0  0
    2.9544    2.5387    0.9413 C   0  0  0  0  0  0  0  0  0  0  0  0
    3.2987    3.2328    0.1737 H   0  0  0  0  0  0  0  0  0  0  0  0
    3.7879    2.4046    1.6303 H   0  0  0  0  0  0  0  0  0  0  0  0
    1.6161    3.3327    1.8801 S   0  0  0  0  0  0  0  0  0  0  0  0
    3.8055    0.7338   -0.6494 C   0  0  0  0  0  0  0  0  0  0  0  0
    4.3702   -0.3462   -0.4761 O   0  0  0  0  0  0  0  0  0  0  0  0
    4.1404    1.5657   -1.6447 N   0  0  0  0  0  0  0  0  0  0  0  0
    3.6349    2.4327   -1.7305 H   0  0  0  0  0  0  0  0  0  0  0  0
    5.2017    1.2891   -2.6107 C   0  0  0  0  0  0  0  0  0  0  0  0
    6.1596    1.2131   -2.0918 H   0  0  0  0  0  0  0  0  0  0  0  0
    5.0052    0.3406   -3.1140 H   0  0  0  0  0  0  0  0  0  0  0  0
    5.2560    2.0864   -3.3531 H   0  0  0  0  0  0  0  0  0  0  0  0
    0.7913    8.8292   -4.0302 H   0  0  0  0  0  0  0  0  0  0  0  0
    1.4228    8.5941   -3.1747 C   0  0  0  0  0  0  0  0  0  0  0  0
    1.7050    9.5129   -2.6630 H   0  0  0  0  0  0  0  0  0  0  0  0
    2.3150    8.0702   -3.5122 H   0  0  0  0  0  0  0  0  0  0  0  0
    0.6514    7.7084   -2.2246 C   0  0  0  0  0  0  0  0  0  0  0  0
   -0.4922    7.3646   -2.4908 O   0  0  0  0  0  0  0  0  0  0  0  0
    1.2851    7.3325   -1.1169 N   0  0  0  0  0  0  0  0  0  0  0  0
    2.2257    7.6632   -0.9576 H   0  0  0  0  0  0  0  0  0  0  0  0
    0.7090    6.4735   -0.0823 C   0  0  1  0  0  0  0  0  0  0  0  0
   -0.3495    6.7142    0.0311 H   0  0  0  0  0  0  0  0  0  0  0  0
    0.8249    5.0173   -0.5542 C   0  0  0  0  0  0  0  0  0  0  0  0
    0.3030    4.9390   -1.5090 H   0  0  0  0  0  0  0  0  0  0  0  0
    1.8745    4.7900   -0.7420 H   0  0  0  0  0  0  0  0  0  0  0  0
    0.1410    3.7321    0.5263 S   0  0  0  0  0  0  0  0  0  0  0  0
    1.4040    6.7177    1.2689 C   0  0  0  0  0  0  0  0  0  0  0  0
    2.5869    7.0602    1.2986 O   0  0  0  0  0  0  0  0  0  0  0  0
    0.6720    6.5509    2.3779 N   0  0  0  0  0  0  0  0  0  0  0  0
   -0.2794    6.2369    2.2701 H   0  0  0  0  0  0  0  0  0  0  0  0
    1.1826    6.7341    3.7359 C   0  0  0  0  0  0  0  0  0  0  0  0
    1.8266    5.8946    4.0032 H   0  0  0  0  0  0  0  0  0  0  0  0
    1.7683    7.6547    3.7939 H   0  0  0  0  0  0  0  0  0  0  0  0
    0.3563    6.7927    4.4445 H   0  0  0  0  0  0  0  0  0  0  0  0
  5  6  2  0  0  0  0
  5  7  1  0  0  0  0
  2  3  1  0  0  0  0
  2  4  1  0  0  0  0
  2  5  1  0  0  0  0
  1  2  1  0  0  0  0
 15 16  2  0  0  0  0
 15 17  1  0  0  0  0
 14 36  1  0  0  0  0
 11 12  1  0  0  0  0
 11 13  1  0  0  0  0
 11 14  1  0  0  0  0
  9 10  1  0  0  0  0
  9 11  1  0  0  0  0
  9 15  1  0  0  0  0
  7  8  1  0  0  0  0
  7  9  1  0  0  0  0
 19 20  1  0  0  0  0
 19 21  1  0  0  0  0
 19 22  1  0  0  0  0
 17 18  1  0  0  0  0
 17 19  1  0  0  0  0
 27 28  2  0  0  0  0
 27 29  1  0  0  0  0
 24 25  1  0  0  0  0
 24 26  1  0  0  0  0
 24 27  1  0  0  0  0
 23 24  1  0  0  0  0
 37 38  2  0  0  0  0
 37 39  1  0  0  0  0
 33 34  1  0  0  0  0
 33 35  1  0  0  0  0
 33 36  1  0  0  0  0
 31 32  1  0  0  0  0
 31 33  1  0  0  0  0
 31 37  1  0  0  0  0
 29 30  1  0  0  0  0
 29 31  1  0  0  0  0
 41 42  1  0  0  0  0
 41 43  1  0  0  0  0
 41 44  1  0  0  0  0
 39 40  1  0  0  0  0
 39 41  1  0  0  0  0
M  END
$$$$
default_name
  -OEChem-01062215323D

 44 43  0     1  0  0  0  0  0999 V2000
    2.4488   -3.0448    2.0990 H   0  0  0  0  0  0  0  0  0  0  0  0
    2.2788   -2.0018    2.3640 C   0  0  0  0  0  0  0  0  0  0  0  0
    2.9228   -1.7258    3.1960 H   0  0  0  0  0  0  0  0  0  0  0  0
    1.2358   -1.8618    2.6430 H   0  0  0  0  0  0  0  0  0  0  0  0
    2.6018   -1.1318    1.1730 C   0  0  0  0  0  0  0  0  0  0  0  0
    3.0048   -1.6348    0.1320 O   0  0  0  0  0  0  0  0  0  0  0  0
    2.4088    0.1752    1.3190 N   0  0  0  0  0  0  0  0  0  0  0  0
    2.0708    0.5242    2.2050 H   0  0  0  0  0  0  0  0  0  0  0  0
    2.6638    1.1782    0.2840 C   0  0  1  0  0  0  0  0  0  0  0  0
    1.7606    1.2799   -0.3200 H   0  0  0  0  0  0  0  0  0  0  0  0
    2.9544    2.5387    0.9413 C   0  0  0  0  0  0  0  0  0  0  0  0
    3.2987    3.2328    0.1737 H   0  0  0  0  0  0  0  0  0  0  0  0
    3.7879    2.4046    1.6303 H   0  0  0  0  0  0  0  0  0  0  0  0
    1.6161    3.3327    1.8801 S   0  0  0  0  0  0  0  0  0  0  0  0
    3.8055    0.7338   -0.6494 C   0  0  0  0  0  0  0  0  0  0  0  0
    4.1844   -0.4373   -0.6600 O   0  0  0  0  0  0  0  0  0  0  0  0
    4.3492    1.6698   -1.4388 N   0  0  0  0  0  0  0  0  0  0  0  0
    3.9889    2.6087   -1.3813 H   0  0  0  0  0  0  0  0  0  0  0  0
    5.4397    1.4072   -2.3757 C   0  0  0  0  0  0  0  0  0  0  0  0
    6.3249    1.0799   -1.8261 H   0  0  0  0  0  0  0  0  0  0  0  0
    5.1497    0.6142   -3.0674 H   0  0  0  0  0  0  0  0  0  0  0  0
    5.6793    2.3086   -2.9411 H   0  0  0  0  0  0  0  0  0  0  0  0
    0.7913    8.8292   -4.0302 H   0  0  0  0  0  0  0  0  0  0  0  0
    1.4228    8.5941   -3.1747 C   0  0  0  0  0  0  0  0  0  0  0  0
    1.7050    9.5129   -2.6630 H   0  0  0  0  0  0  0  0  0  0  0  0
    2.3150    8.0702   -3.5122 H   0  0  0  0  0  0  0  0  0  0  0  0
    0.6514    7.7084   -2.2246 C   0  0  0  0  0  0  0  0  0  0  0  0
   -0.4922    7.3646   -2.4908 O   0  0  0  0  0  0  0  0  0  0  0  0
    1.2851    7.3325   -1.1169 N   0  0  0  0  0  0  0  0  0  0  0  0
    2.2257    7.6632   -0.9576 H   0  0  0  0  0  0  0  0  0  0  0  0
    0.7090    6.4735   -0.0823 C   0  0  1  0  0  0  0  0  0  0  0  0
   -0.3495    6.7142    0.0311 H   0  0  0  0  0  0  0  0  0  0  0  0
    0.8249    5.0173   -0.5542 C   0  0  0  0  0  0  0  0  0  0  0  0
    0.3030    4.9390   -1.5090 H   0  0  0  0  0  0  0  0  0  0  0  0
    1.8745    4.7900   -0.7420 H   0  0  0  0  0  0  0  0  0  0  0  0
    0.1410    3.7321    0.5263 S   0  0  0  0  0  0  0  0  0  0  0  0
    1.4040    6.7177    1.2689 C   0  0  0  0  0  0  0  0  0  0  0  0
    2.5869    7.0602    1.2986 O   0  0  0  0  0  0  0  0  0  0  0  0
    0.6720    6.5509    2.3779 N   0  0  0  0  0  0  0  0  0  0  0  0
   -0.2794    6.2369    2.2701 H   0  0  0  0  0  0  0  0  0  0  0  0
    1.1826    6.7341    3.7359 C   0  0  0  0  0  0  0  0  0  0  0  0
    1.8266    5.8946    4.0032 H   0  0  0  0  0  0  0  0  0  0  0  0
    1.7683    7.6547    3.7939 H   0  0  0  0  0  0  0  0  0  0  0  0
    0.3563    6.7927    4.4445 H   0  0  0  0  0  0  0  0  0  0  0  0
  5  6  2  0  0  0  0
  5  7  1  0  0  0  0
  2  3  1  0  0  0  0
  2  4  1  0  0  0  0
  2  5  1  0  0  0  0
  1  2  1  0  0  0  0
 15 16  2  0  0  0  0
 15 17  1  0  0  0  0
 14 36  1  0  0  0  0
 11 12  1  0  0  0  0
 11 13  1  0  0  0  0
 11 14  1  0  0  0  0
  9 10  1  0  0  0  0
  9 11  1  0  0  0  0
  9 15  1  0  0  0  0
  7  8  1  0  0  0  0
  7  9  1  0  0  0  0
 19 20  1  0  0  0  0
 19 21  1  0  0  0  0
 19 22  1  0  0  0  0
 17 18  1  0  0  0  0
 17 19  1  0  0  0  0
 27 28  2  0  0  0  0
 27 29  1  0  0  0  0
 24 25  1  0  0  0  0
 24 26  1  0  0  0  0
 24 27  1  0  0  0  0
 23 24  1  0  0  0  0
 37 38  2  0  0  0  0
 37 39  1  0  0  0  0
 33 34  1  0  0  0  0
 33 35  1  0  0  0  0
 33 36  1  0  0  0  0
 31 32  1  0  0  0  0
 31 33  1  0  0  0  0
 31 37  1  0  0  0  0
 29 30  1  0  0  0  0
 29 31  1  0  0  0  0
 41 42  1  0  0  0  0
 41 43  1  0  0  0  0
 41 44  1  0  0  0  0
 39 40  1  0  0  0  0
 39 41  1  0  0  0  0
M  END
$$$$
default_name
  -OEChem-01062215323D

 44 43  0     1  0  0  0  0  0999 V2000
    2.4488   -3.0448    2.0990 H   0  0  0  0  0  0  0  0  0  0  0  0
    2.2788   -2.0018    2.3640 C   0  0  0  0  0  0  0  0  0  0  0  0
    2.9228   -1.7258    3.1960 H   0  0  0  0  0  0  0  0  0  0  0  0
    1.2358   -1.8618    2.6430 H   0  0  0  0  0  0  0  0  0  0  0  0
    2.6018   -1.1318    1.1730 C   0  0  0  0  0  0  0  0  0  0  0  0
    3.0048   -1.6348    0.1320 O   0  0  0  0  0  0  0  0  0  0  0  0
    2.4088    0.1752    1.3190 N   0  0  0  0  0  0  0  0  0  0  0  0
    2.0708    0.5242    2.2050 H   0  0  0  0  0  0  0  0  0  0  0  0
    2.6638    1.1782    0.2840 C   0  0  1  0  0  0  0  0  0  0  0  0
    1.7606    1.2799   -0.3200 H   0  0  0  0  0  0  0  0  0  0  0  0
    2.9544    2.5387    0.9413 C   0  0  0  0  0  0  0  0  0  0  0  0
    3.2987    3.2328    0.1737 H   0  0  0  0  0  0  0  0  0  0  0  0
    3.7879    2.4046    1.6303 H   0  0  0  0  0  0  0  0  0  0  0  0
    1.6161    3.3327    1.8801 S   0  0  0  0  0  0  0  0  0  0  0  0
    3.8055    0.7338   -0.6494 C   0  0  0  0  0  0  0  0  0  0  0  0
    4.0044   -0.4610   -0.8689 O   0  0  0  0  0  0  0  0  0  0  0  0
    4.5519    1.6980   -1.2044 N   0  0  0  0  0  0  0  0  0  0  0  0
    4.3323    2.6560   -0.9837 H   0  0  0  0  0  0  0  0  0  0  0  0
    5.6707    1.4388   -2.1082 C   0  0  0  0  0  0  0  0  0  0  0  0
    6.4439    0.8743   -1.5827 H   0  0  0  0  0  0  0  0  0  0  0  0
    5.3288    0.8468   -2.9591 H   0  0  0  0  0  0  0  0  0  0  0  0
    6.0922    2.3779   -2.4689 H   0  0  0  0  0  0  0  0  0  0  0  0
    0.7913    8.8292   -4.0302 H   0  0  0  0  0  0  0  0  0  0  0  0
    1.4228    8.5941   -3.1747 C   0  0  0  0  0  0  0  0  0  0  0  0
    1.7050    9.5129   -2.6630 H   0  0  0  0  0  0  0  0  0  0  0  0
    2.3150    8.0702   -3.5122 H   0  0  0  0  0  0  0  0  0  0  0  0
    0.6514    7.7084   -2.2246 C   0  0  0  0  0  0  0  0  0  0  0  0
   -0.4922    7.3646   -2.4908 O   0  0  0  0  0  0  0  0  0  0  0  0
    1.2851    7.3325   -1.1169 N   0  0  0  0  0  0  0  0  0  0  0  0
    2.2257    7.6632   -0.9576 H   0  0  0  0  0  0  0  0  0  0  0  0
    0.7090    6.4735   -0.0823 C   0  0  1  0  0  0  0  0  0  0  0  0
   -0.3495    6.7142    0.0311 H   0  0  0  0  0  0  0  0  0  0  0  0
    0.8249    5.0173   -0.5542 C   0  0  0  0  0  0  0  0  0  0  0  0
    0.3030    4.9390   -1.5090 H   0  0  0  0  0  0  0  0  0  0  0  0
    1.8745    4.7900   -0.7420 H   0  0  0  0  0  0  0  0  0  0  0  0
    0.1410    3.7321    0.5263 S   0  0  0  0  0  0  0  0  0  0  0  0
    1.4040    6.7177    1.2689 C   0  0  0  0  0  0  0  0  0  0  0  0
    2.5869    7.0602    1.2986 O   0  0  0  0  0  0  0  0  0  0  0  0
    0.6720    6.5509    2.3779 N   0  0  0  0  0  0  0  0  0  0  0  0
   -0.2794    6.2369    2.2701 H   0  0  0  0  0  0  0  0  0  0  0  0
    1.1826    6.7341    3.7359 C   0  0  0  0  0  0  0  0  0  0  0  0
    1.8266    5.8946    4.0032 H   0  0  0  0  0  0  0  0  0  0  0  0
    1.7683    7.6547    3.7939 H   0  0  0  0  0  0  0  0  0  0  0  0
    0.3563    6.7927    4.4445 H   0  0  0  0  0  0  0  0  0  0  0  0
  5  6  2  0  0  0  0
  5  7  1  0  0  0  0
  2  3  1  0  0  0  0
  2  4  1  0  0  0  0
  2  5  1  0  0  0  0
  1  2  1  0  0  0  0
 15 16  2  0  0  0  0
 15 17  1  0  0  0  0
 14 36  1  0  0  0  0
 11 12  1  0  0  0  0
 11 13  1  0  0  0  0
 11 14  1  0  0  0  0
  9 10  1  0  0  0  0
  9 11  1  0  0  0  0
  9 15  1  0  0  0  0
  7  8  1  0  0  0  0
  7  9  1  0  0  0  0
 19 20  1  0  0  0  0
 19 21  1  0  0  0  0
 19 22  1  0  0  0  0
 17 18  1  0  0  0  0
 17 19  1  0  0  0  0
 27 28  2  0  0  0  0
 27 29  1  0  0  0  0
 24 25  1  0  0  0  0
 24 26  1  0  0  0  0
 24 27  1  0  0  0  0
 23 24  1  0  0  0  0
 37 38  2  0  0  0  0
 37 39  1  0  0  0  0
 33 34  1  0  0  0  0
 33 35  1  0  0  0  0
 33 36  1  0  0  0  0
 31 32  1  0  0  0  0
 31 33  1  0  0  0  0
 31 37  1  0  0  0  0
 29 30  1  0  0  0  0
 29 31  1  0  0  0  0
 41 42  1  0  0  0  0
 41 43  1  0  0  0  0
 41 44  1  0  0  0  0
 39 40  1  0  0  0  0
 39 41  1  0  0  0  0
M  END
$$$$
default_name
  -OEChem-01062215323D

 44 43  0     1  0  0  0  0  0999 V2000
    2.4488   -3.0448    2.0990 H   0  0  0  0  0  0  0  0  0  0  0  0
    2.2788   -2.0018    2.3640 C   0  0  0  0  0  0  0  0  0  0  0  0
    2.9228   -1.7258    3.1960 H   0  0  0  0  0  0  0  0  0  0  0  0
    1.2358   -1.8618    2.6430 H   0  0  0  0  0  0  0  0  0  0  0  0
    2.6018   -1.1318    1.1730 C   0  0  0  0  0  0  0  0  0  0  0  0
    3.0048   -1.6348    0.1320 O   0  0  0  0  0  0  0  0  0  0  0  0
    2.4088    0.1752    1.3190 N   0  0  0  0  0  0  0  0  0  0  0  0
    2.0708    0.5242    2.2050 H   0  0  0  0  0  0  0  0  0  0  0  0
    2.6638    1.1782    0.2840 C   0  0  1  0  0  0  0  0  0  0  0  0
    1.7606    1.2799   -0.3200 H   0  0  0  0  0  0  0  0  0  0  0  0
    2.9544    2.5387    0.9413 C   0  0  0  0  0  0  0  0  0  0  0  0
    3.2987    3.2328    0.1737 H   0  0  0  0  0  0  0  0  0  0  0  0
    3.7879    2.4046    1.6303 H   0  0  0  0  0  0  0  0  0  0  0  0
    1.6161    3.3327    1.8801 S   0  0  0  0  0  0  0  0  0  0  0  0
    3.8055    0.7338   -0.6494 C   0  0  0  0  0  0  0  0  0  0  0  0
    3.8424   -0.4155   -1.0887 O   0  0  0  0  0  0  0  0  0  0  0  0
    4.7346    1.6486   -0.9574 N   0  0  0  0  0  0  0  0  0  0  0  0
    4.6418    2.5717   -0.5650 H   0  0  0  0  0  0  0  0  0  0  0  0
    5.8788    1.3818   -1.8266 C   0  0  0  0  0  0  0  0  0  0  0  0
    6.5084    0.6104   -1.3782 H   0  0  0  0  0  0  0  0  0  0  0  0
    5.5301    1.0226   -2.7966 H   0  0  0  0  0  0  0  0  0  0  0  0
    6.4668    2.2895   -1.9687 H   0  0  0  0  0  0  0  0  0  0  0  0
    0.7913    8.8292   -4.0302 H   0  0  0  0  0  0  0  0  0  0  0  0
    1.4228    8.5941   -3.1747 C   0  0  0  0  0  0  0  0  0  0  0  0
    1.7050    9.5129   -2.6630 H   0  0  0  0  0  0  0  0  0  0  0  0
    2.3150    8.0702   -3.5122 H   0  0  0  0  0  0  0  0  0  0  0  0
    0.6514    7.7084   -2.2246 C   0  0  0  0  0  0  0  0  0  0  0  0
   -0.4922    7.3646   -2.4908 O   0  0  0  0  0  0  0  0  0  0  0  0
    1.2851    7.3325   -1.1169 N   0  0  0  0  0  0  0  0  0  0  0  0
    2.2257    7.6632   -0.9576 H   0  0  0  0  0  0  0  0  0  0  0  0
    0.7090    6.4735   -0.0823 C   0  0  1  0  0  0  0  0  0  0  0  0
   -0.3495    6.7142    0.0311 H   0  0  0  0  0  0  0  0  0  0  0  0
    0.8249    5.0173   -0.5542 C   0  0  0  0  0  0  0  0  0  0  0  0
    0.3030    4.9390   -1.5090 H   0  0  0  0  0  0  0  0  0  0  0  0
    1.8745    4.7900   -0.7420 H   0  0  0  0  0  0  0  0  0  0  0  0
    0.1410    3.7321    0.5263 S   0  0  0  0  0  0  0  0  0  0  0  0
    1.4040    6.7177    1.2689 C   0  0  0  0  0  0  0  0  0  0  0  0
    2.5869    7.0602    1.2986 O   0  0  0  0  0  0  0  0  0  0  0  0
    0.6720    6.5509    2.3779 N   0  0  0  0  0  0  0  0  0  0  0  0
   -0.2794    6.2369    2.2701 H   0  0  0  0  0  0  0  0  0  0  0  0
    1.1826    6.7341    3.7359 C   0  0  0  0  0  0  0  0  0  0  0  0
    1.8266    5.8946    4.0032 H   0  0  0  0  0  0  0  0  0  0  0  0
    1.7683    7.6547    3.7939 H   0  0  0  0  0  0  0  0  0  0  0  0
    0.3563    6.7927    4.4445 H   0  0  0  0  0  0  0  0  0  0  0  0
  5  6  2  0  0  0  0
  5  7  1  0  0  0  0
  2  3  1  0  0  0  0
  2  4  1  0  0  0  0
  2  5  1  0  0  0  0
  1  2  1  0  0  0  0
 15 16  2  0  0  0  0
 15 17  1  0  0  0  0
 14 36  1  0  0  0  0
 11 12  1  0  0  0  0
 11 13  1  0  0  0  0
 11 14  1  0  0  0  0
  9 10  1  0  0  0  0
  9 11  1  0  0  0  0
  9 15  1  0  0  0  0
  7  8  1  0  0  0  0
  7  9  1  0  0  0  0
 19 20  1  0  0  0  0
 19 21  1  0  0  0  0
 19 22  1  0  0  0  0
 17 18  1  0  0  0  0
 17 19  1  0  0  0  0
 27 28  2  0  0  0  0
 27 29  1  0  0  0  0
 24 25  1  0  0  0  0
 24 26  1  0  0  0  0
 24 27  1  0  0  0  0
 23 24  1  0  0  0  0
 37 38  2  0  0  0  0
 37 39  1  0  0  0  0
 33 34  1  0  0  0  0
 33 35  1  0  0  0  0
 33 36  1  0  0  0  0
 31 32  1  0  0  0  0
 31 33  1  0  0  0  0
 31 37  1  0  0  0  0
 29 30  1  0  0  0  0
 29 31  1  0  0  0  0
 41 42  1  0  0  0  0
 41 43  1  0  0  0  0
 41 44  1  0  0  0  0
 39 40  1  0  0  0  0
 39 41  1  0  0  0  0
M  END
$$$$
default_name
  -OEChem-01062215323D

 44 43  0     1  0  0  0  0  0999 V2000
    2.4488   -3.0448    2.0990 H   0  0  0  0  0  0  0  0  0  0  0  0
    2.2788   -2.0018    2.3640 C   0  0  0  0  0  0  0  0  0  0  0  0
    2.9228   -1.7258    3.1960 H   0  0  0  0  0  0  0  0  0  0  0  0
    1.2358   -1.8618    2.6430 H   0  0  0  0  0  0  0  0  0  0  0  0
    2.6018   -1.1318    1.1730 C   0  0  0  0  0  0  0  0  0  0  0  0
    3.0048   -1.6348    0.1320 O   0  0  0  0  0  0  0  0  0  0  0  0
    2.4088    0.1752    1.3190 N   0  0  0  0  0  0  0  0  0  0  0  0
    2.0708    0.5242    2.2050 H   0  0  0  0  0  0  0  0  0  0  0  0
    2.6638    1.1782    0.2840 C   0  0  1  0  0  0  0  0  0  0  0  0
    1.7606    1.2799   -0.3200 H   0  0  0  0  0  0  0  0  0  0  0  0
    2.9544    2.5387    0.9413 C   0  0  0  0  0  0  0  0  0  0  0  0
    3.2987    3.2328    0.1737 H   0  0  0  0  0  0  0  0  0  0  0  0
    3.7879    2.4046    1.6303 H   0  0  0  0  0  0  0  0  0  0  0  0
    1.6161    3.3327    1.8801 S   0  0  0  0  0  0  0  0  0  0  0  0
    3.8055    0.7338   -0.6494 C   0  0  0  0  0  0  0  0  0  0  0  0
    3.7094   -0.3040   -1.3044 O   0  0  0  0  0  0  0  0  0  0  0  0
    4.8849    1.5248   -0.7146 N   0  0  0  0  0  0  0  0  0  0  0  0
    4.8962    2.3613   -0.1536 H   0  0  0  0  0  0  0  0  0  0  0  0
    6.0498    1.2401   -1.5499 C   0  0  0  0  0  0  0  0  0  0  0  0
    6.5140    0.3061   -1.2264 H   0  0  0  0  0  0  0  0  0  0  0  0
    5.7400    1.1297   -2.5907 H   0  0  0  0  0  0  0  0  0  0  0  0
    6.7773    2.0493   -1.4745 H   0  0  0  0  0  0  0  0  0  0  0  0
    0.7913    8.8292   -4.0302 H   0  0  0  0  0  0  0  0  0  0  0  0
    1.4228    8.5941   -3.1747 C   0  0  0  0  0  0  0  0  0  0  0  0
    1.7050    9.5129   -2.6630 H   0  0  0  0  0  0  0  0  0  0  0  0
    2.3150    8.0702   -3.5122 H   0  0  0  0  0  0  0  0  0  0  0  0
    0.6514    7.7084   -2.2246 C   0  0  0  0  0  0  0  0  0  0  0  0
   -0.4922    7.3646   -2.4908 O   0  0  0  0  0  0  0  0  0  0  0  0
    1.2851    7.3325   -1.1169 N   0  0  0  0  0  0  0  0  0  0  0  0
    2.2257    7.6632   -0.9576 H   0  0  0  0  0  0  0  0  0  0  0  0
    0.7090    6.4735   -0.0823 C   0  0  1  0  0  0  0  0  0  0  0  0
   -0.3495    6.7142    0.0311 H   0  0  0  0  0  0  0  0  0  0  0  0
    0.8249    5.0173   -0.5542 C   0  0  0  0  0  0  0  0  0  0  0  0
    0.3030    4.9390   -1.5090 H   0  0  0  0  0  0  0  0  0  0  0  0
    1.8745    4.7900   -0.7420 H   0  0  0  0  0  0  0  0  0  0  0  0
    0.1410    3.7321    0.5263 S   0  0  0  0  0  0  0  0  0  0  0  0
    1.4040    6.7177    1.2689 C   0  0  0  0  0  0  0  0  0  0  0  0
    2.5869    7.0602    1.2986 O   0  0  0  0  0  0  0  0  0  0  0  0
    0.6720    6.5509    2.3779 N   0  0  0  0  0  0  0  0  0  0  0  0
   -0.2794    6.2369    2.2701 H   0  0  0  0  0  0  0  0  0  0  0  0
    1.1826    6.7341    3.7359 C   0  0  0  0  0  0  0  0  0  0  0  0
    1.8266    5.8946    4.0032 H   0  0  0  0  0  0  0  0  0  0  0  0
    1.7683    7.6547    3.7939 H   0  0  0  0  0  0  0  0  0  0  0  0
    0.3563    6.7927    4.4445 H   0  0  0  0  0  0  0  0  0  0  0  0
  5  6  2  0  0  0  0
  5  7  1  0  0  0  0
  2  3  1  0  0  0  0
  2  4  1  0  0  0  0
  2  5  1  0  0  0  0
  1  2  1  0  0  0  0
 15 16  2  0  0  0  0
 15 17  1  0  0  0  0
 14 36  1  0  0  0  0
 11 12  1  0  0  0  0
 11 13  1  0  0  0  0
 11 14  1  0  0  0  0
  9 10  1  0  0  0  0
  9 11  1  0  0  0  0
  9 15  1  0  0  0  0
  7  8  1  0  0  0  0
  7  9  1  0  0  0  0
 19 20  1  0  0  0  0
 19 21  1  0  0  0  0
 19 22  1  0  0  0  0
 17 18  1  0  0  0  0
 17 19  1  0  0  0  0
 27 28  2  0  0  0  0
 27 29  1  0  0  0  0
 24 25  1  0  0  0  0
 24 26  1  0  0  0  0
 24 27  1  0  0  0  0
 23 24  1  0  0  0  0
 37 38  2  0  0  0  0
 37 39  1  0  0  0  0
 33 34  1  0  0  0  0
 33 35  1  0  0  0  0
 33 36  1  0  0  0  0
 31 32  1  0  0  0  0
 31 33  1  0  0  0  0
 31 37  1  0  0  0  0
 29 30  1  0  0  0  0
 29 31  1  0  0  0  0
 41 42  1  0  0  0  0
 41 43  1  0  0  0  0
 41 44  1  0  0  0  0
 39 40  1  0  0  0  0
 39 41  1  0  0  0  0
M  END
$$$$
default_name
  -OEChem-01062215323D

 44 43  0     1  0  0  0  0  0999 V2000
    2.4488   -3.0448    2.0990 H   0  0  0  0  0  0  0  0  0  0  0  0
    2.2788   -2.0018    2.3640 C   0  0  0  0  0  0  0  0  0  0  0  0
    2.9228   -1.7258    3.1960 H   0  0  0  0  0  0  0  0  0  0  0  0
    1.2358   -1.8618    2.6430 H   0  0  0  0  0  0  0  0  0  0  0  0
    2.6018   -1.1318    1.1730 C   0  0  0  0  0  0  0  0  0  0  0  0
    3.0048   -1.6348    0.1320 O   0  0  0  0  0  0  0  0  0  0  0  0
    2.4088    0.1752    1.3190 N   0  0  0  0  0  0  0  0  0  0  0  0
    2.0708    0.5242    2.2050 H   0  0  0  0  0  0  0  0  0  0  0  0
    2.6638    1.1782    0.2840 C   0  0  1  0  0  0  0  0  0  0  0  0
    1.7606    1.2799   -0.3200 H   0  0  0  0  0  0  0  0  0  0  0  0
    2.9544    2.5387    0.9413 C   0  0  0  0  0  0  0  0  0  0  0  0
    3.2987    3.2328    0.1737 H   0  0  0  0  0  0  0  0  0  0  0  0
    3.7879    2.4046    1.6303 H   0  0  0  0  0  0  0  0  0  0  0  0
    1.6161    3.3327    1.8801 S   0  0  0  0  0  0  0  0  0  0  0  0
    3.8055    0.7338   -0.6494 C   0  0  0  0  0  0  0  0  0  0  0  0
    3.6146   -0.1340   -1.5013 O   0  0  0  0  0  0  0  0  0  0  0  0
    4.9925    1.3350   -0.4927 N   0  0  0  0  0  0  0  0  0  0  0  0
    5.0783    2.0393    0.2224 H   0  0  0  0  0  0  0  0  0  0  0  0
    6.1721    1.0233   -1.2971 C   0  0  0  0  0  0  0  0  0  0  0  0
    6.4604   -0.0179   -1.1378 H   0  0  0  0  0  0  0  0  0  0  0  0
    5.9442    1.1607   -2.3557 H   0  0  0  0  0  0  0  0  0  0  0  0
    7.0027    1.6738   -1.0201 H   0  0  0  0  0  0  0  0  0  0  0  0
    0.7913    8.8292   -4.0302 H   0  0  0  0  0  0  0  0  0  0  0  0
    1.4228    8.5941   -3.1747 C   0  0  0  0  0  0  0  0  0  0  0  0
    1.7050    9.5129   -2.6630 H   0  0  0  0  0  0  0  0  0  0  0  0
    2.3150    8.0702   -3.5122 H   0  0  0  0  0  0  0  0  0  0  0  0
    0.6514    7.7084   -2.2246 C   0  0  0  0  0  0  0  0  0  0  0  0
   -0.4922    7.3646   -2.4908 O   0  0  0  0  0  0  0  0  0  0  0  0
    1.2851    7.3325   -1.1169 N   0  0  0  0  0  0  0  0  0  0  0  0
    2.2257    7.6632   -0.9576 H   0  0  0  0  0  0  0  0  0  0  0  0
    0.7090    6.4735   -0.0823 C   0  0  1  0  0  0  0  0  0  0  0  0
   -0.3495    6.7142    0.0311 H   0  0  0  0  0  0  0  0  0  0  0  0
    0.8249    5.0173   -0.5542 C   0  0  0  0  0  0  0  0  0  0  0  0
    0.3030    4.9390   -1.5090 H   0  0  0  0  0  0  0  0  0  0  0  0
    1.8745    4.7900   -0.7420 H   0  0  0  0  0  0  0  0  0  0  0  0
    0.1410    3.7321    0.5263 S   0  0  0  0  0  0  0  0  0  0  0  0
    1.4040    6.7177    1.2689 C   0  0  0  0  0  0  0  0  0  0  0  0
    2.5869    7.0602    1.2986 O   0  0  0  0  0  0  0  0  0  0  0  0
    0.6720    6.5509    2.3779 N   0  0  0  0  0  0  0  0  0  0  0  0
   -0.2794    6.2369    2.2701 H   0  0  0  0  0  0  0  0  0  0  0  0
    1.1826    6.7341    3.7359 C   0  0  0  0  0  0  0  0  0  0  0  0
    1.8266    5.8946    4.0032 H   0  0  0  0  0  0  0  0  0  0  0  0
    1.7683    7.6547    3.7939 H   0  0  0  0  0  0  0  0  0  0  0  0
    0.3563    6.7927    4.4445 H   0  0  0  0  0  0  0  0  0  0  0  0
  5  6  2  0  0  0  0
  5  7  1  0  0  0  0
  2  3  1  0  0  0  0
  2  4  1  0  0  0  0
  2  5  1  0  0  0  0
  1  2  1  0  0  0  0
 15 16  2  0  0  0  0
 15 17  1  0  0  0  0
 14 36  1  0  0  0  0
 11 12  1  0  0  0  0
 11 13  1  0  0  0  0
 11 14  1  0  0  0  0
  9 10  1  0  0  0  0
  9 11  1  0  0  0  0
  9 15  1  0  0  0  0
  7  8  1  0  0  0  0
  7  9  1  0  0  0  0
 19 20  1  0  0  0  0
 19 21  1  0  0  0  0
 19 22  1  0  0  0  0
 17 18  1  0  0  0  0
 17 19  1  0  0  0  0
 27 28  2  0  0  0  0
 27 29  1  0  0  0  0
 24 25  1  0  0  0  0
 24 26  1  0  0  0  0
 24 27  1  0  0  0  0
 23 24  1  0  0  0  0
 37 38  2  0  0  0  0
 37 39  1  0  0  0  0
 33 34  1  0  0  0  0
 33 35  1  0  0  0  0
 33 36  1  0  0  0  0
 31 32  1  0  0  0  0
 31 33  1  0  0  0  0
 31 37  1  0  0  0  0
 29 30  1  0  0  0  0
 29 31  1  0  0  0  0
 41 42  1  0  0  0  0
 41 43  1  0  0  0  0
 41 44  1  0  0  0  0
 39 40  1  0  0  0  0
 39 41  1  0  0  0  0
M  END
$$$$
default_name
  -OEChem-01062215323D

 44 43  0     1  0  0  0  0  0999 V2000
    2.4488   -3.0448    2.0990 H   0  0  0  0  0  0  0  0  0  0  0  0
    2.2788   -2.0018    2.3640 C   0  0  0  0  0  0  0  0  0  0  0  0
    2.9228   -1.7258    3.1960 H   0  0  0  0  0  0  0  0  0  0  0  0
    1.2358   -1.8618    2.6430 H   0  0  0  0  0  0  0  0  0  0  0  0
    2.6018   -1.1318    1.1730 C   0  0  0  0  0  0  0  0  0  0  0  0
    3.0048   -1.6348    0.1320 O   0  0  0  0  0  0  0  0  0  0  0  0
    2.4088    0.1752    1.3190 N   0  0  0  0  0  0  0  0  0  0  0  0
    2.0708    0.5242    2.2050 H   0  0  0  0  0  0  0  0  0  0  0  0
    2.6638    1.1782    0.2840 C   0  0  1  0  0  0  0  0  0  0  0  0
    1.7606    1.2799   -0.3200 H   0  0  0  0  0  0  0  0  0  0  0  0
    2.9544    2.5387    0.9413 C   0  0  0  0  0  0  0  0  0  0  0  0
    3.2987    3.2328    0.1737 H   0  0  0  0  0  0  0  0  0  0  0  0
    3.7879    2.4046    1.6303 H   0  0  0  0  0  0  0  0  0  0  0  0
    1.6161    3.3327    1.8801 S   0  0  0  0  0  0  0  0  0  0  0  0
    3.8055    0.7338   -0.6494 C   0  0  0  0  0  0  0  0  0  0  0  0
    3.5644    0.0828   -1.6659 O   0  0  0  0  0  0  0  0  0  0  0  0
    5.0500    1.0923   -0.3067 N   0  0  0  0  0  0  0  0  0  0  0  0
    5.1756    1.6275    0.5374 H   0  0  0  0  0  0  0  0  0  0  0  0
    6.2374    0.7463   -1.0854 C   0  0  0  0  0  0  0  0  0  0  0  0
    6.3512   -0.3394   -1.1183 H   0  0  0  0  0  0  0  0  0  0  0  0
    6.1288    1.1135   -2.1075 H   0  0  0  0  0  0  0  0  0  0  0  0
    7.1275    1.1886   -0.6363 H   0  0  0  0  0  0  0  0  0  0  0  0
    0.7913    8.8292   -4.0302 H   0  0  0  0  0  0  0  0  0  0  0  0
    1.4228    8.5941   -3.1747 C   0  0  0  0  0  0  0  0  0  0  0  0
    1.7050    9.5129   -2.6630 H   0  0  0  0  0  0  0  0  0  0  0  0
    2.3150    8.0702   -3.5122 H   0  0  0  0  0  0  0  0  0  0  0  0
    0.6514    7.7084   -2.2246 C   0  0  0  0  0  0  0  0  0  0  0  0
   -0.4922    7.3646   -2.4908 O   0  0  0  0  0  0  0  0  0  0  0  0
    1.2851    7.3325   -1.1169 N   0  0  0  0  0  0  0  0  0  0  0  0
    2.2257    7.6632   -0.9576 H   0  0  0  0  0  0  0  0  0  0  0  0
    0.7090    6.4735   -0.0823 C   0  0  1  0  0  0  0  0  0  0  0  0
   -0.3495    6.7142    0.0311 H   0  0  0  0  0  0  0  0  0  0  0  0
    0.8249    5.0173   -0.5542 C   0  0  0  0  0  0  0  0  0  0  0  0
    0.3030    4.9390   -1.5090 H   0  0  0  0  0  0  0  0  0  0  0  0
    1.8745    4.7900   -0.7420 H   0  0  0  0  0  0  0  0  0  0  0  0
    0.1410    3.7321    0.5263 S   0  0  0  0  0  0  0  0  0  0  0  0
    1.4040    6.7177    1.2689 C   0  0  0  0  0  0  0  0  0  0  0  0
    2.5869    7.0602    1.2986 O   0  0  0  0  0  0  0  0  0  0  0  0
    0.6720    6.5509    2.3779 N   0  0  0  0  0  0  0  0  0  0  0  0
   -0.2794    6.2369    2.2701 H   0  0  0  0  0  0  0  0  0  0  0  0
    1.1826    6.7341    3.7359 C   0  0  0  0  0  0  0  0  0  0  0  0
    1.8266    5.8946    4.0032 H   0  0  0  0  0  0  0  0  0  0  0  0
    1.7683    7.6547    3.7939 H   0  0  0  0  0  0  0  0  0  0  0  0
    0.3563    6.7927    4.4445 H   0  0  0  0  0  0  0  0  0  0  0  0
  5  6  2  0  0  0  0
  5  7  1  0  0  0  0
  2  3  1  0  0  0  0
  2  4  1  0  0  0  0
  2  5  1  0  0  0  0
  1  2  1  0  0  0  0
 15 16  2  0  0  0  0
 15 17  1  0  0  0  0
 14 36  1  0  0  0  0
 11 12  1  0  0  0  0
 11 13  1  0  0  0  0
 11 14  1  0  0  0  0
  9 10  1  0  0  0  0
  9 11  1  0  0  0  0
  9 15  1  0  0  0  0
  7  8  1  0  0  0  0
  7  9  1  0  0  0  0
 19 20  1  0  0  0  0
 19 21  1  0  0  0  0
 19 22  1  0  0  0  0
 17 18  1  0  0  0  0
 17 19  1  0  0  0  0
 27 28  2  0  0  0  0
 27 29  1  0  0  0  0
 24 25  1  0  0  0  0
 24 26  1  0  0  0  0
 24 27  1  0  0  0  0
 23 24  1  0  0  0  0
 37 38  2  0  0  0  0
 37 39  1  0  0  0  0
 33 34  1  0  0  0  0
 33 35  1  0  0  0  0
 33 36  1  0  0  0  0
 31 32  1  0  0  0  0
 31 33  1  0  0  0  0
 31 37  1  0  0  0  0
 29 30  1  0  0  0  0
 29 31  1  0  0  0  0
 41 42  1  0  0  0  0
 41 43  1  0  0  0  0
 41 44  1  0  0  0  0
 39 40  1  0  0  0  0
 39 41  1  0  0  0  0
M  END
$$$$
default_name
  -OEChem-01062215323D

 44 43  0     1  0  0  0  0  0999 V2000
    2.4488   -3.0448    2.0990 H   0  0  0  0  0  0  0  0  0  0  0  0
    2.2788   -2.0018    2.3640 C   0  0  0  0  0  0  0  0  0  0  0  0
    2.9228   -1.7258    3.1960 H   0  0  0  0  0  0  0  0  0  0  0  0
    1.2358   -1.8618    2.6430 H   0  0  0  0  0  0  0  0  0  0  0  0
    2.6018   -1.1318    1.1730 C   0  0  0  0  0  0  0  0  0  0  0  0
    3.0048   -1.6348    0.1320 O   0  0  0  0  0  0  0  0  0  0  0  0
    2.4088    0.1752    1.3190 N   0  0  0  0  0  0  0  0  0  0  0  0
    2.0708    0.5242    2.2050 H   0  0  0  0  0  0  0  0  0  0  0  0
    2.6638    1.1782    0.2840 C   0  0  1  0  0  0  0  0  0  0  0  0
    1.7606    1.2799   -0.3200 H   0  0  0  0  0  0  0  0  0  0  0  0
    2.9544    2.5387    0.9413 C   0  0  0  0  0  0  0  0  0  0  0  0
    3.2987    3.2328    0.1737 H   0  0  0  0  0  0  0  0  0  0  0  0
    3.7879    2.4046    1.6303 H   0  0  0  0  0  0  0  0  0  0  0  0
    1.6161    3.3327    1.8801 S   0  0  0  0  0  0  0  0  0  0  0  0
    3.8055    0.7338   -0.6494 C   0  0  0  0  0  0  0  0  0  0  0  0
    3.5622    0.3316   -1.7871 O   0  0  0  0  0  0  0  0  0  0  0  0
    5.0537    0.8131   -0.1693 N   0  0  0  0  0  0  0  0  0  0  0  0
    5.1814    1.1541    0.7699 H   0  0  0  0  0  0  0  0  0  0  0  0
    6.2411    0.4278   -0.9291 C   0  0  0  0  0  0  0  0  0  0  0  0
    6.1938   -0.6365   -1.1694 H   0  0  0  0  0  0  0  0  0  0  0  0
    6.2811    0.9914   -1.8631 H   0  0  0  0  0  0  0  0  0  0  0  0
    7.1434    0.6267   -0.3494 H   0  0  0  0  0  0  0  0  0  0  0  0
    0.7913    8.8292   -4.0302 H   0  0  0  0  0  0  0  0  0  0  0  0
    1.4228    8.5941   -3.1747 C   0  0  0  0  0  0  0  0  0  0  0  0
    1.7050    9.5129   -2.6630 H   0  0  0  0  0  0  0  0  0  0  0  0
    2.3150    8.0702   -3.5122 H   0  0  0  0  0  0  0  0  0  0  0  0
    0.6514    7.7084   -2.2246 C   0  0  0  0  0  0  0  0  0  0  0  0
   -0.4922    7.3646   -2.4908 O   0  0  0  0  0  0  0  0  0  0  0  0
    1.2851    7.3325   -1.1169 N   0  0  0  0  0  0  0  0  0  0  0  0
    2.2257    7.6632   -0.9576 H   0  0  0  0  0  0  0  0  0  0  0  0
    0.7090    6.4735   -0.0823 C   0  0  1  0  0  0  0  0  0  0  0  0
   -0.3495    6.7142    0.0311 H   0  0  0  0  0  0  0  0  0  0  0  0
    0.8249    5.0173   -0.5542 C   0  0  0  0  0  0  0  0  0  0  0  0
    0.3030    4.9390   -1.5090 H   0  0  0  0  0  0  0  0  0  0  0  0
    1.8745    4.7900   -0.7420 H   0  0  0  0  0  0  0  0  0  0  0  0
    0.1410    3.7321    0.5263 S   0  0  0  0  0  0  0  0  0  0  0  0
    1.4040    6.7177    1.2689 C   0  0  0  0  0  0  0  0  0  0  0  0
    2.5869    7.0602    1.2986 O   0  0  0  0  0  0  0  0  0  0  0  0
    0.6720    6.5509    2.3779 N   0  0  0  0  0  0  0  0  0  0  0  0
   -0.2794    6.2369    2.2701 H   0  0  0  0  0  0  0  0  0  0  0  0
    1.1826    6.7341    3.7359 C   0  0  0  0  0  0  0  0  0  0  0  0
    1.8266    5.8946    4.0032 H   0  0  0  0  0  0  0  0  0  0  0  0
    1.7683    7.6547    3.7939 H   0  0  0  0  0  0  0  0  0  0  0  0
    0.3563    6.7927    4.4445 H   0  0  0  0  0  0  0  0  0  0  0  0
  5  6  2  0  0  0  0
  5  7  1  0  0  0  0
  2  3  1  0  0  0  0
  2  4  1  0  0  0  0
  2  5  1  0  0  0  0
  1  2  1  0  0  0  0
 15 16  2  0  0  0  0
 15 17  1  0  0  0  0
 14 36  1  0  0  0  0
 11 12  1  0  0  0  0
 11 13  1  0  0  0  0
 11 14  1  0  0  0  0
  9 10  1  0  0  0  0
  9 11  1  0  0  0  0
  9 15  1  0  0  0  0
  7  8  1  0  0  0  0
  7  9  1  0  0  0  0
 19 20  1  0  0  0  0
 19 21  1  0  0  0  0
 19 22  1  0  0  0  0
 17 18  1  0  0  0  0
 17 19  1  0  0  0  0
 27 28  2  0  0  0  0
 27 29  1  0  0  0  0
 24 25  1  0  0  0  0
 24 26  1  0  0  0  0
 24 27  1  0  0  0  0
 23 24  1  0  0  0  0
 37 38  2  0  0  0  0
 37 39  1  0  0  0  0
 33 34  1  0  0  0  0
 33 35  1  0  0  0  0
 33 36  1  0  0  0  0
 31 32  1  0  0  0  0
 31 33  1  0  0  0  0
 31 37  1  0  0  0  0
 29 30  1  0  0  0  0
 29 31  1  0  0  0  0
 41 42  1  0  0  0  0
 41 43  1  0  0  0  0
 41 44  1  0  0  0  0
 39 40  1  0  0  0  0
 39 41  1  0  0  0  0
M  END
$$$$
default_name
  -OEChem-01062215323D

 44 43  0     1  0  0  0  0  0999 V2000
    2.4488   -3.0448    2.0990 H   0  0  0  0  0  0  0  0  0  0  0  0
    2.2788   -2.0018    2.3640 C   0  0  0  0  0  0  0  0  0  0  0  0
    2.9228   -1.7258    3.1960 H   0  0  0  0  0  0  0  0  0  0  0  0
    1.2358   -1.8618    2.6430 H   0  0  0  0  0  0  0  0  0  0  0  0
    2.6018   -1.1318    1.1730 C   0  0  0  0  0  0  0  0  0  0  0  0
    3.0048   -1.6348    0.1320 O   0  0  0  0  0  0  0  0  0  0  0  0
    2.4088    0.1752    1.3190 N   0  0  0  0  0  0  0  0  0  0  0  0
    2.0708    0.5242    2.2050 H   0  0  0  0  0  0  0  0  0  0  0  0
    2.6638    1.1782    0.2840 C   0  0  1  0  0  0  0  0  0  0  0  0
    1.7606    1.2799   -0.3200 H   0  0  0  0  0  0  0  0  0  0  0  0
    2.9544    2.5387    0.9413 C   0  0  0  0  0  0  0  0  0  0  0  0
    3.2987    3.2328    0.1737 H   0  0  0  0  0  0  0  0  0  0  0  0
    3.7879    2.4046    1.6303 H   0  0  0  0  0  0  0  0  0  0  0  0
    1.6161    3.3327    1.8801 S   0  0  0  0  0  0  0  0  0  0  0  0
    3.8055    0.7338   -0.6494 C   0  0  0  0  0  0  0  0  0  0  0  0
    3.6082    0.5956   -1.8565 O   0  0  0  0  0  0  0  0  0  0  0  0
    5.0032    0.5165   -0.0898 N   0  0  0  0  0  0  0  0  0  0  0  0
    5.0954    0.6512    0.9042 H   0  0  0  0  0  0  0  0  0  0  0  0
    6.1831    0.0895   -0.8390 C   0  0  0  0  0  0  0  0  0  0  0  0
    5.9990   -0.8891   -1.2875 H   0  0  0  0  0  0  0  0  0  0  0  0
    6.3908    0.8026   -1.6390 H   0  0  0  0  0  0  0  0  0  0  0  0
    7.0491    0.0264   -0.1789 H   0  0  0  0  0  0  0  0  0  0  0  0
    0.7913    8.8292   -4.0302 H   0  0  0  0  0  0  0  0  0  0  0  0
    1.4228    8.5941   -3.1747 C   0  0  0  0  0  0  0  0  0  0  0  0
    1.7050    9.5129   -2.6630 H   0  0  0  0  0  0  0  0  0  0  0  0
    2.3150    8.0702   -3.5122 H   0  0  0  0  0  0  0  0  0  0  0  0
    0.6514    7.7084   -2.2246 C   0  0  0  0  0  0  0  0  0  0  0  0
   -0.4922    7.3646   -2.4908 O   0  0  0  0  0  0  0  0  0  0  0  0
    1.2851    7.3325   -1.1169 N   0  0  0  0  0  0  0  0  0  0  0  0
    2.2257    7.6632   -0.9576 H   0  0  0  0  0  0  0  0  0  0  0  0
    0.7090    6.4735   -0.0823 C   0  0  1  0  0  0  0  0  0  0  0  0
   -0.3495    6.7142    0.0311 H   0  0  0  0  0  0  0  0  0  0  0  0
    0.8249    5.0173   -0.5542 C   0  0  0  0  0  0  0  0  0  0  0  0
    0.3030    4.9390   -1.5090 H   0  0  0  0  0  0  0  0  0  0  0  0
    1.8745    4.7900   -0.7420 H   0  0  0  0  0  0  0  0  0  0  0  0
    0.1410    3.7321    0.5263 S   0  0  0  0  0  0  0  0  0  0  0  0
    1.4040    6.7177    1.2689 C   0  0  0  0  0  0  0  0  0  0  0  0
    2.5869    7.0602    1.2986 O   0  0  0  0  0  0  0  0  0  0  0  0
    0.6720    6.5509    2.3779 N   0  0  0  0  0  0  0  0  0  0  0  0
   -0.2794    6.2369    2.2701 H   0  0  0  0  0  0  0  0  0  0  0  0
    1.1826    6.7341    3.7359 C   0  0  0  0  0  0  0  0  0  0  0  0
    1.8266    5.8946    4.0032 H   0  0  0  0  0  0  0  0  0  0  0  0
    1.7683    7.6547    3.7939 H   0  0  0  0  0  0  0  0  0  0  0  0
    0.3563    6.7927    4.4445 H   0  0  0  0  0  0  0  0  0  0  0  0
  5  6  2  0  0  0  0
  5  7  1  0  0  0  0
  2  3  1  0  0  0  0
  2  4  1  0  0  0  0
  2  5  1  0  0  0  0
  1  2  1  0  0  0  0
 15 16  2  0  0  0  0
 15 17  1  0  0  0  0
 14 36  1  0  0  0  0
 11 12  1  0  0  0  0
 11 13  1  0  0  0  0
 11 14  1  0  0  0  0
  9 10  1  0  0  0  0
  9 11  1  0  0  0  0
  9 15  1  0  0  0  0
  7  8  1  0  0  0  0
  7  9  1  0  0  0  0
 19 20  1  0  0  0  0
 19 21  1  0  0  0  0
 19 22  1  0  0  0  0
 17 18  1  0  0  0  0
 17 19  1  0  0  0  0
 27 28  2  0  0  0  0
 27 29  1  0  0  0  0
 24 25  1  0  0  0  0
 24 26  1  0  0  0  0
 24 27  1  0  0  0  0
 23 24  1  0  0  0  0
 37 38  2  0  0  0  0
 37 39  1  0  0  0  0
 33 34  1  0  0  0  0
 33 35  1  0  0  0  0
 33 36  1  0  0  0  0
 31 32  1  0  0  0  0
 31 33  1  0  0  0  0
 31 37  1  0  0  0  0
 29 30  1  0  0  0  0
 29 31  1  0  0  0  0
 41 42  1  0  0  0  0
 41 43  1  0  0  0  0
 41 44  1  0  0  0  0
 39 40  1  0  0  0  0
 39 41  1  0  0  0  0
M  END
$$$$
default_name
  -OEChem-01062215323D

 44 43  0     1  0  0  0  0  0999 V2000
    2.4488   -3.0448    2.0990 H   0  0  0  0  0  0  0  0  0  0  0  0
    2.2788   -2.0018    2.3640 C   0  0  0  0  0  0  0  0  0  0  0  0
    2.9228   -1.7258    3.1960 H   0  0  0  0  0  0  0  0  0  0  0  0
    1.2358   -1.8618    2.6430 H   0  0  0  0  0  0  0  0  0  0  0  0
    2.6018   -1.1318    1.1730 C   0  0  0  0  0  0  0  0  0  0  0  0
    3.0048   -1.6348    0.1320 O   0  0  0  0  0  0  0  0  0  0  0  0
    2.4088    0.1752    1.3190 N   0  0  0  0  0  0  0  0  0  0  0  0
    2.0708    0.5242    2.2050 H   0  0  0  0  0  0  0  0  0  0  0  0
    2.6638    1.1782    0.2840 C   0  0  1  0  0  0  0  0  0  0  0  0
    1.7606    1.2799   -0.3200 H   0  0  0  0  0  0  0  0  0  0  0  0
    2.9544    2.5387    0.9413 C   0  0  0  0  0  0  0  0  0  0  0  0
    3.2987    3.2328    0.1737 H   0  0  0  0  0  0  0  0  0  0  0  0
    3.7879    2.4046    1.6303 H   0  0  0  0  0  0  0  0  0  0  0  0
    1.6161    3.3327    1.8801 S   0  0  0  0  0  0  0  0  0  0  0  0
    3.8055    0.7338   -0.6494 C   0  0  0  0  0  0  0  0  0  0  0  0
    3.6992    0.8567   -1.8696 O   0  0  0  0  0  0  0  0  0  0  0  0
    4.9020    0.2226   -0.0738 N   0  0  0  0  0  0  0  0  0  0  0  0
    4.9235    0.1533    0.9309 H   0  0  0  0  0  0  0  0  0  0  0  0
    6.0673   -0.2453   -0.8213 C   0  0  0  0  0  0  0  0  0  0  0  0
    5.7800   -1.0798   -1.4645 H   0  0  0  0  0  0  0  0  0  0  0  0
    6.4505    0.5601   -1.4505 H   0  0  0  0  0  0  0  0  0  0  0  0
    6.8512   -0.5714   -0.1364 H   0  0  0  0  0  0  0  0  0  0  0  0
    0.7913    8.8292   -4.0302 H   0  0  0  0  0  0  0  0  0  0  0  0
    1.4228    8.5941   -3.1747 C   0  0  0  0  0  0  0  0  0  0  0  0
    1.7050    9.5129   -2.6630 H   0  0  0  0  0  0  0  0  0  0  0  0
    2.3150    8.0702   -3.5122 H   0  0  0  0  0  0  0  0  0  0  0  0
    0.6514    7.7084   -2.2246 C   0  0  0  0  0  0  0  0  0  0  0  0
   -0.4922    7.3646   -2.4908 O   0  0  0  0  0  0  0  0  0  0  0  0
    1.2851    7.3325   -1.1169 N   0  0  0  0  0  0  0  0  0  0  0  0
    2.2257    7.6632   -0.9576 H   0  0  0  0  0  0  0  0  0  0  0  0
    0.7090    6.4735   -0.0823 C   0  0  1  0  0  0  0  0  0  0  0  0
   -0.3495    6.7142    0.0311 H   0  0  0  0  0  0  0  0  0  0  0  0
    0.8249    5.0173   -0.5542 C   0  0  0  0  0  0  0  0  0  0  0  0
    0.3030    4.9390   -1.5090 H   0  0  0  0  0  0  0  0  0  0  0  0
    1.8745    4.7900   -0.7420 H   0  0  0  0  0  0  0  0  0  0  0  0
    0.1410    3.7321    0.5263 S   0  0  0  0  0  0  0  0  0  0  0  0
    1.4040    6.7177    1.2689 C   0  0  0  0  0  0  0  0  0  0  0  0
    2.5869    7.0602    1.2986 O   0  0  0  0  0  0  0  0  0  0  0  0
    0.6720    6.5509    2.3779 N   0  0  0  0  0  0  0  0  0  0  0  0
   -0.2794    6.2369    2.2701 H   0  0  0  0  0  0  0  0  0  0  0  0
    1.1826    6.7341    3.7359 C   0  0  0  0  0  0  0  0  0  0  0  0
    1.8266    5.8946    4.0032 H   0  0  0  0  0  0  0  0  0  0  0  0
    1.7683    7.6547    3.7939 H   0  0  0  0  0  0  0  0  0  0  0  0
    0.3563    6.7927    4.4445 H   0  0  0  0  0  0  0  0  0  0  0  0
  5  6  2  0  0  0  0
  5  7  1  0  0  0  0
  2  3  1  0  0  0  0
  2  4  1  0  0  0  0
  2  5  1  0  0  0  0
  1  2  1  0  0  0  0
 15 16  2  0  0  0  0
 15 17  1  0  0  0  0
 14 36  1  0  0  0  0
 11 12  1  0  0  0  0
 11 13  1  0  0  0  0
 11 14  1  0  0  0  0
  9 10  1  0  0  0  0
  9 11  1  0  0  0  0
  9 15  1  0  0  0  0
  7  8  1  0  0  0  0
  7  9  1  0  0  0  0
 19 20  1  0  0  0  0
 19 21  1  0  0  0  0
 19 22  1  0  0  0  0
 17 18  1  0  0  0  0
 17 19  1  0  0  0  0
 27 28  2  0  0  0  0
 27 29  1  0  0  0  0
 24 25  1  0  0  0  0
 24 26  1  0  0  0  0
 24 27  1  0  0  0  0
 23 24  1  0  0  0  0
 37 38  2  0  0  0  0
 37 39  1  0  0  0  0
 33 34  1  0  0  0  0
 33 35  1  0  0  0  0
 33 36  1  0  0  0  0
 31 32  1  0  0  0  0
 31 33  1  0  0  0  0
 31 37  1  0  0  0  0
 29 30  1  0  0  0  0
 29 31  1  0  0  0  0
 41 42  1  0  0  0  0
 41 43  1  0  0  0  0
 41 44  1  0  0  0  0
 39 40  1  0  0  0  0
 39 41  1  0  0  0  0
M  END
$$$$
default_name
  -OEChem-01062215323D

 44 43  0     1  0  0  0  0  0999 V2000
    2.4488   -3.0448    2.0990 H   0  0  0  0  0  0  0  0  0  0  0  0
    2.2788   -2.0018    2.3640 C   0  0  0  0  0  0  0  0  0  0  0  0
    2.9228   -1.7258    3.1960 H   0  0  0  0  0  0  0  0  0  0  0  0
    1.2358   -1.8618    2.6430 H   0  0  0  0  0  0  0  0  0  0  0  0
    2.6018   -1.1318    1.1730 C   0  0  0  0  0  0  0  0  0  0  0  0
    3.0048   -1.6348    0.1320 O   0  0  0  0  0  0  0  0  0  0  0  0
    2.4088    0.1752    1.3190 N   0  0  0  0  0  0  0  0  0  0  0  0
    2.0708    0.5242    2.2050 H   0  0  0  0  0  0  0  0  0  0  0  0
    2.6638    1.1782    0.2840 C   0  0  1  0  0  0  0  0  0  0  0  0
    1.7606    1.2799   -0.3200 H   0  0  0  0  0  0  0  0  0  0  0  0
    2.9544    2.5387    0.9413 C   0  0  0  0  0  0  0  0  0  0  0  0
    3.2987    3.2328    0.1737 H   0  0  0  0  0  0  0  0  0  0  0  0
    3.7879    2.4046    1.6303 H   0  0  0  0  0  0  0  0  0  0  0  0
    1.6161    3.3327    1.8801 S   0  0  0  0  0  0  0  0  0  0  0  0
    3.8055    0.7338   -0.6494 C   0  0  0  0  0  0  0  0  0  0  0  0
    3.8290    1.0972   -1.8253 O   0  0  0  0  0  0  0  0  0  0  0  0
    4.7569   -0.0484   -0.1222 N   0  0  0  0  0  0  0  0  0  0  0  0
    4.6773   -0.3059    0.8484 H   0  0  0  0  0  0  0  0  0  0  0  0
    5.9016   -0.5541   -0.8770 C   0  0  0  0  0  0  0  0  0  0  0  0
    5.5518   -1.1957   -1.6885 H   0  0  0  0  0  0  0  0  0  0  0  0
    6.4560    0.2803   -1.3106 H   0  0  0  0  0  0  0  0  0  0  0  0
    6.5631   -1.1259   -0.2249 H   0  0  0  0  0  0  0  0  0  0  0  0
    0.7913    8.8292   -4.0302 H   0  0  0  0  0  0  0  0  0  0  0  0
    1.4228    8.5941   -3.1747 C   0  0  0  0  0  0  0  0  0  0  0  0
    1.7050    9.5129   -2.6630 H   0  0  0  0  0  0  0  0  0  0  0  0
    2.3150    8.0702   -3.5122 H   0  0  0  0  0  0  0  0  0  0  0  0
    0.6514    7.7084   -2.2246 C   0  0  0  0  0  0  0  0  0  0  0  0
   -0.4922    7.3646   -2.4908 O   0  0  0  0  0  0  0  0  0  0  0  0
    1.2851    7.3325   -1.1169 N   0  0  0  0  0  0  0  0  0  0  0  0
    2.2257    7.6632   -0.9576 H   0  0  0  0  0  0  0  0  0  0  0  0
    0.7090    6.4735   -0.0823 C   0  0  1  0  0  0  0  0  0  0  0  0
   -0.3495    6.7142    0.0311 H   0  0  0  0  0  0  0  0  0  0  0  0
    0.8249    5.0173   -0.5542 C   0  0  0  0  0  0  0  0  0  0  0  0
    0.3030    4.9390   -1.5090 H   0  0  0  0  0  0  0  0  0  0  0  0
    1.8745    4.7900   -0.7420 H   0  0  0  0  0  0  0  0  0  0  0  0
    0.1410    3.7321    0.5263 S   0  0  0  0  0  0  0  0  0  0  0  0
    1.4040    6.7177    1.2689 C   0  0  0  0  0  0  0  0  0  0  0  0
    2.5869    7.0602    1.2986 O   0  0  0  0  0  0  0  0  0  0  0  0
    0.6720    6.5509    2.3779 N   0  0  0  0  0  0  0  0  0  0  0  0
   -0.2794    6.2369    2.2701 H   0  0  0  0  0  0  0  0  0  0  0  0
    1.1826    6.7341    3.7359 C   0  0  0  0  0  0  0  0  0  0  0  0
    1.8266    5.8946    4.0032 H   0  0  0  0  0  0  0  0  0  0  0  0
    1.7683    7.6547    3.7939 H   0  0  0  0  0  0  0  0  0  0  0  0
    0.3563    6.7927    4.4445 H   0  0  0  0  0  0  0  0  0  0  0  0
  5  6  2  0  0  0  0
  5  7  1  0  0  0  0
  2  3  1  0  0  0  0
  2  4  1  0  0  0  0
  2  5  1  0  0  0  0
  1  2  1  0  0  0  0
 15 16  2  0  0  0  0
 15 17  1  0  0  0  0
 14 36  1  0  0  0  0
 11 12  1  0  0  0  0
 11 13  1  0  0  0  0
 11 14  1  0  0  0  0
  9 10  1  0  0  0  0
  9 11  1  0  0  0  0
  9 15  1  0  0  0  0
  7  8  1  0  0  0  0
  7  9  1  0  0  0  0
 19 20  1  0  0  0  0
 19 21  1  0  0  0  0
 19 22  1  0  0  0  0
 17 18  1  0  0  0  0
 17 19  1  0  0  0  0
 27 28  2  0  0  0  0
 27 29  1  0  0  0  0
 24 25  1  0  0  0  0
 24 26  1  0  0  0  0
 24 27  1  0  0  0  0
 23 24  1  0  0  0  0
 37 38  2  0  0  0  0
 37 39  1  0  0  0  0
 33 34  1  0  0  0  0
 33 35  1  0  0  0  0
 33 36  1  0  0  0  0
 31 32  1  0  0  0  0
 31 33  1  0  0  0  0
 31 37  1  0  0  0  0
 29 30  1  0  0  0  0
 29 31  1  0  0  0  0
 41 42  1  0  0  0  0
 41 43  1  0  0  0  0
 41 44  1  0  0  0  0
 39 40  1  0  0  0  0
 39 41  1  0  0  0  0
M  END
$$$$
default_name
  -OEChem-01062215323D

 44 43  0     1  0  0  0  0  0999 V2000
    2.4488   -3.0448    2.0990 H   0  0  0  0  0  0  0  0  0  0  0  0
    2.2788   -2.0018    2.3640 C   0  0  0  0  0  0  0  0  0  0  0  0
    2.9228   -1.7258    3.1960 H   0  0  0  0  0  0  0  0  0  0  0  0
    1.2358   -1.8618    2.6430 H   0  0  0  0  0  0  0  0  0  0  0  0
    2.6018   -1.1318    1.1730 C   0  0  0  0  0  0  0  0  0  0  0  0
    3.0048   -1.6348    0.1320 O   0  0  0  0  0  0  0  0  0  0  0  0
    2.4088    0.1752    1.3190 N   0  0  0  0  0  0  0  0  0  0  0  0
    2.0708    0.5242    2.2050 H   0  0  0  0  0  0  0  0  0  0  0  0
    2.6638    1.1782    0.2840 C   0  0  1  0  0  0  0  0  0  0  0  0
    1.7606    1.2799   -0.3200 H   0  0  0  0  0  0  0  0  0  0  0  0
    2.9544    2.5387    0.9413 C   0  0  0  0  0  0  0  0  0  0  0  0
    3.2987    3.2328    0.1737 H   0  0  0  0  0  0  0  0  0  0  0  0
    3.7879    2.4046    1.6303 H   0  0  0  0  0  0  0  0  0  0  0  0
    1.6161    3.3327    1.8801 S   0  0  0  0  0  0  0  0  0  0  0  0
    3.8055    0.7338   -0.6494 C   0  0  0  0  0  0  0  0  0  0  0  0
    3.9888    1.3006   -1.7266 O   0  0  0  0  0  0  0  0  0  0  0  0
    4.5778   -0.2781   -0.2318 N   0  0  0  0  0  0  0  0  0  0  0  0
    4.3736   -0.6949    0.6622 H   0  0  0  0  0  0  0  0  0  0  0  0
    5.6973   -0.8156   -1.0024 C   0  0  0  0  0  0  0  0  0  0  0  0
    5.3299   -1.2289   -1.9441 H   0  0  0  0  0  0  0  0  0  0  0  0
    6.4070   -0.0177   -1.2287 H   0  0  0  0  0  0  0  0  0  0  0  0
    6.2044   -1.5993   -0.4382 H   0  0  0  0  0  0  0  0  0  0  0  0
    0.7913    8.8292   -4.0302 H   0  0  0  0  0  0  0  0  0  0  0  0
    1.4228    8.5941   -3.1747 C   0  0  0  0  0  0  0  0  0  0  0  0
    1.7050    9.5129   -2.6630 H   0  0  0  0  0  0  0  0  0  0  0  0
    2.3150    8.0702   -3.5122 H   0  0  0  0  0  0  0  0  0  0  0  0
    0.6514    7.7084   -2.2246 C   0  0  0  0  0  0  0  0  0  0  0  0
   -0.4922    7.3646   -2.4908 O   0  0  0  0  0  0  0  0  0  0  0  0
    1.2851    7.3325   -1.1169 N   0  0  0  0  0  0  0  0  0  0  0  0
    2.2257    7.6632   -0.9576 H   0  0  0  0  0  0  0  0  0  0  0  0
    0.7090    6.4735   -0.0823 C   0  0  1  0  0  0  0  0  0  0  0  0
   -0.3495    6.7142    0.0311 H   0  0  0  0  0  0  0  0  0  0  0  0
    0.8249    5.0173   -0.5542 C   0  0  0  0  0  0  0  0  0  0  0  0
    0.3030    4.9390   -1.5090 H   0  0  0  0  0  0  0  0  0  0  0  0
    1.8745    4.7900   -0.7420 H   0  0  0  0  0  0  0  0  0  0  0  0
    0.1410    3.7321    0.5263 S   0  0  0  0  0  0  0  0  0  0  0  0
    1.4040    6.7177    1.2689 C   0  0  0  0  0  0  0  0  0  0  0  0
    2.5869    7.0602    1.2986 O   0  0  0  0  0  0  0  0  0  0  0  0
    0.6720    6.5509    2.3779 N   0  0  0  0  0  0  0  0  0  0  0  0
   -0.2794    6.2369    2.2701 H   0  0  0  0  0  0  0  0  0  0  0  0
    1.1826    6.7341    3.7359 C   0  0  0  0  0  0  0  0  0  0  0  0
    1.8266    5.8946    4.0032 H   0  0  0  0  0  0  0  0  0  0  0  0
    1.7683    7.6547    3.7939 H   0  0  0  0  0  0  0  0  0  0  0  0
    0.3563    6.7927    4.4445 H   0  0  0  0  0  0  0  0  0  0  0  0
  5  6  2  0  0  0  0
  5  7  1  0  0  0  0
  2  3  1  0  0  0  0
  2  4  1  0  0  0  0
  2  5  1  0  0  0  0
  1  2  1  0  0  0  0
 15 16  2  0  0  0  0
 15 17  1  0  0  0  0
 14 36  1  0  0  0  0
 11 12  1  0  0  0  0
 11 13  1  0  0  0  0
 11 14  1  0  0  0  0
  9 10  1  0  0  0  0
  9 11  1  0  0  0  0
  9 15  1  0  0  0  0
  7  8  1  0  0  0  0
  7  9  1  0  0  0  0
 19 20  1  0  0  0  0
 19 21  1  0  0  0  0
 19 22  1  0  0  0  0
 17 18  1  0  0  0  0
 17 19  1  0  0  0  0
 27 28  2  0  0  0  0
 27 29  1  0  0  0  0
 24 25  1  0  0  0  0
 24 26  1  0  0  0  0
 24 27  1  0  0  0  0
 23 24  1  0  0  0  0
 37 38  2  0  0  0  0
 37 39  1  0  0  0  0
 33 34  1  0  0  0  0
 33 35  1  0  0  0  0
 33 36  1  0  0  0  0
 31 32  1  0  0  0  0
 31 33  1  0  0  0  0
 31 37  1  0  0  0  0
 29 30  1  0  0  0  0
 29 31  1  0  0  0  0
 41 42  1  0  0  0  0
 41 43  1  0  0  0  0
 41 44  1  0  0  0  0
 39 40  1  0  0  0  0
 39 41  1  0  0  0  0
M  END
$$$$
default_name
  -OEChem-01062215323D

 44 43  0     1  0  0  0  0  0999 V2000
    2.4488   -3.0448    2.0990 H   0  0  0  0  0  0  0  0  0  0  0  0
    2.2788   -2.0018    2.3640 C   0  0  0  0  0  0  0  0  0  0  0  0
    2.9228   -1.7258    3.1960 H   0  0  0  0  0  0  0  0  0  0  0  0
    1.2358   -1.8618    2.6430 H   0  0  0  0  0  0  0  0  0  0  0  0
    2.6018   -1.1318    1.1730 C   0  0  0  0  0  0  0  0  0  0  0  0
    3.0048   -1.6348    0.1320 O   0  0  0  0  0  0  0  0  0  0  0  0
    2.4088    0.1752    1.3190 N   0  0  0  0  0  0  0  0  0  0  0  0
    2.0708    0.5242    2.2050 H   0  0  0  0  0  0  0  0  0  0  0  0
    2.6638    1.1782    0.2840 C   0  0  1  0  0  0  0  0  0  0  0  0
    1.7606    1.2799   -0.3200 H   0  0  0  0  0  0  0  0  0  0  0  0
    2.9544    2.5387    0.9413 C   0  0  0  0  0  0  0  0  0  0  0  0
    3.2987    3.2328    0.1737 H   0  0  0  0  0  0  0  0  0  0  0  0
    3.7879    2.4046    1.6303 H   0  0  0  0  0  0  0  0  0  0  0  0
    1.6161    3.3327    1.8801 S   0  0  0  0  0  0  0  0  0  0  0  0
    3.8055    0.7338   -0.6494 C   0  0  0  0  0  0  0  0  0  0  0  0
    4.1677    1.4530   -1.5804 O   0  0  0  0  0  0  0  0  0  0  0  0
    4.3771   -0.4509   -0.3951 N   0  0  0  0  0  0  0  0  0  0  0  0
    4.0332   -0.9874    0.3850 H   0  0  0  0  0  0  0  0  0  0  0  0
    5.4683   -1.0121   -1.1889 C   0  0  0  0  0  0  0  0  0  0  0  0
    5.1295   -1.1771   -2.2139 H   0  0  0  0  0  0  0  0  0  0  0  0
    6.3068   -0.3135   -1.2104 H   0  0  0  0  0  0  0  0  0  0  0  0
    5.7996   -1.9595   -0.7618 H   0  0  0  0  0  0  0  0  0  0  0  0
    0.7913    8.8292   -4.0302 H   0  0  0  0  0  0  0  0  0  0  0  0
    1.4228    8.5941   -3.1747 C   0  0  0  0  0  0  0  0  0  0  0  0
    1.7050    9.5129   -2.6630 H   0  0  0  0  0  0  0  0  0  0  0  0
    2.3150    8.0702   -3.5122 H   0  0  0  0  0  0  0  0  0  0  0  0
    0.6514    7.7084   -2.2246 C   0  0  0  0  0  0  0  0  0  0  0  0
   -0.4922    7.3646   -2.4908 O   0  0  0  0  0  0  0  0  0  0  0  0
    1.2851    7.3325   -1.1169 N   0  0  0  0  0  0  0  0  0  0  0  0
    2.2257    7.6632   -0.9576 H   0  0  0  0  0  0  0  0  0  0  0  0
    0.7090    6.4735   -0.0823 C   0  0  1  0  0  0  0  0  0  0  0  0
   -0.3495    6.7142    0.0311 H   0  0  0  0  0  0  0  0  0  0  0  0
    0.8249    5.0173   -0.5542 C   0  0  0  0  0  0  0  0  0  0  0  0
    0.3030    4.9390   -1.5090 H   0  0  0  0  0  0  0  0  0  0  0  0
    1.8745    4.7900   -0.7420 H   0  0  0  0  0  0  0  0  0  0  0  0
    0.1410    3.7321    0.5263 S   0  0  0  0  0  0  0  0  0  0  0  0
    1.4040    6.7177    1.2689 C   0  0  0  0  0  0  0  0  0  0  0  0
    2.5869    7.0602    1.2986 O   0  0  0  0  0  0  0  0  0  0  0  0
    0.6720    6.5509    2.3779 N   0  0  0  0  0  0  0  0  0  0  0  0
   -0.2794    6.2369    2.2701 H   0  0  0  0  0  0  0  0  0  0  0  0
    1.1826    6.7341    3.7359 C   0  0  0  0  0  0  0  0  0  0  0  0
    1.8266    5.8946    4.0032 H   0  0  0  0  0  0  0  0  0  0  0  0
    1.7683    7.6547    3.7939 H   0  0  0  0  0  0  0  0  0  0  0  0
    0.3563    6.7927    4.4445 H   0  0  0  0  0  0  0  0  0  0  0  0
  5  6  2  0  0  0  0
  5  7  1  0  0  0  0
  2  3  1  0  0  0  0
  2  4  1  0  0  0  0
  2  5  1  0  0  0  0
  1  2  1  0  0  0  0
 15 16  2  0  0  0  0
 15 17  1  0  0  0  0
 14 36  1  0  0  0  0
 11 12  1  0  0  0  0
 11 13  1  0  0  0  0
 11 14  1  0  0  0  0
  9 10  1  0  0  0  0
  9 11  1  0  0  0  0
  9 15  1  0  0  0  0
  7  8  1  0  0  0  0
  7  9  1  0  0  0  0
 19 20  1  0  0  0  0
 19 21  1  0  0  0  0
 19 22  1  0  0  0  0
 17 18  1  0  0  0  0
 17 19  1  0  0  0  0
 27 28  2  0  0  0  0
 27 29  1  0  0  0  0
 24 25  1  0  0  0  0
 24 26  1  0  0  0  0
 24 27  1  0  0  0  0
 23 24  1  0  0  0  0
 37 38  2  0  0  0  0
 37 39  1  0  0  0  0
 33 34  1  0  0  0  0
 33 35  1  0  0  0  0
 33 36  1  0  0  0  0
 31 32  1  0  0  0  0
 31 33  1  0  0  0  0
 31 37  1  0  0  0  0
 29 30  1  0  0  0  0
 29 31  1  0  0  0  0
 41 42  1  0  0  0  0
 41 43  1  0  0  0  0
 41 44  1  0  0  0  0
 39 40  1  0  0  0  0
 39 41  1  0  0  0  0
M  END
$$$$
default_name
  -OEChem-01062215323D

 44 43  0     1  0  0  0  0  0999 V2000
    2.4488   -3.0448    2.0990 H   0  0  0  0  0  0  0  0  0  0  0  0
    2.2788   -2.0018    2.3640 C   0  0  0  0  0  0  0  0  0  0  0  0
    2.9228   -1.7258    3.1960 H   0  0  0  0  0  0  0  0  0  0  0  0
    1.2358   -1.8618    2.6430 H   0  0  0  0  0  0  0  0  0  0  0  0
    2.6018   -1.1318    1.1730 C   0  0  0  0  0  0  0  0  0  0  0  0
    3.0048   -1.6348    0.1320 O   0  0  0  0  0  0  0  0  0  0  0  0
    2.4088    0.1752    1.3190 N   0  0  0  0  0  0  0  0  0  0  0  0
    2.0708    0.5242    2.2050 H   0  0  0  0  0  0  0  0  0  0  0  0
    2.6638    1.1782    0.2840 C   0  0  1  0  0  0  0  0  0  0  0  0
    1.7606    1.2799   -0.3200 H   0  0  0  0  0  0  0  0  0  0  0  0
    2.9544    2.5387    0.9413 C   0  0  0  0  0  0  0  0  0  0  0  0
    3.2987    3.2328    0.1737 H   0  0  0  0  0  0  0  0  0  0  0  0
    3.7879    2.4046    1.6303 H   0  0  0  0  0  0  0  0  0  0  0  0
    1.6161    3.3327    1.8801 S   0  0  0  0  0  0  0  0  0  0  0  0
    3.8055    0.7338   -0.6494 C   0  0  0  0  0  0  0  0  0  0  0  0
    4.3534    1.5442   -1.3966 O   0  0  0  0  0  0  0  0  0  0  0  0
    4.1682   -0.5550   -0.6011 N   0  0  0  0  0  0  0  0  0  0  0  0
    3.6792   -1.1633    0.0358 H   0  0  0  0  0  0  0  0  0  0  0  0
    5.2302   -1.1302   -1.4239 C   0  0  0  0  0  0  0  0  0  0  0  0
    4.9641   -1.0439   -2.4796 H   0  0  0  0  0  0  0  0  0  0  0  0
    6.1622   -0.5870   -1.2570 H   0  0  0  0  0  0  0  0  0  0  0  0
    5.3763   -2.1817   -1.1738 H   0  0  0  0  0  0  0  0  0  0  0  0
    0.7913    8.8292   -4.0302 H   0  0  0  0  0  0  0  0  0  0  0  0
    1.4228    8.5941   -3.1747 C   0  0  0  0  0  0  0  0  0  0  0  0
    1.7050    9.5129   -2.6630 H   0  0  0  0  0  0  0  0  0  0  0  0
    2.3150    8.0702   -3.5122 H   0  0  0  0  0  0  0  0  0  0  0  0
    0.6514    7.7084   -2.2246 C   0  0  0  0  0  0  0  0  0  0  0  0
   -0.4922    7.3646   -2.4908 O   0  0  0  0  0  0  0  0  0  0  0  0
    1.2851    7.3325   -1.1169 N   0  0  0  0  0  0  0  0  0  0  0  0
    2.2257    7.6632   -0.9576 H   0  0  0  0  0  0  0  0  0  0  0  0
    0.7090    6.4735   -0.0823 C   0  0  1  0  0  0  0  0  0  0  0  0
   -0.3495    6.7142    0.0311 H   0  0  0  0  0  0  0  0  0  0  0  0
    0.8249    5.0173   -0.5542 C   0  0  0  0  0  0  0  0  0  0  0  0
    0.3030    4.9390   -1.5090 H   0  0  0  0  0  0  0  0  0  0  0  0
    1.8745    4.7900   -0.7420 H   0  0  0  0  0  0  0  0  0  0  0  0
    0.1410    3.7321    0.5263 S   0  0  0  0  0  0  0  0  0  0  0  0
    1.4040    6.7177    1.2689 C   0  0  0  0  0  0  0  0  0  0  0  0
    2.5869    7.0602    1.2986 O   0  0  0  0  0  0  0  0  0  0  0  0
    0.6720    6.5509    2.3779 N   0  0  0  0  0  0  0  0  0  0  0  0
   -0.2794    6.2369    2.2701 H   0  0  0  0  0  0  0  0  0  0  0  0
    1.1826    6.7341    3.7359 C   0  0  0  0  0  0  0  0  0  0  0  0
    1.8266    5.8946    4.0032 H   0  0  0  0  0  0  0  0  0  0  0  0
    1.7683    7.6547    3.7939 H   0  0  0  0  0  0  0  0  0  0  0  0
    0.3563    6.7927    4.4445 H   0  0  0  0  0  0  0  0  0  0  0  0
  5  6  2  0  0  0  0
  5  7  1  0  0  0  0
  2  3  1  0  0  0  0
  2  4  1  0  0  0  0
  2  5  1  0  0  0  0
  1  2  1  0  0  0  0
 15 16  2  0  0  0  0
 15 17  1  0  0  0  0
 14 36  1  0  0  0  0
 11 12  1  0  0  0  0
 11 13  1  0  0  0  0
 11 14  1  0  0  0  0
  9 10  1  0  0  0  0
  9 11  1  0  0  0  0
  9 15  1  0  0  0  0
  7  8  1  0  0  0  0
  7  9  1  0  0  0  0
 19 20  1  0  0  0  0
 19 21  1  0  0  0  0
 19 22  1  0  0  0  0
 17 18  1  0  0  0  0
 17 19  1  0  0  0  0
 27 28  2  0  0  0  0
 27 29  1  0  0  0  0
 24 25  1  0  0  0  0
 24 26  1  0  0  0  0
 24 27  1  0  0  0  0
 23 24  1  0  0  0  0
 37 38  2  0  0  0  0
 37 39  1  0  0  0  0
 33 34  1  0  0  0  0
 33 35  1  0  0  0  0
 33 36  1  0  0  0  0
 31 32  1  0  0  0  0
 31 33  1  0  0  0  0
 31 37  1  0  0  0  0
 29 30  1  0  0  0  0
 29 31  1  0  0  0  0
 41 42  1  0  0  0  0
 41 43  1  0  0  0  0
 41 44  1  0  0  0  0
 39 40  1  0  0  0  0
 39 41  1  0  0  0  0
M  END
$$$$
default_name
  -OEChem-01062215323D

 44 43  0     1  0  0  0  0  0999 V2000
    2.4488   -3.0448    2.0990 H   0  0  0  0  0  0  0  0  0  0  0  0
    2.2788   -2.0018    2.3640 C   0  0  0  0  0  0  0  0  0  0  0  0
    2.9228   -1.7258    3.1960 H   0  0  0  0  0  0  0  0  0  0  0  0
    1.2358   -1.8618    2.6430 H   0  0  0  0  0  0  0  0  0  0  0  0
    2.6018   -1.1318    1.1730 C   0  0  0  0  0  0  0  0  0  0  0  0
    3.0048   -1.6348    0.1320 O   0  0  0  0  0  0  0  0  0  0  0  0
    2.4088    0.1752    1.3190 N   0  0  0  0  0  0  0  0  0  0  0  0
    2.0708    0.5242    2.2050 H   0  0  0  0  0  0  0  0  0  0  0  0
    2.6638    1.1782    0.2840 C   0  0  1  0  0  0  0  0  0  0  0  0
    1.7606    1.2799   -0.3200 H   0  0  0  0  0  0  0  0  0  0  0  0
    2.9544    2.5387    0.9413 C   0  0  0  0  0  0  0  0  0  0  0  0
    3.2987    3.2328    0.1737 H   0  0  0  0  0  0  0  0  0  0  0  0
    3.7879    2.4046    1.6303 H   0  0  0  0  0  0  0  0  0  0  0  0
    1.6161    3.3327    1.8801 S   0  0  0  0  0  0  0  0  0  0  0  0
    3.8055    0.7338   -0.6494 C   0  0  0  0  0  0  0  0  0  0  0  0
    4.5335    1.5678   -1.1876 O   0  0  0  0  0  0  0  0  0  0  0  0
    3.9656   -0.5832   -0.8355 N   0  0  0  0  0  0  0  0  0  0  0  0
    3.3358   -1.2106   -0.3618 H   0  0  0  0  0  0  0  0  0  0  0  0
    4.9993   -1.1618   -1.6914 C   0  0  0  0  0  0  0  0  0  0  0  0
    4.8451   -0.8383   -2.7230 H   0  0  0  0  0  0  0  0  0  0  0  0
    5.9832   -0.8197   -1.3653 H   0  0  0  0  0  0  0  0  0  0  0  0
    4.9634   -2.2510   -1.6460 H   0  0  0  0  0  0  0  0  0  0  0  0
    0.7913    8.8292   -4.0302 H   0  0  0  0  0  0  0  0  0  0  0  0
    1.4228    8.5941   -3.1747 C   0  0  0  0  0  0  0  0  0  0  0  0
    1.7050    9.5129   -2.6630 H   0  0  0  0  0  0  0  0  0  0  0  0
    2.3150    8.0702   -3.5122 H   0  0  0  0  0  0  0  0  0  0  0  0
    0.6514    7.7084   -2.2246 C   0  0  0  0  0  0  0  0  0  0  0  0
   -0.4922    7.3646   -2.4908 O   0  0  0  0  0  0  0  0  0  0  0  0
    1.2851    7.3325   -1.1169 N   0  0  0  0  0  0  0  0  0  0  0  0
    2.2257    7.6632   -0.9576 H   0  0  0  0  0  0  0  0  0  0  0  0
    0.7090    6.4735   -0.0823 C   0  0  1  0  0  0  0  0  0  0  0  0
   -0.3495    6.7142    0.0311 H   0  0  0  0  0  0  0  0  0  0  0  0
    0.8249    5.0173   -0.5542 C   0  0  0  0  0  0  0  0  0  0  0  0
    0.3030    4.9390   -1.5090 H   0  0  0  0  0  0  0  0  0  0  0  0
    1.8745    4.7900   -0.7420 H   0  0  0  0  0  0  0  0  0  0  0  0
    0.1410    3.7321    0.5263 S   0  0  0  0  0  0  0  0  0  0  0  0
    1.4040    6.7177    1.2689 C   0  0  0  0  0  0  0  0  0  0  0  0
    2.5869    7.0602    1.2986 O   0  0  0  0  0  0  0  0  0  0  0  0
    0.6720    6.5509    2.3779 N   0  0  0  0  0  0  0  0  0  0  0  0
   -0.2794    6.2369    2.2701 H   0  0  0  0  0  0  0  0  0  0  0  0
    1.1826    6.7341    3.7359 C   0  0  0  0  0  0  0  0  0  0  0  0
    1.8266    5.8946    4.0032 H   0  0  0  0  0  0  0  0  0  0  0  0
    1.7683    7.6547    3.7939 H   0  0  0  0  0  0  0  0  0  0  0  0
    0.3563    6.7927    4.4445 H   0  0  0  0  0  0  0  0  0  0  0  0
  5  6  2  0  0  0  0
  5  7  1  0  0  0  0
  2  3  1  0  0  0  0
  2  4  1  0  0  0  0
  2  5  1  0  0  0  0
  1  2  1  0  0  0  0
 15 16  2  0  0  0  0
 15 17  1  0  0  0  0
 14 36  1  0  0  0  0
 11 12  1  0  0  0  0
 11 13  1  0  0  0  0
 11 14  1  0  0  0  0
  9 10  1  0  0  0  0
  9 11  1  0  0  0  0
  9 15  1  0  0  0  0
  7  8  1  0  0  0  0
  7  9  1  0  0  0  0
 19 20  1  0  0  0  0
 19 21  1  0  0  0  0
 19 22  1  0  0  0  0
 17 18  1  0  0  0  0
 17 19  1  0  0  0  0
 27 28  2  0  0  0  0
 27 29  1  0  0  0  0
 24 25  1  0  0  0  0
 24 26  1  0  0  0  0
 24 27  1  0  0  0  0
 23 24  1  0  0  0  0
 37 38  2  0  0  0  0
 37 39  1  0  0  0  0
 33 34  1  0  0  0  0
 33 35  1  0  0  0  0
 33 36  1  0  0  0  0
 31 32  1  0  0  0  0
 31 33  1  0  0  0  0
 31 37  1  0  0  0  0
 29 30  1  0  0  0  0
 29 31  1  0  0  0  0
 41 42  1  0  0  0  0
 41 43  1  0  0  0  0
 41 44  1  0  0  0  0
 39 40  1  0  0  0  0
 39 41  1  0  0  0  0
M  END
$$$$
default_name
  -OEChem-01062215323D

 44 43  0     1  0  0  0  0  0999 V2000
    2.4488   -3.0448    2.0990 H   0  0  0  0  0  0  0  0  0  0  0  0
    2.2788   -2.0018    2.3640 C   0  0  0  0  0  0  0  0  0  0  0  0
    2.9228   -1.7258    3.1960 H   0  0  0  0  0  0  0  0  0  0  0  0
    1.2358   -1.8618    2.6430 H   0  0  0  0  0  0  0  0  0  0  0  0
    2.6018   -1.1318    1.1730 C   0  0  0  0  0  0  0  0  0  0  0  0
    3.0048   -1.6348    0.1320 O   0  0  0  0  0  0  0  0  0  0  0  0
    2.4088    0.1752    1.3190 N   0  0  0  0  0  0  0  0  0  0  0  0
    2.0708    0.5242    2.2050 H   0  0  0  0  0  0  0  0  0  0  0  0
    2.6638    1.1782    0.2840 C   0  0  1  0  0  0  0  0  0  0  0  0
    1.7606    1.2799   -0.3200 H   0  0  0  0  0  0  0  0  0  0  0  0
    2.9544    2.5387    0.9413 C   0  0  0  0  0  0  0  0  0  0  0  0
    3.2987    3.2328    0.1737 H   0  0  0  0  0  0  0  0  0  0  0  0
    3.7879    2.4046    1.6303 H   0  0  0  0  0  0  0  0  0  0  0  0
    1.6161    3.3327    1.8801 S   0  0  0  0  0  0  0  0  0  0  0  0
    3.8055    0.7338   -0.6494 C   0  0  0  0  0  0  0  0  0  0  0  0
    4.6954    1.5224   -0.9678 O   0  0  0  0  0  0  0  0  0  0  0  0
    3.7829   -0.5338   -1.0825 N   0  0  0  0  0  0  0  0  0  0  0  0
    3.0263   -1.1263   -0.7805 H   0  0  0  0  0  0  0  0  0  0  0  0
    4.7912   -1.1048   -1.9730 C   0  0  0  0  0  0  0  0  0  0  0  0
    4.7806   -0.5743   -2.9276 H   0  0  0  0  0  0  0  0  0  0  0  0
    5.7818   -0.9955   -1.5279 H   0  0  0  0  0  0  0  0  0  0  0  0
    4.5888   -2.1626   -2.1462 H   0  0  0  0  0  0  0  0  0  0  0  0
    0.7913    8.8292   -4.0302 H   0  0  0  0  0  0  0  0  0  0  0  0
    1.4228    8.5941   -3.1747 C   0  0  0  0  0  0  0  0  0  0  0  0
    1.7050    9.5129   -2.6630 H   0  0  0  0  0  0  0  0  0  0  0  0
    2.3150    8.0702   -3.5122 H   0  0  0  0  0  0  0  0  0  0  0  0
    0.6514    7.7084   -2.2246 C   0  0  0  0  0  0  0  0  0  0  0  0
   -0.4922    7.3646   -2.4908 O   0  0  0  0  0  0  0  0  0  0  0  0
    1.2851    7.3325   -1.1169 N   0  0  0  0  0  0  0  0  0  0  0  0
    2.2257    7.6632   -0.9576 H   0  0  0  0  0  0  0  0  0  0  0  0
    0.7090    6.4735   -0.0823 C   0  0  1  0  0  0  0  0  0  0  0  0
   -0.3495    6.7142    0.0311 H   0  0  0  0  0  0  0  0  0  0  0  0
    0.8249    5.0173   -0.5542 C   0  0  0  0  0  0  0  0  0  0  0  0
    0.3030    4.9390   -1.5090 H   0  0  0  0  0  0  0  0  0  0  0  0
    1.8745    4.7900   -0.7420 H   0  0  0  0  0  0  0  0  0  0  0  0
    0.1410    3.7321    0.5263 S   0  0  0  0  0  0  0  0  0  0  0  0
    1.4040    6.7177    1.2689 C   0  0  0  0  0  0  0  0  0  0  0  0
    2.5869    7.0602    1.2986 O   0  0  0  0  0  0  0  0  0  0  0  0
    0.6720    6.5509    2.3779 N   0  0  0  0  0  0  0  0  0  0  0  0
   -0.2794    6.2369    2.2701 H   0  0  0  0  0  0  0  0  0  0  0  0
    1.1826    6.7341    3.7359 C   0  0  0  0  0  0  0  0  0  0  0  0
    1.8266    5.8946    4.0032 H   0  0  0  0  0  0  0  0  0  0  0  0
    1.7683    7.6547    3.7939 H   0  0  0  0  0  0  0  0  0  0  0  0
    0.3563    6.7927    4.4445 H   0  0  0  0  0  0  0  0  0  0  0  0
  5  6  2  0  0  0  0
  5  7  1  0  0  0  0
  2  3  1  0  0  0  0
  2  4  1  0  0  0  0
  2  5  1  0  0  0  0
  1  2  1  0  0  0  0
 15 16  2  0  0  0  0
 15 17  1  0  0  0  0
 14 36  1  0  0  0  0
 11 12  1  0  0  0  0
 11 13  1  0  0  0  0
 11 14  1  0  0  0  0
  9 10  1  0  0  0  0
  9 11  1  0  0  0  0
  9 15  1  0  0  0  0
  7  8  1  0  0  0  0
  7  9  1  0  0  0  0
 19 20  1  0  0  0  0
 19 21  1  0  0  0  0
 19 22  1  0  0  0  0
 17 18  1  0  0  0  0
 17 19  1  0  0  0  0
 27 28  2  0  0  0  0
 27 29  1  0  0  0  0
 24 25  1  0  0  0  0
 24 26  1  0  0  0  0
 24 27  1  0  0  0  0
 23 24  1  0  0  0  0
 37 38  2  0  0  0  0
 37 39  1  0  0  0  0
 33 34  1  0  0  0  0
 33 35  1  0  0  0  0
 33 36  1  0  0  0  0
 31 32  1  0  0  0  0
 31 33  1  0  0  0  0
 31 37  1  0  0  0  0
 29 30  1  0  0  0  0
 29 31  1  0  0  0  0
 41 42  1  0  0  0  0
 41 43  1  0  0  0  0
 41 44  1  0  0  0  0
 39 40  1  0  0  0  0
 39 41  1  0  0  0  0
M  END
$$$$
default_name
  -OEChem-01062215323D

 44 43  0     1  0  0  0  0  0999 V2000
    2.4488   -3.0448    2.0990 H   0  0  0  0  0  0  0  0  0  0  0  0
    2.2788   -2.0018    2.3640 C   0  0  0  0  0  0  0  0  0  0  0  0
    2.9228   -1.7258    3.1960 H   0  0  0  0  0  0  0  0  0  0  0  0
    1.2358   -1.8618    2.6430 H   0  0  0  0  0  0  0  0  0  0  0  0
    2.6018   -1.1318    1.1730 C   0  0  0  0  0  0  0  0  0  0  0  0
    3.0048   -1.6348    0.1320 O   0  0  0  0  0  0  0  0  0  0  0  0
    2.4088    0.1752    1.3190 N   0  0  0  0  0  0  0  0  0  0  0  0
    2.0708    0.5242    2.2050 H   0  0  0  0  0  0  0  0  0  0  0  0
    2.6638    1.1782    0.2840 C   0  0  1  0  0  0  0  0  0  0  0  0
    1.7606    1.2799   -0.3200 H   0  0  0  0  0  0  0  0  0  0  0  0
    2.9544    2.5387    0.9413 C   0  0  0  0  0  0  0  0  0  0  0  0
    3.2987    3.2328    0.1737 H   0  0  0  0  0  0  0  0  0  0  0  0
    3.7879    2.4046    1.6303 H   0  0  0  0  0  0  0  0  0  0  0  0
    1.6161    3.3327    1.8801 S   0  0  0  0  0  0  0  0  0  0  0  0
    3.8055    0.7338   -0.6494 C   0  0  0  0  0  0  0  0  0  0  0  0
    4.8284    1.4108   -0.7521 O   0  0  0  0  0  0  0  0  0  0  0  0
    3.6326   -0.4100   -1.3253 N   0  0  0  0  0  0  0  0  0  0  0  0
    2.7718   -0.9159   -1.1919 H   0  0  0  0  0  0  0  0  0  0  0  0
    4.6202   -0.9631   -2.2497 C   0  0  0  0  0  0  0  0  0  0  0  0
    4.7750   -0.2700   -3.0793 H   0  0  0  0  0  0  0  0  0  0  0  0
    5.5719   -1.1025   -1.7337 H   0  0  0  0  0  0  0  0  0  0  0  0
    4.2783   -1.9224   -2.6404 H   0  0  0  0  0  0  0  0  0  0  0  0
    0.7913    8.8292   -4.0302 H   0  0  0  0  0  0  0  0  0  0  0  0
    1.4228    8.5941   -3.1747 C   0  0  0  0  0  0  0  0  0  0  0  0
    1.7050    9.5129   -2.6630 H   0  0  0  0  0  0  0  0  0  0  0  0
    2.3150    8.0702   -3.5122 H   0  0  0  0  0  0  0  0  0  0  0  0
    0.6514    7.7084   -2.2246 C   0  0  0  0  0  0  0  0  0  0  0  0
   -0.4922    7.3646   -2.4908 O   0  0  0  0  0  0  0  0  0  0  0  0
    1.2851    7.3325   -1.1169 N   0  0  0  0  0  0  0  0  0  0  0  0
    2.2257    7.6632   -0.9576 H   0  0  0  0  0  0  0  0  0  0  0  0
    0.7090    6.4735   -0.0823 C   0  0  1  0  0  0  0  0  0  0  0  0
   -0.3495    6.7142    0.0311 H   0  0  0  0  0  0  0  0  0  0  0  0
    0.8249    5.0173   -0.5542 C   0  0  0  0  0  0  0  0  0  0  0  0
    0.3030    4.9390   -1.5090 H   0  0  0  0  0  0  0  0  0  0  0  0
    1.8745    4.7900   -0.7420 H   0  0  0  0  0  0  0  0  0  0  0  0
    0.1410    3.7321    0.5263 S   0  0  0  0  0  0  0  0  0  0  0  0
    1.4040    6.7177    1.2689 C   0  0  0  0  0  0  0  0  0  0  0  0
    2.5869    7.0602    1.2986 O   0  0  0  0  0  0  0  0  0  0  0  0
    0.6720    6.5509    2.3779 N   0  0  0  0  0  0  0  0  0  0  0  0
   -0.2794    6.2369    2.2701 H   0  0  0  0  0  0  0  0  0  0  0  0
    1.1826    6.7341    3.7359 C   0  0  0  0  0  0  0  0  0  0  0  0
    1.8266    5.8946    4.0032 H   0  0  0  0  0  0  0  0  0  0  0  0
    1.7683    7.6547    3.7939 H   0  0  0  0  0  0  0  0  0  0  0  0
    0.3563    6.7927    4.4445 H   0  0  0  0  0  0  0  0  0  0  0  0
  5  6  2  0  0  0  0
  5  7  1  0  0  0  0
  2  3  1  0  0  0  0
  2  4  1  0  0  0  0
  2  5  1  0  0  0  0
  1  2  1  0  0  0  0
 15 16  2  0  0  0  0
 15 17  1  0  0  0  0
 14 36  1  0  0  0  0
 11 12  1  0  0  0  0
 11 13  1  0  0  0  0
 11 14  1  0  0  0  0
  9 10  1  0  0  0  0
  9 11  1  0  0  0  0
  9 15  1  0  0  0  0
  7  8  1  0  0  0  0
  7  9  1  0  0  0  0
 19 20  1  0  0  0  0
 19 21  1  0  0  0  0
 19 22  1  0  0  0  0
 17 18  1  0  0  0  0
 17 19  1  0  0  0  0
 27 28  2  0  0  0  0
 27 29  1  0  0  0  0
 24 25  1  0  0  0  0
 24 26  1  0  0  0  0
 24 27  1  0  0  0  0
 23 24  1  0  0  0  0
 37 38  2  0  0  0  0
 37 39  1  0  0  0  0
 33 34  1  0  0  0  0
 33 35  1  0  0  0  0
 33 36  1  0  0  0  0
 31 32  1  0  0  0  0
 31 33  1  0  0  0  0
 31 37  1  0  0  0  0
 29 30  1  0  0  0  0
 29 31  1  0  0  0  0
 41 42  1  0  0  0  0
 41 43  1  0  0  0  0
 41 44  1  0  0  0  0
 39 40  1  0  0  0  0
 39 41  1  0  0  0  0
M  END
$$$$
default_name
  -OEChem-01062215323D

 44 43  0     1  0  0  0  0  0999 V2000
    2.4488   -3.0448    2.0990 H   0  0  0  0  0  0  0  0  0  0  0  0
    2.2788   -2.0018    2.3640 C   0  0  0  0  0  0  0  0  0  0  0  0
    2.9228   -1.7258    3.1960 H   0  0  0  0  0  0  0  0  0  0  0  0
    1.2358   -1.8618    2.6430 H   0  0  0  0  0  0  0  0  0  0  0  0
    2.6018   -1.1318    1.1730 C   0  0  0  0  0  0  0  0  0  0  0  0
    3.0048   -1.6348    0.1320 O   0  0  0  0  0  0  0  0  0  0  0  0
    2.4088    0.1752    1.3190 N   0  0  0  0  0  0  0  0  0  0  0  0
    2.0708    0.5242    2.2050 H   0  0  0  0  0  0  0  0  0  0  0  0
    2.6638    1.1782    0.2840 C   0  0  1  0  0  0  0  0  0  0  0  0
    1.7606    1.2799   -0.3200 H   0  0  0  0  0  0  0  0  0  0  0  0
    2.9544    2.5387    0.9413 C   0  0  0  0  0  0  0  0  0  0  0  0
    3.2987    3.2328    0.1737 H   0  0  0  0  0  0  0  0  0  0  0  0
    3.7879    2.4046    1.6303 H   0  0  0  0  0  0  0  0  0  0  0  0
    1.6161    3.3327    1.8801 S   0  0  0  0  0  0  0  0  0  0  0  0
    3.8055    0.7338   -0.6494 C   0  0  0  0  0  0  0  0  0  0  0  0
    4.9232    1.2409   -0.5553 O   0  0  0  0  0  0  0  0  0  0  0  0
    3.5250   -0.2202   -1.5472 N   0  0  0  0  0  0  0  0  0  0  0  0
    2.5898   -0.5939   -1.5679 H   0  0  0  0  0  0  0  0  0  0  0  0
    4.4979   -0.7463   -2.5025 C   0  0  0  0  0  0  0  0  0  0  0  0
    4.8286    0.0539   -3.1679 H   0  0  0  0  0  0  0  0  0  0  0  0
    5.3677   -1.1335   -1.9687 H   0  0  0  0  0  0  0  0  0  0  0  0
    4.0529   -1.5469   -3.0948 H   0  0  0  0  0  0  0  0  0  0  0  0
    0.7913    8.8292   -4.0302 H   0  0  0  0  0  0  0  0  0  0  0  0
    1.4228    8.5941   -3.1747 C   0  0  0  0  0  0  0  0  0  0  0  0
    1.7050    9.5129   -2.6630 H   0  0  0  0  0  0  0  0  0  0  0  0
    2.3150    8.0702   -3.5122 H   0  0  0  0  0  0  0  0  0  0  0  0
    0.6514    7.7084   -2.2246 C   0  0  0  0  0  0  0  0  0  0  0  0
   -0.4922    7.3646   -2.4908 O   0  0  0  0  0  0  0  0  0  0  0  0
    1.2851    7.3325   -1.1169 N   0  0  0  0  0  0  0  0  0  0  0  0
    2.2257    7.6632   -0.9576 H   0  0  0  0  0  0  0  0  0  0  0  0
    0.7090    6.4735   -0.0823 C   0  0  1  0  0  0  0  0  0  0  0  0
   -0.3495    6.7142    0.0311 H   0  0  0  0  0  0  0  0  0  0  0  0
    0.8249    5.0173   -0.5542 C   0  0  0  0  0  0  0  0  0  0  0  0
    0.3030    4.9390   -1.5090 H   0  0  0  0  0  0  0  0  0  0  0  0
    1.8745    4.7900   -0.7420 H   0  0  0  0  0  0  0  0  0  0  0  0
    0.1410    3.7321    0.5263 S   0  0  0  0  0  0  0  0  0  0  0  0
    1.4040    6.7177    1.2689 C   0  0  0  0  0  0  0  0  0  0  0  0
    2.5869    7.0602    1.2986 O   0  0  0  0  0  0  0  0  0  0  0  0
    0.6720    6.5509    2.3779 N   0  0  0  0  0  0  0  0  0  0  0  0
   -0.2794    6.2369    2.2701 H   0  0  0  0  0  0  0  0  0  0  0  0
    1.1826    6.7341    3.7359 C   0  0  0  0  0  0  0  0  0  0  0  0
    1.8266    5.8946    4.0032 H   0  0  0  0  0  0  0  0  0  0  0  0
    1.7683    7.6547    3.7939 H   0  0  0  0  0  0  0  0  0  0  0  0
    0.3563    6.7927    4.4445 H   0  0  0  0  0  0  0  0  0  0  0  0
  5  6  2  0  0  0  0
  5  7  1  0  0  0  0
  2  3  1  0  0  0  0
  2  4  1  0  0  0  0
  2  5  1  0  0  0  0
  1  2  1  0  0  0  0
 15 16  2  0  0  0  0
 15 17  1  0  0  0  0
 14 36  1  0  0  0  0
 11 12  1  0  0  0  0
 11 13  1  0  0  0  0
 11 14  1  0  0  0  0
  9 10  1  0  0  0  0
  9 11  1  0  0  0  0
  9 15  1  0  0  0  0
  7  8  1  0  0  0  0
  7  9  1  0  0  0  0
 19 20  1  0  0  0  0
 19 21  1  0  0  0  0
 19 22  1  0  0  0  0
 17 18  1  0  0  0  0
 17 19  1  0  0  0  0
 27 28  2  0  0  0  0
 27 29  1  0  0  0  0
 24 25  1  0  0  0  0
 24 26  1  0  0  0  0
 24 27  1  0  0  0  0
 23 24  1  0  0  0  0
 37 38  2  0  0  0  0
 37 39  1  0  0  0  0
 33 34  1  0  0  0  0
 33 35  1  0  0  0  0
 33 36  1  0  0  0  0
 31 32  1  0  0  0  0
 31 33  1  0  0  0  0
 31 37  1  0  0  0  0
 29 30  1  0  0  0  0
 29 31  1  0  0  0  0
 41 42  1  0  0  0  0
 41 43  1  0  0  0  0
 41 44  1  0  0  0  0
 39 40  1  0  0  0  0
 39 41  1  0  0  0  0
M  END
$$$$
default_name
  -OEChem-01062215323D

 44 43  0     1  0  0  0  0  0999 V2000
    2.4488   -3.0448    2.0990 H   0  0  0  0  0  0  0  0  0  0  0  0
    2.2788   -2.0018    2.3640 C   0  0  0  0  0  0  0  0  0  0  0  0
    2.9228   -1.7258    3.1960 H   0  0  0  0  0  0  0  0  0  0  0  0
    1.2358   -1.8618    2.6430 H   0  0  0  0  0  0  0  0  0  0  0  0
    2.6018   -1.1318    1.1730 C   0  0  0  0  0  0  0  0  0  0  0  0
    3.0048   -1.6348    0.1320 O   0  0  0  0  0  0  0  0  0  0  0  0
    2.4088    0.1752    1.3190 N   0  0  0  0  0  0  0  0  0  0  0  0
    2.0708    0.5242    2.2050 H   0  0  0  0  0  0  0  0  0  0  0  0
    2.6638    1.1782    0.2840 C   0  0  1  0  0  0  0  0  0  0  0  0
    1.7606    1.2799   -0.3200 H   0  0  0  0  0  0  0  0  0  0  0  0
    2.9544    2.5387    0.9413 C   0  0  0  0  0  0  0  0  0  0  0  0
    3.2987    3.2328    0.1737 H   0  0  0  0  0  0  0  0  0  0  0  0
    3.7879    2.4046    1.6303 H   0  0  0  0  0  0  0  0  0  0  0  0
    1.6161    3.3327    1.8801 S   0  0  0  0  0  0  0  0  0  0  0  0
    3.8055    0.7338   -0.6494 C   0  0  0  0  0  0  0  0  0  0  0  0
    4.9734    1.0241   -0.3906 O   0  0  0  0  0  0  0  0  0  0  0  0
    3.4674    0.0225   -1.7332 N   0  0  0  0  0  0  0  0  0  0  0  0
    2.4925   -0.1821   -1.8829 H   0  0  0  0  0  0  0  0  0  0  0  0
    4.4326   -0.4693   -2.7142 C   0  0  0  0  0  0  0  0  0  0  0  0
    4.9379    0.3754   -3.1874 H   0  0  0  0  0  0  0  0  0  0  0  0
    5.1831   -1.0864   -2.2169 H   0  0  0  0  0  0  0  0  0  0  0  0
    3.9281   -1.0617   -3.4786 H   0  0  0  0  0  0  0  0  0  0  0  0
    0.7913    8.8292   -4.0302 H   0  0  0  0  0  0  0  0  0  0  0  0
    1.4228    8.5941   -3.1747 C   0  0  0  0  0  0  0  0  0  0  0  0
    1.7050    9.5129   -2.6630 H   0  0  0  0  0  0  0  0  0  0  0  0
    2.3150    8.0702   -3.5122 H   0  0  0  0  0  0  0  0  0  0  0  0
    0.6514    7.7084   -2.2246 C   0  0  0  0  0  0  0  0  0  0  0  0
   -0.4922    7.3646   -2.4908 O   0  0  0  0  0  0  0  0  0  0  0  0
    1.2851    7.3325   -1.1169 N   0  0  0  0  0  0  0  0  0  0  0  0
    2.2257    7.6632   -0.9576 H   0  0  0  0  0  0  0  0  0  0  0  0
    0.7090    6.4735   -0.0823 C   0  0  1  0  0  0  0  0  0  0  0  0
   -0.3495    6.7142    0.0311 H   0  0  0  0  0  0  0  0  0  0  0  0
    0.8249    5.0173   -0.5542 C   0  0  0  0  0  0  0  0  0  0  0  0
    0.3030    4.9390   -1.5090 H   0  0  0  0  0  0  0  0  0  0  0  0
    1.8745    4.7900   -0.7420 H   0  0  0  0  0  0  0  0  0  0  0  0
    0.1410    3.7321    0.5263 S   0  0  0  0  0  0  0  0  0  0  0  0
    1.4040    6.7177    1.2689 C   0  0  0  0  0  0  0  0  0  0  0  0
    2.5869    7.0602    1.2986 O   0  0  0  0  0  0  0  0  0  0  0  0
    0.6720    6.5509    2.3779 N   0  0  0  0  0  0  0  0  0  0  0  0
   -0.2794    6.2369    2.2701 H   0  0  0  0  0  0  0  0  0  0  0  0
    1.1826    6.7341    3.7359 C   0  0  0  0  0  0  0  0  0  0  0  0
    1.8266    5.8946    4.0032 H   0  0  0  0  0  0  0  0  0  0  0  0
    1.7683    7.6547    3.7939 H   0  0  0  0  0  0  0  0  0  0  0  0
    0.3563    6.7927    4.4445 H   0  0  0  0  0  0  0  0  0  0  0  0
  5  6  2  0  0  0  0
  5  7  1  0  0  0  0
  2  3  1  0  0  0  0
  2  4  1  0  0  0  0
  2  5  1  0  0  0  0
  1  2  1  0  0  0  0
 15 16  2  0  0  0  0
 15 17  1  0  0  0  0
 14 36  1  0  0  0  0
 11 12  1  0  0  0  0
 11 13  1  0  0  0  0
 11 14  1  0  0  0  0
  9 10  1  0  0  0  0
  9 11  1  0  0  0  0
  9 15  1  0  0  0  0
  7  8  1  0  0  0  0
  7  9  1  0  0  0  0
 19 20  1  0  0  0  0
 19 21  1  0  0  0  0
 19 22  1  0  0  0  0
 17 18  1  0  0  0  0
 17 19  1  0  0  0  0
 27 28  2  0  0  0  0
 27 29  1  0  0  0  0
 24 25  1  0  0  0  0
 24 26  1  0  0  0  0
 24 27  1  0  0  0  0
 23 24  1  0  0  0  0
 37 38  2  0  0  0  0
 37 39  1  0  0  0  0
 33 34  1  0  0  0  0
 33 35  1  0  0  0  0
 33 36  1  0  0  0  0
 31 32  1  0  0  0  0
 31 33  1  0  0  0  0
 31 37  1  0  0  0  0
 29 30  1  0  0  0  0
 29 31  1  0  0  0  0
 41 42  1  0  0  0  0
 41 43  1  0  0  0  0
 41 44  1  0  0  0  0
 39 40  1  0  0  0  0
 39 41  1  0  0  0  0
M  END
$$$$
default_name
  -OEChem-01062215323D

 44 43  0     1  0  0  0  0  0999 V2000
    2.4488   -3.0448    2.0990 H   0  0  0  0  0  0  0  0  0  0  0  0
    2.2788   -2.0018    2.3640 C   0  0  0  0  0  0  0  0  0  0  0  0
    2.9228   -1.7258    3.1960 H   0  0  0  0  0  0  0  0  0  0  0  0
    1.2358   -1.8618    2.6430 H   0  0  0  0  0  0  0  0  0  0  0  0
    2.6018   -1.1318    1.1730 C   0  0  0  0  0  0  0  0  0  0  0  0
    3.0048   -1.6348    0.1320 O   0  0  0  0  0  0  0  0  0  0  0  0
    2.4088    0.1752    1.3190 N   0  0  0  0  0  0  0  0  0  0  0  0
    2.0708    0.5242    2.2050 H   0  0  0  0  0  0  0  0  0  0  0  0
    2.6638    1.1782    0.2840 C   0  0  1  0  0  0  0  0  0  0  0  0
    1.7606    1.2799   -0.3200 H   0  0  0  0  0  0  0  0  0  0  0  0
    2.9544    2.5387    0.9413 C   0  0  0  0  0  0  0  0  0  0  0  0
    3.2987    3.2328    0.1737 H   0  0  0  0  0  0  0  0  0  0  0  0
    3.7879    2.4046    1.6303 H   0  0  0  0  0  0  0  0  0  0  0  0
    1.6161    3.3327    1.8801 S   0  0  0  0  0  0  0  0  0  0  0  0
    3.8055    0.7338   -0.6494 C   0  0  0  0  0  0  0  0  0  0  0  0
    4.9756    0.7752   -0.2695 O   0  0  0  0  0  0  0  0  0  0  0  0
    3.4638    0.3017   -1.8706 N   0  0  0  0  0  0  0  0  0  0  0  0
    2.4867    0.2913   -2.1155 H   0  0  0  0  0  0  0  0  0  0  0  0
    4.4288   -0.1508   -2.8705 C   0  0  0  0  0  0  0  0  0  0  0  0
    5.0953    0.6726   -3.1363 H   0  0  0  0  0  0  0  0  0  0  0  0
    5.0308   -0.9642   -2.4614 H   0  0  0  0  0  0  0  0  0  0  0  0
    3.9122   -0.4998   -3.7655 H   0  0  0  0  0  0  0  0  0  0  0  0
    0.7913    8.8292   -4.0302 H   0  0  0  0  0  0  0  0  0  0  0  0
    1.4228    8.5941   -3.1747 C   0  0  0  0  0  0  0  0  0  0  0  0
    1.7050    9.5129   -2.6630 H   0  0  0  0  0  0  0  0  0  0  0  0
    2.3150    8.0702   -3.5122 H   0  0  0  0  0  0  0  0  0  0  0  0
    0.6514    7.7084   -2.2246 C   0  0  0  0  0  0  0  0  0  0  0  0
   -0.4922    7.3646   -2.4908 O   0  0  0  0  0  0  0  0  0  0  0  0
    1.2851    7.3325   -1.1169 N   0  0  0  0  0  0  0  0  0  0  0  0
    2.2257    7.6632   -0.9576 H   0  0  0  0  0  0  0  0  0  0  0  0
    0.7090    6.4735   -0.0823 C   0  0  1  0  0  0  0  0  0  0  0  0
   -0.3495    6.7142    0.0311 H   0  0  0  0  0  0  0  0  0  0  0  0
    0.8249    5.0173   -0.5542 C   0  0  0  0  0  0  0  0  0  0  0  0
    0.3030    4.9390   -1.5090 H   0  0  0  0  0  0  0  0  0  0  0  0
    1.8745    4.7900   -0.7420 H   0  0  0  0  0  0  0  0  0  0  0  0
    0.1410    3.7321    0.5263 S   0  0  0  0  0  0  0  0  0  0  0  0
    1.4040    6.7177    1.2689 C   0  0  0  0  0  0  0  0  0  0  0  0
    2.5869    7.0602    1.2986 O   0  0  0  0  0  0  0  0  0  0  0  0
    0.6720    6.5509    2.3779 N   0  0  0  0  0  0  0  0  0  0  0  0
   -0.2794    6.2369    2.2701 H   0  0  0  0  0  0  0  0  0  0  0  0
    1.1826    6.7341    3.7359 C   0  0  0  0  0  0  0  0  0  0  0  0
    1.8266    5.8946    4.0032 H   0  0  0  0  0  0  0  0  0  0  0  0
    1.7683    7.6547    3.7939 H   0  0  0  0  0  0  0  0  0  0  0  0
    0.3563    6.7927    4.4445 H   0  0  0  0  0  0  0  0  0  0  0  0
  5  6  2  0  0  0  0
  5  7  1  0  0  0  0
  2  3  1  0  0  0  0
  2  4  1  0  0  0  0
  2  5  1  0  0  0  0
  1  2  1  0  0  0  0
 15 16  2  0  0  0  0
 15 17  1  0  0  0  0
 14 36  1  0  0  0  0
 11 12  1  0  0  0  0
 11 13  1  0  0  0  0
 11 14  1  0  0  0  0
  9 10  1  0  0  0  0
  9 11  1  0  0  0  0
  9 15  1  0  0  0  0
  7  8  1  0  0  0  0
  7  9  1  0  0  0  0
 19 20  1  0  0  0  0
 19 21  1  0  0  0  0
 19 22  1  0  0  0  0
 17 18  1  0  0  0  0
 17 19  1  0  0  0  0
 27 28  2  0  0  0  0
 27 29  1  0  0  0  0
 24 25  1  0  0  0  0
 24 26  1  0  0  0  0
 24 27  1  0  0  0  0
 23 24  1  0  0  0  0
 37 38  2  0  0  0  0
 37 39  1  0  0  0  0
 33 34  1  0  0  0  0
 33 35  1  0  0  0  0
 33 36  1  0  0  0  0
 31 32  1  0  0  0  0
 31 33  1  0  0  0  0
 31 37  1  0  0  0  0
 29 30  1  0  0  0  0
 29 31  1  0  0  0  0
 41 42  1  0  0  0  0
 41 43  1  0  0  0  0
 41 44  1  0  0  0  0
 39 40  1  0  0  0  0
 39 41  1  0  0  0  0
M  END
$$$$
default_name
  -OEChem-01062215323D

 44 43  0     1  0  0  0  0  0999 V2000
    2.4488   -3.0448    2.0990 H   0  0  0  0  0  0  0  0  0  0  0  0
    2.2788   -2.0018    2.3640 C   0  0  0  0  0  0  0  0  0  0  0  0
    2.9228   -1.7258    3.1960 H   0  0  0  0  0  0  0  0  0  0  0  0
    1.2358   -1.8618    2.6430 H   0  0  0  0  0  0  0  0  0  0  0  0
    2.6018   -1.1318    1.1730 C   0  0  0  0  0  0  0  0  0  0  0  0
    3.0048   -1.6348    0.1320 O   0  0  0  0  0  0  0  0  0  0  0  0
    2.4088    0.1752    1.3190 N   0  0  0  0  0  0  0  0  0  0  0  0
    2.0708    0.5242    2.2050 H   0  0  0  0  0  0  0  0  0  0  0  0
    2.6638    1.1782    0.2840 C   0  0  1  0  0  0  0  0  0  0  0  0
    1.7606    1.2799   -0.3200 H   0  0  0  0  0  0  0  0  0  0  0  0
    2.9544    2.5387    0.9413 C   0  0  0  0  0  0  0  0  0  0  0  0
    3.2987    3.2328    0.1737 H   0  0  0  0  0  0  0  0  0  0  0  0
    3.7879    2.4046    1.6303 H   0  0  0  0  0  0  0  0  0  0  0  0
    1.6161    3.3327    1.8801 S   0  0  0  0  0  0  0  0  0  0  0  0
    3.8055    0.7338   -0.6494 C   0  0  0  0  0  0  0  0  0  0  0  0
    4.9296    0.5112   -0.2000 O   0  0  0  0  0  0  0  0  0  0  0  0
    3.5143    0.5983   -1.9501 N   0  0  0  0  0  0  0  0  0  0  0  0
    2.5727    0.7941   -2.2497 H   0  0  0  0  0  0  0  0  0  0  0  0
    4.4868    0.1875   -2.9606 C   0  0  0  0  0  0  0  0  0  0  0  0
    5.2901    0.9251   -3.0183 H   0  0  0  0  0  0  0  0  0  0  0  0
    4.9211   -0.7755   -2.6855 H   0  0  0  0  0  0  0  0  0  0  0  0
    4.0065    0.1005   -3.9360 H   0  0  0  0  0  0  0  0  0  0  0  0
    0.7913    8.8292   -4.0302 H   0  0  0  0  0  0  0  0  0  0  0  0
    1.4228    8.5941   -3.1747 C   0  0  0  0  0  0  0  0  0  0  0  0
    1.7050    9.5129   -2.6630 H   0  0  0  0  0  0  0  0  0  0  0  0
    2.3150    8.0702   -3.5122 H   0  0  0  0  0  0  0  0  0  0  0  0
    0.6514    7.7084   -2.2246 C   0  0  0  0  0  0  0  0  0  0  0  0
   -0.4922    7.3646   -2.4908 O   0  0  0  0  0  0  0  0  0  0  0  0
    1.2851    7.3325   -1.1169 N   0  0  0  0  0  0  0  0  0  0  0  0
    2.2257    7.6632   -0.9576 H   0  0  0  0  0  0  0  0  0  0  0  0
    0.7090    6.4735   -0.0823 C   0  0  1  0  0  0  0  0  0  0  0  0
   -0.3495    6.7142    0.0311 H   0  0  0  0  0  0  0  0  0  0  0  0
    0.8249    5.0173   -0.5542 C   0  0  0  0  0  0  0  0  0  0  0  0
    0.3030    4.9390   -1.5090 H   0  0  0  0  0  0  0  0  0  0  0  0
    1.8745    4.7900   -0.7420 H   0  0  0  0  0  0  0  0  0  0  0  0
    0.1410    3.7321    0.5263 S   0  0  0  0  0  0  0  0  0  0  0  0
    1.4040    6.7177    1.2689 C   0  0  0  0  0  0  0  0  0  0  0  0
    2.5869    7.0602    1.2986 O   0  0  0  0  0  0  0  0  0  0  0  0
    0.6720    6.5509    2.3779 N   0  0  0  0  0  0  0  0  0  0  0  0
   -0.2794    6.2369    2.2701 H   0  0  0  0  0  0  0  0  0  0  0  0
    1.1826    6.7341    3.7359 C   0  0  0  0  0  0  0  0  0  0  0  0
    1.8266    5.8946    4.0032 H   0  0  0  0  0  0  0  0  0  0  0  0
    1.7683    7.6547    3.7939 H   0  0  0  0  0  0  0  0  0  0  0  0
    0.3563    6.7927    4.4445 H   0  0  0  0  0  0  0  0  0  0  0  0
  5  6  2  0  0  0  0
  5  7  1  0  0  0  0
  2  3  1  0  0  0  0
  2  4  1  0  0  0  0
  2  5  1  0  0  0  0
  1  2  1  0  0  0  0
 15 16  2  0  0  0  0
 15 17  1  0  0  0  0
 14 36  1  0  0  0  0
 11 12  1  0  0  0  0
 11 13  1  0  0  0  0
 11 14  1  0  0  0  0
  9 10  1  0  0  0  0
  9 11  1  0  0  0  0
  9 15  1  0  0  0  0
  7  8  1  0  0  0  0
  7  9  1  0  0  0  0
 19 20  1  0  0  0  0
 19 21  1  0  0  0  0
 19 22  1  0  0  0  0
 17 18  1  0  0  0  0
 17 19  1  0  0  0  0
 27 28  2  0  0  0  0
 27 29  1  0  0  0  0
 24 25  1  0  0  0  0
 24 26  1  0  0  0  0
 24 27  1  0  0  0  0
 23 24  1  0  0  0  0
 37 38  2  0  0  0  0
 37 39  1  0  0  0  0
 33 34  1  0  0  0  0
 33 35  1  0  0  0  0
 33 36  1  0  0  0  0
 31 32  1  0  0  0  0
 31 33  1  0  0  0  0
 31 37  1  0  0  0  0
 29 30  1  0  0  0  0
 29 31  1  0  0  0  0
 41 42  1  0  0  0  0
 41 43  1  0  0  0  0
 41 44  1  0  0  0  0
 39 40  1  0  0  0  0
 39 41  1  0  0  0  0
M  END
$$$$
default_name
  -OEChem-01062215323D

 44 43  0     1  0  0  0  0  0999 V2000
    2.4488   -3.0448    2.0990 H   0  0  0  0  0  0  0  0  0  0  0  0
    2.2788   -2.0018    2.3640 C   0  0  0  0  0  0  0  0  0  0  0  0
    2.9228   -1.7258    3.1960 H   0  0  0  0  0  0  0  0  0  0  0  0
    1.2358   -1.8618    2.6430 H   0  0  0  0  0  0  0  0  0  0  0  0
    2.6018   -1.1318    1.1730 C   0  0  0  0  0  0  0  0  0  0  0  0
    3.0048   -1.6348    0.1320 O   0  0  0  0  0  0  0  0  0  0  0  0
    2.4088    0.1752    1.3190 N   0  0  0  0  0  0  0  0  0  0  0  0
    2.0708    0.5242    2.2050 H   0  0  0  0  0  0  0  0  0  0  0  0
    2.6638    1.1782    0.2840 C   0  0  1  0  0  0  0  0  0  0  0  0
    1.7606    1.2799   -0.3200 H   0  0  0  0  0  0  0  0  0  0  0  0
    2.9544    2.5387    0.9413 C   0  0  0  0  0  0  0  0  0  0  0  0
    3.2987    3.2328    0.1737 H   0  0  0  0  0  0  0  0  0  0  0  0
    3.7879    2.4046    1.6303 H   0  0  0  0  0  0  0  0  0  0  0  0
    1.6161    3.3327    1.8801 S   0  0  0  0  0  0  0  0  0  0  0  0
    3.8055    0.7338   -0.6494 C   0  0  0  0  0  0  0  0  0  0  0  0
    4.8386    0.2501   -0.1870 O   0  0  0  0  0  0  0  0  0  0  0  0
    3.6155    0.8922   -1.9661 N   0  0  0  0  0  0  0  0  0  0  0  0
    2.7446    1.2921   -2.2764 H   0  0  0  0  0  0  0  0  0  0  0  0
    4.6026    0.5223   -2.9784 C   0  0  0  0  0  0  0  0  0  0  0  0
    5.5091    1.1158   -2.8412 H   0  0  0  0  0  0  0  0  0  0  0  0
    4.8614   -0.5329   -2.8739 H   0  0  0  0  0  0  0  0  0  0  0  0
    4.2044    0.6983   -3.9785 H   0  0  0  0  0  0  0  0  0  0  0  0
    0.7913    8.8292   -4.0302 H   0  0  0  0  0  0  0  0  0  0  0  0
    1.4228    8.5941   -3.1747 C   0  0  0  0  0  0  0  0  0  0  0  0
    1.7050    9.5129   -2.6630 H   0  0  0  0  0  0  0  0  0  0  0  0
    2.3150    8.0702   -3.5122 H   0  0  0  0  0  0  0  0  0  0  0  0
    0.6514    7.7084   -2.2246 C   0  0  0  0  0  0  0  0  0  0  0  0
   -0.4922    7.3646   -2.4908 O   0  0  0  0  0  0  0  0  0  0  0  0
    1.2851    7.3325   -1.1169 N   0  0  0  0  0  0  0  0  0  0  0  0
    2.2257    7.6632   -0.9576 H   0  0  0  0  0  0  0  0  0  0  0  0
    0.7090    6.4735   -0.0823 C   0  0  1  0  0  0  0  0  0  0  0  0
   -0.3495    6.7142    0.0311 H   0  0  0  0  0  0  0  0  0  0  0  0
    0.8249    5.0173   -0.5542 C   0  0  0  0  0  0  0  0  0  0  0  0
    0.3030    4.9390   -1.5090 H   0  0  0  0  0  0  0  0  0  0  0  0
    1.8745    4.7900   -0.7420 H   0  0  0  0  0  0  0  0  0  0  0  0
    0.1410    3.7321    0.5263 S   0  0  0  0  0  0  0  0  0  0  0  0
    1.4040    6.7177    1.2689 C   0  0  0  0  0  0  0  0  0  0  0  0
    2.5869    7.0602    1.2986 O   0  0  0  0  0  0  0  0  0  0  0  0
    0.6720    6.5509    2.3779 N   0  0  0  0  0  0  0  0  0  0  0  0
   -0.2794    6.2369    2.2701 H   0  0  0  0  0  0  0  0  0  0  0  0
    1.1826    6.7341    3.7359 C   0  0  0  0  0  0  0  0  0  0  0  0
    1.8266    5.8946    4.0032 H   0  0  0  0  0  0  0  0  0  0  0  0
    1.7683    7.6547    3.7939 H   0  0  0  0  0  0  0  0  0  0  0  0
    0.3563    6.7927    4.4445 H   0  0  0  0  0  0  0  0  0  0  0  0
  5  6  2  0  0  0  0
  5  7  1  0  0  0  0
  2  3  1  0  0  0  0
  2  4  1  0  0  0  0
  2  5  1  0  0  0  0
  1  2  1  0  0  0  0
 15 16  2  0  0  0  0
 15 17  1  0  0  0  0
 14 36  1  0  0  0  0
 11 12  1  0  0  0  0
 11 13  1  0  0  0  0
 11 14  1  0  0  0  0
  9 10  1  0  0  0  0
  9 11  1  0  0  0  0
  9 15  1  0  0  0  0
  7  8  1  0  0  0  0
  7  9  1  0  0  0  0
 19 20  1  0  0  0  0
 19 21  1  0  0  0  0
 19 22  1  0  0  0  0
 17 18  1  0  0  0  0
 17 19  1  0  0  0  0
 27 28  2  0  0  0  0
 27 29  1  0  0  0  0
 24 25  1  0  0  0  0
 24 26  1  0  0  0  0
 24 27  1  0  0  0  0
 23 24  1  0  0  0  0
 37 38  2  0  0  0  0
 37 39  1  0  0  0  0
 33 34  1  0  0  0  0
 33 35  1  0  0  0  0
 33 36  1  0  0  0  0
 31 32  1  0  0  0  0
 31 33  1  0  0  0  0
 31 37  1  0  0  0  0
 29 30  1  0  0  0  0
 29 31  1  0  0  0  0
 41 42  1  0  0  0  0
 41 43  1  0  0  0  0
 41 44  1  0  0  0  0
 39 40  1  0  0  0  0
 39 41  1  0  0  0  0
M  END
$$$$
default_name
  -OEChem-01062215323D

 44 43  0     1  0  0  0  0  0999 V2000
    2.4488   -3.0448    2.0990 H   0  0  0  0  0  0  0  0  0  0  0  0
    2.2788   -2.0018    2.3640 C   0  0  0  0  0  0  0  0  0  0  0  0
    2.9228   -1.7258    3.1960 H   0  0  0  0  0  0  0  0  0  0  0  0
    1.2358   -1.8618    2.6430 H   0  0  0  0  0  0  0  0  0  0  0  0
    2.6018   -1.1318    1.1730 C   0  0  0  0  0  0  0  0  0  0  0  0
    3.0048   -1.6348    0.1320 O   0  0  0  0  0  0  0  0  0  0  0  0
    2.4088    0.1752    1.3190 N   0  0  0  0  0  0  0  0  0  0  0  0
    2.0708    0.5242    2.2050 H   0  0  0  0  0  0  0  0  0  0  0  0
    2.6638    1.1782    0.2840 C   0  0  1  0  0  0  0  0  0  0  0  0
    1.7606    1.2799   -0.3200 H   0  0  0  0  0  0  0  0  0  0  0  0
    2.9544    2.5387    0.9413 C   0  0  0  0  0  0  0  0  0  0  0  0
    3.2987    3.2328    0.1737 H   0  0  0  0  0  0  0  0  0  0  0  0
    3.7879    2.4046    1.6303 H   0  0  0  0  0  0  0  0  0  0  0  0
    1.6161    3.3327    1.8801 S   0  0  0  0  0  0  0  0  0  0  0  0
    3.8055    0.7338   -0.6494 C   0  0  0  0  0  0  0  0  0  0  0  0
    4.7088    0.0097   -0.2313 O   0  0  0  0  0  0  0  0  0  0  0  0
    3.7606    1.1632   -1.9177 N   0  0  0  0  0  0  0  0  0  0  0  0
    2.9908    1.7512   -2.1939 H   0  0  0  0  0  0  0  0  0  0  0  0
    4.7683    0.8311   -2.9227 C   0  0  0  0  0  0  0  0  0  0  0  0
    5.7373    1.2317   -2.6173 H   0  0  0  0  0  0  0  0  0  0  0  0
    4.8559   -0.2531   -3.0138 H   0  0  0  0  0  0  0  0  0  0  0  0
    4.4925    1.2528   -3.8900 H   0  0  0  0  0  0  0  0  0  0  0  0
    0.7913    8.8292   -4.0302 H   0  0  0  0  0  0  0  0  0  0  0  0
    1.4228    8.5941   -3.1747 C   0  0  0  0  0  0  0  0  0  0  0  0
    1.7050    9.5129   -2.6630 H   0  0  0  0  0  0  0  0  0  0  0  0
    2.3150    8.0702   -3.5122 H   0  0  0  0  0  0  0  0  0  0  0  0
    0.6514    7.7084   -2.2246 C   0  0  0  0  0  0  0  0  0  0  0  0
   -0.4922    7.3646   -2.4908 O   0  0  0  0  0  0  0  0  0  0  0  0
    1.2851    7.3325   -1.1169 N   0  0  0  0  0  0  0  0  0  0  0  0
    2.2257    7.6632   -0.9576 H   0  0  0  0  0  0  0  0  0  0  0  0
    0.7090    6.4735   -0.0823 C   0  0  1  0  0  0  0  0  0  0  0  0
   -0.3495    6.7142    0.0311 H   0  0  0  0  0  0  0  0  0  0  0  0
    0.8249    5.0173   -0.5542 C   0  0  0  0  0  0  0  0  0  0  0  0
    0.3030    4.9390   -1.5090 H   0  0  0  0  0  0  0  0  0  0  0  0
    1.8745    4.7900   -0.7420 H   0  0  0  0  0  0  0  0  0  0  0  0
    0.1410    3.7321    0.5263 S   0  0  0  0  0  0  0  0  0  0  0  0
    1.4040    6.7177    1.2689 C   0  0  0  0  0  0  0  0  0  0  0  0
    2.5869    7.0602    1.2986 O   0  0  0  0  0  0  0  0  0  0  0  0
    0.6720    6.5509    2.3779 N   0  0  0  0  0  0  0  0  0  0  0  0
   -0.2794    6.2369    2.2701 H   0  0  0  0  0  0  0  0  0  0  0  0
    1.1826    6.7341    3.7359 C   0  0  0  0  0  0  0  0  0  0  0  0
    1.8266    5.8946    4.0032 H   0  0  0  0  0  0  0  0  0  0  0  0
    1.7683    7.6547    3.7939 H   0  0  0  0  0  0  0  0  0  0  0  0
    0.3563    6.7927    4.4445 H   0  0  0  0  0  0  0  0  0  0  0  0
  5  6  2  0  0  0  0
  5  7  1  0  0  0  0
  2  3  1  0  0  0  0
  2  4  1  0  0  0  0
  2  5  1  0  0  0  0
  1  2  1  0  0  0  0
 15 16  2  0  0  0  0
 15 17  1  0  0  0  0
 14 36  1  0  0  0  0
 11 12  1  0  0  0  0
 11 13  1  0  0  0  0
 11 14  1  0  0  0  0
  9 10  1  0  0  0  0
  9 11  1  0  0  0  0
  9 15  1  0  0  0  0
  7  8  1  0  0  0  0
  7  9  1  0  0  0  0
 19 20  1  0  0  0  0
 19 21  1  0  0  0  0
 19 22  1  0  0  0  0
 17 18  1  0  0  0  0
 17 19  1  0  0  0  0
 27 28  2  0  0  0  0
 27 29  1  0  0  0  0
 24 25  1  0  0  0  0
 24 26  1  0  0  0  0
 24 27  1  0  0  0  0
 23 24  1  0  0  0  0
 37 38  2  0  0  0  0
 37 39  1  0  0  0  0
 33 34  1  0  0  0  0
 33 35  1  0  0  0  0
 33 36  1  0  0  0  0
 31 32  1  0  0  0  0
 31 33  1  0  0  0  0
 31 37  1  0  0  0  0
 29 30  1  0  0  0  0
 29 31  1  0  0  0  0
 41 42  1  0  0  0  0
 41 43  1  0  0  0  0
 41 44  1  0  0  0  0
 39 40  1  0  0  0  0
 39 41  1  0  0  0  0
M  END
$$$$
default_name
  -OEChem-01062215323D

 44 43  0     1  0  0  0  0  0999 V2000
    2.4488   -3.0448    2.0990 H   0  0  0  0  0  0  0  0  0  0  0  0
    2.2788   -2.0018    2.3640 C   0  0  0  0  0  0  0  0  0  0  0  0
    2.9228   -1.7258    3.1960 H   0  0  0  0  0  0  0  0  0  0  0  0
    1.2358   -1.8618    2.6430 H   0  0  0  0  0  0  0  0  0  0  0  0
    2.6018   -1.1318    1.1730 C   0  0  0  0  0  0  0  0  0  0  0  0
    3.0048   -1.6348    0.1320 O   0  0  0  0  0  0  0  0  0  0  0  0
    2.4088    0.1752    1.3190 N   0  0  0  0  0  0  0  0  0  0  0  0
    2.0708    0.5242    2.2050 H   0  0  0  0  0  0  0  0  0  0  0  0
    2.6638    1.1782    0.2840 C   0  0  1  0  0  0  0  0  0  0  0  0
    1.7606    1.2799   -0.3200 H   0  0  0  0  0  0  0  0  0  0  0  0
    2.9544    2.5387    0.9413 C   0  0  0  0  0  0  0  0  0  0  0  0
    3.2987    3.2328    0.1737 H   0  0  0  0  0  0  0  0  0  0  0  0
    3.7879    2.4046    1.6303 H   0  0  0  0  0  0  0  0  0  0  0  0
    1.6161    3.3327    1.8801 S   0  0  0  0  0  0  0  0  0  0  0  0
    3.8055    0.7338   -0.6494 C   0  0  0  0  0  0  0  0  0  0  0  0
    4.5490   -0.1937   -0.3299 O   0  0  0  0  0  0  0  0  0  0  0  0
    3.9396    1.3929   -1.8081 N   0  0  0  0  0  0  0  0  0  0  0  0
    3.2945    2.1403   -2.0077 H   0  0  0  0  0  0  0  0  0  0  0  0
    4.9726    1.0926   -2.7973 C   0  0  0  0  0  0  0  0  0  0  0  0
    5.9592    1.2649   -2.3617 H   0  0  0  0  0  0  0  0  0  0  0  0
    4.9050    0.0448   -3.0957 H   0  0  0  0  0  0  0  0  0  0  0  0
    4.8512    1.7262   -3.6767 H   0  0  0  0  0  0  0  0  0  0  0  0
    0.7913    8.8292   -4.0302 H   0  0  0  0  0  0  0  0  0  0  0  0
    1.4228    8.5941   -3.1747 C   0  0  0  0  0  0  0  0  0  0  0  0
    1.7050    9.5129   -2.6630 H   0  0  0  0  0  0  0  0  0  0  0  0
    2.3150    8.0702   -3.5122 H   0  0  0  0  0  0  0  0  0  0  0  0
    0.6514    7.7084   -2.2246 C   0  0  0  0  0  0  0  0  0  0  0  0
   -0.4922    7.3646   -2.4908 O   0  0  0  0  0  0  0  0  0  0  0  0
    1.2851    7.3325   -1.1169 N   0  0  0  0  0  0  0  0  0  0  0  0
    2.2257    7.6632   -0.9576 H   0  0  0  0  0  0  0  0  0  0  0  0
    0.7090    6.4735   -0.0823 C   0  0  1  0  0  0  0  0  0  0  0  0
   -0.3495    6.7142    0.0311 H   0  0  0  0  0  0  0  0  0  0  0  0
    0.8249    5.0173   -0.5542 C   0  0  0  0  0  0  0  0  0  0  0  0
    0.3030    4.9390   -1.5090 H   0  0  0  0  0  0  0  0  0  0  0  0
    1.8745    4.7900   -0.7420 H   0  0  0  0  0  0  0  0  0  0  0  0
    0.1410    3.7321    0.5263 S   0  0  0  0  0  0  0  0  0  0  0  0
    1.4040    6.7177    1.2689 C   0  0  0  0  0  0  0  0  0  0  0  0
    2.5869    7.0602    1.2986 O   0  0  0  0  0  0  0  0  0  0  0  0
    0.6720    6.5509    2.3779 N   0  0  0  0  0  0  0  0  0  0  0  0
   -0.2794    6.2369    2.2701 H   0  0  0  0  0  0  0  0  0  0  0  0
    1.1826    6.7341    3.7359 C   0  0  0  0  0  0  0  0  0  0  0  0
    1.8266    5.8946    4.0032 H   0  0  0  0  0  0  0  0  0  0  0  0
    1.7683    7.6547    3.7939 H   0  0  0  0  0  0  0  0  0  0  0  0
    0.3563    6.7927    4.4445 H   0  0  0  0  0  0  0  0  0  0  0  0
  5  6  2  0  0  0  0
  5  7  1  0  0  0  0
  2  3  1  0  0  0  0
  2  4  1  0  0  0  0
  2  5  1  0  0  0  0
  1  2  1  0  0  0  0
 15 16  2  0  0  0  0
 15 17  1  0  0  0  0
 14 36  1  0  0  0  0
 11 12  1  0  0  0  0
 11 13  1  0  0  0  0
 11 14  1  0  0  0  0
  9 10  1  0  0  0  0
  9 11  1  0  0  0  0
  9 15  1  0  0  0  0
  7  8  1  0  0  0  0
  7  9  1  0  0  0  0
 19 20  1  0  0  0  0
 19 21  1  0  0  0  0
 19 22  1  0  0  0  0
 17 18  1  0  0  0  0
 17 19  1  0  0  0  0
 27 28  2  0  0  0  0
 27 29  1  0  0  0  0
 24 25  1  0  0  0  0
 24 26  1  0  0  0  0
 24 27  1  0  0  0  0
 23 24  1  0  0  0  0
 37 38  2  0  0  0  0
 37 39  1  0  0  0  0
 33 34  1  0  0  0  0
 33 35  1  0  0  0  0
 33 36  1  0  0  0  0
 31 32  1  0  0  0  0
 31 33  1  0  0  0  0
 31 37  1  0  0  0  0
 29 30  1  0  0  0  0
 29 31  1  0  0  0  0
 41 42  1  0  0  0  0
 41 43  1  0  0  0  0
 41 44  1  0  0  0  0
 39 40  1  0  0  0  0
 39 41  1  0  0  0  0
M  END
$$$$
default_name
  -OEChem-01062215323D

 44 43  0     1  0  0  0  0  0999 V2000
    2.4488   -3.0448    2.0990 H   0  0  0  0  0  0  0  0  0  0  0  0
    2.2788   -2.0018    2.3640 C   0  0  0  0  0  0  0  0  0  0  0  0
    2.9228   -1.7258    3.1960 H   0  0  0  0  0  0  0  0  0  0  0  0
    1.2358   -1.8618    2.6430 H   0  0  0  0  0  0  0  0  0  0  0  0
    2.6018   -1.1318    1.1730 C   0  0  0  0  0  0  0  0  0  0  0  0
    3.0048   -1.6348    0.1320 O   0  0  0  0  0  0  0  0  0  0  0  0
    2.4088    0.1752    1.3190 N   0  0  0  0  0  0  0  0  0  0  0  0
    2.0708    0.5242    2.2050 H   0  0  0  0  0  0  0  0  0  0  0  0
    2.6638    1.1782    0.2840 C   0  0  1  0  0  0  0  0  0  0  0  0
    1.7049    1.4769   -0.1428 H   0  0  0  0  0  0  0  0  0  0  0  0
    3.3132    2.4216    0.9163 C   0  0  0  0  0  0  0  0  0  0  0  0
    3.6430    3.0888    0.1190 H   0  0  0  0  0  0  0  0  0  0  0  0
    4.2134    2.0983    1.4383 H   0  0  0  0  0  0  0  0  0  0  0  0
    2.3302    3.3830    2.1047 S   0  0  0  0  0  0  0  0  0  0  0  0
    3.5230    0.5950   -0.8535 C   0  0  0  0  0  0  0  0  0  0  0  0
    3.8970   -0.5771   -0.8165 O   0  0  0  0  0  0  0  0  0  0  0  0
    3.8301    1.4133   -1.8689 N   0  0  0  0  0  0  0  0  0  0  0  0
    3.4887    2.3604   -1.8367 H   0  0  0  0  0  0  0  0  0  0  0  0
    4.6373    1.0112   -3.0190 C   0  0  0  0  0  0  0  0  0  0  0  0
    5.6392    0.7333   -2.6850 H   0  0  0  0  0  0  0  0  0  0  0  0
    4.1827    0.1461   -3.5051 H   0  0  0  0  0  0  0  0  0  0  0  0
    4.7104    1.8301   -3.7358 H   0  0  0  0  0  0  0  0  0  0  0  0
    1.5375    9.2918   -3.3981 H   0  0  0  0  0  0  0  0  0  0  0  0
    2.2523    8.8953   -2.6785 C   0  0  0  0  0  0  0  0  0  0  0  0
    2.7857    9.7154   -2.2005 H   0  0  0  0  0  0  0  0  0  0  0  0
    2.9586    8.2419   -3.1873 H   0  0  0  0  0  0  0  0  0  0  0  0
    1.5053    8.1050   -1.6298 C   0  0  0  0  0  0  0  0  0  0  0  0
    0.2890    7.9885   -1.6937 O   0  0  0  0  0  0  0  0  0  0  0  0
    2.2395    7.5543   -0.6668 N   0  0  0  0  0  0  0  0  0  0  0  0
    3.2384    7.7008   -0.6715 H   0  0  0  0  0  0  0  0  0  0  0  0
    1.7008    6.7502    0.4302 C   0  0  1  0  0  0  0  0  0  0  0  0
    0.7420    7.1690    0.7408 H   0  0  0  0  0  0  0  0  0  0  0  0
    1.4588    5.3287   -0.0963 C   0  0  0  0  0  0  0  0  0  0  0  0
    0.7742    5.4040   -0.9424 H   0  0  0  0  0  0  0  0  0  0  0  0
    2.3986    4.9292   -0.4779 H   0  0  0  0  0  0  0  0  0  0  0  0
    0.7441    4.1225    1.0532 S   0  0  0  0  0  0  0  0  0  0  0  0
    2.6525    6.7824    1.6392 C   0  0  0  0  0  0  0  0  0  0  0  0
    3.8656    6.9051    1.4634 O   0  0  0  0  0  0  0  0  0  0  0  0
    2.1056    6.6813    2.8574 N   0  0  0  0  0  0  0  0  0  0  0  0
    1.1082    6.5498    2.9152 H   0  0  0  0  0  0  0  0  0  0  0  0
    2.8688    6.6861    4.1048 C   0  0  0  0  0  0  0  0  0  0  0  0
    3.3807    5.7301    4.2267 H   0  0  0  0  0  0  0  0  0  0  0  0
    3.6174    7.4816    4.0818 H   0  0  0  0  0  0  0  0  0  0  0  0
    2.2034    6.8479    4.9530 H   0  0  0  0  0  0  0  0  0  0  0  0
  5  6  2  0  0  0  0
  5  7  1  0  0  0  0
  2  3  1  0  0  0  0
  2  4  1  0  0  0  0
  2  5  1  0  0  0  0
  1  2  1  0  0  0  0
 15 16  2  0  0  0  0
 15 17  1  0  0  0  0
 14 36  1  0  0  0  0
 11 12  1  0  0  0  0
 11 13  1  0  0  0  0
 11 14  1  0  0  0  0
  9 10  1  0  0  0  0
  9 11  1  0  0  0  0
  9 15  1  0  0  0  0
  7  8  1  0  0  0  0
  7  9  1  0  0  0  0
 19 20  1  0  0  0  0
 19 21  1  0  0  0  0
 19 22  1  0  0  0  0
 17 18  1  0  0  0  0
 17 19  1  0  0  0  0
 27 28  2  0  0  0  0
 27 29  1  0  0  0  0
 24 25  1  0  0  0  0
 24 26  1  0  0  0  0
 24 27  1  0  0  0  0
 23 24  1  0  0  0  0
 37 38  2  0  0  0  0
 37 39  1  0  0  0  0
 33 34  1  0  0  0  0
 33 35  1  0  0  0  0
 33 36  1  0  0  0  0
 31 32  1  0  0  0  0
 31 33  1  0  0  0  0
 31 37  1  0  0  0  0
 29 30  1  0  0  0  0
 29 31  1  0  0  0  0
 41 42  1  0  0  0  0
 41 43  1  0  0  0  0
 41 44  1  0  0  0  0
 39 40  1  0  0  0  0
 39 41  1  0  0  0  0
M  END
$$$$
default_name
  -OEChem-01062215323D

 44 43  0     1  0  0  0  0  0999 V2000
    2.4488   -3.0448    2.0990 H   0  0  0  0  0  0  0  0  0  0  0  0
    2.2788   -2.0018    2.3640 C   0  0  0  0  0  0  0  0  0  0  0  0
    2.9228   -1.7258    3.1960 H   0  0  0  0  0  0  0  0  0  0  0  0
    1.2358   -1.8618    2.6430 H   0  0  0  0  0  0  0  0  0  0  0  0
    2.6018   -1.1318    1.1730 C   0  0  0  0  0  0  0  0  0  0  0  0
    3.0048   -1.6348    0.1320 O   0  0  0  0  0  0  0  0  0  0  0  0
    2.4088    0.1752    1.3190 N   0  0  0  0  0  0  0  0  0  0  0  0
    2.0708    0.5242    2.2050 H   0  0  0  0  0  0  0  0  0  0  0  0
    2.6638    1.1782    0.2840 C   0  0  1  0  0  0  0  0  0  0  0  0
    1.7049    1.4769   -0.1428 H   0  0  0  0  0  0  0  0  0  0  0  0
    3.3132    2.4216    0.9163 C   0  0  0  0  0  0  0  0  0  0  0  0
    3.6430    3.0888    0.1190 H   0  0  0  0  0  0  0  0  0  0  0  0
    4.2134    2.0983    1.4383 H   0  0  0  0  0  0  0  0  0  0  0  0
    2.3302    3.3830    2.1047 S   0  0  0  0  0  0  0  0  0  0  0  0
    3.5230    0.5950   -0.8535 C   0  0  0  0  0  0  0  0  0  0  0  0
    3.6685   -0.6221   -0.9661 O   0  0  0  0  0  0  0  0  0  0  0  0
    4.0872    1.4654   -1.7015 N   0  0  0  0  0  0  0  0  0  0  0  0
    3.9244    2.4483   -1.5526 H   0  0  0  0  0  0  0  0  0  0  0  0
    4.9303    1.0701   -2.8278 C   0  0  0  0  0  0  0  0  0  0  0  0
    5.8202    0.5565   -2.4577 H   0  0  0  0  0  0  0  0  0  0  0  0
    4.3817    0.3860   -3.4778 H   0  0  0  0  0  0  0  0  0  0  0  0
    5.2327    1.9473   -3.4013 H   0  0  0  0  0  0  0  0  0  0  0  0
    1.5375    9.2918   -3.3981 H   0  0  0  0  0  0  0  0  0  0  0  0
    2.2523    8.8953   -2.6785 C   0  0  0  0  0  0  0  0  0  0  0  0
    2.7857    9.7154   -2.2005 H   0  0  0  0  0  0  0  0  0  0  0  0
    2.9586    8.2419   -3.1873 H   0  0  0  0  0  0  0  0  0  0  0  0
    1.5053    8.1050   -1.6298 C   0  0  0  0  0  0  0  0  0  0  0  0
    0.2890    7.9885   -1.6937 O   0  0  0  0  0  0  0  0  0  0  0  0
    2.2395    7.5543   -0.6668 N   0  0  0  0  0  0  0  0  0  0  0  0
    3.2384    7.7008   -0.6715 H   0  0  0  0  0  0  0  0  0  0  0  0
    1.7008    6.7502    0.4302 C   0  0  1  0  0  0  0  0  0  0  0  0
    0.7420    7.1690    0.7408 H   0  0  0  0  0  0  0  0  0  0  0  0
    1.4588    5.3287   -0.0963 C   0  0  0  0  0  0  0  0  0  0  0  0
    0.7742    5.4040   -0.9424 H   0  0  0  0  0  0  0  0  0  0  0  0
    2.3986    4.9292   -0.4779 H   0  0  0  0  0  0  0  0  0  0  0  0
    0.7441    4.1225    1.0532 S   0  0  0  0  0  0  0  0  0  0  0  0
    2.6525    6.7824    1.6392 C   0  0  0  0  0  0  0  0  0  0  0  0
    3.8656    6.9051    1.4634 O   0  0  0  0  0  0  0  0  0  0  0  0
    2.1056    6.6813    2.8574 N   0  0  0  0  0  0  0  0  0  0  0  0
    1.1082    6.5498    2.9152 H   0  0  0  0  0  0  0  0  0  0  0  0
    2.8688    6.6861    4.1048 C   0  0  0  0  0  0  0  0  0  0  0  0
    3.3807    5.7301    4.2267 H   0  0  0  0  0  0  0  0  0  0  0  0
    3.6174    7.4816    4.0818 H   0  0  0  0  0  0  0  0  0  0  0  0
    2.2034    6.8479    4.9530 H   0  0  0  0  0  0  0  0  0  0  0  0
  5  6  2  0  0  0  0
  5  7  1  0  0  0  0
  2  3  1  0  0  0  0
  2  4  1  0  0  0  0
  2  5  1  0  0  0  0
  1  2  1  0  0  0  0
 15 16  2  0  0  0  0
 15 17  1  0  0  0  0
 14 36  1  0  0  0  0
 11 12  1  0  0  0  0
 11 13  1  0  0  0  0
 11 14  1  0  0  0  0
  9 10  1  0  0  0  0
  9 11  1  0  0  0  0
  9 15  1  0  0  0  0
  7  8  1  0  0  0  0
  7  9  1  0  0  0  0
 19 20  1  0  0  0  0
 19 21  1  0  0  0  0
 19 22  1  0  0  0  0
 17 18  1  0  0  0  0
 17 19  1  0  0  0  0
 27 28  2  0  0  0  0
 27 29  1  0  0  0  0
 24 25  1  0  0  0  0
 24 26  1  0  0  0  0
 24 27  1  0  0  0  0
 23 24  1  0  0  0  0
 37 38  2  0  0  0  0
 37 39  1  0  0  0  0
 33 34  1  0  0  0  0
 33 35  1  0  0  0  0
 33 36  1  0  0  0  0
 31 32  1  0  0  0  0
 31 33  1  0  0  0  0
 31 37  1  0  0  0  0
 29 30  1  0  0  0  0
 29 31  1  0  0  0  0
 41 42  1  0  0  0  0
 41 43  1  0  0  0  0
 41 44  1  0  0  0  0
 39 40  1  0  0  0  0
 39 41  1  0  0  0  0
M  END
$$$$
default_name
  -OEChem-01062215323D

 44 43  0     1  0  0  0  0  0999 V2000
    2.4488   -3.0448    2.0990 H   0  0  0  0  0  0  0  0  0  0  0  0
    2.2788   -2.0018    2.3640 C   0  0  0  0  0  0  0  0  0  0  0  0
    2.9228   -1.7258    3.1960 H   0  0  0  0  0  0  0  0  0  0  0  0
    1.2358   -1.8618    2.6430 H   0  0  0  0  0  0  0  0  0  0  0  0
    2.6018   -1.1318    1.1730 C   0  0  0  0  0  0  0  0  0  0  0  0
    3.0048   -1.6348    0.1320 O   0  0  0  0  0  0  0  0  0  0  0  0
    2.4088    0.1752    1.3190 N   0  0  0  0  0  0  0  0  0  0  0  0
    2.0708    0.5242    2.2050 H   0  0  0  0  0  0  0  0  0  0  0  0
    2.6638    1.1782    0.2840 C   0  0  1  0  0  0  0  0  0  0  0  0
    1.7049    1.4769   -0.1428 H   0  0  0  0  0  0  0  0  0  0  0  0
    3.3132    2.4216    0.9163 C   0  0  0  0  0  0  0  0  0  0  0  0
    3.6430    3.0888    0.1190 H   0  0  0  0  0  0  0  0  0  0  0  0
    4.2134    2.0983    1.4383 H   0  0  0  0  0  0  0  0  0  0  0  0
    2.3302    3.3830    2.1047 S   0  0  0  0  0  0  0  0  0  0  0  0
    3.5230    0.5950   -0.8535 C   0  0  0  0  0  0  0  0  0  0  0  0
    3.4538   -0.6002   -1.1395 O   0  0  0  0  0  0  0  0  0  0  0  0
    4.3291    1.4425   -1.5070 N   0  0  0  0  0  0  0  0  0  0  0  0
    4.3342    2.4088   -1.2228 H   0  0  0  0  0  0  0  0  0  0  0  0
    5.2059    1.0434   -2.6060 C   0  0  0  0  0  0  0  0  0  0  0  0
    5.9389    0.3183   -2.2459 H   0  0  0  0  0  0  0  0  0  0  0  0
    4.6171    0.5757   -3.3972 H   0  0  0  0  0  0  0  0  0  0  0  0
    5.7267    1.9123   -3.0102 H   0  0  0  0  0  0  0  0  0  0  0  0
    1.5375    9.2918   -3.3981 H   0  0  0  0  0  0  0  0  0  0  0  0
    2.2523    8.8953   -2.6785 C   0  0  0  0  0  0  0  0  0  0  0  0
    2.7857    9.7154   -2.2005 H   0  0  0  0  0  0  0  0  0  0  0  0
    2.9586    8.2419   -3.1873 H   0  0  0  0  0  0  0  0  0  0  0  0
    1.5053    8.1050   -1.6298 C   0  0  0  0  0  0  0  0  0  0  0  0
    0.2890    7.9885   -1.6937 O   0  0  0  0  0  0  0  0  0  0  0  0
    2.2395    7.5543   -0.6668 N   0  0  0  0  0  0  0  0  0  0  0  0
    3.2384    7.7008   -0.6715 H   0  0  0  0  0  0  0  0  0  0  0  0
    1.7008    6.7502    0.4302 C   0  0  1  0  0  0  0  0  0  0  0  0
    0.7420    7.1690    0.7408 H   0  0  0  0  0  0  0  0  0  0  0  0
    1.4588    5.3287   -0.0963 C   0  0  0  0  0  0  0  0  0  0  0  0
    0.7742    5.4040   -0.9424 H   0  0  0  0  0  0  0  0  0  0  0  0
    2.3986    4.9292   -0.4779 H   0  0  0  0  0  0  0  0  0  0  0  0
    0.7441    4.1225    1.0532 S   0  0  0  0  0  0  0  0  0  0  0  0
    2.6525    6.7824    1.6392 C   0  0  0  0  0  0  0  0  0  0  0  0
    3.8656    6.9051    1.4634 O   0  0  0  0  0  0  0  0  0  0  0  0
    2.1056    6.6813    2.8574 N   0  0  0  0  0  0  0  0  0  0  0  0
    1.1082    6.5498    2.9152 H   0  0  0  0  0  0  0  0  0  0  0  0
    2.8688    6.6861    4.1048 C   0  0  0  0  0  0  0  0  0  0  0  0
    3.3807    5.7301    4.2267 H   0  0  0  0  0  0  0  0  0  0  0  0
    3.6174    7.4816    4.0818 H   0  0  0  0  0  0  0  0  0  0  0  0
    2.2034    6.8479    4.9530 H   0  0  0  0  0  0  0  0  0  0  0  0
  5  6  2  0  0  0  0
  5  7  1  0  0  0  0
  2  3  1  0  0  0  0
  2  4  1  0  0  0  0
  2  5  1  0  0  0  0
  1  2  1  0  0  0  0
 15 16  2  0  0  0  0
 15 17  1  0  0  0  0
 14 36  1  0  0  0  0
 11 12  1  0  0  0  0
 11 13  1  0  0  0  0
 11 14  1  0  0  0  0
  9 10  1  0  0  0  0
  9 11  1  0  0  0  0
  9 15  1  0  0  0  0
  7  8  1  0  0  0  0
  7  9  1  0  0  0  0
 19 20  1  0  0  0  0
 19 21  1  0  0  0  0
 19 22  1  0  0  0  0
 17 18  1  0  0  0  0
 17 19  1  0  0  0  0
 27 28  2  0  0  0  0
 27 29  1  0  0  0  0
 24 25  1  0  0  0  0
 24 26  1  0  0  0  0
 24 27  1  0  0  0  0
 23 24  1  0  0  0  0
 37 38  2  0  0  0  0
 37 39  1  0  0  0  0
 33 34  1  0  0  0  0
 33 35  1  0  0  0  0
 33 36  1  0  0  0  0
 31 32  1  0  0  0  0
 31 33  1  0  0  0  0
 31 37  1  0  0  0  0
 29 30  1  0  0  0  0
 29 31  1  0  0  0  0
 41 42  1  0  0  0  0
 41 43  1  0  0  0  0
 41 44  1  0  0  0  0
 39 40  1  0  0  0  0
 39 41  1  0  0  0  0
M  END
$$$$
default_name
  -OEChem-01062215323D

 44 43  0     1  0  0  0  0  0999 V2000
    2.4488   -3.0448    2.0990 H   0  0  0  0  0  0  0  0  0  0  0  0
    2.2788   -2.0018    2.3640 C   0  0  0  0  0  0  0  0  0  0  0  0
    2.9228   -1.7258    3.1960 H   0  0  0  0  0  0  0  0  0  0  0  0
    1.2358   -1.8618    2.6430 H   0  0  0  0  0  0  0  0  0  0  0  0
    2.6018   -1.1318    1.1730 C   0  0  0  0  0  0  0  0  0  0  0  0
    3.0048   -1.6348    0.1320 O   0  0  0  0  0  0  0  0  0  0  0  0
    2.4088    0.1752    1.3190 N   0  0  0  0  0  0  0  0  0  0  0  0
    2.0708    0.5242    2.2050 H   0  0  0  0  0  0  0  0  0  0  0  0
    2.6638    1.1782    0.2840 C   0  0  1  0  0  0  0  0  0  0  0  0
    1.7049    1.4769   -0.1428 H   0  0  0  0  0  0  0  0  0  0  0  0
    3.3132    2.4216    0.9163 C   0  0  0  0  0  0  0  0  0  0  0  0
    3.6430    3.0888    0.1190 H   0  0  0  0  0  0  0  0  0  0  0  0
    4.2134    2.0983    1.4383 H   0  0  0  0  0  0  0  0  0  0  0  0
    2.3302    3.3830    2.1047 S   0  0  0  0  0  0  0  0  0  0  0  0
    3.5230    0.5950   -0.8535 C   0  0  0  0  0  0  0  0  0  0  0  0
    3.2676   -0.5130   -1.3249 O   0  0  0  0  0  0  0  0  0  0  0  0
    4.5392    1.3460   -1.2988 N   0  0  0  0  0  0  0  0  0  0  0  0
    4.6902    2.2448   -0.8698 H   0  0  0  0  0  0  0  0  0  0  0  0
    5.4452    0.9328   -2.3685 C   0  0  0  0  0  0  0  0  0  0  0  0
    5.9873    0.0350   -2.0641 H   0  0  0  0  0  0  0  0  0  0  0  0
    4.8729    0.7023   -3.2689 H   0  0  0  0  0  0  0  0  0  0  0  0
    6.1589    1.7276   -2.5890 H   0  0  0  0  0  0  0  0  0  0  0  0
    1.5375    9.2918   -3.3981 H   0  0  0  0  0  0  0  0  0  0  0  0
    2.2523    8.8953   -2.6785 C   0  0  0  0  0  0  0  0  0  0  0  0
    2.7857    9.7154   -2.2005 H   0  0  0  0  0  0  0  0  0  0  0  0
    2.9586    8.2419   -3.1873 H   0  0  0  0  0  0  0  0  0  0  0  0
    1.5053    8.1050   -1.6298 C   0  0  0  0  0  0  0  0  0  0  0  0
    0.2890    7.9885   -1.6937 O   0  0  0  0  0  0  0  0  0  0  0  0
    2.2395    7.5543   -0.6668 N   0  0  0  0  0  0  0  0  0  0  0  0
    3.2384    7.7008   -0.6715 H   0  0  0  0  0  0  0  0  0  0  0  0
    1.7008    6.7502    0.4302 C   0  0  1  0  0  0  0  0  0  0  0  0
    0.7420    7.1690    0.7408 H   0  0  0  0  0  0  0  0  0  0  0  0
    1.4588    5.3287   -0.0963 C   0  0  0  0  0  0  0  0  0  0  0  0
    0.7742    5.4040   -0.9424 H   0  0  0  0  0  0  0  0  0  0  0  0
    2.3986    4.9292   -0.4779 H   0  0  0  0  0  0  0  0  0  0  0  0
    0.7441    4.1225    1.0532 S   0  0  0  0  0  0  0  0  0  0  0  0
    2.6525    6.7824    1.6392 C   0  0  0  0  0  0  0  0  0  0  0  0
    3.8656    6.9051    1.4634 O   0  0  0  0  0  0  0  0  0  0  0  0
    2.1056    6.6813    2.8574 N   0  0  0  0  0  0  0  0  0  0  0  0
    1.1082    6.5498    2.9152 H   0  0  0  0  0  0  0  0  0  0  0  0
    2.8688    6.6861    4.1048 C   0  0  0  0  0  0  0  0  0  0  0  0
    3.3807    5.7301    4.2267 H   0  0  0  0  0  0  0  0  0  0  0  0
    3.6174    7.4816    4.0818 H   0  0  0  0  0  0  0  0  0  0  0  0
    2.2034    6.8479    4.9530 H   0  0  0  0  0  0  0  0  0  0  0  0
  5  6  2  0  0  0  0
  5  7  1  0  0  0  0
  2  3  1  0  0  0  0
  2  4  1  0  0  0  0
  2  5  1  0  0  0  0
  1  2  1  0  0  0  0
 15 16  2  0  0  0  0
 15 17  1  0  0  0  0
 14 36  1  0  0  0  0
 11 12  1  0  0  0  0
 11 13  1  0  0  0  0
 11 14  1  0  0  0  0
  9 10  1  0  0  0  0
  9 11  1  0  0  0  0
  9 15  1  0  0  0  0
  7  8  1  0  0  0  0
  7  9  1  0  0  0  0
 19 20  1  0  0  0  0
 19 21  1  0  0  0  0
 19 22  1  0  0  0  0
 17 18  1  0  0  0  0
 17 19  1  0  0  0  0
 27 28  2  0  0  0  0
 27 29  1  0  0  0  0
 24 25  1  0  0  0  0
 24 26  1  0  0  0  0
 24 27  1  0  0  0  0
 23 24  1  0  0  0  0
 37 38  2  0  0  0  0
 37 39  1  0  0  0  0
 33 34  1  0  0  0  0
 33 35  1  0  0  0  0
 33 36  1  0  0  0  0
 31 32  1  0  0  0  0
 31 33  1  0  0  0  0
 31 37  1  0  0  0  0
 29 30  1  0  0  0  0
 29 31  1  0  0  0  0
 41 42  1  0  0  0  0
 41 43  1  0  0  0  0
 41 44  1  0  0  0  0
 39 40  1  0  0  0  0
 39 41  1  0  0  0  0
M  END
$$$$
default_name
  -OEChem-01062215323D

 44 43  0     1  0  0  0  0  0999 V2000
    2.4488   -3.0448    2.0990 H   0  0  0  0  0  0  0  0  0  0  0  0
    2.2788   -2.0018    2.3640 C   0  0  0  0  0  0  0  0  0  0  0  0
    2.9228   -1.7258    3.1960 H   0  0  0  0  0  0  0  0  0  0  0  0
    1.2358   -1.8618    2.6430 H   0  0  0  0  0  0  0  0  0  0  0  0
    2.6018   -1.1318    1.1730 C   0  0  0  0  0  0  0  0  0  0  0  0
    3.0048   -1.6348    0.1320 O   0  0  0  0  0  0  0  0  0  0  0  0
    2.4088    0.1752    1.3190 N   0  0  0  0  0  0  0  0  0  0  0  0
    2.0708    0.5242    2.2050 H   0  0  0  0  0  0  0  0  0  0  0  0
    2.6638    1.1782    0.2840 C   0  0  1  0  0  0  0  0  0  0  0  0
    1.7049    1.4769   -0.1428 H   0  0  0  0  0  0  0  0  0  0  0  0
    3.3132    2.4216    0.9163 C   0  0  0  0  0  0  0  0  0  0  0  0
    3.6430    3.0888    0.1190 H   0  0  0  0  0  0  0  0  0  0  0  0
    4.2134    2.0983    1.4383 H   0  0  0  0  0  0  0  0  0  0  0  0
    2.3302    3.3830    2.1047 S   0  0  0  0  0  0  0  0  0  0  0  0
    3.5230    0.5950   -0.8535 C   0  0  0  0  0  0  0  0  0  0  0  0
    3.1226   -0.3664   -1.5095 O   0  0  0  0  0  0  0  0  0  0  0  0
    4.7034    1.1825   -1.0910 N   0  0  0  0  0  0  0  0  0  0  0  0
    4.9681    1.9674   -0.5177 H   0  0  0  0  0  0  0  0  0  0  0  0
    5.6319    0.7460   -2.1317 C   0  0  0  0  0  0  0  0  0  0  0  0
    5.9621   -0.2741   -1.9247 H   0  0  0  0  0  0  0  0  0  0  0  0
    5.1315    0.7572   -3.1017 H   0  0  0  0  0  0  0  0  0  0  0  0
    6.4998    1.4058   -2.1665 H   0  0  0  0  0  0  0  0  0  0  0  0
    1.5375    9.2918   -3.3981 H   0  0  0  0  0  0  0  0  0  0  0  0
    2.2523    8.8953   -2.6785 C   0  0  0  0  0  0  0  0  0  0  0  0
    2.7857    9.7154   -2.2005 H   0  0  0  0  0  0  0  0  0  0  0  0
    2.9586    8.2419   -3.1873 H   0  0  0  0  0  0  0  0  0  0  0  0
    1.5053    8.1050   -1.6298 C   0  0  0  0  0  0  0  0  0  0  0  0
    0.2890    7.9885   -1.6937 O   0  0  0  0  0  0  0  0  0  0  0  0
    2.2395    7.5543   -0.6668 N   0  0  0  0  0  0  0  0  0  0  0  0
    3.2384    7.7008   -0.6715 H   0  0  0  0  0  0  0  0  0  0  0  0
    1.7008    6.7502    0.4302 C   0  0  1  0  0  0  0  0  0  0  0  0
    0.7420    7.1690    0.7408 H   0  0  0  0  0  0  0  0  0  0  0  0
    1.4588    5.3287   -0.0963 C   0  0  0  0  0  0  0  0  0  0  0  0
    0.7742    5.4040   -0.9424 H   0  0  0  0  0  0  0  0  0  0  0  0
    2.3986    4.9292   -0.4779 H   0  0  0  0  0  0  0  0  0  0  0  0
    0.7441    4.1225    1.0532 S   0  0  0  0  0  0  0  0  0  0  0  0
    2.6525    6.7824    1.6392 C   0  0  0  0  0  0  0  0  0  0  0  0
    3.8656    6.9051    1.4634 O   0  0  0  0  0  0  0  0  0  0  0  0
    2.1056    6.6813    2.8574 N   0  0  0  0  0  0  0  0  0  0  0  0
    1.1082    6.5498    2.9152 H   0  0  0  0  0  0  0  0  0  0  0  0
    2.8688    6.6861    4.1048 C   0  0  0  0  0  0  0  0  0  0  0  0
    3.3807    5.7301    4.2267 H   0  0  0  0  0  0  0  0  0  0  0  0
    3.6174    7.4816    4.0818 H   0  0  0  0  0  0  0  0  0  0  0  0
    2.2034    6.8479    4.9530 H   0  0  0  0  0  0  0  0  0  0  0  0
  5  6  2  0  0  0  0
  5  7  1  0  0  0  0
  2  3  1  0  0  0  0
  2  4  1  0  0  0  0
  2  5  1  0  0  0  0
  1  2  1  0  0  0  0
 15 16  2  0  0  0  0
 15 17  1  0  0  0  0
 14 36  1  0  0  0  0
 11 12  1  0  0  0  0
 11 13  1  0  0  0  0
 11 14  1  0  0  0  0
  9 10  1  0  0  0  0
  9 11  1  0  0  0  0
  9 15  1  0  0  0  0
  7  8  1  0  0  0  0
  7  9  1  0  0  0  0
 19 20  1  0  0  0  0
 19 21  1  0  0  0  0
 19 22  1  0  0  0  0
 17 18  1  0  0  0  0
 17 19  1  0  0  0  0
 27 28  2  0  0  0  0
 27 29  1  0  0  0  0
 24 25  1  0  0  0  0
 24 26  1  0  0  0  0
 24 27  1  0  0  0  0
 23 24  1  0  0  0  0
 37 38  2  0  0  0  0
 37 39  1  0  0  0  0
 33 34  1  0  0  0  0
 33 35  1  0  0  0  0
 33 36  1  0  0  0  0
 31 32  1  0  0  0  0
 31 33  1  0  0  0  0
 31 37  1  0  0  0  0
 29 30  1  0  0  0  0
 29 31  1  0  0  0  0
 41 42  1  0  0  0  0
 41 43  1  0  0  0  0
 41 44  1  0  0  0  0
 39 40  1  0  0  0  0
 39 41  1  0  0  0  0
M  END
$$$$
default_name
  -OEChem-01062215323D

 44 43  0     1  0  0  0  0  0999 V2000
    2.4488   -3.0448    2.0990 H   0  0  0  0  0  0  0  0  0  0  0  0
    2.2788   -2.0018    2.3640 C   0  0  0  0  0  0  0  0  0  0  0  0
    2.9228   -1.7258    3.1960 H   0  0  0  0  0  0  0  0  0  0  0  0
    1.2358   -1.8618    2.6430 H   0  0  0  0  0  0  0  0  0  0  0  0
    2.6018   -1.1318    1.1730 C   0  0  0  0  0  0  0  0  0  0  0  0
    3.0048   -1.6348    0.1320 O   0  0  0  0  0  0  0  0  0  0  0  0
    2.4088    0.1752    1.3190 N   0  0  0  0  0  0  0  0  0  0  0  0
    2.0708    0.5242    2.2050 H   0  0  0  0  0  0  0  0  0  0  0  0
    2.6638    1.1782    0.2840 C   0  0  1  0  0  0  0  0  0  0  0  0
    1.7049    1.4769   -0.1428 H   0  0  0  0  0  0  0  0  0  0  0  0
    3.3132    2.4216    0.9163 C   0  0  0  0  0  0  0  0  0  0  0  0
    3.6430    3.0888    0.1190 H   0  0  0  0  0  0  0  0  0  0  0  0
    4.2134    2.0983    1.4383 H   0  0  0  0  0  0  0  0  0  0  0  0
    2.3302    3.3830    2.1047 S   0  0  0  0  0  0  0  0  0  0  0  0
    3.5230    0.5950   -0.8535 C   0  0  0  0  0  0  0  0  0  0  0  0
    3.0286   -0.1705   -1.6810 O   0  0  0  0  0  0  0  0  0  0  0  0
    4.8104    0.9633   -0.8978 N   0  0  0  0  0  0  0  0  0  0  0  0
    5.1490    1.5954   -0.1903 H   0  0  0  0  0  0  0  0  0  0  0  0
    5.7534    0.4957   -1.9116 C   0  0  0  0  0  0  0  0  0  0  0  0
    5.8650   -0.5881   -1.8371 H   0  0  0  0  0  0  0  0  0  0  0  0
    5.3755    0.7366   -2.9069 H   0  0  0  0  0  0  0  0  0  0  0  0
    6.7262    0.9688   -1.7715 H   0  0  0  0  0  0  0  0  0  0  0  0
    1.5375    9.2918   -3.3981 H   0  0  0  0  0  0  0  0  0  0  0  0
    2.2523    8.8953   -2.6785 C   0  0  0  0  0  0  0  0  0  0  0  0
    2.7857    9.7154   -2.2005 H   0  0  0  0  0  0  0  0  0  0  0  0
    2.9586    8.2419   -3.1873 H   0  0  0  0  0  0  0  0  0  0  0  0
    1.5053    8.1050   -1.6298 C   0  0  0  0  0  0  0  0  0  0  0  0
    0.2890    7.9885   -1.6937 O   0  0  0  0  0  0  0  0  0  0  0  0
    2.2395    7.5543   -0.6668 N   0  0  0  0  0  0  0  0  0  0  0  0
    3.2384    7.7008   -0.6715 H   0  0  0  0  0  0  0  0  0  0  0  0
    1.7008    6.7502    0.4302 C   0  0  1  0  0  0  0  0  0  0  0  0
    0.7420    7.1690    0.7408 H   0  0  0  0  0  0  0  0  0  0  0  0
    1.4588    5.3287   -0.0963 C   0  0  0  0  0  0  0  0  0  0  0  0
    0.7742    5.4040   -0.9424 H   0  0  0  0  0  0  0  0  0  0  0  0
    2.3986    4.9292   -0.4779 H   0  0  0  0  0  0  0  0  0  0  0  0
    0.7441    4.1225    1.0532 S   0  0  0  0  0  0  0  0  0  0  0  0
    2.6525    6.7824    1.6392 C   0  0  0  0  0  0  0  0  0  0  0  0
    3.8656    6.9051    1.4634 O   0  0  0  0  0  0  0  0  0  0  0  0
    2.1056    6.6813    2.8574 N   0  0  0  0  0  0  0  0  0  0  0  0
    1.1082    6.5498    2.9152 H   0  0  0  0  0  0  0  0  0  0  0  0
    2.8688    6.6861    4.1048 C   0  0  0  0  0  0  0  0  0  0  0  0
    3.3807    5.7301    4.2267 H   0  0  0  0  0  0  0  0  0  0  0  0
    3.6174    7.4816    4.0818 H   0  0  0  0  0  0  0  0  0  0  0  0
    2.2034    6.8479    4.9530 H   0  0  0  0  0  0  0  0  0  0  0  0
  5  6  2  0  0  0  0
  5  7  1  0  0  0  0
  2  3  1  0  0  0  0
  2  4  1  0  0  0  0
  2  5  1  0  0  0  0
  1  2  1  0  0  0  0
 15 16  2  0  0  0  0
 15 17  1  0  0  0  0
 14 36  1  0  0  0  0
 11 12  1  0  0  0  0
 11 13  1  0  0  0  0
 11 14  1  0  0  0  0
  9 10  1  0  0  0  0
  9 11  1  0  0  0  0
  9 15  1  0  0  0  0
  7  8  1  0  0  0  0
  7  9  1  0  0  0  0
 19 20  1  0  0  0  0
 19 21  1  0  0  0  0
 19 22  1  0  0  0  0
 17 18  1  0  0  0  0
 17 19  1  0  0  0  0
 27 28  2  0  0  0  0
 27 29  1  0  0  0  0
 24 25  1  0  0  0  0
 24 26  1  0  0  0  0
 24 27  1  0  0  0  0
 23 24  1  0  0  0  0
 37 38  2  0  0  0  0
 37 39  1  0  0  0  0
 33 34  1  0  0  0  0
 33 35  1  0  0  0  0
 33 36  1  0  0  0  0
 31 32  1  0  0  0  0
 31 33  1  0  0  0  0
 31 37  1  0  0  0  0
 29 30  1  0  0  0  0
 29 31  1  0  0  0  0
 41 42  1  0  0  0  0
 41 43  1  0  0  0  0
 41 44  1  0  0  0  0
 39 40  1  0  0  0  0
 39 41  1  0  0  0  0
M  END
$$$$
default_name
  -OEChem-01062215323D

 44 43  0     1  0  0  0  0  0999 V2000
    2.4488   -3.0448    2.0990 H   0  0  0  0  0  0  0  0  0  0  0  0
    2.2788   -2.0018    2.3640 C   0  0  0  0  0  0  0  0  0  0  0  0
    2.9228   -1.7258    3.1960 H   0  0  0  0  0  0  0  0  0  0  0  0
    1.2358   -1.8618    2.6430 H   0  0  0  0  0  0  0  0  0  0  0  0
    2.6018   -1.1318    1.1730 C   0  0  0  0  0  0  0  0  0  0  0  0
    3.0048   -1.6348    0.1320 O   0  0  0  0  0  0  0  0  0  0  0  0
    2.4088    0.1752    1.3190 N   0  0  0  0  0  0  0  0  0  0  0  0
    2.0708    0.5242    2.2050 H   0  0  0  0  0  0  0  0  0  0  0  0
    2.6638    1.1782    0.2840 C   0  0  1  0  0  0  0  0  0  0  0  0
    1.7049    1.4769   -0.1428 H   0  0  0  0  0  0  0  0  0  0  0  0
    3.3132    2.4216    0.9163 C   0  0  0  0  0  0  0  0  0  0  0  0
    3.6430    3.0888    0.1190 H   0  0  0  0  0  0  0  0  0  0  0  0
    4.2134    2.0983    1.4383 H   0  0  0  0  0  0  0  0  0  0  0  0
    2.3302    3.3830    2.1047 S   0  0  0  0  0  0  0  0  0  0  0  0
    3.5230    0.5950   -0.8535 C   0  0  0  0  0  0  0  0  0  0  0  0
    2.9921    0.0615   -1.8275 O   0  0  0  0  0  0  0  0  0  0  0  0
    4.8529    0.7032   -0.7323 N   0  0  0  0  0  0  0  0  0  0  0  0
    5.2205    1.1543    0.0899 H   0  0  0  0  0  0  0  0  0  0  0  0
    5.8014    0.1989   -1.7232 C   0  0  0  0  0  0  0  0  0  0  0  0
    5.7026   -0.8854   -1.8073 H   0  0  0  0  0  0  0  0  0  0  0  0
    5.5881    0.6419   -2.6977 H   0  0  0  0  0  0  0  0  0  0  0  0
    6.8226    0.4463   -1.4308 H   0  0  0  0  0  0  0  0  0  0  0  0
    1.5375    9.2918   -3.3981 H   0  0  0  0  0  0  0  0  0  0  0  0
    2.2523    8.8953   -2.6785 C   0  0  0  0  0  0  0  0  0  0  0  0
    2.7857    9.7154   -2.2005 H   0  0  0  0  0  0  0  0  0  0  0  0
    2.9586    8.2419   -3.1873 H   0  0  0  0  0  0  0  0  0  0  0  0
    1.5053    8.1050   -1.6298 C   0  0  0  0  0  0  0  0  0  0  0  0
    0.2890    7.9885   -1.6937 O   0  0  0  0  0  0  0  0  0  0  0  0
    2.2395    7.5543   -0.6668 N   0  0  0  0  0  0  0  0  0  0  0  0
    3.2384    7.7008   -0.6715 H   0  0  0  0  0  0  0  0  0  0  0  0
    1.7008    6.7502    0.4302 C   0  0  1  0  0  0  0  0  0  0  0  0
    0.7420    7.1690    0.7408 H   0  0  0  0  0  0  0  0  0  0  0  0
    1.4588    5.3287   -0.0963 C   0  0  0  0  0  0  0  0  0  0  0  0
    0.7742    5.4040   -0.9424 H   0  0  0  0  0  0  0  0  0  0  0  0
    2.3986    4.9292   -0.4779 H   0  0  0  0  0  0  0  0  0  0  0  0
    0.7441    4.1225    1.0532 S   0  0  0  0  0  0  0  0  0  0  0  0
    2.6525    6.7824    1.6392 C   0  0  0  0  0  0  0  0  0  0  0  0
    3.8656    6.9051    1.4634 O   0  0  0  0  0  0  0  0  0  0  0  0
    2.1056    6.6813    2.8574 N   0  0  0  0  0  0  0  0  0  0  0  0
    1.1082    6.5498    2.9152 H   0  0  0  0  0  0  0  0  0  0  0  0
    2.8688    6.6861    4.1048 C   0  0  0  0  0  0  0  0  0  0  0  0
    3.3807    5.7301    4.2267 H   0  0  0  0  0  0  0  0  0  0  0  0
    3.6174    7.4816    4.0818 H   0  0  0  0  0  0  0  0  0  0  0  0
    2.2034    6.8479    4.9530 H   0  0  0  0  0  0  0  0  0  0  0  0
  5  6  2  0  0  0  0
  5  7  1  0  0  0  0
  2  3  1  0  0  0  0
  2  4  1  0  0  0  0
  2  5  1  0  0  0  0
  1  2  1  0  0  0  0
 15 16  2  0  0  0  0
 15 17  1  0  0  0  0
 14 36  1  0  0  0  0
 11 12  1  0  0  0  0
 11 13  1  0  0  0  0
 11 14  1  0  0  0  0
  9 10  1  0  0  0  0
  9 11  1  0  0  0  0
  9 15  1  0  0  0  0
  7  8  1  0  0  0  0
  7  9  1  0  0  0  0
 19 20  1  0  0  0  0
 19 21  1  0  0  0  0
 19 22  1  0  0  0  0
 17 18  1  0  0  0  0
 17 19  1  0  0  0  0
 27 28  2  0  0  0  0
 27 29  1  0  0  0  0
 24 25  1  0  0  0  0
 24 26  1  0  0  0  0
 24 27  1  0  0  0  0
 23 24  1  0  0  0  0
 37 38  2  0  0  0  0
 37 39  1  0  0  0  0
 33 34  1  0  0  0  0
 33 35  1  0  0  0  0
 33 36  1  0  0  0  0
 31 32  1  0  0  0  0
 31 33  1  0  0  0  0
 31 37  1  0  0  0  0
 29 30  1  0  0  0  0
 29 31  1  0  0  0  0
 41 42  1  0  0  0  0
 41 43  1  0  0  0  0
 41 44  1  0  0  0  0
 39 40  1  0  0  0  0
 39 41  1  0  0  0  0
M  END
$$$$
default_name
  -OEChem-01062215323D

 44 43  0     1  0  0  0  0  0999 V2000
    2.4488   -3.0448    2.0990 H   0  0  0  0  0  0  0  0  0  0  0  0
    2.2788   -2.0018    2.3640 C   0  0  0  0  0  0  0  0  0  0  0  0
    2.9228   -1.7258    3.1960 H   0  0  0  0  0  0  0  0  0  0  0  0
    1.2358   -1.8618    2.6430 H   0  0  0  0  0  0  0  0  0  0  0  0
    2.6018   -1.1318    1.1730 C   0  0  0  0  0  0  0  0  0  0  0  0
    3.0048   -1.6348    0.1320 O   0  0  0  0  0  0  0  0  0  0  0  0
    2.4088    0.1752    1.3190 N   0  0  0  0  0  0  0  0  0  0  0  0
    2.0708    0.5242    2.2050 H   0  0  0  0  0  0  0  0  0  0  0  0
    2.6638    1.1782    0.2840 C   0  0  1  0  0  0  0  0  0  0  0  0
    1.7049    1.4769   -0.1428 H   0  0  0  0  0  0  0  0  0  0  0  0
    3.3132    2.4216    0.9163 C   0  0  0  0  0  0  0  0  0  0  0  0
    3.6430    3.0888    0.1190 H   0  0  0  0  0  0  0  0  0  0  0  0
    4.2134    2.0983    1.4383 H   0  0  0  0  0  0  0  0  0  0  0  0
    2.3302    3.3830    2.1047 S   0  0  0  0  0  0  0  0  0  0  0  0
    3.5230    0.5950   -0.8535 C   0  0  0  0  0  0  0  0  0  0  0  0
    3.0155    0.3137   -1.9391 O   0  0  0  0  0  0  0  0  0  0  0  0
    4.8280    0.4199   -0.6059 N   0  0  0  0  0  0  0  0  0  0  0  0
    5.1779    0.6740    0.3039 H   0  0  0  0  0  0  0  0  0  0  0  0
    5.7725   -0.1241   -1.5794 C   0  0  0  0  0  0  0  0  0  0  0  0
    5.4860   -1.1459   -1.8374 H   0  0  0  0  0  0  0  0  0  0  0  0
    5.7549    0.4797   -2.4886 H   0  0  0  0  0  0  0  0  0  0  0  0
    6.7825   -0.1260   -1.1677 H   0  0  0  0  0  0  0  0  0  0  0  0
    1.5375    9.2918   -3.3981 H   0  0  0  0  0  0  0  0  0  0  0  0
    2.2523    8.8953   -2.6785 C   0  0  0  0  0  0  0  0  0  0  0  0
    2.7857    9.7154   -2.2005 H   0  0  0  0  0  0  0  0  0  0  0  0
    2.9586    8.2419   -3.1873 H   0  0  0  0  0  0  0  0  0  0  0  0
    1.5053    8.1050   -1.6298 C   0  0  0  0  0  0  0  0  0  0  0  0
    0.2890    7.9885   -1.6937 O   0  0  0  0  0  0  0  0  0  0  0  0
    2.2395    7.5543   -0.6668 N   0  0  0  0  0  0  0  0  0  0  0  0
    3.2384    7.7008   -0.6715 H   0  0  0  0  0  0  0  0  0  0  0  0
    1.7008    6.7502    0.4302 C   0  0  1  0  0  0  0  0  0  0  0  0
    0.7420    7.1690    0.7408 H   0  0  0  0  0  0  0  0  0  0  0  0
    1.4588    5.3287   -0.0963 C   0  0  0  0  0  0  0  0  0  0  0  0
    0.7742    5.4040   -0.9424 H   0  0  0  0  0  0  0  0  0  0  0  0
    2.3986    4.9292   -0.4779 H   0  0  0  0  0  0  0  0  0  0  0  0
    0.7441    4.1225    1.0532 S   0  0  0  0  0  0  0  0  0  0  0  0
    2.6525    6.7824    1.6392 C   0  0  0  0  0  0  0  0  0  0  0  0
    3.8656    6.9051    1.4634 O   0  0  0  0  0  0  0  0  0  0  0  0
    2.1056    6.6813    2.8574 N   0  0  0  0  0  0  0  0  0  0  0  0
    1.1082    6.5498    2.9152 H   0  0  0  0  0  0  0  0  0  0  0  0
    2.8688    6.6861    4.1048 C   0  0  0  0  0  0  0  0  0  0  0  0
    3.3807    5.7301    4.2267 H   0  0  0  0  0  0  0  0  0  0  0  0
    3.6174    7.4816    4.0818 H   0  0  0  0  0  0  0  0  0  0  0  0
    2.2034    6.8479    4.9530 H   0  0  0  0  0  0  0  0  0  0  0  0
  5  6  2  0  0  0  0
  5  7  1  0  0  0  0
  2  3  1  0  0  0  0
  2  4  1  0  0  0  0
  2  5  1  0  0  0  0
  1  2  1  0  0  0  0
 15 16  2  0  0  0  0
 15 17  1  0  0  0  0
 14 36  1  0  0  0  0
 11 12  1  0  0  0  0
 11 13  1  0  0  0  0
 11 14  1  0  0  0  0
  9 10  1  0  0  0  0
  9 11  1  0  0  0  0
  9 15  1  0  0  0  0
  7  8  1  0  0  0  0
  7  9  1  0  0  0  0
 19 20  1  0  0  0  0
 19 21  1  0  0  0  0
 19 22  1  0  0  0  0
 17 18  1  0  0  0  0
 17 19  1  0  0  0  0
 27 28  2  0  0  0  0
 27 29  1  0  0  0  0
 24 25  1  0  0  0  0
 24 26  1  0  0  0  0
 24 27  1  0  0  0  0
 23 24  1  0  0  0  0
 37 38  2  0  0  0  0
 37 39  1  0  0  0  0
 33 34  1  0  0  0  0
 33 35  1  0  0  0  0
 33 36  1  0  0  0  0
 31 32  1  0  0  0  0
 31 33  1  0  0  0  0
 31 37  1  0  0  0  0
 29 30  1  0  0  0  0
 29 31  1  0  0  0  0
 41 42  1  0  0  0  0
 41 43  1  0  0  0  0
 41 44  1  0  0  0  0
 39 40  1  0  0  0  0
 39 41  1  0  0  0  0
M  END
$$$$
default_name
  -OEChem-01062215323D

 44 43  0     1  0  0  0  0  0999 V2000
    2.4488   -3.0448    2.0990 H   0  0  0  0  0  0  0  0  0  0  0  0
    2.2788   -2.0018    2.3640 C   0  0  0  0  0  0  0  0  0  0  0  0
    2.9228   -1.7258    3.1960 H   0  0  0  0  0  0  0  0  0  0  0  0
    1.2358   -1.8618    2.6430 H   0  0  0  0  0  0  0  0  0  0  0  0
    2.6018   -1.1318    1.1730 C   0  0  0  0  0  0  0  0  0  0  0  0
    3.0048   -1.6348    0.1320 O   0  0  0  0  0  0  0  0  0  0  0  0
    2.4088    0.1752    1.3190 N   0  0  0  0  0  0  0  0  0  0  0  0
    2.0708    0.5242    2.2050 H   0  0  0  0  0  0  0  0  0  0  0  0
    2.6638    1.1782    0.2840 C   0  0  1  0  0  0  0  0  0  0  0  0
    1.7049    1.4769   -0.1428 H   0  0  0  0  0  0  0  0  0  0  0  0
    3.3132    2.4216    0.9163 C   0  0  0  0  0  0  0  0  0  0  0  0
    3.6430    3.0888    0.1190 H   0  0  0  0  0  0  0  0  0  0  0  0
    4.2134    2.0983    1.4383 H   0  0  0  0  0  0  0  0  0  0  0  0
    2.3302    3.3830    2.1047 S   0  0  0  0  0  0  0  0  0  0  0  0
    3.5230    0.5950   -0.8535 C   0  0  0  0  0  0  0  0  0  0  0  0
    3.0973    0.5690   -2.0082 O   0  0  0  0  0  0  0  0  0  0  0  0
    4.7374    0.1328   -0.5271 N   0  0  0  0  0  0  0  0  0  0  0  0
    5.0239    0.1874    0.4371 H   0  0  0  0  0  0  0  0  0  0  0  0
    5.6687   -0.4514   -1.4900 C   0  0  0  0  0  0  0  0  0  0  0  0
    5.2299   -1.3517   -1.9253 H   0  0  0  0  0  0  0  0  0  0  0  0
    5.8644    0.2609   -2.2936 H   0  0  0  0  0  0  0  0  0  0  0  0
    6.6086   -0.7090   -1.0002 H   0  0  0  0  0  0  0  0  0  0  0  0
    1.5375    9.2918   -3.3981 H   0  0  0  0  0  0  0  0  0  0  0  0
    2.2523    8.8953   -2.6785 C   0  0  0  0  0  0  0  0  0  0  0  0
    2.7857    9.7154   -2.2005 H   0  0  0  0  0  0  0  0  0  0  0  0
    2.9586    8.2419   -3.1873 H   0  0  0  0  0  0  0  0  0  0  0  0
    1.5053    8.1050   -1.6298 C   0  0  0  0  0  0  0  0  0  0  0  0
    0.2890    7.9885   -1.6937 O   0  0  0  0  0  0  0  0  0  0  0  0
    2.2395    7.5543   -0.6668 N   0  0  0  0  0  0  0  0  0  0  0  0
    3.2384    7.7008   -0.6715 H   0  0  0  0  0  0  0  0  0  0  0  0
    1.7008    6.7502    0.4302 C   0  0  1  0  0  0  0  0  0  0  0  0
    0.7420    7.1690    0.7408 H   0  0  0  0  0  0  0  0  0  0  0  0
    1.4588    5.3287   -0.0963 C   0  0  0  0  0  0  0  0  0  0  0  0
    0.7742    5.4040   -0.9424 H   0  0  0  0  0  0  0  0  0  0  0  0
    2.3986    4.9292   -0.4779 H   0  0  0  0  0  0  0  0  0  0  0  0
    0.7441    4.1225    1.0532 S   0  0  0  0  0  0  0  0  0  0  0  0
    2.6525    6.7824    1.6392 C   0  0  0  0  0  0  0  0  0  0  0  0
    3.8656    6.9051    1.4634 O   0  0  0  0  0  0  0  0  0  0  0  0
    2.1056    6.6813    2.8574 N   0  0  0  0  0  0  0  0  0  0  0  0
    1.1082    6.5498    2.9152 H   0  0  0  0  0  0  0  0  0  0  0  0
    2.8688    6.6861    4.1048 C   0  0  0  0  0  0  0  0  0  0  0  0
    3.3807    5.7301    4.2267 H   0  0  0  0  0  0  0  0  0  0  0  0
    3.6174    7.4816    4.0818 H   0  0  0  0  0  0  0  0  0  0  0  0
    2.2034    6.8479    4.9530 H   0  0  0  0  0  0  0  0  0  0  0  0
  5  6  2  0  0  0  0
  5  7  1  0  0  0  0
  2  3  1  0  0  0  0
  2  4  1  0  0  0  0
  2  5  1  0  0  0  0
  1  2  1  0  0  0  0
 15 16  2  0  0  0  0
 15 17  1  0  0  0  0
 14 36  1  0  0  0  0
 11 12  1  0  0  0  0
 11 13  1  0  0  0  0
 11 14  1  0  0  0  0
  9 10  1  0  0  0  0
  9 11  1  0  0  0  0
  9 15  1  0  0  0  0
  7  8  1  0  0  0  0
  7  9  1  0  0  0  0
 19 20  1  0  0  0  0
 19 21  1  0  0  0  0
 19 22  1  0  0  0  0
 17 18  1  0  0  0  0
 17 19  1  0  0  0  0
 27 28  2  0  0  0  0
 27 29  1  0  0  0  0
 24 25  1  0  0  0  0
 24 26  1  0  0  0  0
 24 27  1  0  0  0  0
 23 24  1  0  0  0  0
 37 38  2  0  0  0  0
 37 39  1  0  0  0  0
 33 34  1  0  0  0  0
 33 35  1  0  0  0  0
 33 36  1  0  0  0  0
 31 32  1  0  0  0  0
 31 33  1  0  0  0  0
 31 37  1  0  0  0  0
 29 30  1  0  0  0  0
 29 31  1  0  0  0  0
 41 42  1  0  0  0  0
 41 43  1  0  0  0  0
 41 44  1  0  0  0  0
 39 40  1  0  0  0  0
 39 41  1  0  0  0  0
M  END
$$$$
default_name
  -OEChem-01062215323D

 44 43  0     1  0  0  0  0  0999 V2000
    2.4488   -3.0448    2.0990 H   0  0  0  0  0  0  0  0  0  0  0  0
    2.2788   -2.0018    2.3640 C   0  0  0  0  0  0  0  0  0  0  0  0
    2.9228   -1.7258    3.1960 H   0  0  0  0  0  0  0  0  0  0  0  0
    1.2358   -1.8618    2.6430 H   0  0  0  0  0  0  0  0  0  0  0  0
    2.6018   -1.1318    1.1730 C   0  0  0  0  0  0  0  0  0  0  0  0
    3.0048   -1.6348    0.1320 O   0  0  0  0  0  0  0  0  0  0  0  0
    2.4088    0.1752    1.3190 N   0  0  0  0  0  0  0  0  0  0  0  0
    2.0708    0.5242    2.2050 H   0  0  0  0  0  0  0  0  0  0  0  0
    2.6638    1.1782    0.2840 C   0  0  1  0  0  0  0  0  0  0  0  0
    1.7049    1.4769   -0.1428 H   0  0  0  0  0  0  0  0  0  0  0  0
    3.3132    2.4216    0.9163 C   0  0  0  0  0  0  0  0  0  0  0  0
    3.6430    3.0888    0.1190 H   0  0  0  0  0  0  0  0  0  0  0  0
    4.2134    2.0983    1.4383 H   0  0  0  0  0  0  0  0  0  0  0  0
    2.3302    3.3830    2.1047 S   0  0  0  0  0  0  0  0  0  0  0  0
    3.5230    0.5950   -0.8535 C   0  0  0  0  0  0  0  0  0  0  0  0
    3.2319    0.8099   -2.0301 O   0  0  0  0  0  0  0  0  0  0  0  0
    4.5873   -0.1386   -0.5014 N   0  0  0  0  0  0  0  0  0  0  0  0
    4.7691   -0.2724    0.4803 H   0  0  0  0  0  0  0  0  0  0  0  0
    5.4972   -0.7606   -1.4611 C   0  0  0  0  0  0  0  0  0  0  0  0
    4.9518   -1.4889   -2.0650 H   0  0  0  0  0  0  0  0  0  0  0  0
    5.9094    0.0005   -2.1262 H   0  0  0  0  0  0  0  0  0  0  0  0
    6.3127   -1.2632   -0.9395 H   0  0  0  0  0  0  0  0  0  0  0  0
    1.5375    9.2918   -3.3981 H   0  0  0  0  0  0  0  0  0  0  0  0
    2.2523    8.8953   -2.6785 C   0  0  0  0  0  0  0  0  0  0  0  0
    2.7857    9.7154   -2.2005 H   0  0  0  0  0  0  0  0  0  0  0  0
    2.9586    8.2419   -3.1873 H   0  0  0  0  0  0  0  0  0  0  0  0
    1.5053    8.1050   -1.6298 C   0  0  0  0  0  0  0  0  0  0  0  0
    0.2890    7.9885   -1.6937 O   0  0  0  0  0  0  0  0  0  0  0  0
    2.2395    7.5543   -0.6668 N   0  0  0  0  0  0  0  0  0  0  0  0
    3.2384    7.7008   -0.6715 H   0  0  0  0  0  0  0  0  0  0  0  0
    1.7008    6.7502    0.4302 C   0  0  1  0  0  0  0  0  0  0  0  0
    0.7420    7.1690    0.7408 H   0  0  0  0  0  0  0  0  0  0  0  0
    1.4588    5.3287   -0.0963 C   0  0  0  0  0  0  0  0  0  0  0  0
    0.7742    5.4040   -0.9424 H   0  0  0  0  0  0  0  0  0  0  0  0
    2.3986    4.9292   -0.4779 H   0  0  0  0  0  0  0  0  0  0  0  0
    0.7441    4.1225    1.0532 S   0  0  0  0  0  0  0  0  0  0  0  0
    2.6525    6.7824    1.6392 C   0  0  0  0  0  0  0  0  0  0  0  0
    3.8656    6.9051    1.4634 O   0  0  0  0  0  0  0  0  0  0  0  0
    2.1056    6.6813    2.8574 N   0  0  0  0  0  0  0  0  0  0  0  0
    1.1082    6.5498    2.9152 H   0  0  0  0  0  0  0  0  0  0  0  0
    2.8688    6.6861    4.1048 C   0  0  0  0  0  0  0  0  0  0  0  0
    3.3807    5.7301    4.2267 H   0  0  0  0  0  0  0  0  0  0  0  0
    3.6174    7.4816    4.0818 H   0  0  0  0  0  0  0  0  0  0  0  0
    2.2034    6.8479    4.9530 H   0  0  0  0  0  0  0  0  0  0  0  0
  5  6  2  0  0  0  0
  5  7  1  0  0  0  0
  2  3  1  0  0  0  0
  2  4  1  0  0  0  0
  2  5  1  0  0  0  0
  1  2  1  0  0  0  0
 15 16  2  0  0  0  0
 15 17  1  0  0  0  0
 14 36  1  0  0  0  0
 11 12  1  0  0  0  0
 11 13  1  0  0  0  0
 11 14  1  0  0  0  0
  9 10  1  0  0  0  0
  9 11  1  0  0  0  0
  9 15  1  0  0  0  0
  7  8  1  0  0  0  0
  7  9  1  0  0  0  0
 19 20  1  0  0  0  0
 19 21  1  0  0  0  0
 19 22  1  0  0  0  0
 17 18  1  0  0  0  0
 17 19  1  0  0  0  0
 27 28  2  0  0  0  0
 27 29  1  0  0  0  0
 24 25  1  0  0  0  0
 24 26  1  0  0  0  0
 24 27  1  0  0  0  0
 23 24  1  0  0  0  0
 37 38  2  0  0  0  0
 37 39  1  0  0  0  0
 33 34  1  0  0  0  0
 33 35  1  0  0  0  0
 33 36  1  0  0  0  0
 31 32  1  0  0  0  0
 31 33  1  0  0  0  0
 31 37  1  0  0  0  0
 29 30  1  0  0  0  0
 29 31  1  0  0  0  0
 41 42  1  0  0  0  0
 41 43  1  0  0  0  0
 41 44  1  0  0  0  0
 39 40  1  0  0  0  0
 39 41  1  0  0  0  0
M  END
$$$$
default_name
  -OEChem-01062215323D

 44 43  0     1  0  0  0  0  0999 V2000
    2.4488   -3.0448    2.0990 H   0  0  0  0  0  0  0  0  0  0  0  0
    2.2788   -2.0018    2.3640 C   0  0  0  0  0  0  0  0  0  0  0  0
    2.9228   -1.7258    3.1960 H   0  0  0  0  0  0  0  0  0  0  0  0
    1.2358   -1.8618    2.6430 H   0  0  0  0  0  0  0  0  0  0  0  0
    2.6018   -1.1318    1.1730 C   0  0  0  0  0  0  0  0  0  0  0  0
    3.0048   -1.6348    0.1320 O   0  0  0  0  0  0  0  0  0  0  0  0
    2.4088    0.1752    1.3190 N   0  0  0  0  0  0  0  0  0  0  0  0
    2.0708    0.5242    2.2050 H   0  0  0  0  0  0  0  0  0  0  0  0
    2.6638    1.1782    0.2840 C   0  0  1  0  0  0  0  0  0  0  0  0
    1.7049    1.4769   -0.1428 H   0  0  0  0  0  0  0  0  0  0  0  0
    3.3132    2.4216    0.9163 C   0  0  0  0  0  0  0  0  0  0  0  0
    3.6430    3.0888    0.1190 H   0  0  0  0  0  0  0  0  0  0  0  0
    4.2134    2.0983    1.4383 H   0  0  0  0  0  0  0  0  0  0  0  0
    2.3302    3.3830    2.1047 S   0  0  0  0  0  0  0  0  0  0  0  0
    3.5230    0.5950   -0.8535 C   0  0  0  0  0  0  0  0  0  0  0  0
    3.4101    1.0201   -2.0032 O   0  0  0  0  0  0  0  0  0  0  0  0
    4.3879   -0.3758   -0.5304 N   0  0  0  0  0  0  0  0  0  0  0  0
    4.4308   -0.6741    0.4308 H   0  0  0  0  0  0  0  0  0  0  0  0
    5.2695   -1.0307   -1.4945 C   0  0  0  0  0  0  0  0  0  0  0  0
    4.6707   -1.5481   -2.2471 H   0  0  0  0  0  0  0  0  0  0  0  0
    5.8866   -0.2839   -1.9976 H   0  0  0  0  0  0  0  0  0  0  0  0
    5.9151   -1.7507   -0.9900 H   0  0  0  0  0  0  0  0  0  0  0  0
    1.5375    9.2918   -3.3981 H   0  0  0  0  0  0  0  0  0  0  0  0
    2.2523    8.8953   -2.6785 C   0  0  0  0  0  0  0  0  0  0  0  0
    2.7857    9.7154   -2.2005 H   0  0  0  0  0  0  0  0  0  0  0  0
    2.9586    8.2419   -3.1873 H   0  0  0  0  0  0  0  0  0  0  0  0
    1.5053    8.1050   -1.6298 C   0  0  0  0  0  0  0  0  0  0  0  0
    0.2890    7.9885   -1.6937 O   0  0  0  0  0  0  0  0  0  0  0  0
    2.2395    7.5543   -0.6668 N   0  0  0  0  0  0  0  0  0  0  0  0
    3.2384    7.7008   -0.6715 H   0  0  0  0  0  0  0  0  0  0  0  0
    1.7008    6.7502    0.4302 C   0  0  1  0  0  0  0  0  0  0  0  0
    0.7420    7.1690    0.7408 H   0  0  0  0  0  0  0  0  0  0  0  0
    1.4588    5.3287   -0.0963 C   0  0  0  0  0  0  0  0  0  0  0  0
    0.7742    5.4040   -0.9424 H   0  0  0  0  0  0  0  0  0  0  0  0
    2.3986    4.9292   -0.4779 H   0  0  0  0  0  0  0  0  0  0  0  0
    0.7441    4.1225    1.0532 S   0  0  0  0  0  0  0  0  0  0  0  0
    2.6525    6.7824    1.6392 C   0  0  0  0  0  0  0  0  0  0  0  0
    3.8656    6.9051    1.4634 O   0  0  0  0  0  0  0  0  0  0  0  0
    2.1056    6.6813    2.8574 N   0  0  0  0  0  0  0  0  0  0  0  0
    1.1082    6.5498    2.9152 H   0  0  0  0  0  0  0  0  0  0  0  0
    2.8688    6.6861    4.1048 C   0  0  0  0  0  0  0  0  0  0  0  0
    3.3807    5.7301    4.2267 H   0  0  0  0  0  0  0  0  0  0  0  0
    3.6174    7.4816    4.0818 H   0  0  0  0  0  0  0  0  0  0  0  0
    2.2034    6.8479    4.9530 H   0  0  0  0  0  0  0  0  0  0  0  0
  5  6  2  0  0  0  0
  5  7  1  0  0  0  0
  2  3  1  0  0  0  0
  2  4  1  0  0  0  0
  2  5  1  0  0  0  0
  1  2  1  0  0  0  0
 15 16  2  0  0  0  0
 15 17  1  0  0  0  0
 14 36  1  0  0  0  0
 11 12  1  0  0  0  0
 11 13  1  0  0  0  0
 11 14  1  0  0  0  0
  9 10  1  0  0  0  0
  9 11  1  0  0  0  0
  9 15  1  0  0  0  0
  7  8  1  0  0  0  0
  7  9  1  0  0  0  0
 19 20  1  0  0  0  0
 19 21  1  0  0  0  0
 19 22  1  0  0  0  0
 17 18  1  0  0  0  0
 17 19  1  0  0  0  0
 27 28  2  0  0  0  0
 27 29  1  0  0  0  0
 24 25  1  0  0  0  0
 24 26  1  0  0  0  0
 24 27  1  0  0  0  0
 23 24  1  0  0  0  0
 37 38  2  0  0  0  0
 37 39  1  0  0  0  0
 33 34  1  0  0  0  0
 33 35  1  0  0  0  0
 33 36  1  0  0  0  0
 31 32  1  0  0  0  0
 31 33  1  0  0  0  0
 31 37  1  0  0  0  0
 29 30  1  0  0  0  0
 29 31  1  0  0  0  0
 41 42  1  0  0  0  0
 41 43  1  0  0  0  0
 41 44  1  0  0  0  0
 39 40  1  0  0  0  0
 39 41  1  0  0  0  0
M  END
$$$$
default_name
  -OEChem-01062215323D

 44 43  0     1  0  0  0  0  0999 V2000
    2.4488   -3.0448    2.0990 H   0  0  0  0  0  0  0  0  0  0  0  0
    2.2788   -2.0018    2.3640 C   0  0  0  0  0  0  0  0  0  0  0  0
    2.9228   -1.7258    3.1960 H   0  0  0  0  0  0  0  0  0  0  0  0
    1.2358   -1.8618    2.6430 H   0  0  0  0  0  0  0  0  0  0  0  0
    2.6018   -1.1318    1.1730 C   0  0  0  0  0  0  0  0  0  0  0  0
    3.0048   -1.6348    0.1320 O   0  0  0  0  0  0  0  0  0  0  0  0
    2.4088    0.1752    1.3190 N   0  0  0  0  0  0  0  0  0  0  0  0
    2.0708    0.5242    2.2050 H   0  0  0  0  0  0  0  0  0  0  0  0
    2.6638    1.1782    0.2840 C   0  0  1  0  0  0  0  0  0  0  0  0
    1.7049    1.4769   -0.1428 H   0  0  0  0  0  0  0  0  0  0  0  0
    3.3132    2.4216    0.9163 C   0  0  0  0  0  0  0  0  0  0  0  0
    3.6430    3.0888    0.1190 H   0  0  0  0  0  0  0  0  0  0  0  0
    4.2134    2.0983    1.4383 H   0  0  0  0  0  0  0  0  0  0  0  0
    2.3302    3.3830    2.1047 S   0  0  0  0  0  0  0  0  0  0  0  0
    3.5230    0.5950   -0.8535 C   0  0  0  0  0  0  0  0  0  0  0  0
    3.6197    1.1851   -1.9294 O   0  0  0  0  0  0  0  0  0  0  0  0
    4.1528   -0.5625   -0.6122 N   0  0  0  0  0  0  0  0  0  0  0  0
    4.0322   -0.9903    0.2918 H   0  0  0  0  0  0  0  0  0  0  0  0
    5.0013   -1.2432   -1.5882 C   0  0  0  0  0  0  0  0  0  0  0  0
    4.4057   -1.5252   -2.4590 H   0  0  0  0  0  0  0  0  0  0  0  0
    5.7976   -0.5727   -1.9167 H   0  0  0  0  0  0  0  0  0  0  0  0
    5.4428   -2.1382   -1.1481 H   0  0  0  0  0  0  0  0  0  0  0  0
    1.5375    9.2918   -3.3981 H   0  0  0  0  0  0  0  0  0  0  0  0
    2.2523    8.8953   -2.6785 C   0  0  0  0  0  0  0  0  0  0  0  0
    2.7857    9.7154   -2.2005 H   0  0  0  0  0  0  0  0  0  0  0  0
    2.9586    8.2419   -3.1873 H   0  0  0  0  0  0  0  0  0  0  0  0
    1.5053    8.1050   -1.6298 C   0  0  0  0  0  0  0  0  0  0  0  0
    0.2890    7.9885   -1.6937 O   0  0  0  0  0  0  0  0  0  0  0  0
    2.2395    7.5543   -0.6668 N   0  0  0  0  0  0  0  0  0  0  0  0
    3.2384    7.7008   -0.6715 H   0  0  0  0  0  0  0  0  0  0  0  0
    1.7008    6.7502    0.4302 C   0  0  1  0  0  0  0  0  0  0  0  0
    0.7420    7.1690    0.7408 H   0  0  0  0  0  0  0  0  0  0  0  0
    1.4588    5.3287   -0.0963 C   0  0  0  0  0  0  0  0  0  0  0  0
    0.7742    5.4040   -0.9424 H   0  0  0  0  0  0  0  0  0  0  0  0
    2.3986    4.9292   -0.4779 H   0  0  0  0  0  0  0  0  0  0  0  0
    0.7441    4.1225    1.0532 S   0  0  0  0  0  0  0  0  0  0  0  0
    2.6525    6.7824    1.6392 C   0  0  0  0  0  0  0  0  0  0  0  0
    3.8656    6.9051    1.4634 O   0  0  0  0  0  0  0  0  0  0  0  0
    2.1056    6.6813    2.8574 N   0  0  0  0  0  0  0  0  0  0  0  0
    1.1082    6.5498    2.9152 H   0  0  0  0  0  0  0  0  0  0  0  0
    2.8688    6.6861    4.1048 C   0  0  0  0  0  0  0  0  0  0  0  0
    3.3807    5.7301    4.2267 H   0  0  0  0  0  0  0  0  0  0  0  0
    3.6174    7.4816    4.0818 H   0  0  0  0  0  0  0  0  0  0  0  0
    2.2034    6.8479    4.9530 H   0  0  0  0  0  0  0  0  0  0  0  0
  5  6  2  0  0  0  0
  5  7  1  0  0  0  0
  2  3  1  0  0  0  0
  2  4  1  0  0  0  0
  2  5  1  0  0  0  0
  1  2  1  0  0  0  0
 15 16  2  0  0  0  0
 15 17  1  0  0  0  0
 14 36  1  0  0  0  0
 11 12  1  0  0  0  0
 11 13  1  0  0  0  0
 11 14  1  0  0  0  0
  9 10  1  0  0  0  0
  9 11  1  0  0  0  0
  9 15  1  0  0  0  0
  7  8  1  0  0  0  0
  7  9  1  0  0  0  0
 19 20  1  0  0  0  0
 19 21  1  0  0  0  0
 19 22  1  0  0  0  0
 17 18  1  0  0  0  0
 17 19  1  0  0  0  0
 27 28  2  0  0  0  0
 27 29  1  0  0  0  0
 24 25  1  0  0  0  0
 24 26  1  0  0  0  0
 24 27  1  0  0  0  0
 23 24  1  0  0  0  0
 37 38  2  0  0  0  0
 37 39  1  0  0  0  0
 33 34  1  0  0  0  0
 33 35  1  0  0  0  0
 33 36  1  0  0  0  0
 31 32  1  0  0  0  0
 31 33  1  0  0  0  0
 31 37  1  0  0  0  0
 29 30  1  0  0  0  0
 29 31  1  0  0  0  0
 41 42  1  0  0  0  0
 41 43  1  0  0  0  0
 41 44  1  0  0  0  0
 39 40  1  0  0  0  0
 39 41  1  0  0  0  0
M  END
$$$$
default_name
  -OEChem-01062215323D

 44 43  0     1  0  0  0  0  0999 V2000
    2.4488   -3.0448    2.0990 H   0  0  0  0  0  0  0  0  0  0  0  0
    2.2788   -2.0018    2.3640 C   0  0  0  0  0  0  0  0  0  0  0  0
    2.9228   -1.7258    3.1960 H   0  0  0  0  0  0  0  0  0  0  0  0
    1.2358   -1.8618    2.6430 H   0  0  0  0  0  0  0  0  0  0  0  0
    2.6018   -1.1318    1.1730 C   0  0  0  0  0  0  0  0  0  0  0  0
    3.0048   -1.6348    0.1320 O   0  0  0  0  0  0  0  0  0  0  0  0
    2.4088    0.1752    1.3190 N   0  0  0  0  0  0  0  0  0  0  0  0
    2.0708    0.5242    2.2050 H   0  0  0  0  0  0  0  0  0  0  0  0
    2.6638    1.1782    0.2840 C   0  0  1  0  0  0  0  0  0  0  0  0
    1.7049    1.4769   -0.1428 H   0  0  0  0  0  0  0  0  0  0  0  0
    3.3132    2.4216    0.9163 C   0  0  0  0  0  0  0  0  0  0  0  0
    3.6430    3.0888    0.1190 H   0  0  0  0  0  0  0  0  0  0  0  0
    4.2134    2.0983    1.4383 H   0  0  0  0  0  0  0  0  0  0  0  0
    2.3302    3.3830    2.1047 S   0  0  0  0  0  0  0  0  0  0  0  0
    3.5230    0.5950   -0.8535 C   0  0  0  0  0  0  0  0  0  0  0  0
    3.8465    1.2938   -1.8138 O   0  0  0  0  0  0  0  0  0  0  0  0
    3.8981   -0.6862   -0.7412 N   0  0  0  0  0  0  0  0  0  0  0  0
    3.6003   -1.1995    0.0728 H   0  0  0  0  0  0  0  0  0  0  0  0
    4.7108   -1.3836   -1.7356 C   0  0  0  0  0  0  0  0  0  0  0  0
    4.1748   -1.4219   -2.6863 H   0  0  0  0  0  0  0  0  0  0  0  0
    5.6485   -0.8464   -1.8890 H   0  0  0  0  0  0  0  0  0  0  0  0
    4.9279   -2.3995   -1.4030 H   0  0  0  0  0  0  0  0  0  0  0  0
    1.5375    9.2918   -3.3981 H   0  0  0  0  0  0  0  0  0  0  0  0
    2.2523    8.8953   -2.6785 C   0  0  0  0  0  0  0  0  0  0  0  0
    2.7857    9.7154   -2.2005 H   0  0  0  0  0  0  0  0  0  0  0  0
    2.9586    8.2419   -3.1873 H   0  0  0  0  0  0  0  0  0  0  0  0
    1.5053    8.1050   -1.6298 C   0  0  0  0  0  0  0  0  0  0  0  0
    0.2890    7.9885   -1.6937 O   0  0  0  0  0  0  0  0  0  0  0  0
    2.2395    7.5543   -0.6668 N   0  0  0  0  0  0  0  0  0  0  0  0
    3.2384    7.7008   -0.6715 H   0  0  0  0  0  0  0  0  0  0  0  0
    1.7008    6.7502    0.4302 C   0  0  1  0  0  0  0  0  0  0  0  0
    0.7420    7.1690    0.7408 H   0  0  0  0  0  0  0  0  0  0  0  0
    1.4588    5.3287   -0.0963 C   0  0  0  0  0  0  0  0  0  0  0  0
    0.7742    5.4040   -0.9424 H   0  0  0  0  0  0  0  0  0  0  0  0
    2.3986    4.9292   -0.4779 H   0  0  0  0  0  0  0  0  0  0  0  0
    0.7441    4.1225    1.0532 S   0  0  0  0  0  0  0  0  0  0  0  0
    2.6525    6.7824    1.6392 C   0  0  0  0  0  0  0  0  0  0  0  0
    3.8656    6.9051    1.4634 O   0  0  0  0  0  0  0  0  0  0  0  0
    2.1056    6.6813    2.8574 N   0  0  0  0  0  0  0  0  0  0  0  0
    1.1082    6.5498    2.9152 H   0  0  0  0  0  0  0  0  0  0  0  0
    2.8688    6.6861    4.1048 C   0  0  0  0  0  0  0  0  0  0  0  0
    3.3807    5.7301    4.2267 H   0  0  0  0  0  0  0  0  0  0  0  0
    3.6174    7.4816    4.0818 H   0  0  0  0  0  0  0  0  0  0  0  0
    2.2034    6.8479    4.9530 H   0  0  0  0  0  0  0  0  0  0  0  0
  5  6  2  0  0  0  0
  5  7  1  0  0  0  0
  2  3  1  0  0  0  0
  2  4  1  0  0  0  0
  2  5  1  0  0  0  0
  1  2  1  0  0  0  0
 15 16  2  0  0  0  0
 15 17  1  0  0  0  0
 14 36  1  0  0  0  0
 11 12  1  0  0  0  0
 11 13  1  0  0  0  0
 11 14  1  0  0  0  0
  9 10  1  0  0  0  0
  9 11  1  0  0  0  0
  9 15  1  0  0  0  0
  7  8  1  0  0  0  0
  7  9  1  0  0  0  0
 19 20  1  0  0  0  0
 19 21  1  0  0  0  0
 19 22  1  0  0  0  0
 17 18  1  0  0  0  0
 17 19  1  0  0  0  0
 27 28  2  0  0  0  0
 27 29  1  0  0  0  0
 24 25  1  0  0  0  0
 24 26  1  0  0  0  0
 24 27  1  0  0  0  0
 23 24  1  0  0  0  0
 37 38  2  0  0  0  0
 37 39  1  0  0  0  0
 33 34  1  0  0  0  0
 33 35  1  0  0  0  0
 33 36  1  0  0  0  0
 31 32  1  0  0  0  0
 31 33  1  0  0  0  0
 31 37  1  0  0  0  0
 29 30  1  0  0  0  0
 29 31  1  0  0  0  0
 41 42  1  0  0  0  0
 41 43  1  0  0  0  0
 41 44  1  0  0  0  0
 39 40  1  0  0  0  0
 39 41  1  0  0  0  0
M  END
$$$$
default_name
  -OEChem-01062215323D

 44 43  0     1  0  0  0  0  0999 V2000
    2.4488   -3.0448    2.0990 H   0  0  0  0  0  0  0  0  0  0  0  0
    2.2788   -2.0018    2.3640 C   0  0  0  0  0  0  0  0  0  0  0  0
    2.9228   -1.7258    3.1960 H   0  0  0  0  0  0  0  0  0  0  0  0
    1.2358   -1.8618    2.6430 H   0  0  0  0  0  0  0  0  0  0  0  0
    2.6018   -1.1318    1.1730 C   0  0  0  0  0  0  0  0  0  0  0  0
    3.0048   -1.6348    0.1320 O   0  0  0  0  0  0  0  0  0  0  0  0
    2.4088    0.1752    1.3190 N   0  0  0  0  0  0  0  0  0  0  0  0
    2.0708    0.5242    2.2050 H   0  0  0  0  0  0  0  0  0  0  0  0
    2.6638    1.1782    0.2840 C   0  0  1  0  0  0  0  0  0  0  0  0
    1.7049    1.4769   -0.1428 H   0  0  0  0  0  0  0  0  0  0  0  0
    3.3132    2.4216    0.9163 C   0  0  0  0  0  0  0  0  0  0  0  0
    3.6430    3.0888    0.1190 H   0  0  0  0  0  0  0  0  0  0  0  0
    4.2134    2.0983    1.4383 H   0  0  0  0  0  0  0  0  0  0  0  0
    2.3302    3.3830    2.1047 S   0  0  0  0  0  0  0  0  0  0  0  0
    3.5230    0.5950   -0.8535 C   0  0  0  0  0  0  0  0  0  0  0  0
    4.0751    1.3387   -1.6643 O   0  0  0  0  0  0  0  0  0  0  0  0
    3.6410   -0.7384   -0.9087 N   0  0  0  0  0  0  0  0  0  0  0  0
    3.1646   -1.2874   -0.2113 H   0  0  0  0  0  0  0  0  0  0  0  0
    4.4178   -1.4425   -1.9268 C   0  0  0  0  0  0  0  0  0  0  0  0
    3.9938   -1.2451   -2.9137 H   0  0  0  0  0  0  0  0  0  0  0  0
    5.4495   -1.0863   -1.9164 H   0  0  0  0  0  0  0  0  0  0  0  0
    4.4057   -2.5166   -1.7375 H   0  0  0  0  0  0  0  0  0  0  0  0
    1.5375    9.2918   -3.3981 H   0  0  0  0  0  0  0  0  0  0  0  0
    2.2523    8.8953   -2.6785 C   0  0  0  0  0  0  0  0  0  0  0  0
    2.7857    9.7154   -2.2005 H   0  0  0  0  0  0  0  0  0  0  0  0
    2.9586    8.2419   -3.1873 H   0  0  0  0  0  0  0  0  0  0  0  0
    1.5053    8.1050   -1.6298 C   0  0  0  0  0  0  0  0  0  0  0  0
    0.2890    7.9885   -1.6937 O   0  0  0  0  0  0  0  0  0  0  0  0
    2.2395    7.5543   -0.6668 N   0  0  0  0  0  0  0  0  0  0  0  0
    3.2384    7.7008   -0.6715 H   0  0  0  0  0  0  0  0  0  0  0  0
    1.7008    6.7502    0.4302 C   0  0  1  0  0  0  0  0  0  0  0  0
    0.7420    7.1690    0.7408 H   0  0  0  0  0  0  0  0  0  0  0  0
    1.4588    5.3287   -0.0963 C   0  0  0  0  0  0  0  0  0  0  0  0
    0.7742    5.4040   -0.9424 H   0  0  0  0  0  0  0  0  0  0  0  0
    2.3986    4.9292   -0.4779 H   0  0  0  0  0  0  0  0  0  0  0  0
    0.7441    4.1225    1.0532 S   0  0  0  0  0  0  0  0  0  0  0  0
    2.6525    6.7824    1.6392 C   0  0  0  0  0  0  0  0  0  0  0  0
    3.8656    6.9051    1.4634 O   0  0  0  0  0  0  0  0  0  0  0  0
    2.1056    6.6813    2.8574 N   0  0  0  0  0  0  0  0  0  0  0  0
    1.1082    6.5498    2.9152 H   0  0  0  0  0  0  0  0  0  0  0  0
    2.8688    6.6861    4.1048 C   0  0  0  0  0  0  0  0  0  0  0  0
    3.3807    5.7301    4.2267 H   0  0  0  0  0  0  0  0  0  0  0  0
    3.6174    7.4816    4.0818 H   0  0  0  0  0  0  0  0  0  0  0  0
    2.2034    6.8479    4.9530 H   0  0  0  0  0  0  0  0  0  0  0  0
  5  6  2  0  0  0  0
  5  7  1  0  0  0  0
  2  3  1  0  0  0  0
  2  4  1  0  0  0  0
  2  5  1  0  0  0  0
  1  2  1  0  0  0  0
 15 16  2  0  0  0  0
 15 17  1  0  0  0  0
 14 36  1  0  0  0  0
 11 12  1  0  0  0  0
 11 13  1  0  0  0  0
 11 14  1  0  0  0  0
  9 10  1  0  0  0  0
  9 11  1  0  0  0  0
  9 15  1  0  0  0  0
  7  8  1  0  0  0  0
  7  9  1  0  0  0  0
 19 20  1  0  0  0  0
 19 21  1  0  0  0  0
 19 22  1  0  0  0  0
 17 18  1  0  0  0  0
 17 19  1  0  0  0  0
 27 28  2  0  0  0  0
 27 29  1  0  0  0  0
 24 25  1  0  0  0  0
 24 26  1  0  0  0  0
 24 27  1  0  0  0  0
 23 24  1  0  0  0  0
 37 38  2  0  0  0  0
 37 39  1  0  0  0  0
 33 34  1  0  0  0  0
 33 35  1  0  0  0  0
 33 36  1  0  0  0  0
 31 32  1  0  0  0  0
 31 33  1  0  0  0  0
 31 37  1  0  0  0  0
 29 30  1  0  0  0  0
 29 31  1  0  0  0  0
 41 42  1  0  0  0  0
 41 43  1  0  0  0  0
 41 44  1  0  0  0  0
 39 40  1  0  0  0  0
 39 41  1  0  0  0  0
M  END
$$$$
default_name
  -OEChem-01062215323D

 44 43  0     1  0  0  0  0  0999 V2000
    2.4488   -3.0448    2.0990 H   0  0  0  0  0  0  0  0  0  0  0  0
    2.2788   -2.0018    2.3640 C   0  0  0  0  0  0  0  0  0  0  0  0
    2.9228   -1.7258    3.1960 H   0  0  0  0  0  0  0  0  0  0  0  0
    1.2358   -1.8618    2.6430 H   0  0  0  0  0  0  0  0  0  0  0  0
    2.6018   -1.1318    1.1730 C   0  0  0  0  0  0  0  0  0  0  0  0
    3.0048   -1.6348    0.1320 O   0  0  0  0  0  0  0  0  0  0  0  0
    2.4088    0.1752    1.3190 N   0  0  0  0  0  0  0  0  0  0  0  0
    2.0708    0.5242    2.2050 H   0  0  0  0  0  0  0  0  0  0  0  0
    2.6638    1.1782    0.2840 C   0  0  1  0  0  0  0  0  0  0  0  0
    1.7049    1.4769   -0.1428 H   0  0  0  0  0  0  0  0  0  0  0  0
    3.3132    2.4216    0.9163 C   0  0  0  0  0  0  0  0  0  0  0  0
    3.6430    3.0888    0.1190 H   0  0  0  0  0  0  0  0  0  0  0  0
    4.2134    2.0983    1.4383 H   0  0  0  0  0  0  0  0  0  0  0  0
    2.3302    3.3830    2.1047 S   0  0  0  0  0  0  0  0  0  0  0  0
    3.5230    0.5950   -0.8535 C   0  0  0  0  0  0  0  0  0  0  0  0
    4.2898    1.3169   -1.4909 O   0  0  0  0  0  0  0  0  0  0  0  0
    3.3992   -0.7154   -1.1031 N   0  0  0  0  0  0  0  0  0  0  0  0
    2.7548   -1.2479   -0.5411 H   0  0  0  0  0  0  0  0  0  0  0  0
    4.1422   -1.4158   -2.1486 C   0  0  0  0  0  0  0  0  0  0  0  0
    3.8751   -1.0070   -3.1255 H   0  0  0  0  0  0  0  0  0  0  0  0
    5.2141   -1.2760   -1.9970 H   0  0  0  0  0  0  0  0  0  0  0  0
    3.9116   -2.4817   -2.1286 H   0  0  0  0  0  0  0  0  0  0  0  0
    1.5375    9.2918   -3.3981 H   0  0  0  0  0  0  0  0  0  0  0  0
    2.2523    8.8953   -2.6785 C   0  0  0  0  0  0  0  0  0  0  0  0
    2.7857    9.7154   -2.2005 H   0  0  0  0  0  0  0  0  0  0  0  0
    2.9586    8.2419   -3.1873 H   0  0  0  0  0  0  0  0  0  0  0  0
    1.5053    8.1050   -1.6298 C   0  0  0  0  0  0  0  0  0  0  0  0
    0.2890    7.9885   -1.6937 O   0  0  0  0  0  0  0  0  0  0  0  0
    2.2395    7.5543   -0.6668 N   0  0  0  0  0  0  0  0  0  0  0  0
    3.2384    7.7008   -0.6715 H   0  0  0  0  0  0  0  0  0  0  0  0
    1.7008    6.7502    0.4302 C   0  0  1  0  0  0  0  0  0  0  0  0
    0.7420    7.1690    0.7408 H   0  0  0  0  0  0  0  0  0  0  0  0
    1.4588    5.3287   -0.0963 C   0  0  0  0  0  0  0  0  0  0  0  0
    0.7742    5.4040   -0.9424 H   0  0  0  0  0  0  0  0  0  0  0  0
    2.3986    4.9292   -0.4779 H   0  0  0  0  0  0  0  0  0  0  0  0
    0.7441    4.1225    1.0532 S   0  0  0  0  0  0  0  0  0  0  0  0
    2.6525    6.7824    1.6392 C   0  0  0  0  0  0  0  0  0  0  0  0
    3.8656    6.9051    1.4634 O   0  0  0  0  0  0  0  0  0  0  0  0
    2.1056    6.6813    2.8574 N   0  0  0  0  0  0  0  0  0  0  0  0
    1.1082    6.5498    2.9152 H   0  0  0  0  0  0  0  0  0  0  0  0
    2.8688    6.6861    4.1048 C   0  0  0  0  0  0  0  0  0  0  0  0
    3.3807    5.7301    4.2267 H   0  0  0  0  0  0  0  0  0  0  0  0
    3.6174    7.4816    4.0818 H   0  0  0  0  0  0  0  0  0  0  0  0
    2.2034    6.8479    4.9530 H   0  0  0  0  0  0  0  0  0  0  0  0
  5  6  2  0  0  0  0
  5  7  1  0  0  0  0
  2  3  1  0  0  0  0
  2  4  1  0  0  0  0
  2  5  1  0  0  0  0
  1  2  1  0  0  0  0
 15 16  2  0  0  0  0
 15 17  1  0  0  0  0
 14 36  1  0  0  0  0
 11 12  1  0  0  0  0
 11 13  1  0  0  0  0
 11 14  1  0  0  0  0
  9 10  1  0  0  0  0
  9 11  1  0  0  0  0
  9 15  1  0  0  0  0
  7  8  1  0  0  0  0
  7  9  1  0  0  0  0
 19 20  1  0  0  0  0
 19 21  1  0  0  0  0
 19 22  1  0  0  0  0
 17 18  1  0  0  0  0
 17 19  1  0  0  0  0
 27 28  2  0  0  0  0
 27 29  1  0  0  0  0
 24 25  1  0  0  0  0
 24 26  1  0  0  0  0
 24 27  1  0  0  0  0
 23 24  1  0  0  0  0
 37 38  2  0  0  0  0
 37 39  1  0  0  0  0
 33 34  1  0  0  0  0
 33 35  1  0  0  0  0
 33 36  1  0  0  0  0
 31 32  1  0  0  0  0
 31 33  1  0  0  0  0
 31 37  1  0  0  0  0
 29 30  1  0  0  0  0
 29 31  1  0  0  0  0
 41 42  1  0  0  0  0
 41 43  1  0  0  0  0
 41 44  1  0  0  0  0
 39 40  1  0  0  0  0
 39 41  1  0  0  0  0
M  END
$$$$
default_name
  -OEChem-01062215323D

 44 43  0     1  0  0  0  0  0999 V2000
    2.4488   -3.0448    2.0990 H   0  0  0  0  0  0  0  0  0  0  0  0
    2.2788   -2.0018    2.3640 C   0  0  0  0  0  0  0  0  0  0  0  0
    2.9228   -1.7258    3.1960 H   0  0  0  0  0  0  0  0  0  0  0  0
    1.2358   -1.8618    2.6430 H   0  0  0  0  0  0  0  0  0  0  0  0
    2.6018   -1.1318    1.1730 C   0  0  0  0  0  0  0  0  0  0  0  0
    3.0048   -1.6348    0.1320 O   0  0  0  0  0  0  0  0  0  0  0  0
    2.4088    0.1752    1.3190 N   0  0  0  0  0  0  0  0  0  0  0  0
    2.0708    0.5242    2.2050 H   0  0  0  0  0  0  0  0  0  0  0  0
    2.6638    1.1782    0.2840 C   0  0  1  0  0  0  0  0  0  0  0  0
    1.7049    1.4769   -0.1428 H   0  0  0  0  0  0  0  0  0  0  0  0
    3.3132    2.4216    0.9163 C   0  0  0  0  0  0  0  0  0  0  0  0
    3.6430    3.0888    0.1190 H   0  0  0  0  0  0  0  0  0  0  0  0
    4.2134    2.0983    1.4383 H   0  0  0  0  0  0  0  0  0  0  0  0
    2.3302    3.3830    2.1047 S   0  0  0  0  0  0  0  0  0  0  0  0
    3.5230    0.5950   -0.8535 C   0  0  0  0  0  0  0  0  0  0  0  0
    4.4759    1.2297   -1.3055 O   0  0  0  0  0  0  0  0  0  0  0  0
    3.1890   -0.6189   -1.3114 N   0  0  0  0  0  0  0  0  0  0  0  0
    2.3988   -1.0839   -0.8941 H   0  0  0  0  0  0  0  0  0  0  0  0
    3.9029   -1.3052   -2.3861 C   0  0  0  0  0  0  0  0  0  0  0  0
    3.8267   -0.7236   -3.3073 H   0  0  0  0  0  0  0  0  0  0  0  0
    4.9584   -1.4026   -2.1252 H   0  0  0  0  0  0  0  0  0  0  0  0
    3.4794   -2.2970   -2.5498 H   0  0  0  0  0  0  0  0  0  0  0  0
    1.5375    9.2918   -3.3981 H   0  0  0  0  0  0  0  0  0  0  0  0
    2.2523    8.8953   -2.6785 C   0  0  0  0  0  0  0  0  0  0  0  0
    2.7857    9.7154   -2.2005 H   0  0  0  0  0  0  0  0  0  0  0  0
    2.9586    8.2419   -3.1873 H   0  0  0  0  0  0  0  0  0  0  0  0
    1.5053    8.1050   -1.6298 C   0  0  0  0  0  0  0  0  0  0  0  0
    0.2890    7.9885   -1.6937 O   0  0  0  0  0  0  0  0  0  0  0  0
    2.2395    7.5543   -0.6668 N   0  0  0  0  0  0  0  0  0  0  0  0
    3.2384    7.7008   -0.6715 H   0  0  0  0  0  0  0  0  0  0  0  0
    1.7008    6.7502    0.4302 C   0  0  1  0  0  0  0  0  0  0  0  0
    0.7420    7.1690    0.7408 H   0  0  0  0  0  0  0  0  0  0  0  0
    1.4588    5.3287   -0.0963 C   0  0  0  0  0  0  0  0  0  0  0  0
    0.7742    5.4040   -0.9424 H   0  0  0  0  0  0  0  0  0  0  0  0
    2.3986    4.9292   -0.4779 H   0  0  0  0  0  0  0  0  0  0  0  0
    0.7441    4.1225    1.0532 S   0  0  0  0  0  0  0  0  0  0  0  0
    2.6525    6.7824    1.6392 C   0  0  0  0  0  0  0  0  0  0  0  0
    3.8656    6.9051    1.4634 O   0  0  0  0  0  0  0  0  0  0  0  0
    2.1056    6.6813    2.8574 N   0  0  0  0  0  0  0  0  0  0  0  0
    1.1082    6.5498    2.9152 H   0  0  0  0  0  0  0  0  0  0  0  0
    2.8688    6.6861    4.1048 C   0  0  0  0  0  0  0  0  0  0  0  0
    3.3807    5.7301    4.2267 H   0  0  0  0  0  0  0  0  0  0  0  0
    3.6174    7.4816    4.0818 H   0  0  0  0  0  0  0  0  0  0  0  0
    2.2034    6.8479    4.9530 H   0  0  0  0  0  0  0  0  0  0  0  0
  5  6  2  0  0  0  0
  5  7  1  0  0  0  0
  2  3  1  0  0  0  0
  2  4  1  0  0  0  0
  2  5  1  0  0  0  0
  1  2  1  0  0  0  0
 15 16  2  0  0  0  0
 15 17  1  0  0  0  0
 14 36  1  0  0  0  0
 11 12  1  0  0  0  0
 11 13  1  0  0  0  0
 11 14  1  0  0  0  0
  9 10  1  0  0  0  0
  9 11  1  0  0  0  0
  9 15  1  0  0  0  0
  7  8  1  0  0  0  0
  7  9  1  0  0  0  0
 19 20  1  0  0  0  0
 19 21  1  0  0  0  0
 19 22  1  0  0  0  0
 17 18  1  0  0  0  0
 17 19  1  0  0  0  0
 27 28  2  0  0  0  0
 27 29  1  0  0  0  0
 24 25  1  0  0  0  0
 24 26  1  0  0  0  0
 24 27  1  0  0  0  0
 23 24  1  0  0  0  0
 37 38  2  0  0  0  0
 37 39  1  0  0  0  0
 33 34  1  0  0  0  0
 33 35  1  0  0  0  0
 33 36  1  0  0  0  0
 31 32  1  0  0  0  0
 31 33  1  0  0  0  0
 31 37  1  0  0  0  0
 29 30  1  0  0  0  0
 29 31  1  0  0  0  0
 41 42  1  0  0  0  0
 41 43  1  0  0  0  0
 41 44  1  0  0  0  0
 39 40  1  0  0  0  0
 39 41  1  0  0  0  0
M  END
$$$$
default_name
  -OEChem-01062215323D

 44 43  0     1  0  0  0  0  0999 V2000
    2.4488   -3.0448    2.0990 H   0  0  0  0  0  0  0  0  0  0  0  0
    2.2788   -2.0018    2.3640 C   0  0  0  0  0  0  0  0  0  0  0  0
    2.9228   -1.7258    3.1960 H   0  0  0  0  0  0  0  0  0  0  0  0
    1.2358   -1.8618    2.6430 H   0  0  0  0  0  0  0  0  0  0  0  0
    2.6018   -1.1318    1.1730 C   0  0  0  0  0  0  0  0  0  0  0  0
    3.0048   -1.6348    0.1320 O   0  0  0  0  0  0  0  0  0  0  0  0
    2.4088    0.1752    1.3190 N   0  0  0  0  0  0  0  0  0  0  0  0
    2.0708    0.5242    2.2050 H   0  0  0  0  0  0  0  0  0  0  0  0
    2.6638    1.1782    0.2840 C   0  0  1  0  0  0  0  0  0  0  0  0
    1.7049    1.4769   -0.1428 H   0  0  0  0  0  0  0  0  0  0  0  0
    3.3132    2.4216    0.9163 C   0  0  0  0  0  0  0  0  0  0  0  0
    3.6430    3.0888    0.1190 H   0  0  0  0  0  0  0  0  0  0  0  0
    4.2134    2.0983    1.4383 H   0  0  0  0  0  0  0  0  0  0  0  0
    2.3302    3.3830    2.1047 S   0  0  0  0  0  0  0  0  0  0  0  0
    3.5230    0.5950   -0.8535 C   0  0  0  0  0  0  0  0  0  0  0  0
    4.6210    1.0831   -1.1208 O   0  0  0  0  0  0  0  0  0  0  0  0
    3.0248   -0.4555   -1.5191 N   0  0  0  0  0  0  0  0  0  0  0  0
    2.1209   -0.8065   -1.2462 H   0  0  0  0  0  0  0  0  0  0  0  0
    3.7162   -1.1184   -2.6229 C   0  0  0  0  0  0  0  0  0  0  0  0
    3.8519   -0.4145   -3.4467 H   0  0  0  0  0  0  0  0  0  0  0  0
    4.6997   -1.4574   -2.2925 H   0  0  0  0  0  0  0  0  0  0  0  0
    3.1385   -1.9751   -2.9723 H   0  0  0  0  0  0  0  0  0  0  0  0
    1.5375    9.2918   -3.3981 H   0  0  0  0  0  0  0  0  0  0  0  0
    2.2523    8.8953   -2.6785 C   0  0  0  0  0  0  0  0  0  0  0  0
    2.7857    9.7154   -2.2005 H   0  0  0  0  0  0  0  0  0  0  0  0
    2.9586    8.2419   -3.1873 H   0  0  0  0  0  0  0  0  0  0  0  0
    1.5053    8.1050   -1.6298 C   0  0  0  0  0  0  0  0  0  0  0  0
    0.2890    7.9885   -1.6937 O   0  0  0  0  0  0  0  0  0  0  0  0
    2.2395    7.5543   -0.6668 N   0  0  0  0  0  0  0  0  0  0  0  0
    3.2384    7.7008   -0.6715 H   0  0  0  0  0  0  0  0  0  0  0  0
    1.7008    6.7502    0.4302 C   0  0  1  0  0  0  0  0  0  0  0  0
    0.7420    7.1690    0.7408 H   0  0  0  0  0  0  0  0  0  0  0  0
    1.4588    5.3287   -0.0963 C   0  0  0  0  0  0  0  0  0  0  0  0
    0.7742    5.4040   -0.9424 H   0  0  0  0  0  0  0  0  0  0  0  0
    2.3986    4.9292   -0.4779 H   0  0  0  0  0  0  0  0  0  0  0  0
    0.7441    4.1225    1.0532 S   0  0  0  0  0  0  0  0  0  0  0  0
    2.6525    6.7824    1.6392 C   0  0  0  0  0  0  0  0  0  0  0  0
    3.8656    6.9051    1.4634 O   0  0  0  0  0  0  0  0  0  0  0  0
    2.1056    6.6813    2.8574 N   0  0  0  0  0  0  0  0  0  0  0  0
    1.1082    6.5498    2.9152 H   0  0  0  0  0  0  0  0  0  0  0  0
    2.8688    6.6861    4.1048 C   0  0  0  0  0  0  0  0  0  0  0  0
    3.3807    5.7301    4.2267 H   0  0  0  0  0  0  0  0  0  0  0  0
    3.6174    7.4816    4.0818 H   0  0  0  0  0  0  0  0  0  0  0  0
    2.2034    6.8479    4.9530 H   0  0  0  0  0  0  0  0  0  0  0  0
  5  6  2  0  0  0  0
  5  7  1  0  0  0  0
  2  3  1  0  0  0  0
  2  4  1  0  0  0  0
  2  5  1  0  0  0  0
  1  2  1  0  0  0  0
 15 16  2  0  0  0  0
 15 17  1  0  0  0  0
 14 36  1  0  0  0  0
 11 12  1  0  0  0  0
 11 13  1  0  0  0  0
 11 14  1  0  0  0  0
  9 10  1  0  0  0  0
  9 11  1  0  0  0  0
  9 15  1  0  0  0  0
  7  8  1  0  0  0  0
  7  9  1  0  0  0  0
 19 20  1  0  0  0  0
 19 21  1  0  0  0  0
 19 22  1  0  0  0  0
 17 18  1  0  0  0  0
 17 19  1  0  0  0  0
 27 28  2  0  0  0  0
 27 29  1  0  0  0  0
 24 25  1  0  0  0  0
 24 26  1  0  0  0  0
 24 27  1  0  0  0  0
 23 24  1  0  0  0  0
 37 38  2  0  0  0  0
 37 39  1  0  0  0  0
 33 34  1  0  0  0  0
 33 35  1  0  0  0  0
 33 36  1  0  0  0  0
 31 32  1  0  0  0  0
 31 33  1  0  0  0  0
 31 37  1  0  0  0  0
 29 30  1  0  0  0  0
 29 31  1  0  0  0  0
 41 42  1  0  0  0  0
 41 43  1  0  0  0  0
 41 44  1  0  0  0  0
 39 40  1  0  0  0  0
 39 41  1  0  0  0  0
M  END
$$$$
default_name
  -OEChem-01062215323D

 44 43  0     1  0  0  0  0  0999 V2000
    2.4488   -3.0448    2.0990 H   0  0  0  0  0  0  0  0  0  0  0  0
    2.2788   -2.0018    2.3640 C   0  0  0  0  0  0  0  0  0  0  0  0
    2.9228   -1.7258    3.1960 H   0  0  0  0  0  0  0  0  0  0  0  0
    1.2358   -1.8618    2.6430 H   0  0  0  0  0  0  0  0  0  0  0  0
    2.6018   -1.1318    1.1730 C   0  0  0  0  0  0  0  0  0  0  0  0
    3.0048   -1.6348    0.1320 O   0  0  0  0  0  0  0  0  0  0  0  0
    2.4088    0.1752    1.3190 N   0  0  0  0  0  0  0  0  0  0  0  0
    2.0708    0.5242    2.2050 H   0  0  0  0  0  0  0  0  0  0  0  0
    2.6638    1.1782    0.2840 C   0  0  1  0  0  0  0  0  0  0  0  0
    1.7049    1.4769   -0.1428 H   0  0  0  0  0  0  0  0  0  0  0  0
    3.3132    2.4216    0.9163 C   0  0  0  0  0  0  0  0  0  0  0  0
    3.6430    3.0888    0.1190 H   0  0  0  0  0  0  0  0  0  0  0  0
    4.2134    2.0983    1.4383 H   0  0  0  0  0  0  0  0  0  0  0  0
    2.3302    3.3830    2.1047 S   0  0  0  0  0  0  0  0  0  0  0  0
    3.5230    0.5950   -0.8535 C   0  0  0  0  0  0  0  0  0  0  0  0
    4.7149    0.8871   -0.9494 O   0  0  0  0  0  0  0  0  0  0  0  0
    2.9178   -0.2362   -1.7124 N   0  0  0  0  0  0  0  0  0  0  0  0
    1.9400   -0.4345   -1.5736 H   0  0  0  0  0  0  0  0  0  0  0  0
    3.5947   -0.8681   -2.8430 C   0  0  0  0  0  0  0  0  0  0  0  0
    3.9490   -0.1005   -3.5343 H   0  0  0  0  0  0  0  0  0  0  0  0
    4.4558   -1.4369   -2.4873 H   0  0  0  0  0  0  0  0  0  0  0  0
    2.9121   -1.5381   -3.3673 H   0  0  0  0  0  0  0  0  0  0  0  0
    1.5375    9.2918   -3.3981 H   0  0  0  0  0  0  0  0  0  0  0  0
    2.2523    8.8953   -2.6785 C   0  0  0  0  0  0  0  0  0  0  0  0
    2.7857    9.7154   -2.2005 H   0  0  0  0  0  0  0  0  0  0  0  0
    2.9586    8.2419   -3.1873 H   0  0  0  0  0  0  0  0  0  0  0  0
    1.5053    8.1050   -1.6298 C   0  0  0  0  0  0  0  0  0  0  0  0
    0.2890    7.9885   -1.6937 O   0  0  0  0  0  0  0  0  0  0  0  0
    2.2395    7.5543   -0.6668 N   0  0  0  0  0  0  0  0  0  0  0  0
    3.2384    7.7008   -0.6715 H   0  0  0  0  0  0  0  0  0  0  0  0
    1.7008    6.7502    0.4302 C   0  0  1  0  0  0  0  0  0  0  0  0
    0.7420    7.1690    0.7408 H   0  0  0  0  0  0  0  0  0  0  0  0
    1.4588    5.3287   -0.0963 C   0  0  0  0  0  0  0  0  0  0  0  0
    0.7742    5.4040   -0.9424 H   0  0  0  0  0  0  0  0  0  0  0  0
    2.3986    4.9292   -0.4779 H   0  0  0  0  0  0  0  0  0  0  0  0
    0.7441    4.1225    1.0532 S   0  0  0  0  0  0  0  0  0  0  0  0
    2.6525    6.7824    1.6392 C   0  0  0  0  0  0  0  0  0  0  0  0
    3.8656    6.9051    1.4634 O   0  0  0  0  0  0  0  0  0  0  0  0
    2.1056    6.6813    2.8574 N   0  0  0  0  0  0  0  0  0  0  0  0
    1.1082    6.5498    2.9152 H   0  0  0  0  0  0  0  0  0  0  0  0
    2.8688    6.6861    4.1048 C   0  0  0  0  0  0  0  0  0  0  0  0
    3.3807    5.7301    4.2267 H   0  0  0  0  0  0  0  0  0  0  0  0
    3.6174    7.4816    4.0818 H   0  0  0  0  0  0  0  0  0  0  0  0
    2.2034    6.8479    4.9530 H   0  0  0  0  0  0  0  0  0  0  0  0
  5  6  2  0  0  0  0
  5  7  1  0  0  0  0
  2  3  1  0  0  0  0
  2  4  1  0  0  0  0
  2  5  1  0  0  0  0
  1  2  1  0  0  0  0
 15 16  2  0  0  0  0
 15 17  1  0  0  0  0
 14 36  1  0  0  0  0
 11 12  1  0  0  0  0
 11 13  1  0  0  0  0
 11 14  1  0  0  0  0
  9 10  1  0  0  0  0
  9 11  1  0  0  0  0
  9 15  1  0  0  0  0
  7  8  1  0  0  0  0
  7  9  1  0  0  0  0
 19 20  1  0  0  0  0
 19 21  1  0  0  0  0
 19 22  1  0  0  0  0
 17 18  1  0  0  0  0
 17 19  1  0  0  0  0
 27 28  2  0  0  0  0
 27 29  1  0  0  0  0
 24 25  1  0  0  0  0
 24 26  1  0  0  0  0
 24 27  1  0  0  0  0
 23 24  1  0  0  0  0
 37 38  2  0  0  0  0
 37 39  1  0  0  0  0
 33 34  1  0  0  0  0
 33 35  1  0  0  0  0
 33 36  1  0  0  0  0
 31 32  1  0  0  0  0
 31 33  1  0  0  0  0
 31 37  1  0  0  0  0
 29 30  1  0  0  0  0
 29 31  1  0  0  0  0
 41 42  1  0  0  0  0
 41 43  1  0  0  0  0
 41 44  1  0  0  0  0
 39 40  1  0  0  0  0
 39 41  1  0  0  0  0
M  END
$$$$
default_name
  -OEChem-01062215323D

 44 43  0     1  0  0  0  0  0999 V2000
    2.4488   -3.0448    2.0990 H   0  0  0  0  0  0  0  0  0  0  0  0
    2.2788   -2.0018    2.3640 C   0  0  0  0  0  0  0  0  0  0  0  0
    2.9228   -1.7258    3.1960 H   0  0  0  0  0  0  0  0  0  0  0  0
    1.2358   -1.8618    2.6430 H   0  0  0  0  0  0  0  0  0  0  0  0
    2.6018   -1.1318    1.1730 C   0  0  0  0  0  0  0  0  0  0  0  0
    3.0048   -1.6348    0.1320 O   0  0  0  0  0  0  0  0  0  0  0  0
    2.4088    0.1752    1.3190 N   0  0  0  0  0  0  0  0  0  0  0  0
    2.0708    0.5242    2.2050 H   0  0  0  0  0  0  0  0  0  0  0  0
    2.6638    1.1782    0.2840 C   0  0  1  0  0  0  0  0  0  0  0  0
    1.7049    1.4769   -0.1428 H   0  0  0  0  0  0  0  0  0  0  0  0
    3.3132    2.4216    0.9163 C   0  0  0  0  0  0  0  0  0  0  0  0
    3.6430    3.0888    0.1190 H   0  0  0  0  0  0  0  0  0  0  0  0
    4.2134    2.0983    1.4383 H   0  0  0  0  0  0  0  0  0  0  0  0
    2.3302    3.3830    2.1047 S   0  0  0  0  0  0  0  0  0  0  0  0
    3.5230    0.5950   -0.8535 C   0  0  0  0  0  0  0  0  0  0  0  0
    4.7514    0.6551   -0.8029 O   0  0  0  0  0  0  0  0  0  0  0  0
    2.8754    0.0239   -1.8778 N   0  0  0  0  0  0  0  0  0  0  0  0
    1.8685    0.0066   -1.8538 H   0  0  0  0  0  0  0  0  0  0  0  0
    3.5468   -0.5713   -3.0314 C   0  0  0  0  0  0  0  0  0  0  0  0
    4.1114    0.1968   -3.5641 H   0  0  0  0  0  0  0  0  0  0  0  0
    4.2432   -1.3422   -2.6964 H   0  0  0  0  0  0  0  0  0  0  0  0
    2.8157   -1.0157   -3.7080 H   0  0  0  0  0  0  0  0  0  0  0  0
    1.5375    9.2918   -3.3981 H   0  0  0  0  0  0  0  0  0  0  0  0
    2.2523    8.8953   -2.6785 C   0  0  0  0  0  0  0  0  0  0  0  0
    2.7857    9.7154   -2.2005 H   0  0  0  0  0  0  0  0  0  0  0  0
    2.9586    8.2419   -3.1873 H   0  0  0  0  0  0  0  0  0  0  0  0
    1.5053    8.1050   -1.6298 C   0  0  0  0  0  0  0  0  0  0  0  0
    0.2890    7.9885   -1.6937 O   0  0  0  0  0  0  0  0  0  0  0  0
    2.2395    7.5543   -0.6668 N   0  0  0  0  0  0  0  0  0  0  0  0
    3.2384    7.7008   -0.6715 H   0  0  0  0  0  0  0  0  0  0  0  0
    1.7008    6.7502    0.4302 C   0  0  1  0  0  0  0  0  0  0  0  0
    0.7420    7.1690    0.7408 H   0  0  0  0  0  0  0  0  0  0  0  0
    1.4588    5.3287   -0.0963 C   0  0  0  0  0  0  0  0  0  0  0  0
    0.7742    5.4040   -0.9424 H   0  0  0  0  0  0  0  0  0  0  0  0
    2.3986    4.9292   -0.4779 H   0  0  0  0  0  0  0  0  0  0  0  0
    0.7441    4.1225    1.0532 S   0  0  0  0  0  0  0  0  0  0  0  0
    2.6525    6.7824    1.6392 C   0  0  0  0  0  0  0  0  0  0  0  0
    3.8656    6.9051    1.4634 O   0  0  0  0  0  0  0  0  0  0  0  0
    2.1056    6.6813    2.8574 N   0  0  0  0  0  0  0  0  0  0  0  0
    1.1082    6.5498    2.9152 H   0  0  0  0  0  0  0  0  0  0  0  0
    2.8688    6.6861    4.1048 C   0  0  0  0  0  0  0  0  0  0  0  0
    3.3807    5.7301    4.2267 H   0  0  0  0  0  0  0  0  0  0  0  0
    3.6174    7.4816    4.0818 H   0  0  0  0  0  0  0  0  0  0  0  0
    2.2034    6.8479    4.9530 H   0  0  0  0  0  0  0  0  0  0  0  0
  5  6  2  0  0  0  0
  5  7  1  0  0  0  0
  2  3  1  0  0  0  0
  2  4  1  0  0  0  0
  2  5  1  0  0  0  0
  1  2  1  0  0  0  0
 15 16  2  0  0  0  0
 15 17  1  0  0  0  0
 14 36  1  0  0  0  0
 11 12  1  0  0  0  0
 11 13  1  0  0  0  0
 11 14  1  0  0  0  0
  9 10  1  0  0  0  0
  9 11  1  0  0  0  0
  9 15  1  0  0  0  0
  7  8  1  0  0  0  0
  7  9  1  0  0  0  0
 19 20  1  0  0  0  0
 19 21  1  0  0  0  0
 19 22  1  0  0  0  0
 17 18  1  0  0  0  0
 17 19  1  0  0  0  0
 27 28  2  0  0  0  0
 27 29  1  0  0  0  0
 24 25  1  0  0  0  0
 24 26  1  0  0  0  0
 24 27  1  0  0  0  0
 23 24  1  0  0  0  0
 37 38  2  0  0  0  0
 37 39  1  0  0  0  0
 33 34  1  0  0  0  0
 33 35  1  0  0  0  0
 33 36  1  0  0  0  0
 31 32  1  0  0  0  0
 31 33  1  0  0  0  0
 31 37  1  0  0  0  0
 29 30  1  0  0  0  0
 29 31  1  0  0  0  0
 41 42  1  0  0  0  0
 41 43  1  0  0  0  0
 41 44  1  0  0  0  0
 39 40  1  0  0  0  0
 39 41  1  0  0  0  0
M  END
$$$$
default_name
  -OEChem-01062215323D

 44 43  0     1  0  0  0  0  0999 V2000
    2.4488   -3.0448    2.0990 H   0  0  0  0  0  0  0  0  0  0  0  0
    2.2788   -2.0018    2.3640 C   0  0  0  0  0  0  0  0  0  0  0  0
    2.9228   -1.7258    3.1960 H   0  0  0  0  0  0  0  0  0  0  0  0
    1.2358   -1.8618    2.6430 H   0  0  0  0  0  0  0  0  0  0  0  0
    2.6018   -1.1318    1.1730 C   0  0  0  0  0  0  0  0  0  0  0  0
    3.0048   -1.6348    0.1320 O   0  0  0  0  0  0  0  0  0  0  0  0
    2.4088    0.1752    1.3190 N   0  0  0  0  0  0  0  0  0  0  0  0
    2.0708    0.5242    2.2050 H   0  0  0  0  0  0  0  0  0  0  0  0
    2.6638    1.1782    0.2840 C   0  0  1  0  0  0  0  0  0  0  0  0
    1.7049    1.4769   -0.1428 H   0  0  0  0  0  0  0  0  0  0  0  0
    3.3132    2.4216    0.9163 C   0  0  0  0  0  0  0  0  0  0  0  0
    3.6430    3.0888    0.1190 H   0  0  0  0  0  0  0  0  0  0  0  0
    4.2134    2.0983    1.4383 H   0  0  0  0  0  0  0  0  0  0  0  0
    2.3302    3.3830    2.1047 S   0  0  0  0  0  0  0  0  0  0  0  0
    3.5230    0.5950   -0.8535 C   0  0  0  0  0  0  0  0  0  0  0  0
    4.7280    0.4029   -0.6913 O   0  0  0  0  0  0  0  0  0  0  0  0
    2.9002    0.3071   -2.0042 N   0  0  0  0  0  0  0  0  0  0  0  0
    1.9111    0.4869   -2.0678 H   0  0  0  0  0  0  0  0  0  0  0  0
    3.5757   -0.2483   -3.1752 C   0  0  0  0  0  0  0  0  0  0  0  0
    4.3281    0.4573   -3.5340 H   0  0  0  0  0  0  0  0  0  0  0  0
    4.0764   -1.1800   -2.9056 H   0  0  0  0  0  0  0  0  0  0  0  0
    2.8558   -0.4434   -3.9711 H   0  0  0  0  0  0  0  0  0  0  0  0
    1.5375    9.2918   -3.3981 H   0  0  0  0  0  0  0  0  0  0  0  0
    2.2523    8.8953   -2.6785 C   0  0  0  0  0  0  0  0  0  0  0  0
    2.7857    9.7154   -2.2005 H   0  0  0  0  0  0  0  0  0  0  0  0
    2.9586    8.2419   -3.1873 H   0  0  0  0  0  0  0  0  0  0  0  0
    1.5053    8.1050   -1.6298 C   0  0  0  0  0  0  0  0  0  0  0  0
    0.2890    7.9885   -1.6937 O   0  0  0  0  0  0  0  0  0  0  0  0
    2.2395    7.5543   -0.6668 N   0  0  0  0  0  0  0  0  0  0  0  0
    3.2384    7.7008   -0.6715 H   0  0  0  0  0  0  0  0  0  0  0  0
    1.7008    6.7502    0.4302 C   0  0  1  0  0  0  0  0  0  0  0  0
    0.7420    7.1690    0.7408 H   0  0  0  0  0  0  0  0  0  0  0  0
    1.4588    5.3287   -0.0963 C   0  0  0  0  0  0  0  0  0  0  0  0
    0.7742    5.4040   -0.9424 H   0  0  0  0  0  0  0  0  0  0  0  0
    2.3986    4.9292   -0.4779 H   0  0  0  0  0  0  0  0  0  0  0  0
    0.7441    4.1225    1.0532 S   0  0  0  0  0  0  0  0  0  0  0  0
    2.6525    6.7824    1.6392 C   0  0  0  0  0  0  0  0  0  0  0  0
    3.8656    6.9051    1.4634 O   0  0  0  0  0  0  0  0  0  0  0  0
    2.1056    6.6813    2.8574 N   0  0  0  0  0  0  0  0  0  0  0  0
    1.1082    6.5498    2.9152 H   0  0  0  0  0  0  0  0  0  0  0  0
    2.8688    6.6861    4.1048 C   0  0  0  0  0  0  0  0  0  0  0  0
    3.3807    5.7301    4.2267 H   0  0  0  0  0  0  0  0  0  0  0  0
    3.6174    7.4816    4.0818 H   0  0  0  0  0  0  0  0  0  0  0  0
    2.2034    6.8479    4.9530 H   0  0  0  0  0  0  0  0  0  0  0  0
  5  6  2  0  0  0  0
  5  7  1  0  0  0  0
  2  3  1  0  0  0  0
  2  4  1  0  0  0  0
  2  5  1  0  0  0  0
  1  2  1  0  0  0  0
 15 16  2  0  0  0  0
 15 17  1  0  0  0  0
 14 36  1  0  0  0  0
 11 12  1  0  0  0  0
 11 13  1  0  0  0  0
 11 14  1  0  0  0  0
  9 10  1  0  0  0  0
  9 11  1  0  0  0  0
  9 15  1  0  0  0  0
  7  8  1  0  0  0  0
  7  9  1  0  0  0  0
 19 20  1  0  0  0  0
 19 21  1  0  0  0  0
 19 22  1  0  0  0  0
 17 18  1  0  0  0  0
 17 19  1  0  0  0  0
 27 28  2  0  0  0  0
 27 29  1  0  0  0  0
 24 25  1  0  0  0  0
 24 26  1  0  0  0  0
 24 27  1  0  0  0  0
 23 24  1  0  0  0  0
 37 38  2  0  0  0  0
 37 39  1  0  0  0  0
 33 34  1  0  0  0  0
 33 35  1  0  0  0  0
 33 36  1  0  0  0  0
 31 32  1  0  0  0  0
 31 33  1  0  0  0  0
 31 37  1  0  0  0  0
 29 30  1  0  0  0  0
 29 31  1  0  0  0  0
 41 42  1  0  0  0  0
 41 43  1  0  0  0  0
 41 44  1  0  0  0  0
 39 40  1  0  0  0  0
 39 41  1  0  0  0  0
M  END
$$$$
default_name
  -OEChem-01062215323D

 44 43  0     1  0  0  0  0  0999 V2000
    2.4488   -3.0448    2.0990 H   0  0  0  0  0  0  0  0  0  0  0  0
    2.2788   -2.0018    2.3640 C   0  0  0  0  0  0  0  0  0  0  0  0
    2.9228   -1.7258    3.1960 H   0  0  0  0  0  0  0  0  0  0  0  0
    1.2358   -1.8618    2.6430 H   0  0  0  0  0  0  0  0  0  0  0  0
    2.6018   -1.1318    1.1730 C   0  0  0  0  0  0  0  0  0  0  0  0
    3.0048   -1.6348    0.1320 O   0  0  0  0  0  0  0  0  0  0  0  0
    2.4088    0.1752    1.3190 N   0  0  0  0  0  0  0  0  0  0  0  0
    2.0708    0.5242    2.2050 H   0  0  0  0  0  0  0  0  0  0  0  0
    2.6638    1.1782    0.2840 C   0  0  1  0  0  0  0  0  0  0  0  0
    1.7049    1.4769   -0.1428 H   0  0  0  0  0  0  0  0  0  0  0  0
    3.3132    2.4216    0.9163 C   0  0  0  0  0  0  0  0  0  0  0  0
    3.6430    3.0888    0.1190 H   0  0  0  0  0  0  0  0  0  0  0  0
    4.2134    2.0983    1.4383 H   0  0  0  0  0  0  0  0  0  0  0  0
    2.3302    3.3830    2.1047 S   0  0  0  0  0  0  0  0  0  0  0  0
    3.5230    0.5950   -0.8535 C   0  0  0  0  0  0  0  0  0  0  0  0
    4.6462    0.1476   -0.6222 O   0  0  0  0  0  0  0  0  0  0  0  0
    2.9908    0.5942   -2.0830 N   0  0  0  0  0  0  0  0  0  0  0  0
    2.0651    0.9735   -2.2009 H   0  0  0  0  0  0  0  0  0  0  0  0
    3.6794    0.0790   -3.2646 C   0  0  0  0  0  0  0  0  0  0  0  0
    4.5841    0.6631   -3.4461 H   0  0  0  0  0  0  0  0  0  0  0  0
    3.9668   -0.9612   -3.1005 H   0  0  0  0  0  0  0  0  0  0  0  0
    3.0298    0.1397   -4.1387 H   0  0  0  0  0  0  0  0  0  0  0  0
    1.5375    9.2918   -3.3981 H   0  0  0  0  0  0  0  0  0  0  0  0
    2.2523    8.8953   -2.6785 C   0  0  0  0  0  0  0  0  0  0  0  0
    2.7857    9.7154   -2.2005 H   0  0  0  0  0  0  0  0  0  0  0  0
    2.9586    8.2419   -3.1873 H   0  0  0  0  0  0  0  0  0  0  0  0
    1.5053    8.1050   -1.6298 C   0  0  0  0  0  0  0  0  0  0  0  0
    0.2890    7.9885   -1.6937 O   0  0  0  0  0  0  0  0  0  0  0  0
    2.2395    7.5543   -0.6668 N   0  0  0  0  0  0  0  0  0  0  0  0
    3.2384    7.7008   -0.6715 H   0  0  0  0  0  0  0  0  0  0  0  0
    1.7008    6.7502    0.4302 C   0  0  1  0  0  0  0  0  0  0  0  0
    0.7420    7.1690    0.7408 H   0  0  0  0  0  0  0  0  0  0  0  0
    1.4588    5.3287   -0.0963 C   0  0  0  0  0  0  0  0  0  0  0  0
    0.7742    5.4040   -0.9424 H   0  0  0  0  0  0  0  0  0  0  0  0
    2.3986    4.9292   -0.4779 H   0  0  0  0  0  0  0  0  0  0  0  0
    0.7441    4.1225    1.0532 S   0  0  0  0  0  0  0  0  0  0  0  0
    2.6525    6.7824    1.6392 C   0  0  0  0  0  0  0  0  0  0  0  0
    3.8656    6.9051    1.4634 O   0  0  0  0  0  0  0  0  0  0  0  0
    2.1056    6.6813    2.8574 N   0  0  0  0  0  0  0  0  0  0  0  0
    1.1082    6.5498    2.9152 H   0  0  0  0  0  0  0  0  0  0  0  0
    2.8688    6.6861    4.1048 C   0  0  0  0  0  0  0  0  0  0  0  0
    3.3807    5.7301    4.2267 H   0  0  0  0  0  0  0  0  0  0  0  0
    3.6174    7.4816    4.0818 H   0  0  0  0  0  0  0  0  0  0  0  0
    2.2034    6.8479    4.9530 H   0  0  0  0  0  0  0  0  0  0  0  0
  5  6  2  0  0  0  0
  5  7  1  0  0  0  0
  2  3  1  0  0  0  0
  2  4  1  0  0  0  0
  2  5  1  0  0  0  0
  1  2  1  0  0  0  0
 15 16  2  0  0  0  0
 15 17  1  0  0  0  0
 14 36  1  0  0  0  0
 11 12  1  0  0  0  0
 11 13  1  0  0  0  0
 11 14  1  0  0  0  0
  9 10  1  0  0  0  0
  9 11  1  0  0  0  0
  9 15  1  0  0  0  0
  7  8  1  0  0  0  0
  7  9  1  0  0  0  0
 19 20  1  0  0  0  0
 19 21  1  0  0  0  0
 19 22  1  0  0  0  0
 17 18  1  0  0  0  0
 17 19  1  0  0  0  0
 27 28  2  0  0  0  0
 27 29  1  0  0  0  0
 24 25  1  0  0  0  0
 24 26  1  0  0  0  0
 24 27  1  0  0  0  0
 23 24  1  0  0  0  0
 37 38  2  0  0  0  0
 37 39  1  0  0  0  0
 33 34  1  0  0  0  0
 33 35  1  0  0  0  0
 33 36  1  0  0  0  0
 31 32  1  0  0  0  0
 31 33  1  0  0  0  0
 31 37  1  0  0  0  0
 29 30  1  0  0  0  0
 29 31  1  0  0  0  0
 41 42  1  0  0  0  0
 41 43  1  0  0  0  0
 41 44  1  0  0  0  0
 39 40  1  0  0  0  0
 39 41  1  0  0  0  0
M  END
$$$$
default_name
  -OEChem-01062215323D

 44 43  0     1  0  0  0  0  0999 V2000
    2.4488   -3.0448    2.0990 H   0  0  0  0  0  0  0  0  0  0  0  0
    2.2788   -2.0018    2.3640 C   0  0  0  0  0  0  0  0  0  0  0  0
    2.9228   -1.7258    3.1960 H   0  0  0  0  0  0  0  0  0  0  0  0
    1.2358   -1.8618    2.6430 H   0  0  0  0  0  0  0  0  0  0  0  0
    2.6018   -1.1318    1.1730 C   0  0  0  0  0  0  0  0  0  0  0  0
    3.0048   -1.6348    0.1320 O   0  0  0  0  0  0  0  0  0  0  0  0
    2.4088    0.1752    1.3190 N   0  0  0  0  0  0  0  0  0  0  0  0
    2.0708    0.5242    2.2050 H   0  0  0  0  0  0  0  0  0  0  0  0
    2.6638    1.1782    0.2840 C   0  0  1  0  0  0  0  0  0  0  0  0
    1.7049    1.4769   -0.1428 H   0  0  0  0  0  0  0  0  0  0  0  0
    3.3132    2.4216    0.9163 C   0  0  0  0  0  0  0  0  0  0  0  0
    3.6430    3.0888    0.1190 H   0  0  0  0  0  0  0  0  0  0  0  0
    4.2134    2.0983    1.4383 H   0  0  0  0  0  0  0  0  0  0  0  0
    2.3302    3.3830    2.1047 S   0  0  0  0  0  0  0  0  0  0  0  0
    3.5230    0.5950   -0.8535 C   0  0  0  0  0  0  0  0  0  0  0  0
    4.5116   -0.0933   -0.6003 O   0  0  0  0  0  0  0  0  0  0  0  0
    3.1409    0.8656   -2.1088 N   0  0  0  0  0  0  0  0  0  0  0  0
    2.3199    1.4333   -2.2442 H   0  0  0  0  0  0  0  0  0  0  0  0
    3.8510    0.3882   -3.2935 C   0  0  0  0  0  0  0  0  0  0  0  0
    4.8622    0.8003   -3.3063 H   0  0  0  0  0  0  0  0  0  0  0  0
    3.9219   -0.7007   -3.2680 H   0  0  0  0  0  0  0  0  0  0  0  0
    3.3256    0.6938   -4.1993 H   0  0  0  0  0  0  0  0  0  0  0  0
    1.5375    9.2918   -3.3981 H   0  0  0  0  0  0  0  0  0  0  0  0
    2.2523    8.8953   -2.6785 C   0  0  0  0  0  0  0  0  0  0  0  0
    2.7857    9.7154   -2.2005 H   0  0  0  0  0  0  0  0  0  0  0  0
    2.9586    8.2419   -3.1873 H   0  0  0  0  0  0  0  0  0  0  0  0
    1.5053    8.1050   -1.6298 C   0  0  0  0  0  0  0  0  0  0  0  0
    0.2890    7.9885   -1.6937 O   0  0  0  0  0  0  0  0  0  0  0  0
    2.2395    7.5543   -0.6668 N   0  0  0  0  0  0  0  0  0  0  0  0
    3.2384    7.7008   -0.6715 H   0  0  0  0  0  0  0  0  0  0  0  0
    1.7008    6.7502    0.4302 C   0  0  1  0  0  0  0  0  0  0  0  0
    0.7420    7.1690    0.7408 H   0  0  0  0  0  0  0  0  0  0  0  0
    1.4588    5.3287   -0.0963 C   0  0  0  0  0  0  0  0  0  0  0  0
    0.7742    5.4040   -0.9424 H   0  0  0  0  0  0  0  0  0  0  0  0
    2.3986    4.9292   -0.4779 H   0  0  0  0  0  0  0  0  0  0  0  0
    0.7441    4.1225    1.0532 S   0  0  0  0  0  0  0  0  0  0  0  0
    2.6525    6.7824    1.6392 C   0  0  0  0  0  0  0  0  0  0  0  0
    3.8656    6.9051    1.4634 O   0  0  0  0  0  0  0  0  0  0  0  0
    2.1056    6.6813    2.8574 N   0  0  0  0  0  0  0  0  0  0  0  0
    1.1082    6.5498    2.9152 H   0  0  0  0  0  0  0  0  0  0  0  0
    2.8688    6.6861    4.1048 C   0  0  0  0  0  0  0  0  0  0  0  0
    3.3807    5.7301    4.2267 H   0  0  0  0  0  0  0  0  0  0  0  0
    3.6174    7.4816    4.0818 H   0  0  0  0  0  0  0  0  0  0  0  0
    2.2034    6.8479    4.9530 H   0  0  0  0  0  0  0  0  0  0  0  0
  5  6  2  0  0  0  0
  5  7  1  0  0  0  0
  2  3  1  0  0  0  0
  2  4  1  0  0  0  0
  2  5  1  0  0  0  0
  1  2  1  0  0  0  0
 15 16  2  0  0  0  0
 15 17  1  0  0  0  0
 14 36  1  0  0  0  0
 11 12  1  0  0  0  0
 11 13  1  0  0  0  0
 11 14  1  0  0  0  0
  9 10  1  0  0  0  0
  9 11  1  0  0  0  0
  9 15  1  0  0  0  0
  7  8  1  0  0  0  0
  7  9  1  0  0  0  0
 19 20  1  0  0  0  0
 19 21  1  0  0  0  0
 19 22  1  0  0  0  0
 17 18  1  0  0  0  0
 17 19  1  0  0  0  0
 27 28  2  0  0  0  0
 27 29  1  0  0  0  0
 24 25  1  0  0  0  0
 24 26  1  0  0  0  0
 24 27  1  0  0  0  0
 23 24  1  0  0  0  0
 37 38  2  0  0  0  0
 37 39  1  0  0  0  0
 33 34  1  0  0  0  0
 33 35  1  0  0  0  0
 33 36  1  0  0  0  0
 31 32  1  0  0  0  0
 31 33  1  0  0  0  0
 31 37  1  0  0  0  0
 29 30  1  0  0  0  0
 29 31  1  0  0  0  0
 41 42  1  0  0  0  0
 41 43  1  0  0  0  0
 41 44  1  0  0  0  0
 39 40  1  0  0  0  0
 39 41  1  0  0  0  0
M  END
$$$$
default_name
  -OEChem-01062215323D

 44 43  0     1  0  0  0  0  0999 V2000
    2.4488   -3.0448    2.0990 H   0  0  0  0  0  0  0  0  0  0  0  0
    2.2788   -2.0018    2.3640 C   0  0  0  0  0  0  0  0  0  0  0  0
    2.9228   -1.7258    3.1960 H   0  0  0  0  0  0  0  0  0  0  0  0
    1.2358   -1.8618    2.6430 H   0  0  0  0  0  0  0  0  0  0  0  0
    2.6018   -1.1318    1.1730 C   0  0  0  0  0  0  0  0  0  0  0  0
    3.0048   -1.6348    0.1320 O   0  0  0  0  0  0  0  0  0  0  0  0
    2.4088    0.1752    1.3190 N   0  0  0  0  0  0  0  0  0  0  0  0
    2.0708    0.5242    2.2050 H   0  0  0  0  0  0  0  0  0  0  0  0
    2.6638    1.1782    0.2840 C   0  0  1  0  0  0  0  0  0  0  0  0
    1.7049    1.4769   -0.1428 H   0  0  0  0  0  0  0  0  0  0  0  0
    3.3132    2.4216    0.9163 C   0  0  0  0  0  0  0  0  0  0  0  0
    3.6430    3.0888    0.1190 H   0  0  0  0  0  0  0  0  0  0  0  0
    4.2134    2.0983    1.4383 H   0  0  0  0  0  0  0  0  0  0  0  0
    2.3302    3.3830    2.1047 S   0  0  0  0  0  0  0  0  0  0  0  0
    3.5230    0.5950   -0.8535 C   0  0  0  0  0  0  0  0  0  0  0  0
    4.3334   -0.3034   -0.6272 O   0  0  0  0  0  0  0  0  0  0  0  0
    3.3403    1.1028   -2.0797 N   0  0  0  0  0  0  0  0  0  0  0  0
    2.6581    1.8350   -2.1947 H   0  0  0  0  0  0  0  0  0  0  0  0
    4.0786    0.6583   -3.2601 C   0  0  0  0  0  0  0  0  0  0  0  0
    5.1433    0.8595   -3.1243 H   0  0  0  0  0  0  0  0  0  0  0  0
    3.9447   -0.4164   -3.3966 H   0  0  0  0  0  0  0  0  0  0  0  0
    3.7233    1.1813   -4.1488 H   0  0  0  0  0  0  0  0  0  0  0  0
    1.5375    9.2918   -3.3981 H   0  0  0  0  0  0  0  0  0  0  0  0
    2.2523    8.8953   -2.6785 C   0  0  0  0  0  0  0  0  0  0  0  0
    2.7857    9.7154   -2.2005 H   0  0  0  0  0  0  0  0  0  0  0  0
    2.9586    8.2419   -3.1873 H   0  0  0  0  0  0  0  0  0  0  0  0
    1.5053    8.1050   -1.6298 C   0  0  0  0  0  0  0  0  0  0  0  0
    0.2890    7.9885   -1.6937 O   0  0  0  0  0  0  0  0  0  0  0  0
    2.2395    7.5543   -0.6668 N   0  0  0  0  0  0  0  0  0  0  0  0
    3.2384    7.7008   -0.6715 H   0  0  0  0  0  0  0  0  0  0  0  0
    1.7008    6.7502    0.4302 C   0  0  1  0  0  0  0  0  0  0  0  0
    0.7420    7.1690    0.7408 H   0  0  0  0  0  0  0  0  0  0  0  0
    1.4588    5.3287   -0.0963 C   0  0  0  0  0  0  0  0  0  0  0  0
    0.7742    5.4040   -0.9424 H   0  0  0  0  0  0  0  0  0  0  0  0
    2.3986    4.9292   -0.4779 H   0  0  0  0  0  0  0  0  0  0  0  0
    0.7441    4.1225    1.0532 S   0  0  0  0  0  0  0  0  0  0  0  0
    2.6525    6.7824    1.6392 C   0  0  0  0  0  0  0  0  0  0  0  0
    3.8656    6.9051    1.4634 O   0  0  0  0  0  0  0  0  0  0  0  0
    2.1056    6.6813    2.8574 N   0  0  0  0  0  0  0  0  0  0  0  0
    1.1082    6.5498    2.9152 H   0  0  0  0  0  0  0  0  0  0  0  0
    2.8688    6.6861    4.1048 C   0  0  0  0  0  0  0  0  0  0  0  0
    3.3807    5.7301    4.2267 H   0  0  0  0  0  0  0  0  0  0  0  0
    3.6174    7.4816    4.0818 H   0  0  0  0  0  0  0  0  0  0  0  0
    2.2034    6.8479    4.9530 H   0  0  0  0  0  0  0  0  0  0  0  0
  5  6  2  0  0  0  0
  5  7  1  0  0  0  0
  2  3  1  0  0  0  0
  2  4  1  0  0  0  0
  2  5  1  0  0  0  0
  1  2  1  0  0  0  0
 15 16  2  0  0  0  0
 15 17  1  0  0  0  0
 14 36  1  0  0  0  0
 11 12  1  0  0  0  0
 11 13  1  0  0  0  0
 11 14  1  0  0  0  0
  9 10  1  0  0  0  0
  9 11  1  0  0  0  0
  9 15  1  0  0  0  0
  7  8  1  0  0  0  0
  7  9  1  0  0  0  0
 19 20  1  0  0  0  0
 19 21  1  0  0  0  0
 19 22  1  0  0  0  0
 17 18  1  0  0  0  0
 17 19  1  0  0  0  0
 27 28  2  0  0  0  0
 27 29  1  0  0  0  0
 24 25  1  0  0  0  0
 24 26  1  0  0  0  0
 24 27  1  0  0  0  0
 23 24  1  0  0  0  0
 37 38  2  0  0  0  0
 37 39  1  0  0  0  0
 33 34  1  0  0  0  0
 33 35  1  0  0  0  0
 33 36  1  0  0  0  0
 31 32  1  0  0  0  0
 31 33  1  0  0  0  0
 31 37  1  0  0  0  0
 29 30  1  0  0  0  0
 29 31  1  0  0  0  0
 41 42  1  0  0  0  0
 41 43  1  0  0  0  0
 41 44  1  0  0  0  0
 39 40  1  0  0  0  0
 39 41  1  0  0  0  0
M  END
$$$$
default_name
  -OEChem-01062215323D

 44 43  0     1  0  0  0  0  0999 V2000
    2.4488   -3.0448    2.0990 H   0  0  0  0  0  0  0  0  0  0  0  0
    2.2788   -2.0018    2.3640 C   0  0  0  0  0  0  0  0  0  0  0  0
    2.9228   -1.7258    3.1960 H   0  0  0  0  0  0  0  0  0  0  0  0
    1.2358   -1.8618    2.6430 H   0  0  0  0  0  0  0  0  0  0  0  0
    2.6018   -1.1318    1.1730 C   0  0  0  0  0  0  0  0  0  0  0  0
    3.0048   -1.6348    0.1320 O   0  0  0  0  0  0  0  0  0  0  0  0
    2.4088    0.1752    1.3190 N   0  0  0  0  0  0  0  0  0  0  0  0
    2.0708    0.5242    2.2050 H   0  0  0  0  0  0  0  0  0  0  0  0
    2.6638    1.1782    0.2840 C   0  0  1  0  0  0  0  0  0  0  0  0
    1.7049    1.4769   -0.1428 H   0  0  0  0  0  0  0  0  0  0  0  0
    3.3132    2.4216    0.9163 C   0  0  0  0  0  0  0  0  0  0  0  0
    3.6430    3.0888    0.1190 H   0  0  0  0  0  0  0  0  0  0  0  0
    4.2134    2.0983    1.4383 H   0  0  0  0  0  0  0  0  0  0  0  0
    2.3302    3.3830    2.1047 S   0  0  0  0  0  0  0  0  0  0  0  0
    3.5230    0.5950   -0.8535 C   0  0  0  0  0  0  0  0  0  0  0  0
    4.1238   -0.4684   -0.7009 O   0  0  0  0  0  0  0  0  0  0  0  0
    3.5754    1.2896   -1.9979 N   0  0  0  0  0  0  0  0  0  0  0  0
    3.0568    2.1512   -2.0557 H   0  0  0  0  0  0  0  0  0  0  0  0
    4.3468    0.8708   -3.1664 C   0  0  0  0  0  0  0  0  0  0  0  0
    5.4084    0.8366   -2.9124 H   0  0  0  0  0  0  0  0  0  0  0  0
    4.0336   -0.1276   -3.4774 H   0  0  0  0  0  0  0  0  0  0  0  0
    4.1956    1.5689   -3.9907 H   0  0  0  0  0  0  0  0  0  0  0  0
    1.5375    9.2918   -3.3981 H   0  0  0  0  0  0  0  0  0  0  0  0
    2.2523    8.8953   -2.6785 C   0  0  0  0  0  0  0  0  0  0  0  0
    2.7857    9.7154   -2.2005 H   0  0  0  0  0  0  0  0  0  0  0  0
    2.9586    8.2419   -3.1873 H   0  0  0  0  0  0  0  0  0  0  0  0
    1.5053    8.1050   -1.6298 C   0  0  0  0  0  0  0  0  0  0  0  0
    0.2890    7.9885   -1.6937 O   0  0  0  0  0  0  0  0  0  0  0  0
    2.2395    7.5543   -0.6668 N   0  0  0  0  0  0  0  0  0  0  0  0
    3.2384    7.7008   -0.6715 H   0  0  0  0  0  0  0  0  0  0  0  0
    1.7008    6.7502    0.4302 C   0  0  1  0  0  0  0  0  0  0  0  0
    0.7420    7.1690    0.7408 H   0  0  0  0  0  0  0  0  0  0  0  0
    1.4588    5.3287   -0.0963 C   0  0  0  0  0  0  0  0  0  0  0  0
    0.7742    5.4040   -0.9424 H   0  0  0  0  0  0  0  0  0  0  0  0
    2.3986    4.9292   -0.4779 H   0  0  0  0  0  0  0  0  0  0  0  0
    0.7441    4.1225    1.0532 S   0  0  0  0  0  0  0  0  0  0  0  0
    2.6525    6.7824    1.6392 C   0  0  0  0  0  0  0  0  0  0  0  0
    3.8656    6.9051    1.4634 O   0  0  0  0  0  0  0  0  0  0  0  0
    2.1056    6.6813    2.8574 N   0  0  0  0  0  0  0  0  0  0  0  0
    1.1082    6.5498    2.9152 H   0  0  0  0  0  0  0  0  0  0  0  0
    2.8688    6.6861    4.1048 C   0  0  0  0  0  0  0  0  0  0  0  0
    3.3807    5.7301    4.2267 H   0  0  0  0  0  0  0  0  0  0  0  0
    3.6174    7.4816    4.0818 H   0  0  0  0  0  0  0  0  0  0  0  0
    2.2034    6.8479    4.9530 H   0  0  0  0  0  0  0  0  0  0  0  0
  5  6  2  0  0  0  0
  5  7  1  0  0  0  0
  2  3  1  0  0  0  0
  2  4  1  0  0  0  0
  2  5  1  0  0  0  0
  1  2  1  0  0  0  0
 15 16  2  0  0  0  0
 15 17  1  0  0  0  0
 14 36  1  0  0  0  0
 11 12  1  0  0  0  0
 11 13  1  0  0  0  0
 11 14  1  0  0  0  0
  9 10  1  0  0  0  0
  9 11  1  0  0  0  0
  9 15  1  0  0  0  0
  7  8  1  0  0  0  0
  7  9  1  0  0  0  0
 19 20  1  0  0  0  0
 19 21  1  0  0  0  0
 19 22  1  0  0  0  0
 17 18  1  0  0  0  0
 17 19  1  0  0  0  0
 27 28  2  0  0  0  0
 27 29  1  0  0  0  0
 24 25  1  0  0  0  0
 24 26  1  0  0  0  0
 24 27  1  0  0  0  0
 23 24  1  0  0  0  0
 37 38  2  0  0  0  0
 37 39  1  0  0  0  0
 33 34  1  0  0  0  0
 33 35  1  0  0  0  0
 33 36  1  0  0  0  0
 31 32  1  0  0  0  0
 31 33  1  0  0  0  0
 31 37  1  0  0  0  0
 29 30  1  0  0  0  0
 29 31  1  0  0  0  0
 41 42  1  0  0  0  0
 41 43  1  0  0  0  0
 41 44  1  0  0  0  0
 39 40  1  0  0  0  0
 39 41  1  0  0  0  0
M  END
$$$$
default_name
  -OEChem-01062215323D

 44 43  0     1  0  0  0  0  0999 V2000
    2.4488   -3.0448    2.0990 H   0  0  0  0  0  0  0  0  0  0  0  0
    2.2788   -2.0018    2.3640 C   0  0  0  0  0  0  0  0  0  0  0  0
    2.9228   -1.7258    3.1960 H   0  0  0  0  0  0  0  0  0  0  0  0
    1.2358   -1.8618    2.6430 H   0  0  0  0  0  0  0  0  0  0  0  0
    2.6018   -1.1318    1.1730 C   0  0  0  0  0  0  0  0  0  0  0  0
    3.0048   -1.6348    0.1320 O   0  0  0  0  0  0  0  0  0  0  0  0
    2.4088    0.1752    1.3190 N   0  0  0  0  0  0  0  0  0  0  0  0
    2.0708    0.5242    2.2050 H   0  0  0  0  0  0  0  0  0  0  0  0
    2.6638    1.1782    0.2840 C   0  0  1  0  0  0  0  0  0  0  0  0
    1.7185    1.6694    0.0471 H   0  0  0  0  0  0  0  0  0  0  0  0
    3.6338    2.2440    0.8231 C   0  0  0  0  0  0  0  0  0  0  0  0
    3.9396    2.8892   -0.0014 H   0  0  0  0  0  0  0  0  0  0  0  0
    4.5342    1.7333    1.1636 H   0  0  0  0  0  0  0  0  0  0  0  0
    3.0690    3.2907    2.1973 S   0  0  0  0  0  0  0  0  0  0  0  0
    3.1886    0.5219   -1.0068 C   0  0  0  0  0  0  0  0  0  0  0  0
    3.3373   -0.6983   -1.0719 O   0  0  0  0  0  0  0  0  0  0  0  0
    3.4628    1.3329   -2.0373 N   0  0  0  0  0  0  0  0  0  0  0  0
    3.3154    2.3221   -1.9165 H   0  0  0  0  0  0  0  0  0  0  0  0
    3.9689    0.8646   -3.3258 C   0  0  0  0  0  0  0  0  0  0  0  0
    4.9436    0.3918   -3.1874 H   0  0  0  0  0  0  0  0  0  0  0  0
    3.2833    0.1264   -3.7459 H   0  0  0  0  0  0  0  0  0  0  0  0
    4.0687    1.6997   -4.0203 H   0  0  0  0  0  0  0  0  0  0  0  0
    2.4551    9.5735   -2.8990 H   0  0  0  0  0  0  0  0  0  0  0  0
    3.1967    9.0119   -2.3328 C   0  0  0  0  0  0  0  0  0  0  0  0
    3.9486    9.6923   -1.9363 H   0  0  0  0  0  0  0  0  0  0  0  0
    3.6693    8.2753   -2.9798 H   0  0  0  0  0  0  0  0  0  0  0  0
    2.5081    8.3050   -1.1889 C   0  0  0  0  0  0  0  0  0  0  0  0
    1.2991    8.4122   -1.0342 O   0  0  0  0  0  0  0  0  0  0  0  0
    3.2818    7.5735   -0.3914 N   0  0  0  0  0  0  0  0  0  0  0  0
    4.2743    7.5390   -0.5732 H   0  0  0  0  0  0  0  0  0  0  0  0
    2.8005    6.8128    0.7618 C   0  0  1  0  0  0  0  0  0  0  0  0
    2.0054    7.3765    1.2531 H   0  0  0  0  0  0  0  0  0  0  0  0
    2.2093    5.4927    0.2475 C   0  0  0  0  0  0  0  0  0  0  0  0
    1.4148    5.7413   -0.4576 H   0  0  0  0  0  0  0  0  0  0  0  0
    2.9772    4.9558   -0.3096 H   0  0  0  0  0  0  0  0  0  0  0  0
    1.4916    4.3654    1.4728 S   0  0  0  0  0  0  0  0  0  0  0  0
    3.9361    6.5996    1.7783 C   0  0  0  0  0  0  0  0  0  0  0  0
    5.1015    6.5139    1.3888 O   0  0  0  0  0  0  0  0  0  0  0  0
    3.5993    6.5232    3.0722 N   0  0  0  0  0  0  0  0  0  0  0  0
    2.6203    6.5690    3.3064 H   0  0  0  0  0  0  0  0  0  0  0  0
    4.5541    6.3145    4.1599 C   0  0  0  0  0  0  0  0  0  0  0  0
    4.8913    5.2766    4.1595 H   0  0  0  0  0  0  0  0  0  0  0  0
    5.4228    6.9631    4.0241 H   0  0  0  0  0  0  0  0  0  0  0  0
    4.0879    6.5402    5.1191 H   0  0  0  0  0  0  0  0  0  0  0  0
  5  6  2  0  0  0  0
  5  7  1  0  0  0  0
  2  3  1  0  0  0  0
  2  4  1  0  0  0  0
  2  5  1  0  0  0  0
  1  2  1  0  0  0  0
 15 16  2  0  0  0  0
 15 17  1  0  0  0  0
 14 36  1  0  0  0  0
 11 12  1  0  0  0  0
 11 13  1  0  0  0  0
 11 14  1  0  0  0  0
  9 10  1  0  0  0  0
  9 11  1  0  0  0  0
  9 15  1  0  0  0  0
  7  8  1  0  0  0  0
  7  9  1  0  0  0  0
 19 20  1  0  0  0  0
 19 21  1  0  0  0  0
 19 22  1  0  0  0  0
 17 18  1  0  0  0  0
 17 19  1  0  0  0  0
 27 28  2  0  0  0  0
 27 29  1  0  0  0  0
 24 25  1  0  0  0  0
 24 26  1  0  0  0  0
 24 27  1  0  0  0  0
 23 24  1  0  0  0  0
 37 38  2  0  0  0  0
 37 39  1  0  0  0  0
 33 34  1  0  0  0  0
 33 35  1  0  0  0  0
 33 36  1  0  0  0  0
 31 32  1  0  0  0  0
 31 33  1  0  0  0  0
 31 37  1  0  0  0  0
 29 30  1  0  0  0  0
 29 31  1  0  0  0  0
 41 42  1  0  0  0  0
 41 43  1  0  0  0  0
 41 44  1  0  0  0  0
 39 40  1  0  0  0  0
 39 41  1  0  0  0  0
M  END
$$$$
default_name
  -OEChem-01062215323D

 44 43  0     1  0  0  0  0  0999 V2000
    2.4488   -3.0448    2.0990 H   0  0  0  0  0  0  0  0  0  0  0  0
    2.2788   -2.0018    2.3640 C   0  0  0  0  0  0  0  0  0  0  0  0
    2.9228   -1.7258    3.1960 H   0  0  0  0  0  0  0  0  0  0  0  0
    1.2358   -1.8618    2.6430 H   0  0  0  0  0  0  0  0  0  0  0  0
    2.6018   -1.1318    1.1730 C   0  0  0  0  0  0  0  0  0  0  0  0
    3.0048   -1.6348    0.1320 O   0  0  0  0  0  0  0  0  0  0  0  0
    2.4088    0.1752    1.3190 N   0  0  0  0  0  0  0  0  0  0  0  0
    2.0708    0.5242    2.2050 H   0  0  0  0  0  0  0  0  0  0  0  0
    2.6638    1.1782    0.2840 C   0  0  1  0  0  0  0  0  0  0  0  0
    1.7185    1.6694    0.0471 H   0  0  0  0  0  0  0  0  0  0  0  0
    3.6338    2.2440    0.8231 C   0  0  0  0  0  0  0  0  0  0  0  0
    3.9396    2.8892   -0.0014 H   0  0  0  0  0  0  0  0  0  0  0  0
    4.5342    1.7333    1.1636 H   0  0  0  0  0  0  0  0  0  0  0  0
    3.0690    3.2907    2.1973 S   0  0  0  0  0  0  0  0  0  0  0  0
    3.1886    0.5219   -1.0068 C   0  0  0  0  0  0  0  0  0  0  0  0
    3.0820   -0.6923   -1.1787 O   0  0  0  0  0  0  0  0  0  0  0  0
    3.7501    1.3278   -1.9179 N   0  0  0  0  0  0  0  0  0  0  0  0
    3.8023    2.3129   -1.7139 H   0  0  0  0  0  0  0  0  0  0  0  0
    4.2964    0.8582   -3.1894 C   0  0  0  0  0  0  0  0  0  0  0  0
    5.1248    0.1718   -3.0019 H   0  0  0  0  0  0  0  0  0  0  0  0
    3.5253    0.3246   -3.7482 H   0  0  0  0  0  0  0  0  0  0  0  0
    4.6535    1.7007   -3.7830 H   0  0  0  0  0  0  0  0  0  0  0  0
    2.4551    9.5735   -2.8990 H   0  0  0  0  0  0  0  0  0  0  0  0
    3.1967    9.0119   -2.3328 C   0  0  0  0  0  0  0  0  0  0  0  0
    3.9486    9.6923   -1.9363 H   0  0  0  0  0  0  0  0  0  0  0  0
    3.6693    8.2753   -2.9798 H   0  0  0  0  0  0  0  0  0  0  0  0
    2.5081    8.3050   -1.1889 C   0  0  0  0  0  0  0  0  0  0  0  0
    1.2991    8.4122   -1.0342 O   0  0  0  0  0  0  0  0  0  0  0  0
    3.2818    7.5735   -0.3914 N   0  0  0  0  0  0  0  0  0  0  0  0
    4.2743    7.5390   -0.5732 H   0  0  0  0  0  0  0  0  0  0  0  0
    2.8005    6.8128    0.7618 C   0  0  1  0  0  0  0  0  0  0  0  0
    2.0054    7.3765    1.2531 H   0  0  0  0  0  0  0  0  0  0  0  0
    2.2093    5.4927    0.2475 C   0  0  0  0  0  0  0  0  0  0  0  0
    1.4148    5.7413   -0.4576 H   0  0  0  0  0  0  0  0  0  0  0  0
    2.9772    4.9558   -0.3096 H   0  0  0  0  0  0  0  0  0  0  0  0
    1.4916    4.3654    1.4728 S   0  0  0  0  0  0  0  0  0  0  0  0
    3.9361    6.5996    1.7783 C   0  0  0  0  0  0  0  0  0  0  0  0
    5.1015    6.5139    1.3888 O   0  0  0  0  0  0  0  0  0  0  0  0
    3.5993    6.5232    3.0722 N   0  0  0  0  0  0  0  0  0  0  0  0
    2.6203    6.5690    3.3064 H   0  0  0  0  0  0  0  0  0  0  0  0
    4.5541    6.3145    4.1599 C   0  0  0  0  0  0  0  0  0  0  0  0
    4.8913    5.2766    4.1595 H   0  0  0  0  0  0  0  0  0  0  0  0
    5.4228    6.9631    4.0241 H   0  0  0  0  0  0  0  0  0  0  0  0
    4.0879    6.5402    5.1191 H   0  0  0  0  0  0  0  0  0  0  0  0
  5  6  2  0  0  0  0
  5  7  1  0  0  0  0
  2  3  1  0  0  0  0
  2  4  1  0  0  0  0
  2  5  1  0  0  0  0
  1  2  1  0  0  0  0
 15 16  2  0  0  0  0
 15 17  1  0  0  0  0
 14 36  1  0  0  0  0
 11 12  1  0  0  0  0
 11 13  1  0  0  0  0
 11 14  1  0  0  0  0
  9 10  1  0  0  0  0
  9 11  1  0  0  0  0
  9 15  1  0  0  0  0
  7  8  1  0  0  0  0
  7  9  1  0  0  0  0
 19 20  1  0  0  0  0
 19 21  1  0  0  0  0
 19 22  1  0  0  0  0
 17 18  1  0  0  0  0
 17 19  1  0  0  0  0
 27 28  2  0  0  0  0
 27 29  1  0  0  0  0
 24 25  1  0  0  0  0
 24 26  1  0  0  0  0
 24 27  1  0  0  0  0
 23 24  1  0  0  0  0
 37 38  2  0  0  0  0
 37 39  1  0  0  0  0
 33 34  1  0  0  0  0
 33 35  1  0  0  0  0
 33 36  1  0  0  0  0
 31 32  1  0  0  0  0
 31 33  1  0  0  0  0
 31 37  1  0  0  0  0
 29 30  1  0  0  0  0
 29 31  1  0  0  0  0
 41 42  1  0  0  0  0
 41 43  1  0  0  0  0
 41 44  1  0  0  0  0
 39 40  1  0  0  0  0
 39 41  1  0  0  0  0
M  END
$$$$
default_name
  -OEChem-01062215323D

 44 43  0     1  0  0  0  0  0999 V2000
    2.4488   -3.0448    2.0990 H   0  0  0  0  0  0  0  0  0  0  0  0
    2.2788   -2.0018    2.3640 C   0  0  0  0  0  0  0  0  0  0  0  0
    2.9228   -1.7258    3.1960 H   0  0  0  0  0  0  0  0  0  0  0  0
    1.2358   -1.8618    2.6430 H   0  0  0  0  0  0  0  0  0  0  0  0
    2.6018   -1.1318    1.1730 C   0  0  0  0  0  0  0  0  0  0  0  0
    3.0048   -1.6348    0.1320 O   0  0  0  0  0  0  0  0  0  0  0  0
    2.4088    0.1752    1.3190 N   0  0  0  0  0  0  0  0  0  0  0  0
    2.0708    0.5242    2.2050 H   0  0  0  0  0  0  0  0  0  0  0  0
    2.6638    1.1782    0.2840 C   0  0  1  0  0  0  0  0  0  0  0  0
    1.7185    1.6694    0.0471 H   0  0  0  0  0  0  0  0  0  0  0  0
    3.6338    2.2440    0.8231 C   0  0  0  0  0  0  0  0  0  0  0  0
    3.9396    2.8892   -0.0014 H   0  0  0  0  0  0  0  0  0  0  0  0
    4.5342    1.7333    1.1636 H   0  0  0  0  0  0  0  0  0  0  0  0
    3.0690    3.2907    2.1973 S   0  0  0  0  0  0  0  0  0  0  0  0
    3.1886    0.5219   -1.0068 C   0  0  0  0  0  0  0  0  0  0  0  0
    2.8485   -0.6218   -1.3095 O   0  0  0  0  0  0  0  0  0  0  0  0
    4.0134    1.2500   -1.7713 N   0  0  0  0  0  0  0  0  0  0  0  0
    4.2483    2.1805   -1.4653 H   0  0  0  0  0  0  0  0  0  0  0  0
    4.5962    0.7689   -3.0221 C   0  0  0  0  0  0  0  0  0  0  0  0
    5.2318   -0.0964   -2.8220 H   0  0  0  0  0  0  0  0  0  0  0  0
    3.8024    0.4638   -3.7064 H   0  0  0  0  0  0  0  0  0  0  0  0
    5.1924    1.5538   -3.4892 H   0  0  0  0  0  0  0  0  0  0  0  0
    2.4551    9.5735   -2.8990 H   0  0  0  0  0  0  0  0  0  0  0  0
    3.1967    9.0119   -2.3328 C   0  0  0  0  0  0  0  0  0  0  0  0
    3.9486    9.6923   -1.9363 H   0  0  0  0  0  0  0  0  0  0  0  0
    3.6693    8.2753   -2.9798 H   0  0  0  0  0  0  0  0  0  0  0  0
    2.5081    8.3050   -1.1889 C   0  0  0  0  0  0  0  0  0  0  0  0
    1.2991    8.4122   -1.0342 O   0  0  0  0  0  0  0  0  0  0  0  0
    3.2818    7.5735   -0.3914 N   0  0  0  0  0  0  0  0  0  0  0  0
    4.2743    7.5390   -0.5732 H   0  0  0  0  0  0  0  0  0  0  0  0
    2.8005    6.8128    0.7618 C   0  0  1  0  0  0  0  0  0  0  0  0
    2.0054    7.3765    1.2531 H   0  0  0  0  0  0  0  0  0  0  0  0
    2.2093    5.4927    0.2475 C   0  0  0  0  0  0  0  0  0  0  0  0
    1.4148    5.7413   -0.4576 H   0  0  0  0  0  0  0  0  0  0  0  0
    2.9772    4.9558   -0.3096 H   0  0  0  0  0  0  0  0  0  0  0  0
    1.4916    4.3654    1.4728 S   0  0  0  0  0  0  0  0  0  0  0  0
    3.9361    6.5996    1.7783 C   0  0  0  0  0  0  0  0  0  0  0  0
    5.1015    6.5139    1.3888 O   0  0  0  0  0  0  0  0  0  0  0  0
    3.5993    6.5232    3.0722 N   0  0  0  0  0  0  0  0  0  0  0  0
    2.6203    6.5690    3.3064 H   0  0  0  0  0  0  0  0  0  0  0  0
    4.5541    6.3145    4.1599 C   0  0  0  0  0  0  0  0  0  0  0  0
    4.8913    5.2766    4.1595 H   0  0  0  0  0  0  0  0  0  0  0  0
    5.4228    6.9631    4.0241 H   0  0  0  0  0  0  0  0  0  0  0  0
    4.0879    6.5402    5.1191 H   0  0  0  0  0  0  0  0  0  0  0  0
  5  6  2  0  0  0  0
  5  7  1  0  0  0  0
  2  3  1  0  0  0  0
  2  4  1  0  0  0  0
  2  5  1  0  0  0  0
  1  2  1  0  0  0  0
 15 16  2  0  0  0  0
 15 17  1  0  0  0  0
 14 36  1  0  0  0  0
 11 12  1  0  0  0  0
 11 13  1  0  0  0  0
 11 14  1  0  0  0  0
  9 10  1  0  0  0  0
  9 11  1  0  0  0  0
  9 15  1  0  0  0  0
  7  8  1  0  0  0  0
  7  9  1  0  0  0  0
 19 20  1  0  0  0  0
 19 21  1  0  0  0  0
 19 22  1  0  0  0  0
 17 18  1  0  0  0  0
 17 19  1  0  0  0  0
 27 28  2  0  0  0  0
 27 29  1  0  0  0  0
 24 25  1  0  0  0  0
 24 26  1  0  0  0  0
 24 27  1  0  0  0  0
 23 24  1  0  0  0  0
 37 38  2  0  0  0  0
 37 39  1  0  0  0  0
 33 34  1  0  0  0  0
 33 35  1  0  0  0  0
 33 36  1  0  0  0  0
 31 32  1  0  0  0  0
 31 33  1  0  0  0  0
 31 37  1  0  0  0  0
 29 30  1  0  0  0  0
 29 31  1  0  0  0  0
 41 42  1  0  0  0  0
 41 43  1  0  0  0  0
 41 44  1  0  0  0  0
 39 40  1  0  0  0  0
 39 41  1  0  0  0  0
M  END
$$$$
default_name
  -OEChem-01062215323D

 44 43  0     1  0  0  0  0  0999 V2000
    2.4488   -3.0448    2.0990 H   0  0  0  0  0  0  0  0  0  0  0  0
    2.2788   -2.0018    2.3640 C   0  0  0  0  0  0  0  0  0  0  0  0
    2.9228   -1.7258    3.1960 H   0  0  0  0  0  0  0  0  0  0  0  0
    1.2358   -1.8618    2.6430 H   0  0  0  0  0  0  0  0  0  0  0  0
    2.6018   -1.1318    1.1730 C   0  0  0  0  0  0  0  0  0  0  0  0
    3.0048   -1.6348    0.1320 O   0  0  0  0  0  0  0  0  0  0  0  0
    2.4088    0.1752    1.3190 N   0  0  0  0  0  0  0  0  0  0  0  0
    2.0708    0.5242    2.2050 H   0  0  0  0  0  0  0  0  0  0  0  0
    2.6638    1.1782    0.2840 C   0  0  1  0  0  0  0  0  0  0  0  0
    1.7185    1.6694    0.0471 H   0  0  0  0  0  0  0  0  0  0  0  0
    3.6338    2.2440    0.8231 C   0  0  0  0  0  0  0  0  0  0  0  0
    3.9396    2.8892   -0.0014 H   0  0  0  0  0  0  0  0  0  0  0  0
    4.5342    1.7333    1.1636 H   0  0  0  0  0  0  0  0  0  0  0  0
    3.0690    3.2907    2.1973 S   0  0  0  0  0  0  0  0  0  0  0  0
    3.1886    0.5219   -1.0068 C   0  0  0  0  0  0  0  0  0  0  0  0
    2.6526   -0.4914   -1.4554 O   0  0  0  0  0  0  0  0  0  0  0  0
    4.2346    1.1048   -1.6075 N   0  0  0  0  0  0  0  0  0  0  0  0
    4.6230    1.9340   -1.1876 H   0  0  0  0  0  0  0  0  0  0  0  0
    4.8481    0.6029   -2.8353 C   0  0  0  0  0  0  0  0  0  0  0  0
    5.2570   -0.3944   -2.6602 H   0  0  0  0  0  0  0  0  0  0  0  0
    4.0956    0.5344   -3.6231 H   0  0  0  0  0  0  0  0  0  0  0  0
    5.6488    1.2692   -3.1590 H   0  0  0  0  0  0  0  0  0  0  0  0
    2.4551    9.5735   -2.8990 H   0  0  0  0  0  0  0  0  0  0  0  0
    3.1967    9.0119   -2.3328 C   0  0  0  0  0  0  0  0  0  0  0  0
    3.9486    9.6923   -1.9363 H   0  0  0  0  0  0  0  0  0  0  0  0
    3.6693    8.2753   -2.9798 H   0  0  0  0  0  0  0  0  0  0  0  0
    2.5081    8.3050   -1.1889 C   0  0  0  0  0  0  0  0  0  0  0  0
    1.2991    8.4122   -1.0342 O   0  0  0  0  0  0  0  0  0  0  0  0
    3.2818    7.5735   -0.3914 N   0  0  0  0  0  0  0  0  0  0  0  0
    4.2743    7.5390   -0.5732 H   0  0  0  0  0  0  0  0  0  0  0  0
    2.8005    6.8128    0.7618 C   0  0  1  0  0  0  0  0  0  0  0  0
    2.0054    7.3765    1.2531 H   0  0  0  0  0  0  0  0  0  0  0  0
    2.2093    5.4927    0.2475 C   0  0  0  0  0  0  0  0  0  0  0  0
    1.4148    5.7413   -0.4576 H   0  0  0  0  0  0  0  0  0  0  0  0
    2.9772    4.9558   -0.3096 H   0  0  0  0  0  0  0  0  0  0  0  0
    1.4916    4.3654    1.4728 S   0  0  0  0  0  0  0  0  0  0  0  0
    3.9361    6.5996    1.7783 C   0  0  0  0  0  0  0  0  0  0  0  0
    5.1015    6.5139    1.3888 O   0  0  0  0  0  0  0  0  0  0  0  0
    3.5993    6.5232    3.0722 N   0  0  0  0  0  0  0  0  0  0  0  0
    2.6203    6.5690    3.3064 H   0  0  0  0  0  0  0  0  0  0  0  0
    4.5541    6.3145    4.1599 C   0  0  0  0  0  0  0  0  0  0  0  0
    4.8913    5.2766    4.1595 H   0  0  0  0  0  0  0  0  0  0  0  0
    5.4228    6.9631    4.0241 H   0  0  0  0  0  0  0  0  0  0  0  0
    4.0879    6.5402    5.1191 H   0  0  0  0  0  0  0  0  0  0  0  0
  5  6  2  0  0  0  0
  5  7  1  0  0  0  0
  2  3  1  0  0  0  0
  2  4  1  0  0  0  0
  2  5  1  0  0  0  0
  1  2  1  0  0  0  0
 15 16  2  0  0  0  0
 15 17  1  0  0  0  0
 14 36  1  0  0  0  0
 11 12  1  0  0  0  0
 11 13  1  0  0  0  0
 11 14  1  0  0  0  0
  9 10  1  0  0  0  0
  9 11  1  0  0  0  0
  9 15  1  0  0  0  0
  7  8  1  0  0  0  0
  7  9  1  0  0  0  0
 19 20  1  0  0  0  0
 19 21  1  0  0  0  0
 19 22  1  0  0  0  0
 17 18  1  0  0  0  0
 17 19  1  0  0  0  0
 27 28  2  0  0  0  0
 27 29  1  0  0  0  0
 24 25  1  0  0  0  0
 24 26  1  0  0  0  0
 24 27  1  0  0  0  0
 23 24  1  0  0  0  0
 37 38  2  0  0  0  0
 37 39  1  0  0  0  0
 33 34  1  0  0  0  0
 33 35  1  0  0  0  0
 33 36  1  0  0  0  0
 31 32  1  0  0  0  0
 31 33  1  0  0  0  0
 31 37  1  0  0  0  0
 29 30  1  0  0  0  0
 29 31  1  0  0  0  0
 41 42  1  0  0  0  0
 41 43  1  0  0  0  0
 41 44  1  0  0  0  0
 39 40  1  0  0  0  0
 39 41  1  0  0  0  0
M  END
$$$$
default_name
  -OEChem-01062215323D

 44 43  0     1  0  0  0  0  0999 V2000
    2.4488   -3.0448    2.0990 H   0  0  0  0  0  0  0  0  0  0  0  0
    2.2788   -2.0018    2.3640 C   0  0  0  0  0  0  0  0  0  0  0  0
    2.9228   -1.7258    3.1960 H   0  0  0  0  0  0  0  0  0  0  0  0
    1.2358   -1.8618    2.6430 H   0  0  0  0  0  0  0  0  0  0  0  0
    2.6018   -1.1318    1.1730 C   0  0  0  0  0  0  0  0  0  0  0  0
    3.0048   -1.6348    0.1320 O   0  0  0  0  0  0  0  0  0  0  0  0
    2.4088    0.1752    1.3190 N   0  0  0  0  0  0  0  0  0  0  0  0
    2.0708    0.5242    2.2050 H   0  0  0  0  0  0  0  0  0  0  0  0
    2.6638    1.1782    0.2840 C   0  0  1  0  0  0  0  0  0  0  0  0
    1.7185    1.6694    0.0471 H   0  0  0  0  0  0  0  0  0  0  0  0
    3.6338    2.2440    0.8231 C   0  0  0  0  0  0  0  0  0  0  0  0
    3.9396    2.8892   -0.0014 H   0  0  0  0  0  0  0  0  0  0  0  0
    4.5342    1.7333    1.1636 H   0  0  0  0  0  0  0  0  0  0  0  0
    3.0690    3.2907    2.1973 S   0  0  0  0  0  0  0  0  0  0  0  0
    3.1886    0.5219   -1.0068 C   0  0  0  0  0  0  0  0  0  0  0  0
    2.5078   -0.3101   -1.6064 O   0  0  0  0  0  0  0  0  0  0  0  0
    4.3987    0.9022   -1.4377 N   0  0  0  0  0  0  0  0  0  0  0  0
    4.9008    1.5901   -0.8998 H   0  0  0  0  0  0  0  0  0  0  0  0
    5.0347    0.3715   -2.6418 C   0  0  0  0  0  0  0  0  0  0  0  0
    5.1990   -0.7021   -2.5274 H   0  0  0  0  0  0  0  0  0  0  0  0
    4.3849    0.5317   -3.5041 H   0  0  0  0  0  0  0  0  0  0  0  0
    5.9914    0.8661   -2.8147 H   0  0  0  0  0  0  0  0  0  0  0  0
    2.4551    9.5735   -2.8990 H   0  0  0  0  0  0  0  0  0  0  0  0
    3.1967    9.0119   -2.3328 C   0  0  0  0  0  0  0  0  0  0  0  0
    3.9486    9.6923   -1.9363 H   0  0  0  0  0  0  0  0  0  0  0  0
    3.6693    8.2753   -2.9798 H   0  0  0  0  0  0  0  0  0  0  0  0
    2.5081    8.3050   -1.1889 C   0  0  0  0  0  0  0  0  0  0  0  0
    1.2991    8.4122   -1.0342 O   0  0  0  0  0  0  0  0  0  0  0  0
    3.2818    7.5735   -0.3914 N   0  0  0  0  0  0  0  0  0  0  0  0
    4.2743    7.5390   -0.5732 H   0  0  0  0  0  0  0  0  0  0  0  0
    2.8005    6.8128    0.7618 C   0  0  1  0  0  0  0  0  0  0  0  0
    2.0054    7.3765    1.2531 H   0  0  0  0  0  0  0  0  0  0  0  0
    2.2093    5.4927    0.2475 C   0  0  0  0  0  0  0  0  0  0  0  0
    1.4148    5.7413   -0.4576 H   0  0  0  0  0  0  0  0  0  0  0  0
    2.9772    4.9558   -0.3096 H   0  0  0  0  0  0  0  0  0  0  0  0
    1.4916    4.3654    1.4728 S   0  0  0  0  0  0  0  0  0  0  0  0
    3.9361    6.5996    1.7783 C   0  0  0  0  0  0  0  0  0  0  0  0
    5.1015    6.5139    1.3888 O   0  0  0  0  0  0  0  0  0  0  0  0
    3.5993    6.5232    3.0722 N   0  0  0  0  0  0  0  0  0  0  0  0
    2.6203    6.5690    3.3064 H   0  0  0  0  0  0  0  0  0  0  0  0
    4.5541    6.3145    4.1599 C   0  0  0  0  0  0  0  0  0  0  0  0
    4.8913    5.2766    4.1595 H   0  0  0  0  0  0  0  0  0  0  0  0
    5.4228    6.9631    4.0241 H   0  0  0  0  0  0  0  0  0  0  0  0
    4.0879    6.5402    5.1191 H   0  0  0  0  0  0  0  0  0  0  0  0
  5  6  2  0  0  0  0
  5  7  1  0  0  0  0
  2  3  1  0  0  0  0
  2  4  1  0  0  0  0
  2  5  1  0  0  0  0
  1  2  1  0  0  0  0
 15 16  2  0  0  0  0
 15 17  1  0  0  0  0
 14 36  1  0  0  0  0
 11 12  1  0  0  0  0
 11 13  1  0  0  0  0
 11 14  1  0  0  0  0
  9 10  1  0  0  0  0
  9 11  1  0  0  0  0
  9 15  1  0  0  0  0
  7  8  1  0  0  0  0
  7  9  1  0  0  0  0
 19 20  1  0  0  0  0
 19 21  1  0  0  0  0
 19 22  1  0  0  0  0
 17 18  1  0  0  0  0
 17 19  1  0  0  0  0
 27 28  2  0  0  0  0
 27 29  1  0  0  0  0
 24 25  1  0  0  0  0
 24 26  1  0  0  0  0
 24 27  1  0  0  0  0
 23 24  1  0  0  0  0
 37 38  2  0  0  0  0
 37 39  1  0  0  0  0
 33 34  1  0  0  0  0
 33 35  1  0  0  0  0
 33 36  1  0  0  0  0
 31 32  1  0  0  0  0
 31 33  1  0  0  0  0
 31 37  1  0  0  0  0
 29 30  1  0  0  0  0
 29 31  1  0  0  0  0
 41 42  1  0  0  0  0
 41 43  1  0  0  0  0
 41 44  1  0  0  0  0
 39 40  1  0  0  0  0
 39 41  1  0  0  0  0
M  END
$$$$
default_name
  -OEChem-01062215323D

 44 43  0     1  0  0  0  0  0999 V2000
    2.4488   -3.0448    2.0990 H   0  0  0  0  0  0  0  0  0  0  0  0
    2.2788   -2.0018    2.3640 C   0  0  0  0  0  0  0  0  0  0  0  0
    2.9228   -1.7258    3.1960 H   0  0  0  0  0  0  0  0  0  0  0  0
    1.2358   -1.8618    2.6430 H   0  0  0  0  0  0  0  0  0  0  0  0
    2.6018   -1.1318    1.1730 C   0  0  0  0  0  0  0  0  0  0  0  0
    3.0048   -1.6348    0.1320 O   0  0  0  0  0  0  0  0  0  0  0  0
    2.4088    0.1752    1.3190 N   0  0  0  0  0  0  0  0  0  0  0  0
    2.0708    0.5242    2.2050 H   0  0  0  0  0  0  0  0  0  0  0  0
    2.6638    1.1782    0.2840 C   0  0  1  0  0  0  0  0  0  0  0  0
    1.7185    1.6694    0.0471 H   0  0  0  0  0  0  0  0  0  0  0  0
    3.6338    2.2440    0.8231 C   0  0  0  0  0  0  0  0  0  0  0  0
    3.9396    2.8892   -0.0014 H   0  0  0  0  0  0  0  0  0  0  0  0
    4.5342    1.7333    1.1636 H   0  0  0  0  0  0  0  0  0  0  0  0
    3.0690    3.2907    2.1973 S   0  0  0  0  0  0  0  0  0  0  0  0
    3.1886    0.5219   -1.0068 C   0  0  0  0  0  0  0  0  0  0  0  0
    2.4240   -0.0903   -1.7523 O   0  0  0  0  0  0  0  0  0  0  0  0
    4.4946    0.6558   -1.2735 N   0  0  0  0  0  0  0  0  0  0  0  0
    5.0628    1.1724   -0.6215 H   0  0  0  0  0  0  0  0  0  0  0  0
    5.1435    0.0904   -2.4546 C   0  0  0  0  0  0  0  0  0  0  0  0
    5.0615   -0.9984   -2.4326 H   0  0  0  0  0  0  0  0  0  0  0  0
    4.6507    0.4559   -3.3575 H   0  0  0  0  0  0  0  0  0  0  0  0
    6.1969    0.3722   -2.4800 H   0  0  0  0  0  0  0  0  0  0  0  0
    2.4551    9.5735   -2.8990 H   0  0  0  0  0  0  0  0  0  0  0  0
    3.1967    9.0119   -2.3328 C   0  0  0  0  0  0  0  0  0  0  0  0
    3.9486    9.6923   -1.9363 H   0  0  0  0  0  0  0  0  0  0  0  0
    3.6693    8.2753   -2.9798 H   0  0  0  0  0  0  0  0  0  0  0  0
    2.5081    8.3050   -1.1889 C   0  0  0  0  0  0  0  0  0  0  0  0
    1.2991    8.4122   -1.0342 O   0  0  0  0  0  0  0  0  0  0  0  0
    3.2818    7.5735   -0.3914 N   0  0  0  0  0  0  0  0  0  0  0  0
    4.2743    7.5390   -0.5732 H   0  0  0  0  0  0  0  0  0  0  0  0
    2.8005    6.8128    0.7618 C   0  0  1  0  0  0  0  0  0  0  0  0
    2.0054    7.3765    1.2531 H   0  0  0  0  0  0  0  0  0  0  0  0
    2.2093    5.4927    0.2475 C   0  0  0  0  0  0  0  0  0  0  0  0
    1.4148    5.7413   -0.4576 H   0  0  0  0  0  0  0  0  0  0  0  0
    2.9772    4.9558   -0.3096 H   0  0  0  0  0  0  0  0  0  0  0  0
    1.4916    4.3654    1.4728 S   0  0  0  0  0  0  0  0  0  0  0  0
    3.9361    6.5996    1.7783 C   0  0  0  0  0  0  0  0  0  0  0  0
    5.1015    6.5139    1.3888 O   0  0  0  0  0  0  0  0  0  0  0  0
    3.5993    6.5232    3.0722 N   0  0  0  0  0  0  0  0  0  0  0  0
    2.6203    6.5690    3.3064 H   0  0  0  0  0  0  0  0  0  0  0  0
    4.5541    6.3145    4.1599 C   0  0  0  0  0  0  0  0  0  0  0  0
    4.8913    5.2766    4.1595 H   0  0  0  0  0  0  0  0  0  0  0  0
    5.4228    6.9631    4.0241 H   0  0  0  0  0  0  0  0  0  0  0  0
    4.0879    6.5402    5.1191 H   0  0  0  0  0  0  0  0  0  0  0  0
  5  6  2  0  0  0  0
  5  7  1  0  0  0  0
  2  3  1  0  0  0  0
  2  4  1  0  0  0  0
  2  5  1  0  0  0  0
  1  2  1  0  0  0  0
 15 16  2  0  0  0  0
 15 17  1  0  0  0  0
 14 36  1  0  0  0  0
 11 12  1  0  0  0  0
 11 13  1  0  0  0  0
 11 14  1  0  0  0  0
  9 10  1  0  0  0  0
  9 11  1  0  0  0  0
  9 15  1  0  0  0  0
  7  8  1  0  0  0  0
  7  9  1  0  0  0  0
 19 20  1  0  0  0  0
 19 21  1  0  0  0  0
 19 22  1  0  0  0  0
 17 18  1  0  0  0  0
 17 19  1  0  0  0  0
 27 28  2  0  0  0  0
 27 29  1  0  0  0  0
 24 25  1  0  0  0  0
 24 26  1  0  0  0  0
 24 27  1  0  0  0  0
 23 24  1  0  0  0  0
 37 38  2  0  0  0  0
 37 39  1  0  0  0  0
 33 34  1  0  0  0  0
 33 35  1  0  0  0  0
 33 36  1  0  0  0  0
 31 32  1  0  0  0  0
 31 33  1  0  0  0  0
 31 37  1  0  0  0  0
 29 30  1  0  0  0  0
 29 31  1  0  0  0  0
 41 42  1  0  0  0  0
 41 43  1  0  0  0  0
 41 44  1  0  0  0  0
 39 40  1  0  0  0  0
 39 41  1  0  0  0  0
M  END
$$$$
default_name
  -OEChem-01062215323D

 44 43  0     1  0  0  0  0  0999 V2000
    2.4488   -3.0448    2.0990 H   0  0  0  0  0  0  0  0  0  0  0  0
    2.2788   -2.0018    2.3640 C   0  0  0  0  0  0  0  0  0  0  0  0
    2.9228   -1.7258    3.1960 H   0  0  0  0  0  0  0  0  0  0  0  0
    1.2358   -1.8618    2.6430 H   0  0  0  0  0  0  0  0  0  0  0  0
    2.6018   -1.1318    1.1730 C   0  0  0  0  0  0  0  0  0  0  0  0
    3.0048   -1.6348    0.1320 O   0  0  0  0  0  0  0  0  0  0  0  0
    2.4088    0.1752    1.3190 N   0  0  0  0  0  0  0  0  0  0  0  0
    2.0708    0.5242    2.2050 H   0  0  0  0  0  0  0  0  0  0  0  0
    2.6638    1.1782    0.2840 C   0  0  1  0  0  0  0  0  0  0  0  0
    1.7185    1.6694    0.0471 H   0  0  0  0  0  0  0  0  0  0  0  0
    3.6338    2.2440    0.8231 C   0  0  0  0  0  0  0  0  0  0  0  0
    3.9396    2.8892   -0.0014 H   0  0  0  0  0  0  0  0  0  0  0  0
    4.5342    1.7333    1.1636 H   0  0  0  0  0  0  0  0  0  0  0  0
    3.0690    3.2907    2.1973 S   0  0  0  0  0  0  0  0  0  0  0  0
    3.1886    0.5219   -1.0068 C   0  0  0  0  0  0  0  0  0  0  0  0
    2.4067    0.1530   -1.8831 O   0  0  0  0  0  0  0  0  0  0  0  0
    4.5157    0.3826   -1.1260 N   0  0  0  0  0  0  0  0  0  0  0  0
    5.0980    0.7091   -0.3717 H   0  0  0  0  0  0  0  0  0  0  0  0
    5.1669   -0.2212   -2.2867 C   0  0  0  0  0  0  0  0  0  0  0  0
    4.8540   -1.2631   -2.3824 H   0  0  0  0  0  0  0  0  0  0  0  0
    4.8748    0.3120   -3.1932 H   0  0  0  0  0  0  0  0  0  0  0  0
    6.2514   -0.1791   -2.1776 H   0  0  0  0  0  0  0  0  0  0  0  0
    2.4551    9.5735   -2.8990 H   0  0  0  0  0  0  0  0  0  0  0  0
    3.1967    9.0119   -2.3328 C   0  0  0  0  0  0  0  0  0  0  0  0
    3.9486    9.6923   -1.9363 H   0  0  0  0  0  0  0  0  0  0  0  0
    3.6693    8.2753   -2.9798 H   0  0  0  0  0  0  0  0  0  0  0  0
    2.5081    8.3050   -1.1889 C   0  0  0  0  0  0  0  0  0  0  0  0
    1.2991    8.4122   -1.0342 O   0  0  0  0  0  0  0  0  0  0  0  0
    3.2818    7.5735   -0.3914 N   0  0  0  0  0  0  0  0  0  0  0  0
    4.2743    7.5390   -0.5732 H   0  0  0  0  0  0  0  0  0  0  0  0
    2.8005    6.8128    0.7618 C   0  0  1  0  0  0  0  0  0  0  0  0
    2.0054    7.3765    1.2531 H   0  0  0  0  0  0  0  0  0  0  0  0
    2.2093    5.4927    0.2475 C   0  0  0  0  0  0  0  0  0  0  0  0
    1.4148    5.7413   -0.4576 H   0  0  0  0  0  0  0  0  0  0  0  0
    2.9772    4.9558   -0.3096 H   0  0  0  0  0  0  0  0  0  0  0  0
    1.4916    4.3654    1.4728 S   0  0  0  0  0  0  0  0  0  0  0  0
    3.9361    6.5996    1.7783 C   0  0  0  0  0  0  0  0  0  0  0  0
    5.1015    6.5139    1.3888 O   0  0  0  0  0  0  0  0  0  0  0  0
    3.5993    6.5232    3.0722 N   0  0  0  0  0  0  0  0  0  0  0  0
    2.6203    6.5690    3.3064 H   0  0  0  0  0  0  0  0  0  0  0  0
    4.5541    6.3145    4.1599 C   0  0  0  0  0  0  0  0  0  0  0  0
    4.8913    5.2766    4.1595 H   0  0  0  0  0  0  0  0  0  0  0  0
    5.4228    6.9631    4.0241 H   0  0  0  0  0  0  0  0  0  0  0  0
    4.0879    6.5402    5.1191 H   0  0  0  0  0  0  0  0  0  0  0  0
  5  6  2  0  0  0  0
  5  7  1  0  0  0  0
  2  3  1  0  0  0  0
  2  4  1  0  0  0  0
  2  5  1  0  0  0  0
  1  2  1  0  0  0  0
 15 16  2  0  0  0  0
 15 17  1  0  0  0  0
 14 36  1  0  0  0  0
 11 12  1  0  0  0  0
 11 13  1  0  0  0  0
 11 14  1  0  0  0  0
  9 10  1  0  0  0  0
  9 11  1  0  0  0  0
  9 15  1  0  0  0  0
  7  8  1  0  0  0  0
  7  9  1  0  0  0  0
 19 20  1  0  0  0  0
 19 21  1  0  0  0  0
 19 22  1  0  0  0  0
 17 18  1  0  0  0  0
 17 19  1  0  0  0  0
 27 28  2  0  0  0  0
 27 29  1  0  0  0  0
 24 25  1  0  0  0  0
 24 26  1  0  0  0  0
 24 27  1  0  0  0  0
 23 24  1  0  0  0  0
 37 38  2  0  0  0  0
 37 39  1  0  0  0  0
 33 34  1  0  0  0  0
 33 35  1  0  0  0  0
 33 36  1  0  0  0  0
 31 32  1  0  0  0  0
 31 33  1  0  0  0  0
 31 37  1  0  0  0  0
 29 30  1  0  0  0  0
 29 31  1  0  0  0  0
 41 42  1  0  0  0  0
 41 43  1  0  0  0  0
 41 44  1  0  0  0  0
 39 40  1  0  0  0  0
 39 41  1  0  0  0  0
M  END
$$$$
default_name
  -OEChem-01062215323D

 44 43  0     1  0  0  0  0  0999 V2000
    2.4488   -3.0448    2.0990 H   0  0  0  0  0  0  0  0  0  0  0  0
    2.2788   -2.0018    2.3640 C   0  0  0  0  0  0  0  0  0  0  0  0
    2.9228   -1.7258    3.1960 H   0  0  0  0  0  0  0  0  0  0  0  0
    1.2358   -1.8618    2.6430 H   0  0  0  0  0  0  0  0  0  0  0  0
    2.6018   -1.1318    1.1730 C   0  0  0  0  0  0  0  0  0  0  0  0
    3.0048   -1.6348    0.1320 O   0  0  0  0  0  0  0  0  0  0  0  0
    2.4088    0.1752    1.3190 N   0  0  0  0  0  0  0  0  0  0  0  0
    2.0708    0.5242    2.2050 H   0  0  0  0  0  0  0  0  0  0  0  0
    2.6638    1.1782    0.2840 C   0  0  1  0  0  0  0  0  0  0  0  0
    1.7185    1.6694    0.0471 H   0  0  0  0  0  0  0  0  0  0  0  0
    3.6338    2.2440    0.8231 C   0  0  0  0  0  0  0  0  0  0  0  0
    3.9396    2.8892   -0.0014 H   0  0  0  0  0  0  0  0  0  0  0  0
    4.5342    1.7333    1.1636 H   0  0  0  0  0  0  0  0  0  0  0  0
    3.0690    3.2907    2.1973 S   0  0  0  0  0  0  0  0  0  0  0  0
    3.1886    0.5219   -1.0068 C   0  0  0  0  0  0  0  0  0  0  0  0
    2.4572    0.4034   -1.9898 O   0  0  0  0  0  0  0  0  0  0  0  0
    4.4605    0.1011   -1.0053 N   0  0  0  0  0  0  0  0  0  0  0  0
    5.0039    0.2320   -0.1673 H   0  0  0  0  0  0  0  0  0  0  0  0
    5.1034   -0.5421   -2.1493 C   0  0  0  0  0  0  0  0  0  0  0  0
    4.5906   -1.4782   -2.3801 H   0  0  0  0  0  0  0  0  0  0  0  0
    5.0419    0.1100   -3.0225 H   0  0  0  0  0  0  0  0  0  0  0  0
    6.1511   -0.7500   -1.9281 H   0  0  0  0  0  0  0  0  0  0  0  0
    2.4551    9.5735   -2.8990 H   0  0  0  0  0  0  0  0  0  0  0  0
    3.1967    9.0119   -2.3328 C   0  0  0  0  0  0  0  0  0  0  0  0
    3.9486    9.6923   -1.9363 H   0  0  0  0  0  0  0  0  0  0  0  0
    3.6693    8.2753   -2.9798 H   0  0  0  0  0  0  0  0  0  0  0  0
    2.5081    8.3050   -1.1889 C   0  0  0  0  0  0  0  0  0  0  0  0
    1.2991    8.4122   -1.0342 O   0  0  0  0  0  0  0  0  0  0  0  0
    3.2818    7.5735   -0.3914 N   0  0  0  0  0  0  0  0  0  0  0  0
    4.2743    7.5390   -0.5732 H   0  0  0  0  0  0  0  0  0  0  0  0
    2.8005    6.8128    0.7618 C   0  0  1  0  0  0  0  0  0  0  0  0
    2.0054    7.3765    1.2531 H   0  0  0  0  0  0  0  0  0  0  0  0
    2.2093    5.4927    0.2475 C   0  0  0  0  0  0  0  0  0  0  0  0
    1.4148    5.7413   -0.4576 H   0  0  0  0  0  0  0  0  0  0  0  0
    2.9772    4.9558   -0.3096 H   0  0  0  0  0  0  0  0  0  0  0  0
    1.4916    4.3654    1.4728 S   0  0  0  0  0  0  0  0  0  0  0  0
    3.9361    6.5996    1.7783 C   0  0  0  0  0  0  0  0  0  0  0  0
    5.1015    6.5139    1.3888 O   0  0  0  0  0  0  0  0  0  0  0  0
    3.5993    6.5232    3.0722 N   0  0  0  0  0  0  0  0  0  0  0  0
    2.6203    6.5690    3.3064 H   0  0  0  0  0  0  0  0  0  0  0  0
    4.5541    6.3145    4.1599 C   0  0  0  0  0  0  0  0  0  0  0  0
    4.8913    5.2766    4.1595 H   0  0  0  0  0  0  0  0  0  0  0  0
    5.4228    6.9631    4.0241 H   0  0  0  0  0  0  0  0  0  0  0  0
    4.0879    6.5402    5.1191 H   0  0  0  0  0  0  0  0  0  0  0  0
  5  6  2  0  0  0  0
  5  7  1  0  0  0  0
  2  3  1  0  0  0  0
  2  4  1  0  0  0  0
  2  5  1  0  0  0  0
  1  2  1  0  0  0  0
 15 16  2  0  0  0  0
 15 17  1  0  0  0  0
 14 36  1  0  0  0  0
 11 12  1  0  0  0  0
 11 13  1  0  0  0  0
 11 14  1  0  0  0  0
  9 10  1  0  0  0  0
  9 11  1  0  0  0  0
  9 15  1  0  0  0  0
  7  8  1  0  0  0  0
  7  9  1  0  0  0  0
 19 20  1  0  0  0  0
 19 21  1  0  0  0  0
 19 22  1  0  0  0  0
 17 18  1  0  0  0  0
 17 19  1  0  0  0  0
 27 28  2  0  0  0  0
 27 29  1  0  0  0  0
 24 25  1  0  0  0  0
 24 26  1  0  0  0  0
 24 27  1  0  0  0  0
 23 24  1  0  0  0  0
 37 38  2  0  0  0  0
 37 39  1  0  0  0  0
 33 34  1  0  0  0  0
 33 35  1  0  0  0  0
 33 36  1  0  0  0  0
 31 32  1  0  0  0  0
 31 33  1  0  0  0  0
 31 37  1  0  0  0  0
 29 30  1  0  0  0  0
 29 31  1  0  0  0  0
 41 42  1  0  0  0  0
 41 43  1  0  0  0  0
 41 44  1  0  0  0  0
 39 40  1  0  0  0  0
 39 41  1  0  0  0  0
M  END
$$$$
default_name
  -OEChem-01062215323D

 44 43  0     1  0  0  0  0  0999 V2000
    2.4488   -3.0448    2.0990 H   0  0  0  0  0  0  0  0  0  0  0  0
    2.2788   -2.0018    2.3640 C   0  0  0  0  0  0  0  0  0  0  0  0
    2.9228   -1.7258    3.1960 H   0  0  0  0  0  0  0  0  0  0  0  0
    1.2358   -1.8618    2.6430 H   0  0  0  0  0  0  0  0  0  0  0  0
    2.6018   -1.1318    1.1730 C   0  0  0  0  0  0  0  0  0  0  0  0
    3.0048   -1.6348    0.1320 O   0  0  0  0  0  0  0  0  0  0  0  0
    2.4088    0.1752    1.3190 N   0  0  0  0  0  0  0  0  0  0  0  0
    2.0708    0.5242    2.2050 H   0  0  0  0  0  0  0  0  0  0  0  0
    2.6638    1.1782    0.2840 C   0  0  1  0  0  0  0  0  0  0  0  0
    1.7185    1.6694    0.0471 H   0  0  0  0  0  0  0  0  0  0  0  0
    3.6338    2.2440    0.8231 C   0  0  0  0  0  0  0  0  0  0  0  0
    3.9396    2.8892   -0.0014 H   0  0  0  0  0  0  0  0  0  0  0  0
    4.5342    1.7333    1.1636 H   0  0  0  0  0  0  0  0  0  0  0  0
    3.0690    3.2907    2.1973 S   0  0  0  0  0  0  0  0  0  0  0  0
    3.1886    0.5219   -1.0068 C   0  0  0  0  0  0  0  0  0  0  0  0
    2.5721    0.6436   -2.0653 O   0  0  0  0  0  0  0  0  0  0  0  0
    4.3328   -0.1694   -0.9197 N   0  0  0  0  0  0  0  0  0  0  0  0
    4.7871   -0.2265   -0.0224 H   0  0  0  0  0  0  0  0  0  0  0  0
    4.9574   -0.8504   -2.0519 C   0  0  0  0  0  0  0  0  0  0  0  0
    4.2892   -1.6291   -2.4259 H   0  0  0  0  0  0  0  0  0  0  0  0
    5.1407   -0.1365   -2.8570 H   0  0  0  0  0  0  0  0  0  0  0  0
    5.9028   -1.3017   -1.7484 H   0  0  0  0  0  0  0  0  0  0  0  0
    2.4551    9.5735   -2.8990 H   0  0  0  0  0  0  0  0  0  0  0  0
    3.1967    9.0119   -2.3328 C   0  0  0  0  0  0  0  0  0  0  0  0
    3.9486    9.6923   -1.9363 H   0  0  0  0  0  0  0  0  0  0  0  0
    3.6693    8.2753   -2.9798 H   0  0  0  0  0  0  0  0  0  0  0  0
    2.5081    8.3050   -1.1889 C   0  0  0  0  0  0  0  0  0  0  0  0
    1.2991    8.4122   -1.0342 O   0  0  0  0  0  0  0  0  0  0  0  0
    3.2818    7.5735   -0.3914 N   0  0  0  0  0  0  0  0  0  0  0  0
    4.2743    7.5390   -0.5732 H   0  0  0  0  0  0  0  0  0  0  0  0
    2.8005    6.8128    0.7618 C   0  0  1  0  0  0  0  0  0  0  0  0
    2.0054    7.3765    1.2531 H   0  0  0  0  0  0  0  0  0  0  0  0
    2.2093    5.4927    0.2475 C   0  0  0  0  0  0  0  0  0  0  0  0
    1.4148    5.7413   -0.4576 H   0  0  0  0  0  0  0  0  0  0  0  0
    2.9772    4.9558   -0.3096 H   0  0  0  0  0  0  0  0  0  0  0  0
    1.4916    4.3654    1.4728 S   0  0  0  0  0  0  0  0  0  0  0  0
    3.9361    6.5996    1.7783 C   0  0  0  0  0  0  0  0  0  0  0  0
    5.1015    6.5139    1.3888 O   0  0  0  0  0  0  0  0  0  0  0  0
    3.5993    6.5232    3.0722 N   0  0  0  0  0  0  0  0  0  0  0  0
    2.6203    6.5690    3.3064 H   0  0  0  0  0  0  0  0  0  0  0  0
    4.5541    6.3145    4.1599 C   0  0  0  0  0  0  0  0  0  0  0  0
    4.8913    5.2766    4.1595 H   0  0  0  0  0  0  0  0  0  0  0  0
    5.4228    6.9631    4.0241 H   0  0  0  0  0  0  0  0  0  0  0  0
    4.0879    6.5402    5.1191 H   0  0  0  0  0  0  0  0  0  0  0  0
  5  6  2  0  0  0  0
  5  7  1  0  0  0  0
  2  3  1  0  0  0  0
  2  4  1  0  0  0  0
  2  5  1  0  0  0  0
  1  2  1  0  0  0  0
 15 16  2  0  0  0  0
 15 17  1  0  0  0  0
 14 36  1  0  0  0  0
 11 12  1  0  0  0  0
 11 13  1  0  0  0  0
 11 14  1  0  0  0  0
  9 10  1  0  0  0  0
  9 11  1  0  0  0  0
  9 15  1  0  0  0  0
  7  8  1  0  0  0  0
  7  9  1  0  0  0  0
 19 20  1  0  0  0  0
 19 21  1  0  0  0  0
 19 22  1  0  0  0  0
 17 18  1  0  0  0  0
 17 19  1  0  0  0  0
 27 28  2  0  0  0  0
 27 29  1  0  0  0  0
 24 25  1  0  0  0  0
 24 26  1  0  0  0  0
 24 27  1  0  0  0  0
 23 24  1  0  0  0  0
 37 38  2  0  0  0  0
 37 39  1  0  0  0  0
 33 34  1  0  0  0  0
 33 35  1  0  0  0  0
 33 36  1  0  0  0  0
 31 32  1  0  0  0  0
 31 33  1  0  0  0  0
 31 37  1  0  0  0  0
 29 30  1  0  0  0  0
 29 31  1  0  0  0  0
 41 42  1  0  0  0  0
 41 43  1  0  0  0  0
 41 44  1  0  0  0  0
 39 40  1  0  0  0  0
 39 41  1  0  0  0  0
M  END
$$$$
default_name
  -OEChem-01062215323D

 44 43  0     1  0  0  0  0  0999 V2000
    2.4488   -3.0448    2.0990 H   0  0  0  0  0  0  0  0  0  0  0  0
    2.2788   -2.0018    2.3640 C   0  0  0  0  0  0  0  0  0  0  0  0
    2.9228   -1.7258    3.1960 H   0  0  0  0  0  0  0  0  0  0  0  0
    1.2358   -1.8618    2.6430 H   0  0  0  0  0  0  0  0  0  0  0  0
    2.6018   -1.1318    1.1730 C   0  0  0  0  0  0  0  0  0  0  0  0
    3.0048   -1.6348    0.1320 O   0  0  0  0  0  0  0  0  0  0  0  0
    2.4088    0.1752    1.3190 N   0  0  0  0  0  0  0  0  0  0  0  0
    2.0708    0.5242    2.2050 H   0  0  0  0  0  0  0  0  0  0  0  0
    2.6638    1.1782    0.2840 C   0  0  1  0  0  0  0  0  0  0  0  0
    1.7185    1.6694    0.0471 H   0  0  0  0  0  0  0  0  0  0  0  0
    3.6338    2.2440    0.8231 C   0  0  0  0  0  0  0  0  0  0  0  0
    3.9396    2.8892   -0.0014 H   0  0  0  0  0  0  0  0  0  0  0  0
    4.5342    1.7333    1.1636 H   0  0  0  0  0  0  0  0  0  0  0  0
    3.0690    3.2907    2.1973 S   0  0  0  0  0  0  0  0  0  0  0  0
    3.1886    0.5219   -1.0068 C   0  0  0  0  0  0  0  0  0  0  0  0
    2.7435    0.8575   -2.1043 O   0  0  0  0  0  0  0  0  0  0  0  0
    4.1414   -0.4106   -0.8748 N   0  0  0  0  0  0  0  0  0  0  0  0
    4.4621   -0.6350    0.0533 H   0  0  0  0  0  0  0  0  0  0  0  0
    4.7387   -1.1251   -2.0012 C   0  0  0  0  0  0  0  0  0  0  0  0
    3.9705   -1.7054   -2.5167 H   0  0  0  0  0  0  0  0  0  0  0  0
    5.1645   -0.4106   -2.7080 H   0  0  0  0  0  0  0  0  0  0  0  0
    5.5236   -1.7967   -1.6510 H   0  0  0  0  0  0  0  0  0  0  0  0
    2.4551    9.5735   -2.8990 H   0  0  0  0  0  0  0  0  0  0  0  0
    3.1967    9.0119   -2.3328 C   0  0  0  0  0  0  0  0  0  0  0  0
    3.9486    9.6923   -1.9363 H   0  0  0  0  0  0  0  0  0  0  0  0
    3.6693    8.2753   -2.9798 H   0  0  0  0  0  0  0  0  0  0  0  0
    2.5081    8.3050   -1.1889 C   0  0  0  0  0  0  0  0  0  0  0  0
    1.2991    8.4122   -1.0342 O   0  0  0  0  0  0  0  0  0  0  0  0
    3.2818    7.5735   -0.3914 N   0  0  0  0  0  0  0  0  0  0  0  0
    4.2743    7.5390   -0.5732 H   0  0  0  0  0  0  0  0  0  0  0  0
    2.8005    6.8128    0.7618 C   0  0  1  0  0  0  0  0  0  0  0  0
    2.0054    7.3765    1.2531 H   0  0  0  0  0  0  0  0  0  0  0  0
    2.2093    5.4927    0.2475 C   0  0  0  0  0  0  0  0  0  0  0  0
    1.4148    5.7413   -0.4576 H   0  0  0  0  0  0  0  0  0  0  0  0
    2.9772    4.9558   -0.3096 H   0  0  0  0  0  0  0  0  0  0  0  0
    1.4916    4.3654    1.4728 S   0  0  0  0  0  0  0  0  0  0  0  0
    3.9361    6.5996    1.7783 C   0  0  0  0  0  0  0  0  0  0  0  0
    5.1015    6.5139    1.3888 O   0  0  0  0  0  0  0  0  0  0  0  0
    3.5993    6.5232    3.0722 N   0  0  0  0  0  0  0  0  0  0  0  0
    2.6203    6.5690    3.3064 H   0  0  0  0  0  0  0  0  0  0  0  0
    4.5541    6.3145    4.1599 C   0  0  0  0  0  0  0  0  0  0  0  0
    4.8913    5.2766    4.1595 H   0  0  0  0  0  0  0  0  0  0  0  0
    5.4228    6.9631    4.0241 H   0  0  0  0  0  0  0  0  0  0  0  0
    4.0879    6.5402    5.1191 H   0  0  0  0  0  0  0  0  0  0  0  0
  5  6  2  0  0  0  0
  5  7  1  0  0  0  0
  2  3  1  0  0  0  0
  2  4  1  0  0  0  0
  2  5  1  0  0  0  0
  1  2  1  0  0  0  0
 15 16  2  0  0  0  0
 15 17  1  0  0  0  0
 14 36  1  0  0  0  0
 11 12  1  0  0  0  0
 11 13  1  0  0  0  0
 11 14  1  0  0  0  0
  9 10  1  0  0  0  0
  9 11  1  0  0  0  0
  9 15  1  0  0  0  0
  7  8  1  0  0  0  0
  7  9  1  0  0  0  0
 19 20  1  0  0  0  0
 19 21  1  0  0  0  0
 19 22  1  0  0  0  0
 17 18  1  0  0  0  0
 17 19  1  0  0  0  0
 27 28  2  0  0  0  0
 27 29  1  0  0  0  0
 24 25  1  0  0  0  0
 24 26  1  0  0  0  0
 24 27  1  0  0  0  0
 23 24  1  0  0  0  0
 37 38  2  0  0  0  0
 37 39  1  0  0  0  0
 33 34  1  0  0  0  0
 33 35  1  0  0  0  0
 33 36  1  0  0  0  0
 31 32  1  0  0  0  0
 31 33  1  0  0  0  0
 31 37  1  0  0  0  0
 29 30  1  0  0  0  0
 29 31  1  0  0  0  0
 41 42  1  0  0  0  0
 41 43  1  0  0  0  0
 41 44  1  0  0  0  0
 39 40  1  0  0  0  0
 39 41  1  0  0  0  0
M  END
$$$$
default_name
  -OEChem-01062215323D

 44 43  0     1  0  0  0  0  0999 V2000
    2.4488   -3.0448    2.0990 H   0  0  0  0  0  0  0  0  0  0  0  0
    2.2788   -2.0018    2.3640 C   0  0  0  0  0  0  0  0  0  0  0  0
    2.9228   -1.7258    3.1960 H   0  0  0  0  0  0  0  0  0  0  0  0
    1.2358   -1.8618    2.6430 H   0  0  0  0  0  0  0  0  0  0  0  0
    2.6018   -1.1318    1.1730 C   0  0  0  0  0  0  0  0  0  0  0  0
    3.0048   -1.6348    0.1320 O   0  0  0  0  0  0  0  0  0  0  0  0
    2.4088    0.1752    1.3190 N   0  0  0  0  0  0  0  0  0  0  0  0
    2.0708    0.5242    2.2050 H   0  0  0  0  0  0  0  0  0  0  0  0
    2.6638    1.1782    0.2840 C   0  0  1  0  0  0  0  0  0  0  0  0
    1.7185    1.6694    0.0471 H   0  0  0  0  0  0  0  0  0  0  0  0
    3.6338    2.2440    0.8231 C   0  0  0  0  0  0  0  0  0  0  0  0
    3.9396    2.8892   -0.0014 H   0  0  0  0  0  0  0  0  0  0  0  0
    4.5342    1.7333    1.1636 H   0  0  0  0  0  0  0  0  0  0  0  0
    3.0690    3.2907    2.1973 S   0  0  0  0  0  0  0  0  0  0  0  0
    3.1886    0.5219   -1.0068 C   0  0  0  0  0  0  0  0  0  0  0  0
    2.9598    1.0303   -2.1042 O   0  0  0  0  0  0  0  0  0  0  0  0
    3.8992   -0.6060   -0.8739 N   0  0  0  0  0  0  0  0  0  0  0  0
    4.0513   -0.9659    0.0545 H   0  0  0  0  0  0  0  0  0  0  0  0
    4.4622   -1.3475   -2.0005 C   0  0  0  0  0  0  0  0  0  0  0  0
    3.6560   -1.7020   -2.6462 H   0  0  0  0  0  0  0  0  0  0  0  0
    5.1115   -0.6936   -2.5857 H   0  0  0  0  0  0  0  0  0  0  0  0
    5.0391   -2.2011   -1.6423 H   0  0  0  0  0  0  0  0  0  0  0  0
    2.4551    9.5735   -2.8990 H   0  0  0  0  0  0  0  0  0  0  0  0
    3.1967    9.0119   -2.3328 C   0  0  0  0  0  0  0  0  0  0  0  0
    3.9486    9.6923   -1.9363 H   0  0  0  0  0  0  0  0  0  0  0  0
    3.6693    8.2753   -2.9798 H   0  0  0  0  0  0  0  0  0  0  0  0
    2.5081    8.3050   -1.1889 C   0  0  0  0  0  0  0  0  0  0  0  0
    1.2991    8.4122   -1.0342 O   0  0  0  0  0  0  0  0  0  0  0  0
    3.2818    7.5735   -0.3914 N   0  0  0  0  0  0  0  0  0  0  0  0
    4.2743    7.5390   -0.5732 H   0  0  0  0  0  0  0  0  0  0  0  0
    2.8005    6.8128    0.7618 C   0  0  1  0  0  0  0  0  0  0  0  0
    2.0054    7.3765    1.2531 H   0  0  0  0  0  0  0  0  0  0  0  0
    2.2093    5.4927    0.2475 C   0  0  0  0  0  0  0  0  0  0  0  0
    1.4148    5.7413   -0.4576 H   0  0  0  0  0  0  0  0  0  0  0  0
    2.9772    4.9558   -0.3096 H   0  0  0  0  0  0  0  0  0  0  0  0
    1.4916    4.3654    1.4728 S   0  0  0  0  0  0  0  0  0  0  0  0
    3.9361    6.5996    1.7783 C   0  0  0  0  0  0  0  0  0  0  0  0
    5.1015    6.5139    1.3888 O   0  0  0  0  0  0  0  0  0  0  0  0
    3.5993    6.5232    3.0722 N   0  0  0  0  0  0  0  0  0  0  0  0
    2.6203    6.5690    3.3064 H   0  0  0  0  0  0  0  0  0  0  0  0
    4.5541    6.3145    4.1599 C   0  0  0  0  0  0  0  0  0  0  0  0
    4.8913    5.2766    4.1595 H   0  0  0  0  0  0  0  0  0  0  0  0
    5.4228    6.9631    4.0241 H   0  0  0  0  0  0  0  0  0  0  0  0
    4.0879    6.5402    5.1191 H   0  0  0  0  0  0  0  0  0  0  0  0
  5  6  2  0  0  0  0
  5  7  1  0  0  0  0
  2  3  1  0  0  0  0
  2  4  1  0  0  0  0
  2  5  1  0  0  0  0
  1  2  1  0  0  0  0
 15 16  2  0  0  0  0
 15 17  1  0  0  0  0
 14 36  1  0  0  0  0
 11 12  1  0  0  0  0
 11 13  1  0  0  0  0
 11 14  1  0  0  0  0
  9 10  1  0  0  0  0
  9 11  1  0  0  0  0
  9 15  1  0  0  0  0
  7  8  1  0  0  0  0
  7  9  1  0  0  0  0
 19 20  1  0  0  0  0
 19 21  1  0  0  0  0
 19 22  1  0  0  0  0
 17 18  1  0  0  0  0
 17 19  1  0  0  0  0
 27 28  2  0  0  0  0
 27 29  1  0  0  0  0
 24 25  1  0  0  0  0
 24 26  1  0  0  0  0
 24 27  1  0  0  0  0
 23 24  1  0  0  0  0
 37 38  2  0  0  0  0
 37 39  1  0  0  0  0
 33 34  1  0  0  0  0
 33 35  1  0  0  0  0
 33 36  1  0  0  0  0
 31 32  1  0  0  0  0
 31 33  1  0  0  0  0
 31 37  1  0  0  0  0
 29 30  1  0  0  0  0
 29 31  1  0  0  0  0
 41 42  1  0  0  0  0
 41 43  1  0  0  0  0
 41 44  1  0  0  0  0
 39 40  1  0  0  0  0
 39 41  1  0  0  0  0
M  END
$$$$
default_name
  -OEChem-01062215323D

 44 43  0     1  0  0  0  0  0999 V2000
    2.4488   -3.0448    2.0990 H   0  0  0  0  0  0  0  0  0  0  0  0
    2.2788   -2.0018    2.3640 C   0  0  0  0  0  0  0  0  0  0  0  0
    2.9228   -1.7258    3.1960 H   0  0  0  0  0  0  0  0  0  0  0  0
    1.2358   -1.8618    2.6430 H   0  0  0  0  0  0  0  0  0  0  0  0
    2.6018   -1.1318    1.1730 C   0  0  0  0  0  0  0  0  0  0  0  0
    3.0048   -1.6348    0.1320 O   0  0  0  0  0  0  0  0  0  0  0  0
    2.4088    0.1752    1.3190 N   0  0  0  0  0  0  0  0  0  0  0  0
    2.0708    0.5242    2.2050 H   0  0  0  0  0  0  0  0  0  0  0  0
    2.6638    1.1782    0.2840 C   0  0  1  0  0  0  0  0  0  0  0  0
    1.7185    1.6694    0.0471 H   0  0  0  0  0  0  0  0  0  0  0  0
    3.6338    2.2440    0.8231 C   0  0  0  0  0  0  0  0  0  0  0  0
    3.9396    2.8892   -0.0014 H   0  0  0  0  0  0  0  0  0  0  0  0
    4.5342    1.7333    1.1636 H   0  0  0  0  0  0  0  0  0  0  0  0
    3.0690    3.2907    2.1973 S   0  0  0  0  0  0  0  0  0  0  0  0
    3.1886    0.5219   -1.0068 C   0  0  0  0  0  0  0  0  0  0  0  0
    3.2062    1.1503   -2.0651 O   0  0  0  0  0  0  0  0  0  0  0  0
    3.6228   -0.7423   -0.9170 N   0  0  0  0  0  0  0  0  0  0  0  0
    3.5826   -1.1965   -0.0188 H   0  0  0  0  0  0  0  0  0  0  0  0
    4.1469   -1.5024   -2.0499 C   0  0  0  0  0  0  0  0  0  0  0  0
    3.3674   -1.6191   -2.8058 H   0  0  0  0  0  0  0  0  0  0  0  0
    4.9854   -0.9663   -2.4983 H   0  0  0  0  0  0  0  0  0  0  0  0
    4.4825   -2.4874   -1.7230 H   0  0  0  0  0  0  0  0  0  0  0  0
    2.4551    9.5735   -2.8990 H   0  0  0  0  0  0  0  0  0  0  0  0
    3.1967    9.0119   -2.3328 C   0  0  0  0  0  0  0  0  0  0  0  0
    3.9486    9.6923   -1.9363 H   0  0  0  0  0  0  0  0  0  0  0  0
    3.6693    8.2753   -2.9798 H   0  0  0  0  0  0  0  0  0  0  0  0
    2.5081    8.3050   -1.1889 C   0  0  0  0  0  0  0  0  0  0  0  0
    1.2991    8.4122   -1.0342 O   0  0  0  0  0  0  0  0  0  0  0  0
    3.2818    7.5735   -0.3914 N   0  0  0  0  0  0  0  0  0  0  0  0
    4.2743    7.5390   -0.5732 H   0  0  0  0  0  0  0  0  0  0  0  0
    2.8005    6.8128    0.7618 C   0  0  1  0  0  0  0  0  0  0  0  0
    2.0054    7.3765    1.2531 H   0  0  0  0  0  0  0  0  0  0  0  0
    2.2093    5.4927    0.2475 C   0  0  0  0  0  0  0  0  0  0  0  0
    1.4148    5.7413   -0.4576 H   0  0  0  0  0  0  0  0  0  0  0  0
    2.9772    4.9558   -0.3096 H   0  0  0  0  0  0  0  0  0  0  0  0
    1.4916    4.3654    1.4728 S   0  0  0  0  0  0  0  0  0  0  0  0
    3.9361    6.5996    1.7783 C   0  0  0  0  0  0  0  0  0  0  0  0
    5.1015    6.5139    1.3888 O   0  0  0  0  0  0  0  0  0  0  0  0
    3.5993    6.5232    3.0722 N   0  0  0  0  0  0  0  0  0  0  0  0
    2.6203    6.5690    3.3064 H   0  0  0  0  0  0  0  0  0  0  0  0
    4.5541    6.3145    4.1599 C   0  0  0  0  0  0  0  0  0  0  0  0
    4.8913    5.2766    4.1595 H   0  0  0  0  0  0  0  0  0  0  0  0
    5.4228    6.9631    4.0241 H   0  0  0  0  0  0  0  0  0  0  0  0
    4.0879    6.5402    5.1191 H   0  0  0  0  0  0  0  0  0  0  0  0
  5  6  2  0  0  0  0
  5  7  1  0  0  0  0
  2  3  1  0  0  0  0
  2  4  1  0  0  0  0
  2  5  1  0  0  0  0
  1  2  1  0  0  0  0
 15 16  2  0  0  0  0
 15 17  1  0  0  0  0
 14 36  1  0  0  0  0
 11 12  1  0  0  0  0
 11 13  1  0  0  0  0
 11 14  1  0  0  0  0
  9 10  1  0  0  0  0
  9 11  1  0  0  0  0
  9 15  1  0  0  0  0
  7  8  1  0  0  0  0
  7  9  1  0  0  0  0
 19 20  1  0  0  0  0
 19 21  1  0  0  0  0
 19 22  1  0  0  0  0
 17 18  1  0  0  0  0
 17 19  1  0  0  0  0
 27 28  2  0  0  0  0
 27 29  1  0  0  0  0
 24 25  1  0  0  0  0
 24 26  1  0  0  0  0
 24 27  1  0  0  0  0
 23 24  1  0  0  0  0
 37 38  2  0  0  0  0
 37 39  1  0  0  0  0
 33 34  1  0  0  0  0
 33 35  1  0  0  0  0
 33 36  1  0  0  0  0
 31 32  1  0  0  0  0
 31 33  1  0  0  0  0
 31 37  1  0  0  0  0
 29 30  1  0  0  0  0
 29 31  1  0  0  0  0
 41 42  1  0  0  0  0
 41 43  1  0  0  0  0
 41 44  1  0  0  0  0
 39 40  1  0  0  0  0
 39 41  1  0  0  0  0
M  END
$$$$
default_name
  -OEChem-01062215323D

 44 43  0     1  0  0  0  0  0999 V2000
    2.4488   -3.0448    2.0990 H   0  0  0  0  0  0  0  0  0  0  0  0
    2.2788   -2.0018    2.3640 C   0  0  0  0  0  0  0  0  0  0  0  0
    2.9228   -1.7258    3.1960 H   0  0  0  0  0  0  0  0  0  0  0  0
    1.2358   -1.8618    2.6430 H   0  0  0  0  0  0  0  0  0  0  0  0
    2.6018   -1.1318    1.1730 C   0  0  0  0  0  0  0  0  0  0  0  0
    3.0048   -1.6348    0.1320 O   0  0  0  0  0  0  0  0  0  0  0  0
    2.4088    0.1752    1.3190 N   0  0  0  0  0  0  0  0  0  0  0  0
    2.0708    0.5242    2.2050 H   0  0  0  0  0  0  0  0  0  0  0  0
    2.6638    1.1782    0.2840 C   0  0  1  0  0  0  0  0  0  0  0  0
    1.7185    1.6694    0.0471 H   0  0  0  0  0  0  0  0  0  0  0  0
    3.6338    2.2440    0.8231 C   0  0  0  0  0  0  0  0  0  0  0  0
    3.9396    2.8892   -0.0014 H   0  0  0  0  0  0  0  0  0  0  0  0
    4.5342    1.7333    1.1636 H   0  0  0  0  0  0  0  0  0  0  0  0
    3.0690    3.2907    2.1973 S   0  0  0  0  0  0  0  0  0  0  0  0
    3.1886    0.5219   -1.0068 C   0  0  0  0  0  0  0  0  0  0  0  0
    3.4658    1.2093   -1.9895 O   0  0  0  0  0  0  0  0  0  0  0  0
    3.3310   -0.8103   -1.0011 N   0  0  0  0  0  0  0  0  0  0  0  0
    3.0880   -1.3111   -0.1616 H   0  0  0  0  0  0  0  0  0  0  0  0
    3.8142   -1.5792   -2.1461 C   0  0  0  0  0  0  0  0  0  0  0  0
    3.1241   -1.4623   -2.9844 H   0  0  0  0  0  0  0  0  0  0  0  0
    4.7949   -1.2101   -2.4518 H   0  0  0  0  0  0  0  0  0  0  0  0
    3.8916   -2.6361   -1.8876 H   0  0  0  0  0  0  0  0  0  0  0  0
    2.4551    9.5735   -2.8990 H   0  0  0  0  0  0  0  0  0  0  0  0
    3.1967    9.0119   -2.3328 C   0  0  0  0  0  0  0  0  0  0  0  0
    3.9486    9.6923   -1.9363 H   0  0  0  0  0  0  0  0  0  0  0  0
    3.6693    8.2753   -2.9798 H   0  0  0  0  0  0  0  0  0  0  0  0
    2.5081    8.3050   -1.1889 C   0  0  0  0  0  0  0  0  0  0  0  0
    1.2991    8.4122   -1.0342 O   0  0  0  0  0  0  0  0  0  0  0  0
    3.2818    7.5735   -0.3914 N   0  0  0  0  0  0  0  0  0  0  0  0
    4.2743    7.5390   -0.5732 H   0  0  0  0  0  0  0  0  0  0  0  0
    2.8005    6.8128    0.7618 C   0  0  1  0  0  0  0  0  0  0  0  0
    2.0054    7.3765    1.2531 H   0  0  0  0  0  0  0  0  0  0  0  0
    2.2093    5.4927    0.2475 C   0  0  0  0  0  0  0  0  0  0  0  0
    1.4148    5.7413   -0.4576 H   0  0  0  0  0  0  0  0  0  0  0  0
    2.9772    4.9558   -0.3096 H   0  0  0  0  0  0  0  0  0  0  0  0
    1.4916    4.3654    1.4728 S   0  0  0  0  0  0  0  0  0  0  0  0
    3.9361    6.5996    1.7783 C   0  0  0  0  0  0  0  0  0  0  0  0
    5.1015    6.5139    1.3888 O   0  0  0  0  0  0  0  0  0  0  0  0
    3.5993    6.5232    3.0722 N   0  0  0  0  0  0  0  0  0  0  0  0
    2.6203    6.5690    3.3064 H   0  0  0  0  0  0  0  0  0  0  0  0
    4.5541    6.3145    4.1599 C   0  0  0  0  0  0  0  0  0  0  0  0
    4.8913    5.2766    4.1595 H   0  0  0  0  0  0  0  0  0  0  0  0
    5.4228    6.9631    4.0241 H   0  0  0  0  0  0  0  0  0  0  0  0
    4.0879    6.5402    5.1191 H   0  0  0  0  0  0  0  0  0  0  0  0
  5  6  2  0  0  0  0
  5  7  1  0  0  0  0
  2  3  1  0  0  0  0
  2  4  1  0  0  0  0
  2  5  1  0  0  0  0
  1  2  1  0  0  0  0
 15 16  2  0  0  0  0
 15 17  1  0  0  0  0
 14 36  1  0  0  0  0
 11 12  1  0  0  0  0
 11 13  1  0  0  0  0
 11 14  1  0  0  0  0
  9 10  1  0  0  0  0
  9 11  1  0  0  0  0
  9 15  1  0  0  0  0
  7  8  1  0  0  0  0
  7  9  1  0  0  0  0
 19 20  1  0  0  0  0
 19 21  1  0  0  0  0
 19 22  1  0  0  0  0
 17 18  1  0  0  0  0
 17 19  1  0  0  0  0
 27 28  2  0  0  0  0
 27 29  1  0  0  0  0
 24 25  1  0  0  0  0
 24 26  1  0  0  0  0
 24 27  1  0  0  0  0
 23 24  1  0  0  0  0
 37 38  2  0  0  0  0
 37 39  1  0  0  0  0
 33 34  1  0  0  0  0
 33 35  1  0  0  0  0
 33 36  1  0  0  0  0
 31 32  1  0  0  0  0
 31 33  1  0  0  0  0
 31 37  1  0  0  0  0
 29 30  1  0  0  0  0
 29 31  1  0  0  0  0
 41 42  1  0  0  0  0
 41 43  1  0  0  0  0
 41 44  1  0  0  0  0
 39 40  1  0  0  0  0
 39 41  1  0  0  0  0
M  END
$$$$
default_name
  -OEChem-01062215323D

 44 43  0     1  0  0  0  0  0999 V2000
    2.4488   -3.0448    2.0990 H   0  0  0  0  0  0  0  0  0  0  0  0
    2.2788   -2.0018    2.3640 C   0  0  0  0  0  0  0  0  0  0  0  0
    2.9228   -1.7258    3.1960 H   0  0  0  0  0  0  0  0  0  0  0  0
    1.2358   -1.8618    2.6430 H   0  0  0  0  0  0  0  0  0  0  0  0
    2.6018   -1.1318    1.1730 C   0  0  0  0  0  0  0  0  0  0  0  0
    3.0048   -1.6348    0.1320 O   0  0  0  0  0  0  0  0  0  0  0  0
    2.4088    0.1752    1.3190 N   0  0  0  0  0  0  0  0  0  0  0  0
    2.0708    0.5242    2.2050 H   0  0  0  0  0  0  0  0  0  0  0  0
    2.6638    1.1782    0.2840 C   0  0  1  0  0  0  0  0  0  0  0  0
    1.7185    1.6694    0.0471 H   0  0  0  0  0  0  0  0  0  0  0  0
    3.6338    2.2440    0.8231 C   0  0  0  0  0  0  0  0  0  0  0  0
    3.9396    2.8892   -0.0014 H   0  0  0  0  0  0  0  0  0  0  0  0
    4.5342    1.7333    1.1636 H   0  0  0  0  0  0  0  0  0  0  0  0
    3.0690    3.2907    2.1973 S   0  0  0  0  0  0  0  0  0  0  0  0
    3.1886    0.5219   -1.0068 C   0  0  0  0  0  0  0  0  0  0  0  0
    3.7211    1.2033   -1.8827 O   0  0  0  0  0  0  0  0  0  0  0  0
    3.0437   -0.8051   -1.1205 N   0  0  0  0  0  0  0  0  0  0  0  0
    2.6010   -1.3019   -0.3643 H   0  0  0  0  0  0  0  0  0  0  0  0
    3.4867   -1.5728   -2.2825 C   0  0  0  0  0  0  0  0  0  0  0  0
    2.9428   -1.2423   -3.1699 H   0  0  0  0  0  0  0  0  0  0  0  0
    4.5528   -1.4083   -2.4494 H   0  0  0  0  0  0  0  0  0  0  0  0
    3.3068   -2.6370   -2.1249 H   0  0  0  0  0  0  0  0  0  0  0  0
    2.4551    9.5735   -2.8990 H   0  0  0  0  0  0  0  0  0  0  0  0
    3.1967    9.0119   -2.3328 C   0  0  0  0  0  0  0  0  0  0  0  0
    3.9486    9.6923   -1.9363 H   0  0  0  0  0  0  0  0  0  0  0  0
    3.6693    8.2753   -2.9798 H   0  0  0  0  0  0  0  0  0  0  0  0
    2.5081    8.3050   -1.1889 C   0  0  0  0  0  0  0  0  0  0  0  0
    1.2991    8.4122   -1.0342 O   0  0  0  0  0  0  0  0  0  0  0  0
    3.2818    7.5735   -0.3914 N   0  0  0  0  0  0  0  0  0  0  0  0
    4.2743    7.5390   -0.5732 H   0  0  0  0  0  0  0  0  0  0  0  0
    2.8005    6.8128    0.7618 C   0  0  1  0  0  0  0  0  0  0  0  0
    2.0054    7.3765    1.2531 H   0  0  0  0  0  0  0  0  0  0  0  0
    2.2093    5.4927    0.2475 C   0  0  0  0  0  0  0  0  0  0  0  0
    1.4148    5.7413   -0.4576 H   0  0  0  0  0  0  0  0  0  0  0  0
    2.9772    4.9558   -0.3096 H   0  0  0  0  0  0  0  0  0  0  0  0
    1.4916    4.3654    1.4728 S   0  0  0  0  0  0  0  0  0  0  0  0
    3.9361    6.5996    1.7783 C   0  0  0  0  0  0  0  0  0  0  0  0
    5.1015    6.5139    1.3888 O   0  0  0  0  0  0  0  0  0  0  0  0
    3.5993    6.5232    3.0722 N   0  0  0  0  0  0  0  0  0  0  0  0
    2.6203    6.5690    3.3064 H   0  0  0  0  0  0  0  0  0  0  0  0
    4.5541    6.3145    4.1599 C   0  0  0  0  0  0  0  0  0  0  0  0
    4.8913    5.2766    4.1595 H   0  0  0  0  0  0  0  0  0  0  0  0
    5.4228    6.9631    4.0241 H   0  0  0  0  0  0  0  0  0  0  0  0
    4.0879    6.5402    5.1191 H   0  0  0  0  0  0  0  0  0  0  0  0
  5  6  2  0  0  0  0
  5  7  1  0  0  0  0
  2  3  1  0  0  0  0
  2  4  1  0  0  0  0
  2  5  1  0  0  0  0
  1  2  1  0  0  0  0
 15 16  2  0  0  0  0
 15 17  1  0  0  0  0
 14 36  1  0  0  0  0
 11 12  1  0  0  0  0
 11 13  1  0  0  0  0
 11 14  1  0  0  0  0
  9 10  1  0  0  0  0
  9 11  1  0  0  0  0
  9 15  1  0  0  0  0
  7  8  1  0  0  0  0
  7  9  1  0  0  0  0
 19 20  1  0  0  0  0
 19 21  1  0  0  0  0
 19 22  1  0  0  0  0
 17 18  1  0  0  0  0
 17 19  1  0  0  0  0
 27 28  2  0  0  0  0
 27 29  1  0  0  0  0
 24 25  1  0  0  0  0
 24 26  1  0  0  0  0
 24 27  1  0  0  0  0
 23 24  1  0  0  0  0
 37 38  2  0  0  0  0
 37 39  1  0  0  0  0
 33 34  1  0  0  0  0
 33 35  1  0  0  0  0
 33 36  1  0  0  0  0
 31 32  1  0  0  0  0
 31 33  1  0  0  0  0
 31 37  1  0  0  0  0
 29 30  1  0  0  0  0
 29 31  1  0  0  0  0
 41 42  1  0  0  0  0
 41 43  1  0  0  0  0
 41 44  1  0  0  0  0
 39 40  1  0  0  0  0
 39 41  1  0  0  0  0
M  END
$$$$
default_name
  -OEChem-01062215323D

 44 43  0     1  0  0  0  0  0999 V2000
    2.4488   -3.0448    2.0990 H   0  0  0  0  0  0  0  0  0  0  0  0
    2.2788   -2.0018    2.3640 C   0  0  0  0  0  0  0  0  0  0  0  0
    2.9228   -1.7258    3.1960 H   0  0  0  0  0  0  0  0  0  0  0  0
    1.2358   -1.8618    2.6430 H   0  0  0  0  0  0  0  0  0  0  0  0
    2.6018   -1.1318    1.1730 C   0  0  0  0  0  0  0  0  0  0  0  0
    3.0048   -1.6348    0.1320 O   0  0  0  0  0  0  0  0  0  0  0  0
    2.4088    0.1752    1.3190 N   0  0  0  0  0  0  0  0  0  0  0  0
    2.0708    0.5242    2.2050 H   0  0  0  0  0  0  0  0  0  0  0  0
    2.6638    1.1782    0.2840 C   0  0  1  0  0  0  0  0  0  0  0  0
    1.7185    1.6694    0.0471 H   0  0  0  0  0  0  0  0  0  0  0  0
    3.6338    2.2440    0.8231 C   0  0  0  0  0  0  0  0  0  0  0  0
    3.9396    2.8892   -0.0014 H   0  0  0  0  0  0  0  0  0  0  0  0
    4.5342    1.7333    1.1636 H   0  0  0  0  0  0  0  0  0  0  0  0
    3.0690    3.2907    2.1973 S   0  0  0  0  0  0  0  0  0  0  0  0
    3.1886    0.5219   -1.0068 C   0  0  0  0  0  0  0  0  0  0  0  0
    3.9546    1.1327   -1.7519 O   0  0  0  0  0  0  0  0  0  0  0  0
    2.7804   -0.7273   -1.2671 N   0  0  0  0  0  0  0  0  0  0  0  0
    2.1550   -1.1696   -0.6129 H   0  0  0  0  0  0  0  0  0  0  0  0
    3.1869   -1.4836   -2.4498 C   0  0  0  0  0  0  0  0  0  0  0  0
    2.8359   -0.9742   -3.3497 H   0  0  0  0  0  0  0  0  0  0  0  0
    4.2757   -1.5475   -2.4913 H   0  0  0  0  0  0  0  0  0  0  0  0
    2.7679   -2.4902   -2.4187 H   0  0  0  0  0  0  0  0  0  0  0  0
    2.4551    9.5735   -2.8990 H   0  0  0  0  0  0  0  0  0  0  0  0
    3.1967    9.0119   -2.3328 C   0  0  0  0  0  0  0  0  0  0  0  0
    3.9486    9.6923   -1.9363 H   0  0  0  0  0  0  0  0  0  0  0  0
    3.6693    8.2753   -2.9798 H   0  0  0  0  0  0  0  0  0  0  0  0
    2.5081    8.3050   -1.1889 C   0  0  0  0  0  0  0  0  0  0  0  0
    1.2991    8.4122   -1.0342 O   0  0  0  0  0  0  0  0  0  0  0  0
    3.2818    7.5735   -0.3914 N   0  0  0  0  0  0  0  0  0  0  0  0
    4.2743    7.5390   -0.5732 H   0  0  0  0  0  0  0  0  0  0  0  0
    2.8005    6.8128    0.7618 C   0  0  1  0  0  0  0  0  0  0  0  0
    2.0054    7.3765    1.2531 H   0  0  0  0  0  0  0  0  0  0  0  0
    2.2093    5.4927    0.2475 C   0  0  0  0  0  0  0  0  0  0  0  0
    1.4148    5.7413   -0.4576 H   0  0  0  0  0  0  0  0  0  0  0  0
    2.9772    4.9558   -0.3096 H   0  0  0  0  0  0  0  0  0  0  0  0
    1.4916    4.3654    1.4728 S   0  0  0  0  0  0  0  0  0  0  0  0
    3.9361    6.5996    1.7783 C   0  0  0  0  0  0  0  0  0  0  0  0
    5.1015    6.5139    1.3888 O   0  0  0  0  0  0  0  0  0  0  0  0
    3.5993    6.5232    3.0722 N   0  0  0  0  0  0  0  0  0  0  0  0
    2.6203    6.5690    3.3064 H   0  0  0  0  0  0  0  0  0  0  0  0
    4.5541    6.3145    4.1599 C   0  0  0  0  0  0  0  0  0  0  0  0
    4.8913    5.2766    4.1595 H   0  0  0  0  0  0  0  0  0  0  0  0
    5.4228    6.9631    4.0241 H   0  0  0  0  0  0  0  0  0  0  0  0
    4.0879    6.5402    5.1191 H   0  0  0  0  0  0  0  0  0  0  0  0
  5  6  2  0  0  0  0
  5  7  1  0  0  0  0
  2  3  1  0  0  0  0
  2  4  1  0  0  0  0
  2  5  1  0  0  0  0
  1  2  1  0  0  0  0
 15 16  2  0  0  0  0
 15 17  1  0  0  0  0
 14 36  1  0  0  0  0
 11 12  1  0  0  0  0
 11 13  1  0  0  0  0
 11 14  1  0  0  0  0
  9 10  1  0  0  0  0
  9 11  1  0  0  0  0
  9 15  1  0  0  0  0
  7  8  1  0  0  0  0
  7  9  1  0  0  0  0
 19 20  1  0  0  0  0
 19 21  1  0  0  0  0
 19 22  1  0  0  0  0
 17 18  1  0  0  0  0
 17 19  1  0  0  0  0
 27 28  2  0  0  0  0
 27 29  1  0  0  0  0
 24 25  1  0  0  0  0
 24 26  1  0  0  0  0
 24 27  1  0  0  0  0
 23 24  1  0  0  0  0
 37 38  2  0  0  0  0
 37 39  1  0  0  0  0
 33 34  1  0  0  0  0
 33 35  1  0  0  0  0
 33 36  1  0  0  0  0
 31 32  1  0  0  0  0
 31 33  1  0  0  0  0
 31 37  1  0  0  0  0
 29 30  1  0  0  0  0
 29 31  1  0  0  0  0
 41 42  1  0  0  0  0
 41 43  1  0  0  0  0
 41 44  1  0  0  0  0
 39 40  1  0  0  0  0
 39 41  1  0  0  0  0
M  END
$$$$
default_name
  -OEChem-01062215323D

 44 43  0     1  0  0  0  0  0999 V2000
    2.4488   -3.0448    2.0990 H   0  0  0  0  0  0  0  0  0  0  0  0
    2.2788   -2.0018    2.3640 C   0  0  0  0  0  0  0  0  0  0  0  0
    2.9228   -1.7258    3.1960 H   0  0  0  0  0  0  0  0  0  0  0  0
    1.2358   -1.8618    2.6430 H   0  0  0  0  0  0  0  0  0  0  0  0
    2.6018   -1.1318    1.1730 C   0  0  0  0  0  0  0  0  0  0  0  0
    3.0048   -1.6348    0.1320 O   0  0  0  0  0  0  0  0  0  0  0  0
    2.4088    0.1752    1.3190 N   0  0  0  0  0  0  0  0  0  0  0  0
    2.0708    0.5242    2.2050 H   0  0  0  0  0  0  0  0  0  0  0  0
    2.6638    1.1782    0.2840 C   0  0  1  0  0  0  0  0  0  0  0  0
    1.7185    1.6694    0.0471 H   0  0  0  0  0  0  0  0  0  0  0  0
    3.6338    2.2440    0.8231 C   0  0  0  0  0  0  0  0  0  0  0  0
    3.9396    2.8892   -0.0014 H   0  0  0  0  0  0  0  0  0  0  0  0
    4.5342    1.7333    1.1636 H   0  0  0  0  0  0  0  0  0  0  0  0
    3.0690    3.2907    2.1973 S   0  0  0  0  0  0  0  0  0  0  0  0
    3.1886    0.5219   -1.0068 C   0  0  0  0  0  0  0  0  0  0  0  0
    4.1505    1.0024   -1.6060 O   0  0  0  0  0  0  0  0  0  0  0  0
    2.5592   -0.5822   -1.4309 N   0  0  0  0  0  0  0  0  0  0  0  0
    1.7804   -0.9231   -0.8905 H   0  0  0  0  0  0  0  0  0  0  0  0
    2.9350   -1.3176   -2.6366 C   0  0  0  0  0  0  0  0  0  0  0  0
    2.8106   -0.6761   -3.5116 H   0  0  0  0  0  0  0  0  0  0  0  0
    3.9825   -1.6181   -2.5746 H   0  0  0  0  0  0  0  0  0  0  0  0
    2.3116   -2.2056   -2.7489 H   0  0  0  0  0  0  0  0  0  0  0  0
    2.4551    9.5735   -2.8990 H   0  0  0  0  0  0  0  0  0  0  0  0
    3.1967    9.0119   -2.3328 C   0  0  0  0  0  0  0  0  0  0  0  0
    3.9486    9.6923   -1.9363 H   0  0  0  0  0  0  0  0  0  0  0  0
    3.6693    8.2753   -2.9798 H   0  0  0  0  0  0  0  0  0  0  0  0
    2.5081    8.3050   -1.1889 C   0  0  0  0  0  0  0  0  0  0  0  0
    1.2991    8.4122   -1.0342 O   0  0  0  0  0  0  0  0  0  0  0  0
    3.2818    7.5735   -0.3914 N   0  0  0  0  0  0  0  0  0  0  0  0
    4.2743    7.5390   -0.5732 H   0  0  0  0  0  0  0  0  0  0  0  0
    2.8005    6.8128    0.7618 C   0  0  1  0  0  0  0  0  0  0  0  0
    2.0054    7.3765    1.2531 H   0  0  0  0  0  0  0  0  0  0  0  0
    2.2093    5.4927    0.2475 C   0  0  0  0  0  0  0  0  0  0  0  0
    1.4148    5.7413   -0.4576 H   0  0  0  0  0  0  0  0  0  0  0  0
    2.9772    4.9558   -0.3096 H   0  0  0  0  0  0  0  0  0  0  0  0
    1.4916    4.3654    1.4728 S   0  0  0  0  0  0  0  0  0  0  0  0
    3.9361    6.5996    1.7783 C   0  0  0  0  0  0  0  0  0  0  0  0
    5.1015    6.5139    1.3888 O   0  0  0  0  0  0  0  0  0  0  0  0
    3.5993    6.5232    3.0722 N   0  0  0  0  0  0  0  0  0  0  0  0
    2.6203    6.5690    3.3064 H   0  0  0  0  0  0  0  0  0  0  0  0
    4.5541    6.3145    4.1599 C   0  0  0  0  0  0  0  0  0  0  0  0
    4.8913    5.2766    4.1595 H   0  0  0  0  0  0  0  0  0  0  0  0
    5.4228    6.9631    4.0241 H   0  0  0  0  0  0  0  0  0  0  0  0
    4.0879    6.5402    5.1191 H   0  0  0  0  0  0  0  0  0  0  0  0
  5  6  2  0  0  0  0
  5  7  1  0  0  0  0
  2  3  1  0  0  0  0
  2  4  1  0  0  0  0
  2  5  1  0  0  0  0
  1  2  1  0  0  0  0
 15 16  2  0  0  0  0
 15 17  1  0  0  0  0
 14 36  1  0  0  0  0
 11 12  1  0  0  0  0
 11 13  1  0  0  0  0
 11 14  1  0  0  0  0
  9 10  1  0  0  0  0
  9 11  1  0  0  0  0
  9 15  1  0  0  0  0
  7  8  1  0  0  0  0
  7  9  1  0  0  0  0
 19 20  1  0  0  0  0
 19 21  1  0  0  0  0
 19 22  1  0  0  0  0
 17 18  1  0  0  0  0
 17 19  1  0  0  0  0
 27 28  2  0  0  0  0
 27 29  1  0  0  0  0
 24 25  1  0  0  0  0
 24 26  1  0  0  0  0
 24 27  1  0  0  0  0
 23 24  1  0  0  0  0
 37 38  2  0  0  0  0
 37 39  1  0  0  0  0
 33 34  1  0  0  0  0
 33 35  1  0  0  0  0
 33 36  1  0  0  0  0
 31 32  1  0  0  0  0
 31 33  1  0  0  0  0
 31 37  1  0  0  0  0
 29 30  1  0  0  0  0
 29 31  1  0  0  0  0
 41 42  1  0  0  0  0
 41 43  1  0  0  0  0
 41 44  1  0  0  0  0
 39 40  1  0  0  0  0
 39 41  1  0  0  0  0
M  END
$$$$
default_name
  -OEChem-01062215323D

 44 43  0     1  0  0  0  0  0999 V2000
    2.4488   -3.0448    2.0990 H   0  0  0  0  0  0  0  0  0  0  0  0
    2.2788   -2.0018    2.3640 C   0  0  0  0  0  0  0  0  0  0  0  0
    2.9228   -1.7258    3.1960 H   0  0  0  0  0  0  0  0  0  0  0  0
    1.2358   -1.8618    2.6430 H   0  0  0  0  0  0  0  0  0  0  0  0
    2.6018   -1.1318    1.1730 C   0  0  0  0  0  0  0  0  0  0  0  0
    3.0048   -1.6348    0.1320 O   0  0  0  0  0  0  0  0  0  0  0  0
    2.4088    0.1752    1.3190 N   0  0  0  0  0  0  0  0  0  0  0  0
    2.0708    0.5242    2.2050 H   0  0  0  0  0  0  0  0  0  0  0  0
    2.6638    1.1782    0.2840 C   0  0  1  0  0  0  0  0  0  0  0  0
    1.7185    1.6694    0.0471 H   0  0  0  0  0  0  0  0  0  0  0  0
    3.6338    2.2440    0.8231 C   0  0  0  0  0  0  0  0  0  0  0  0
    3.9396    2.8892   -0.0014 H   0  0  0  0  0  0  0  0  0  0  0  0
    4.5342    1.7333    1.1636 H   0  0  0  0  0  0  0  0  0  0  0  0
    3.0690    3.2907    2.1973 S   0  0  0  0  0  0  0  0  0  0  0  0
    3.1886    0.5219   -1.0068 C   0  0  0  0  0  0  0  0  0  0  0  0
    4.2953    0.8211   -1.4550 O   0  0  0  0  0  0  0  0  0  0  0  0
    2.3950   -0.3795   -1.6007 N   0  0  0  0  0  0  0  0  0  0  0  0
    1.5026   -0.5792   -1.1783 H   0  0  0  0  0  0  0  0  0  0  0  0
    2.7484   -1.0862   -2.8301 C   0  0  0  0  0  0  0  0  0  0  0  0
    2.8687   -0.3685   -3.6444 H   0  0  0  0  0  0  0  0  0  0  0  0
    3.6932   -1.6154   -2.6936 H   0  0  0  0  0  0  0  0  0  0  0  0
    1.9690   -1.8025   -3.0931 H   0  0  0  0  0  0  0  0  0  0  0  0
    2.4551    9.5735   -2.8990 H   0  0  0  0  0  0  0  0  0  0  0  0
    3.1967    9.0119   -2.3328 C   0  0  0  0  0  0  0  0  0  0  0  0
    3.9486    9.6923   -1.9363 H   0  0  0  0  0  0  0  0  0  0  0  0
    3.6693    8.2753   -2.9798 H   0  0  0  0  0  0  0  0  0  0  0  0
    2.5081    8.3050   -1.1889 C   0  0  0  0  0  0  0  0  0  0  0  0
    1.2991    8.4122   -1.0342 O   0  0  0  0  0  0  0  0  0  0  0  0
    3.2818    7.5735   -0.3914 N   0  0  0  0  0  0  0  0  0  0  0  0
    4.2743    7.5390   -0.5732 H   0  0  0  0  0  0  0  0  0  0  0  0
    2.8005    6.8128    0.7618 C   0  0  1  0  0  0  0  0  0  0  0  0
    2.0054    7.3765    1.2531 H   0  0  0  0  0  0  0  0  0  0  0  0
    2.2093    5.4927    0.2475 C   0  0  0  0  0  0  0  0  0  0  0  0
    1.4148    5.7413   -0.4576 H   0  0  0  0  0  0  0  0  0  0  0  0
    2.9772    4.9558   -0.3096 H   0  0  0  0  0  0  0  0  0  0  0  0
    1.4916    4.3654    1.4728 S   0  0  0  0  0  0  0  0  0  0  0  0
    3.9361    6.5996    1.7783 C   0  0  0  0  0  0  0  0  0  0  0  0
    5.1015    6.5139    1.3888 O   0  0  0  0  0  0  0  0  0  0  0  0
    3.5993    6.5232    3.0722 N   0  0  0  0  0  0  0  0  0  0  0  0
    2.6203    6.5690    3.3064 H   0  0  0  0  0  0  0  0  0  0  0  0
    4.5541    6.3145    4.1599 C   0  0  0  0  0  0  0  0  0  0  0  0
    4.8913    5.2766    4.1595 H   0  0  0  0  0  0  0  0  0  0  0  0
    5.4228    6.9631    4.0241 H   0  0  0  0  0  0  0  0  0  0  0  0
    4.0879    6.5402    5.1191 H   0  0  0  0  0  0  0  0  0  0  0  0
  5  6  2  0  0  0  0
  5  7  1  0  0  0  0
  2  3  1  0  0  0  0
  2  4  1  0  0  0  0
  2  5  1  0  0  0  0
  1  2  1  0  0  0  0
 15 16  2  0  0  0  0
 15 17  1  0  0  0  0
 14 36  1  0  0  0  0
 11 12  1  0  0  0  0
 11 13  1  0  0  0  0
 11 14  1  0  0  0  0
  9 10  1  0  0  0  0
  9 11  1  0  0  0  0
  9 15  1  0  0  0  0
  7  8  1  0  0  0  0
  7  9  1  0  0  0  0
 19 20  1  0  0  0  0
 19 21  1  0  0  0  0
 19 22  1  0  0  0  0
 17 18  1  0  0  0  0
 17 19  1  0  0  0  0
 27 28  2  0  0  0  0
 27 29  1  0  0  0  0
 24 25  1  0  0  0  0
 24 26  1  0  0  0  0
 24 27  1  0  0  0  0
 23 24  1  0  0  0  0
 37 38  2  0  0  0  0
 37 39  1  0  0  0  0
 33 34  1  0  0  0  0
 33 35  1  0  0  0  0
 33 36  1  0  0  0  0
 31 32  1  0  0  0  0
 31 33  1  0  0  0  0
 31 37  1  0  0  0  0
 29 30  1  0  0  0  0
 29 31  1  0  0  0  0
 41 42  1  0  0  0  0
 41 43  1  0  0  0  0
 41 44  1  0  0  0  0
 39 40  1  0  0  0  0
 39 41  1  0  0  0  0
M  END
$$$$
default_name
  -OEChem-01062215323D

 44 43  0     1  0  0  0  0  0999 V2000
    2.4488   -3.0448    2.0990 H   0  0  0  0  0  0  0  0  0  0  0  0
    2.2788   -2.0018    2.3640 C   0  0  0  0  0  0  0  0  0  0  0  0
    2.9228   -1.7258    3.1960 H   0  0  0  0  0  0  0  0  0  0  0  0
    1.2358   -1.8618    2.6430 H   0  0  0  0  0  0  0  0  0  0  0  0
    2.6018   -1.1318    1.1730 C   0  0  0  0  0  0  0  0  0  0  0  0
    3.0048   -1.6348    0.1320 O   0  0  0  0  0  0  0  0  0  0  0  0
    2.4088    0.1752    1.3190 N   0  0  0  0  0  0  0  0  0  0  0  0
    2.0708    0.5242    2.2050 H   0  0  0  0  0  0  0  0  0  0  0  0
    2.6638    1.1782    0.2840 C   0  0  1  0  0  0  0  0  0  0  0  0
    1.7185    1.6694    0.0471 H   0  0  0  0  0  0  0  0  0  0  0  0
    3.6338    2.2440    0.8231 C   0  0  0  0  0  0  0  0  0  0  0  0
    3.9396    2.8892   -0.0014 H   0  0  0  0  0  0  0  0  0  0  0  0
    4.5342    1.7333    1.1636 H   0  0  0  0  0  0  0  0  0  0  0  0
    3.0690    3.2907    2.1973 S   0  0  0  0  0  0  0  0  0  0  0  0
    3.1886    0.5219   -1.0068 C   0  0  0  0  0  0  0  0  0  0  0  0
    4.3791    0.6013   -1.3091 O   0  0  0  0  0  0  0  0  0  0  0  0
    2.2991   -0.1332   -1.7649 N   0  0  0  0  0  0  0  0  0  0  0  0
    1.3406   -0.1614   -1.4566 H   0  0  0  0  0  0  0  0  0  0  0  0
    2.6396   -0.8051   -3.0173 C   0  0  0  0  0  0  0  0  0  0  0  0
    3.0062   -0.0722   -3.7392 H   0  0  0  0  0  0  0  0  0  0  0  0
    3.4274   -1.5396   -2.8402 H   0  0  0  0  0  0  0  0  0  0  0  0
    1.7635   -1.3085   -3.4279 H   0  0  0  0  0  0  0  0  0  0  0  0
    2.4551    9.5735   -2.8990 H   0  0  0  0  0  0  0  0  0  0  0  0
    3.1967    9.0119   -2.3328 C   0  0  0  0  0  0  0  0  0  0  0  0
    3.9486    9.6923   -1.9363 H   0  0  0  0  0  0  0  0  0  0  0  0
    3.6693    8.2753   -2.9798 H   0  0  0  0  0  0  0  0  0  0  0  0
    2.5081    8.3050   -1.1889 C   0  0  0  0  0  0  0  0  0  0  0  0
    1.2991    8.4122   -1.0342 O   0  0  0  0  0  0  0  0  0  0  0  0
    3.2818    7.5735   -0.3914 N   0  0  0  0  0  0  0  0  0  0  0  0
    4.2743    7.5390   -0.5732 H   0  0  0  0  0  0  0  0  0  0  0  0
    2.8005    6.8128    0.7618 C   0  0  1  0  0  0  0  0  0  0  0  0
    2.0054    7.3765    1.2531 H   0  0  0  0  0  0  0  0  0  0  0  0
    2.2093    5.4927    0.2475 C   0  0  0  0  0  0  0  0  0  0  0  0
    1.4148    5.7413   -0.4576 H   0  0  0  0  0  0  0  0  0  0  0  0
    2.9772    4.9558   -0.3096 H   0  0  0  0  0  0  0  0  0  0  0  0
    1.4916    4.3654    1.4728 S   0  0  0  0  0  0  0  0  0  0  0  0
    3.9361    6.5996    1.7783 C   0  0  0  0  0  0  0  0  0  0  0  0
    5.1015    6.5139    1.3888 O   0  0  0  0  0  0  0  0  0  0  0  0
    3.5993    6.5232    3.0722 N   0  0  0  0  0  0  0  0  0  0  0  0
    2.6203    6.5690    3.3064 H   0  0  0  0  0  0  0  0  0  0  0  0
    4.5541    6.3145    4.1599 C   0  0  0  0  0  0  0  0  0  0  0  0
    4.8913    5.2766    4.1595 H   0  0  0  0  0  0  0  0  0  0  0  0
    5.4228    6.9631    4.0241 H   0  0  0  0  0  0  0  0  0  0  0  0
    4.0879    6.5402    5.1191 H   0  0  0  0  0  0  0  0  0  0  0  0
  5  6  2  0  0  0  0
  5  7  1  0  0  0  0
  2  3  1  0  0  0  0
  2  4  1  0  0  0  0
  2  5  1  0  0  0  0
  1  2  1  0  0  0  0
 15 16  2  0  0  0  0
 15 17  1  0  0  0  0
 14 36  1  0  0  0  0
 11 12  1  0  0  0  0
 11 13  1  0  0  0  0
 11 14  1  0  0  0  0
  9 10  1  0  0  0  0
  9 11  1  0  0  0  0
  9 15  1  0  0  0  0
  7  8  1  0  0  0  0
  7  9  1  0  0  0  0
 19 20  1  0  0  0  0
 19 21  1  0  0  0  0
 19 22  1  0  0  0  0
 17 18  1  0  0  0  0
 17 19  1  0  0  0  0
 27 28  2  0  0  0  0
 27 29  1  0  0  0  0
 24 25  1  0  0  0  0
 24 26  1  0  0  0  0
 24 27  1  0  0  0  0
 23 24  1  0  0  0  0
 37 38  2  0  0  0  0
 37 39  1  0  0  0  0
 33 34  1  0  0  0  0
 33 35  1  0  0  0  0
 33 36  1  0  0  0  0
 31 32  1  0  0  0  0
 31 33  1  0  0  0  0
 31 37  1  0  0  0  0
 29 30  1  0  0  0  0
 29 31  1  0  0  0  0
 41 42  1  0  0  0  0
 41 43  1  0  0  0  0
 41 44  1  0  0  0  0
 39 40  1  0  0  0  0
 39 41  1  0  0  0  0
M  END
$$$$
default_name
  -OEChem-01062215323D

 44 43  0     1  0  0  0  0  0999 V2000
    2.4488   -3.0448    2.0990 H   0  0  0  0  0  0  0  0  0  0  0  0
    2.2788   -2.0018    2.3640 C   0  0  0  0  0  0  0  0  0  0  0  0
    2.9228   -1.7258    3.1960 H   0  0  0  0  0  0  0  0  0  0  0  0
    1.2358   -1.8618    2.6430 H   0  0  0  0  0  0  0  0  0  0  0  0
    2.6018   -1.1318    1.1730 C   0  0  0  0  0  0  0  0  0  0  0  0
    3.0048   -1.6348    0.1320 O   0  0  0  0  0  0  0  0  0  0  0  0
    2.4088    0.1752    1.3190 N   0  0  0  0  0  0  0  0  0  0  0  0
    2.0708    0.5242    2.2050 H   0  0  0  0  0  0  0  0  0  0  0  0
    2.6638    1.1782    0.2840 C   0  0  1  0  0  0  0  0  0  0  0  0
    1.7185    1.6694    0.0471 H   0  0  0  0  0  0  0  0  0  0  0  0
    3.6338    2.2440    0.8231 C   0  0  0  0  0  0  0  0  0  0  0  0
    3.9396    2.8892   -0.0014 H   0  0  0  0  0  0  0  0  0  0  0  0
    4.5342    1.7333    1.1636 H   0  0  0  0  0  0  0  0  0  0  0  0
    3.0690    3.2907    2.1973 S   0  0  0  0  0  0  0  0  0  0  0  0
    3.1886    0.5219   -1.0068 C   0  0  0  0  0  0  0  0  0  0  0  0
    4.3964    0.3580   -1.1783 O   0  0  0  0  0  0  0  0  0  0  0  0
    2.2781    0.1400   -1.9124 N   0  0  0  0  0  0  0  0  0  0  0  0
    1.3054    0.3018   -1.7065 H   0  0  0  0  0  0  0  0  0  0  0  0
    2.6162   -0.4935   -3.1852 C   0  0  0  0  0  0  0  0  0  0  0  0
    3.2137    0.1925   -3.7894 H   0  0  0  0  0  0  0  0  0  0  0  0
    3.2033   -1.3957   -3.0044 H   0  0  0  0  0  0  0  0  0  0  0  0
    1.7090   -0.7573   -3.7303 H   0  0  0  0  0  0  0  0  0  0  0  0
    2.4551    9.5735   -2.8990 H   0  0  0  0  0  0  0  0  0  0  0  0
    3.1967    9.0119   -2.3328 C   0  0  0  0  0  0  0  0  0  0  0  0
    3.9486    9.6923   -1.9363 H   0  0  0  0  0  0  0  0  0  0  0  0
    3.6693    8.2753   -2.9798 H   0  0  0  0  0  0  0  0  0  0  0  0
    2.5081    8.3050   -1.1889 C   0  0  0  0  0  0  0  0  0  0  0  0
    1.2991    8.4122   -1.0342 O   0  0  0  0  0  0  0  0  0  0  0  0
    3.2818    7.5735   -0.3914 N   0  0  0  0  0  0  0  0  0  0  0  0
    4.2743    7.5390   -0.5732 H   0  0  0  0  0  0  0  0  0  0  0  0
    2.8005    6.8128    0.7618 C   0  0  1  0  0  0  0  0  0  0  0  0
    2.0054    7.3765    1.2531 H   0  0  0  0  0  0  0  0  0  0  0  0
    2.2093    5.4927    0.2475 C   0  0  0  0  0  0  0  0  0  0  0  0
    1.4148    5.7413   -0.4576 H   0  0  0  0  0  0  0  0  0  0  0  0
    2.9772    4.9558   -0.3096 H   0  0  0  0  0  0  0  0  0  0  0  0
    1.4916    4.3654    1.4728 S   0  0  0  0  0  0  0  0  0  0  0  0
    3.9361    6.5996    1.7783 C   0  0  0  0  0  0  0  0  0  0  0  0
    5.1015    6.5139    1.3888 O   0  0  0  0  0  0  0  0  0  0  0  0
    3.5993    6.5232    3.0722 N   0  0  0  0  0  0  0  0  0  0  0  0
    2.6203    6.5690    3.3064 H   0  0  0  0  0  0  0  0  0  0  0  0
    4.5541    6.3145    4.1599 C   0  0  0  0  0  0  0  0  0  0  0  0
    4.8913    5.2766    4.1595 H   0  0  0  0  0  0  0  0  0  0  0  0
    5.4228    6.9631    4.0241 H   0  0  0  0  0  0  0  0  0  0  0  0
    4.0879    6.5402    5.1191 H   0  0  0  0  0  0  0  0  0  0  0  0
  5  6  2  0  0  0  0
  5  7  1  0  0  0  0
  2  3  1  0  0  0  0
  2  4  1  0  0  0  0
  2  5  1  0  0  0  0
  1  2  1  0  0  0  0
 15 16  2  0  0  0  0
 15 17  1  0  0  0  0
 14 36  1  0  0  0  0
 11 12  1  0  0  0  0
 11 13  1  0  0  0  0
 11 14  1  0  0  0  0
  9 10  1  0  0  0  0
  9 11  1  0  0  0  0
  9 15  1  0  0  0  0
  7  8  1  0  0  0  0
  7  9  1  0  0  0  0
 19 20  1  0  0  0  0
 19 21  1  0  0  0  0
 19 22  1  0  0  0  0
 17 18  1  0  0  0  0
 17 19  1  0  0  0  0
 27 28  2  0  0  0  0
 27 29  1  0  0  0  0
 24 25  1  0  0  0  0
 24 26  1  0  0  0  0
 24 27  1  0  0  0  0
 23 24  1  0  0  0  0
 37 38  2  0  0  0  0
 37 39  1  0  0  0  0
 33 34  1  0  0  0  0
 33 35  1  0  0  0  0
 33 36  1  0  0  0  0
 31 32  1  0  0  0  0
 31 33  1  0  0  0  0
 31 37  1  0  0  0  0
 29 30  1  0  0  0  0
 29 31  1  0  0  0  0
 41 42  1  0  0  0  0
 41 43  1  0  0  0  0
 41 44  1  0  0  0  0
 39 40  1  0  0  0  0
 39 41  1  0  0  0  0
M  END
$$$$
default_name
  -OEChem-01062215323D

 44 43  0     1  0  0  0  0  0999 V2000
    2.4488   -3.0448    2.0990 H   0  0  0  0  0  0  0  0  0  0  0  0
    2.2788   -2.0018    2.3640 C   0  0  0  0  0  0  0  0  0  0  0  0
    2.9228   -1.7258    3.1960 H   0  0  0  0  0  0  0  0  0  0  0  0
    1.2358   -1.8618    2.6430 H   0  0  0  0  0  0  0  0  0  0  0  0
    2.6018   -1.1318    1.1730 C   0  0  0  0  0  0  0  0  0  0  0  0
    3.0048   -1.6348    0.1320 O   0  0  0  0  0  0  0  0  0  0  0  0
    2.4088    0.1752    1.3190 N   0  0  0  0  0  0  0  0  0  0  0  0
    2.0708    0.5242    2.2050 H   0  0  0  0  0  0  0  0  0  0  0  0
    2.6638    1.1782    0.2840 C   0  0  1  0  0  0  0  0  0  0  0  0
    1.7185    1.6694    0.0471 H   0  0  0  0  0  0  0  0  0  0  0  0
    3.6338    2.2440    0.8231 C   0  0  0  0  0  0  0  0  0  0  0  0
    3.9396    2.8892   -0.0014 H   0  0  0  0  0  0  0  0  0  0  0  0
    4.5342    1.7333    1.1636 H   0  0  0  0  0  0  0  0  0  0  0  0
    3.0690    3.2907    2.1973 S   0  0  0  0  0  0  0  0  0  0  0  0
    3.1886    0.5219   -1.0068 C   0  0  0  0  0  0  0  0  0  0  0  0
    4.3459    0.1076   -1.0716 O   0  0  0  0  0  0  0  0  0  0  0  0
    2.3332    0.4215   -2.0331 N   0  0  0  0  0  0  0  0  0  0  0  0
    1.3994    0.7789   -1.9108 H   0  0  0  0  0  0  0  0  0  0  0  0
    2.6797   -0.1726   -3.3226 C   0  0  0  0  0  0  0  0  0  0  0  0
    3.4771    0.4077   -3.7917 H   0  0  0  0  0  0  0  0  0  0  0  0
    3.0362   -1.1937   -3.1751 H   0  0  0  0  0  0  0  0  0  0  0  0
    1.8093   -0.1864   -3.9798 H   0  0  0  0  0  0  0  0  0  0  0  0
    2.4551    9.5735   -2.8990 H   0  0  0  0  0  0  0  0  0  0  0  0
    3.1967    9.0119   -2.3328 C   0  0  0  0  0  0  0  0  0  0  0  0
    3.9486    9.6923   -1.9363 H   0  0  0  0  0  0  0  0  0  0  0  0
    3.6693    8.2753   -2.9798 H   0  0  0  0  0  0  0  0  0  0  0  0
    2.5081    8.3050   -1.1889 C   0  0  0  0  0  0  0  0  0  0  0  0
    1.2991    8.4122   -1.0342 O   0  0  0  0  0  0  0  0  0  0  0  0
    3.2818    7.5735   -0.3914 N   0  0  0  0  0  0  0  0  0  0  0  0
    4.2743    7.5390   -0.5732 H   0  0  0  0  0  0  0  0  0  0  0  0
    2.8005    6.8128    0.7618 C   0  0  1  0  0  0  0  0  0  0  0  0
    2.0054    7.3765    1.2531 H   0  0  0  0  0  0  0  0  0  0  0  0
    2.2093    5.4927    0.2475 C   0  0  0  0  0  0  0  0  0  0  0  0
    1.4148    5.7413   -0.4576 H   0  0  0  0  0  0  0  0  0  0  0  0
    2.9772    4.9558   -0.3096 H   0  0  0  0  0  0  0  0  0  0  0  0
    1.4916    4.3654    1.4728 S   0  0  0  0  0  0  0  0  0  0  0  0
    3.9361    6.5996    1.7783 C   0  0  0  0  0  0  0  0  0  0  0  0
    5.1015    6.5139    1.3888 O   0  0  0  0  0  0  0  0  0  0  0  0
    3.5993    6.5232    3.0722 N   0  0  0  0  0  0  0  0  0  0  0  0
    2.6203    6.5690    3.3064 H   0  0  0  0  0  0  0  0  0  0  0  0
    4.5541    6.3145    4.1599 C   0  0  0  0  0  0  0  0  0  0  0  0
    4.8913    5.2766    4.1595 H   0  0  0  0  0  0  0  0  0  0  0  0
    5.4228    6.9631    4.0241 H   0  0  0  0  0  0  0  0  0  0  0  0
    4.0879    6.5402    5.1191 H   0  0  0  0  0  0  0  0  0  0  0  0
  5  6  2  0  0  0  0
  5  7  1  0  0  0  0
  2  3  1  0  0  0  0
  2  4  1  0  0  0  0
  2  5  1  0  0  0  0
  1  2  1  0  0  0  0
 15 16  2  0  0  0  0
 15 17  1  0  0  0  0
 14 36  1  0  0  0  0
 11 12  1  0  0  0  0
 11 13  1  0  0  0  0
 11 14  1  0  0  0  0
  9 10  1  0  0  0  0
  9 11  1  0  0  0  0
  9 15  1  0  0  0  0
  7  8  1  0  0  0  0
  7  9  1  0  0  0  0
 19 20  1  0  0  0  0
 19 21  1  0  0  0  0
 19 22  1  0  0  0  0
 17 18  1  0  0  0  0
 17 19  1  0  0  0  0
 27 28  2  0  0  0  0
 27 29  1  0  0  0  0
 24 25  1  0  0  0  0
 24 26  1  0  0  0  0
 24 27  1  0  0  0  0
 23 24  1  0  0  0  0
 37 38  2  0  0  0  0
 37 39  1  0  0  0  0
 33 34  1  0  0  0  0
 33 35  1  0  0  0  0
 33 36  1  0  0  0  0
 31 32  1  0  0  0  0
 31 33  1  0  0  0  0
 31 37  1  0  0  0  0
 29 30  1  0  0  0  0
 29 31  1  0  0  0  0
 41 42  1  0  0  0  0
 41 43  1  0  0  0  0
 41 44  1  0  0  0  0
 39 40  1  0  0  0  0
 39 41  1  0  0  0  0
M  END
$$$$
default_name
  -OEChem-01062215323D

 44 43  0     1  0  0  0  0  0999 V2000
    2.4488   -3.0448    2.0990 H   0  0  0  0  0  0  0  0  0  0  0  0
    2.2788   -2.0018    2.3640 C   0  0  0  0  0  0  0  0  0  0  0  0
    2.9228   -1.7258    3.1960 H   0  0  0  0  0  0  0  0  0  0  0  0
    1.2358   -1.8618    2.6430 H   0  0  0  0  0  0  0  0  0  0  0  0
    2.6018   -1.1318    1.1730 C   0  0  0  0  0  0  0  0  0  0  0  0
    3.0048   -1.6348    0.1320 O   0  0  0  0  0  0  0  0  0  0  0  0
    2.4088    0.1752    1.3190 N   0  0  0  0  0  0  0  0  0  0  0  0
    2.0708    0.5242    2.2050 H   0  0  0  0  0  0  0  0  0  0  0  0
    2.6638    1.1782    0.2840 C   0  0  1  0  0  0  0  0  0  0  0  0
    1.7185    1.6694    0.0471 H   0  0  0  0  0  0  0  0  0  0  0  0
    3.6338    2.2440    0.8231 C   0  0  0  0  0  0  0  0  0  0  0  0
    3.9396    2.8892   -0.0014 H   0  0  0  0  0  0  0  0  0  0  0  0
    4.5342    1.7333    1.1636 H   0  0  0  0  0  0  0  0  0  0  0  0
    3.0690    3.2907    2.1973 S   0  0  0  0  0  0  0  0  0  0  0  0
    3.1886    0.5219   -1.0068 C   0  0  0  0  0  0  0  0  0  0  0  0
    4.2310   -0.1327   -0.9961 O   0  0  0  0  0  0  0  0  0  0  0  0
    2.4609    0.6921   -2.1187 N   0  0  0  0  0  0  0  0  0  0  0  0
    1.6163    1.2374   -2.0558 H   0  0  0  0  0  0  0  0  0  0  0  0
    2.8257    0.1357   -3.4200 C   0  0  0  0  0  0  0  0  0  0  0  0
    3.7784    0.5586   -3.7459 H   0  0  0  0  0  0  0  0  0  0  0  0
    2.9374   -0.9472   -3.3406 H   0  0  0  0  0  0  0  0  0  0  0  0
    2.0575    0.3654   -4.1594 H   0  0  0  0  0  0  0  0  0  0  0  0
    2.4551    9.5735   -2.8990 H   0  0  0  0  0  0  0  0  0  0  0  0
    3.1967    9.0119   -2.3328 C   0  0  0  0  0  0  0  0  0  0  0  0
    3.9486    9.6923   -1.9363 H   0  0  0  0  0  0  0  0  0  0  0  0
    3.6693    8.2753   -2.9798 H   0  0  0  0  0  0  0  0  0  0  0  0
    2.5081    8.3050   -1.1889 C   0  0  0  0  0  0  0  0  0  0  0  0
    1.2991    8.4122   -1.0342 O   0  0  0  0  0  0  0  0  0  0  0  0
    3.2818    7.5735   -0.3914 N   0  0  0  0  0  0  0  0  0  0  0  0
    4.2743    7.5390   -0.5732 H   0  0  0  0  0  0  0  0  0  0  0  0
    2.8005    6.8128    0.7618 C   0  0  1  0  0  0  0  0  0  0  0  0
    2.0054    7.3765    1.2531 H   0  0  0  0  0  0  0  0  0  0  0  0
    2.2093    5.4927    0.2475 C   0  0  0  0  0  0  0  0  0  0  0  0
    1.4148    5.7413   -0.4576 H   0  0  0  0  0  0  0  0  0  0  0  0
    2.9772    4.9558   -0.3096 H   0  0  0  0  0  0  0  0  0  0  0  0
    1.4916    4.3654    1.4728 S   0  0  0  0  0  0  0  0  0  0  0  0
    3.9361    6.5996    1.7783 C   0  0  0  0  0  0  0  0  0  0  0  0
    5.1015    6.5139    1.3888 O   0  0  0  0  0  0  0  0  0  0  0  0
    3.5993    6.5232    3.0722 N   0  0  0  0  0  0  0  0  0  0  0  0
    2.6203    6.5690    3.3064 H   0  0  0  0  0  0  0  0  0  0  0  0
    4.5541    6.3145    4.1599 C   0  0  0  0  0  0  0  0  0  0  0  0
    4.8913    5.2766    4.1595 H   0  0  0  0  0  0  0  0  0  0  0  0
    5.4228    6.9631    4.0241 H   0  0  0  0  0  0  0  0  0  0  0  0
    4.0879    6.5402    5.1191 H   0  0  0  0  0  0  0  0  0  0  0  0
  5  6  2  0  0  0  0
  5  7  1  0  0  0  0
  2  3  1  0  0  0  0
  2  4  1  0  0  0  0
  2  5  1  0  0  0  0
  1  2  1  0  0  0  0
 15 16  2  0  0  0  0
 15 17  1  0  0  0  0
 14 36  1  0  0  0  0
 11 12  1  0  0  0  0
 11 13  1  0  0  0  0
 11 14  1  0  0  0  0
  9 10  1  0  0  0  0
  9 11  1  0  0  0  0
  9 15  1  0  0  0  0
  7  8  1  0  0  0  0
  7  9  1  0  0  0  0
 19 20  1  0  0  0  0
 19 21  1  0  0  0  0
 19 22  1  0  0  0  0
 17 18  1  0  0  0  0
 17 19  1  0  0  0  0
 27 28  2  0  0  0  0
 27 29  1  0  0  0  0
 24 25  1  0  0  0  0
 24 26  1  0  0  0  0
 24 27  1  0  0  0  0
 23 24  1  0  0  0  0
 37 38  2  0  0  0  0
 37 39  1  0  0  0  0
 33 34  1  0  0  0  0
 33 35  1  0  0  0  0
 33 36  1  0  0  0  0
 31 32  1  0  0  0  0
 31 33  1  0  0  0  0
 31 37  1  0  0  0  0
 29 30  1  0  0  0  0
 29 31  1  0  0  0  0
 41 42  1  0  0  0  0
 41 43  1  0  0  0  0
 41 44  1  0  0  0  0
 39 40  1  0  0  0  0
 39 41  1  0  0  0  0
M  END
$$$$
default_name
  -OEChem-01062215323D

 44 43  0     1  0  0  0  0  0999 V2000
    2.4488   -3.0448    2.0990 H   0  0  0  0  0  0  0  0  0  0  0  0
    2.2788   -2.0018    2.3640 C   0  0  0  0  0  0  0  0  0  0  0  0
    2.9228   -1.7258    3.1960 H   0  0  0  0  0  0  0  0  0  0  0  0
    1.2358   -1.8618    2.6430 H   0  0  0  0  0  0  0  0  0  0  0  0
    2.6018   -1.1318    1.1730 C   0  0  0  0  0  0  0  0  0  0  0  0
    3.0048   -1.6348    0.1320 O   0  0  0  0  0  0  0  0  0  0  0  0
    2.4088    0.1752    1.3190 N   0  0  0  0  0  0  0  0  0  0  0  0
    2.0708    0.5242    2.2050 H   0  0  0  0  0  0  0  0  0  0  0  0
    2.6638    1.1782    0.2840 C   0  0  1  0  0  0  0  0  0  0  0  0
    1.7185    1.6694    0.0471 H   0  0  0  0  0  0  0  0  0  0  0  0
    3.6338    2.2440    0.8231 C   0  0  0  0  0  0  0  0  0  0  0  0
    3.9396    2.8892   -0.0014 H   0  0  0  0  0  0  0  0  0  0  0  0
    4.5342    1.7333    1.1636 H   0  0  0  0  0  0  0  0  0  0  0  0
    3.0690    3.2907    2.1973 S   0  0  0  0  0  0  0  0  0  0  0  0
    3.1886    0.5219   -1.0068 C   0  0  0  0  0  0  0  0  0  0  0  0
    4.0596   -0.3465   -0.9571 O   0  0  0  0  0  0  0  0  0  0  0  0
    2.6524    0.9333   -2.1636 N   0  0  0  0  0  0  0  0  0  0  0  0
    1.9412    1.6460   -2.1314 H   0  0  0  0  0  0  0  0  0  0  0  0
    3.0444    0.4104   -3.4707 C   0  0  0  0  0  0  0  0  0  0  0  0
    4.0972    0.6349   -3.6551 H   0  0  0  0  0  0  0  0  0  0  0  0
    2.9137   -0.6731   -3.4896 H   0  0  0  0  0  0  0  0  0  0  0  0
    2.4368    0.8603   -4.2569 H   0  0  0  0  0  0  0  0  0  0  0  0
    2.4551    9.5735   -2.8990 H   0  0  0  0  0  0  0  0  0  0  0  0
    3.1967    9.0119   -2.3328 C   0  0  0  0  0  0  0  0  0  0  0  0
    3.9486    9.6923   -1.9363 H   0  0  0  0  0  0  0  0  0  0  0  0
    3.6693    8.2753   -2.9798 H   0  0  0  0  0  0  0  0  0  0  0  0
    2.5081    8.3050   -1.1889 C   0  0  0  0  0  0  0  0  0  0  0  0
    1.2991    8.4122   -1.0342 O   0  0  0  0  0  0  0  0  0  0  0  0
    3.2818    7.5735   -0.3914 N   0  0  0  0  0  0  0  0  0  0  0  0
    4.2743    7.5390   -0.5732 H   0  0  0  0  0  0  0  0  0  0  0  0
    2.8005    6.8128    0.7618 C   0  0  1  0  0  0  0  0  0  0  0  0
    2.0054    7.3765    1.2531 H   0  0  0  0  0  0  0  0  0  0  0  0
    2.2093    5.4927    0.2475 C   0  0  0  0  0  0  0  0  0  0  0  0
    1.4148    5.7413   -0.4576 H   0  0  0  0  0  0  0  0  0  0  0  0
    2.9772    4.9558   -0.3096 H   0  0  0  0  0  0  0  0  0  0  0  0
    1.4916    4.3654    1.4728 S   0  0  0  0  0  0  0  0  0  0  0  0
    3.9361    6.5996    1.7783 C   0  0  0  0  0  0  0  0  0  0  0  0
    5.1015    6.5139    1.3888 O   0  0  0  0  0  0  0  0  0  0  0  0
    3.5993    6.5232    3.0722 N   0  0  0  0  0  0  0  0  0  0  0  0
    2.6203    6.5690    3.3064 H   0  0  0  0  0  0  0  0  0  0  0  0
    4.5541    6.3145    4.1599 C   0  0  0  0  0  0  0  0  0  0  0  0
    4.8913    5.2766    4.1595 H   0  0  0  0  0  0  0  0  0  0  0  0
    5.4228    6.9631    4.0241 H   0  0  0  0  0  0  0  0  0  0  0  0
    4.0879    6.5402    5.1191 H   0  0  0  0  0  0  0  0  0  0  0  0
  5  6  2  0  0  0  0
  5  7  1  0  0  0  0
  2  3  1  0  0  0  0
  2  4  1  0  0  0  0
  2  5  1  0  0  0  0
  1  2  1  0  0  0  0
 15 16  2  0  0  0  0
 15 17  1  0  0  0  0
 14 36  1  0  0  0  0
 11 12  1  0  0  0  0
 11 13  1  0  0  0  0
 11 14  1  0  0  0  0
  9 10  1  0  0  0  0
  9 11  1  0  0  0  0
  9 15  1  0  0  0  0
  7  8  1  0  0  0  0
  7  9  1  0  0  0  0
 19 20  1  0  0  0  0
 19 21  1  0  0  0  0
 19 22  1  0  0  0  0
 17 18  1  0  0  0  0
 17 19  1  0  0  0  0
 27 28  2  0  0  0  0
 27 29  1  0  0  0  0
 24 25  1  0  0  0  0
 24 26  1  0  0  0  0
 24 27  1  0  0  0  0
 23 24  1  0  0  0  0
 37 38  2  0  0  0  0
 37 39  1  0  0  0  0
 33 34  1  0  0  0  0
 33 35  1  0  0  0  0
 33 36  1  0  0  0  0
 31 32  1  0  0  0  0
 31 33  1  0  0  0  0
 31 37  1  0  0  0  0
 29 30  1  0  0  0  0
 29 31  1  0  0  0  0
 41 42  1  0  0  0  0
 41 43  1  0  0  0  0
 41 44  1  0  0  0  0
 39 40  1  0  0  0  0
 39 41  1  0  0  0  0
M  END
$$$$
default_name
  -OEChem-01062215323D

 44 43  0     1  0  0  0  0  0999 V2000
    2.4488   -3.0448    2.0990 H   0  0  0  0  0  0  0  0  0  0  0  0
    2.2788   -2.0018    2.3640 C   0  0  0  0  0  0  0  0  0  0  0  0
    2.9228   -1.7258    3.1960 H   0  0  0  0  0  0  0  0  0  0  0  0
    1.2358   -1.8618    2.6430 H   0  0  0  0  0  0  0  0  0  0  0  0
    2.6018   -1.1318    1.1730 C   0  0  0  0  0  0  0  0  0  0  0  0
    3.0048   -1.6348    0.1320 O   0  0  0  0  0  0  0  0  0  0  0  0
    2.4088    0.1752    1.3190 N   0  0  0  0  0  0  0  0  0  0  0  0
    2.0708    0.5242    2.2050 H   0  0  0  0  0  0  0  0  0  0  0  0
    2.6638    1.1782    0.2840 C   0  0  1  0  0  0  0  0  0  0  0  0
    1.7185    1.6694    0.0471 H   0  0  0  0  0  0  0  0  0  0  0  0
    3.6338    2.2440    0.8231 C   0  0  0  0  0  0  0  0  0  0  0  0
    3.9396    2.8892   -0.0014 H   0  0  0  0  0  0  0  0  0  0  0  0
    4.5342    1.7333    1.1636 H   0  0  0  0  0  0  0  0  0  0  0  0
    3.0690    3.2907    2.1973 S   0  0  0  0  0  0  0  0  0  0  0  0
    3.1886    0.5219   -1.0068 C   0  0  0  0  0  0  0  0  0  0  0  0
    3.8433   -0.5193   -0.9572 O   0  0  0  0  0  0  0  0  0  0  0  0
    2.8945    1.1287   -2.1645 N   0  0  0  0  0  0  0  0  0  0  0  0
    2.3520    1.9768   -2.1326 H   0  0  0  0  0  0  0  0  0  0  0  0
    3.3209    0.6328   -3.4714 C   0  0  0  0  0  0  0  0  0  0  0  0
    4.4116    0.6315   -3.5256 H   0  0  0  0  0  0  0  0  0  0  0  0
    2.9667   -0.3901   -3.6120 H   0  0  0  0  0  0  0  0  0  0  0  0
    2.9212    1.2647   -4.2656 H   0  0  0  0  0  0  0  0  0  0  0  0
    2.4551    9.5735   -2.8990 H   0  0  0  0  0  0  0  0  0  0  0  0
    3.1967    9.0119   -2.3328 C   0  0  0  0  0  0  0  0  0  0  0  0
    3.9486    9.6923   -1.9363 H   0  0  0  0  0  0  0  0  0  0  0  0
    3.6693    8.2753   -2.9798 H   0  0  0  0  0  0  0  0  0  0  0  0
    2.5081    8.3050   -1.1889 C   0  0  0  0  0  0  0  0  0  0  0  0
    1.2991    8.4122   -1.0342 O   0  0  0  0  0  0  0  0  0  0  0  0
    3.2818    7.5735   -0.3914 N   0  0  0  0  0  0  0  0  0  0  0  0
    4.2743    7.5390   -0.5732 H   0  0  0  0  0  0  0  0  0  0  0  0
    2.8005    6.8128    0.7618 C   0  0  1  0  0  0  0  0  0  0  0  0
    2.0054    7.3765    1.2531 H   0  0  0  0  0  0  0  0  0  0  0  0
    2.2093    5.4927    0.2475 C   0  0  0  0  0  0  0  0  0  0  0  0
    1.4148    5.7413   -0.4576 H   0  0  0  0  0  0  0  0  0  0  0  0
    2.9772    4.9558   -0.3096 H   0  0  0  0  0  0  0  0  0  0  0  0
    1.4916    4.3654    1.4728 S   0  0  0  0  0  0  0  0  0  0  0  0
    3.9361    6.5996    1.7783 C   0  0  0  0  0  0  0  0  0  0  0  0
    5.1015    6.5139    1.3888 O   0  0  0  0  0  0  0  0  0  0  0  0
    3.5993    6.5232    3.0722 N   0  0  0  0  0  0  0  0  0  0  0  0
    2.6203    6.5690    3.3064 H   0  0  0  0  0  0  0  0  0  0  0  0
    4.5541    6.3145    4.1599 C   0  0  0  0  0  0  0  0  0  0  0  0
    4.8913    5.2766    4.1595 H   0  0  0  0  0  0  0  0  0  0  0  0
    5.4228    6.9631    4.0241 H   0  0  0  0  0  0  0  0  0  0  0  0
    4.0879    6.5402    5.1191 H   0  0  0  0  0  0  0  0  0  0  0  0
  5  6  2  0  0  0  0
  5  7  1  0  0  0  0
  2  3  1  0  0  0  0
  2  4  1  0  0  0  0
  2  5  1  0  0  0  0
  1  2  1  0  0  0  0
 15 16  2  0  0  0  0
 15 17  1  0  0  0  0
 14 36  1  0  0  0  0
 11 12  1  0  0  0  0
 11 13  1  0  0  0  0
 11 14  1  0  0  0  0
  9 10  1  0  0  0  0
  9 11  1  0  0  0  0
  9 15  1  0  0  0  0
  7  8  1  0  0  0  0
  7  9  1  0  0  0  0
 19 20  1  0  0  0  0
 19 21  1  0  0  0  0
 19 22  1  0  0  0  0
 17 18  1  0  0  0  0
 17 19  1  0  0  0  0
 27 28  2  0  0  0  0
 27 29  1  0  0  0  0
 24 25  1  0  0  0  0
 24 26  1  0  0  0  0
 24 27  1  0  0  0  0
 23 24  1  0  0  0  0
 37 38  2  0  0  0  0
 37 39  1  0  0  0  0
 33 34  1  0  0  0  0
 33 35  1  0  0  0  0
 33 36  1  0  0  0  0
 31 32  1  0  0  0  0
 31 33  1  0  0  0  0
 31 37  1  0  0  0  0
 29 30  1  0  0  0  0
 29 31  1  0  0  0  0
 41 42  1  0  0  0  0
 41 43  1  0  0  0  0
 41 44  1  0  0  0  0
 39 40  1  0  0  0  0
 39 41  1  0  0  0  0
M  END
$$$$
default_name
  -OEChem-01062215323D

 44 43  0     1  0  0  0  0  0999 V2000
    2.4488   -3.0448    2.0990 H   0  0  0  0  0  0  0  0  0  0  0  0
    2.2788   -2.0018    2.3640 C   0  0  0  0  0  0  0  0  0  0  0  0
    2.9228   -1.7258    3.1960 H   0  0  0  0  0  0  0  0  0  0  0  0
    1.2358   -1.8618    2.6430 H   0  0  0  0  0  0  0  0  0  0  0  0
    2.6018   -1.1318    1.1730 C   0  0  0  0  0  0  0  0  0  0  0  0
    3.0048   -1.6348    0.1320 O   0  0  0  0  0  0  0  0  0  0  0  0
    2.4088    0.1752    1.3190 N   0  0  0  0  0  0  0  0  0  0  0  0
    2.0708    0.5242    2.2050 H   0  0  0  0  0  0  0  0  0  0  0  0
    2.6638    1.1782    0.2840 C   0  0  1  0  0  0  0  0  0  0  0  0
    1.7185    1.6694    0.0471 H   0  0  0  0  0  0  0  0  0  0  0  0
    3.6338    2.2440    0.8231 C   0  0  0  0  0  0  0  0  0  0  0  0
    3.9396    2.8892   -0.0014 H   0  0  0  0  0  0  0  0  0  0  0  0
    4.5342    1.7333    1.1636 H   0  0  0  0  0  0  0  0  0  0  0  0
    3.0690    3.2907    2.1973 S   0  0  0  0  0  0  0  0  0  0  0  0
    3.1886    0.5219   -1.0068 C   0  0  0  0  0  0  0  0  0  0  0  0
    3.5969   -0.6393   -0.9963 O   0  0  0  0  0  0  0  0  0  0  0  0
    3.1710    1.2650   -2.1214 N   0  0  0  0  0  0  0  0  0  0  0  0
    2.8207    2.2074   -2.0593 H   0  0  0  0  0  0  0  0  0  0  0  0
    3.6362    0.7877   -3.4220 C   0  0  0  0  0  0  0  0  0  0  0  0
    4.7003    0.5485   -3.3660 H   0  0  0  0  0  0  0  0  0  0  0  0
    3.0927   -0.1174   -3.6994 H   0  0  0  0  0  0  0  0  0  0  0  0
    3.4779    1.5510   -4.1849 H   0  0  0  0  0  0  0  0  0  0  0  0
    2.4551    9.5735   -2.8990 H   0  0  0  0  0  0  0  0  0  0  0  0
    3.1967    9.0119   -2.3328 C   0  0  0  0  0  0  0  0  0  0  0  0
    3.9486    9.6923   -1.9363 H   0  0  0  0  0  0  0  0  0  0  0  0
    3.6693    8.2753   -2.9798 H   0  0  0  0  0  0  0  0  0  0  0  0
    2.5081    8.3050   -1.1889 C   0  0  0  0  0  0  0  0  0  0  0  0
    1.2991    8.4122   -1.0342 O   0  0  0  0  0  0  0  0  0  0  0  0
    3.2818    7.5735   -0.3914 N   0  0  0  0  0  0  0  0  0  0  0  0
    4.2743    7.5390   -0.5732 H   0  0  0  0  0  0  0  0  0  0  0  0
    2.8005    6.8128    0.7618 C   0  0  1  0  0  0  0  0  0  0  0  0
    2.0054    7.3765    1.2531 H   0  0  0  0  0  0  0  0  0  0  0  0
    2.2093    5.4927    0.2475 C   0  0  0  0  0  0  0  0  0  0  0  0
    1.4148    5.7413   -0.4576 H   0  0  0  0  0  0  0  0  0  0  0  0
    2.9772    4.9558   -0.3096 H   0  0  0  0  0  0  0  0  0  0  0  0
    1.4916    4.3654    1.4728 S   0  0  0  0  0  0  0  0  0  0  0  0
    3.9361    6.5996    1.7783 C   0  0  0  0  0  0  0  0  0  0  0  0
    5.1015    6.5139    1.3888 O   0  0  0  0  0  0  0  0  0  0  0  0
    3.5993    6.5232    3.0722 N   0  0  0  0  0  0  0  0  0  0  0  0
    2.6203    6.5690    3.3064 H   0  0  0  0  0  0  0  0  0  0  0  0
    4.5541    6.3145    4.1599 C   0  0  0  0  0  0  0  0  0  0  0  0
    4.8913    5.2766    4.1595 H   0  0  0  0  0  0  0  0  0  0  0  0
    5.4228    6.9631    4.0241 H   0  0  0  0  0  0  0  0  0  0  0  0
    4.0879    6.5402    5.1191 H   0  0  0  0  0  0  0  0  0  0  0  0
  5  6  2  0  0  0  0
  5  7  1  0  0  0  0
  2  3  1  0  0  0  0
  2  4  1  0  0  0  0
  2  5  1  0  0  0  0
  1  2  1  0  0  0  0
 15 16  2  0  0  0  0
 15 17  1  0  0  0  0
 14 36  1  0  0  0  0
 11 12  1  0  0  0  0
 11 13  1  0  0  0  0
 11 14  1  0  0  0  0
  9 10  1  0  0  0  0
  9 11  1  0  0  0  0
  9 15  1  0  0  0  0
  7  8  1  0  0  0  0
  7  9  1  0  0  0  0
 19 20  1  0  0  0  0
 19 21  1  0  0  0  0
 19 22  1  0  0  0  0
 17 18  1  0  0  0  0
 17 19  1  0  0  0  0
 27 28  2  0  0  0  0
 27 29  1  0  0  0  0
 24 25  1  0  0  0  0
 24 26  1  0  0  0  0
 24 27  1  0  0  0  0
 23 24  1  0  0  0  0
 37 38  2  0  0  0  0
 37 39  1  0  0  0  0
 33 34  1  0  0  0  0
 33 35  1  0  0  0  0
 33 36  1  0  0  0  0
 31 32  1  0  0  0  0
 31 33  1  0  0  0  0
 31 37  1  0  0  0  0
 29 30  1  0  0  0  0
 29 31  1  0  0  0  0
 41 42  1  0  0  0  0
 41 43  1  0  0  0  0
 41 44  1  0  0  0  0
 39 40  1  0  0  0  0
 39 41  1  0  0  0  0
M  END
$$$$
default_name
  -OEChem-01062215323D

 44 43  0     1  0  0  0  0  0999 V2000
    2.4488   -3.0448    2.0990 H   0  0  0  0  0  0  0  0  0  0  0  0
    2.2788   -2.0018    2.3640 C   0  0  0  0  0  0  0  0  0  0  0  0
    2.9228   -1.7258    3.1960 H   0  0  0  0  0  0  0  0  0  0  0  0
    1.2358   -1.8618    2.6430 H   0  0  0  0  0  0  0  0  0  0  0  0
    2.6018   -1.1318    1.1730 C   0  0  0  0  0  0  0  0  0  0  0  0
    3.0048   -1.6348    0.1320 O   0  0  0  0  0  0  0  0  0  0  0  0
    2.4088    0.1752    1.3190 N   0  0  0  0  0  0  0  0  0  0  0  0
    2.0708    0.5242    2.2050 H   0  0  0  0  0  0  0  0  0  0  0  0
    2.6638    1.1782    0.2840 C   0  0  1  0  0  0  0  0  0  0  0  0
    1.8007    1.8443    0.2368 H   0  0  0  0  0  0  0  0  0  0  0  0
    3.8946    2.0179    0.6683 C   0  0  0  0  0  0  0  0  0  0  0  0
    4.1681    2.6476   -0.1792 H   0  0  0  0  0  0  0  0  0  0  0  0
    4.7286    1.3344    0.8249 H   0  0  0  0  0  0  0  0  0  0  0  0
    3.7821    3.0621    2.1515 S   0  0  0  0  0  0  0  0  0  0  0  0
    2.8249    0.5193   -1.0989 C   0  0  0  0  0  0  0  0  0  0  0  0
    2.7292   -0.7014   -1.2247 O   0  0  0  0  0  0  0  0  0  0  0  0
    3.0634    1.3301   -2.1384 N   0  0  0  0  0  0  0  0  0  0  0  0
    3.1268    2.3203   -1.9646 H   0  0  0  0  0  0  0  0  0  0  0  0
    3.2420    0.8591   -3.5102 C   0  0  0  0  0  0  0  0  0  0  0  0
    4.1200    0.2118   -3.5647 H   0  0  0  0  0  0  0  0  0  0  0  0
    2.3682    0.2828   -3.8197 H   0  0  0  0  0  0  0  0  0  0  0  0
    3.3745    1.7040   -4.1871 H   0  0  0  0  0  0  0  0  0  0  0  0
    3.4815    9.6552   -2.5670 H   0  0  0  0  0  0  0  0  0  0  0  0
    4.1915    8.9362   -2.1611 C   0  0  0  0  0  0  0  0  0  0  0  0
    5.1146    9.4453   -1.8884 H   0  0  0  0  0  0  0  0  0  0  0  0
    4.3988    8.1682   -2.9039 H   0  0  0  0  0  0  0  0  0  0  0  0
    3.5915    8.2948   -0.9319 C   0  0  0  0  0  0  0  0  0  0  0  0
    2.4694    8.6069   -0.5572 O   0  0  0  0  0  0  0  0  0  0  0  0
    4.3409    7.3890   -0.3093 N   0  0  0  0  0  0  0  0  0  0  0  0
    5.2627    7.1886   -0.6692 H   0  0  0  0  0  0  0  0  0  0  0  0
    3.9329    6.6571    0.8899 C   0  0  1  0  0  0  0  0  0  0  0  0
    3.3546    7.3226    1.5333 H   0  0  0  0  0  0  0  0  0  0  0  0
    3.0252    5.4983    0.4540 C   0  0  0  0  0  0  0  0  0  0  0  0
    2.1814    5.9280   -0.0878 H   0  0  0  0  0  0  0  0  0  0  0  0
    3.5708    4.8680   -0.2484 H   0  0  0  0  0  0  0  0  0  0  0  0
    2.3325    4.4444    1.7564 S   0  0  0  0  0  0  0  0  0  0  0  0
    5.1671    6.1819    1.6768 C   0  0  0  0  0  0  0  0  0  0  0  0
    6.2106    5.9132    1.0799 O   0  0  0  0  0  0  0  0  0  0  0  0
    5.0512    6.0874    3.0076 N   0  0  0  0  0  0  0  0  0  0  0  0
    4.1536    6.2932    3.4168 H   0  0  0  0  0  0  0  0  0  0  0  0
    6.1238    5.6446    3.8975 C   0  0  0  0  0  0  0  0  0  0  0  0
    6.2556    4.5652    3.8061 H   0  0  0  0  0  0  0  0  0  0  0  0
    7.0616    6.1344    3.6248 H   0  0  0  0  0  0  0  0  0  0  0  0
    5.8813    5.8906    4.9315 H   0  0  0  0  0  0  0  0  0  0  0  0
  5  6  2  0  0  0  0
  5  7  1  0  0  0  0
  2  3  1  0  0  0  0
  2  4  1  0  0  0  0
  2  5  1  0  0  0  0
  1  2  1  0  0  0  0
 15 16  2  0  0  0  0
 15 17  1  0  0  0  0
 14 36  1  0  0  0  0
 11 12  1  0  0  0  0
 11 13  1  0  0  0  0
 11 14  1  0  0  0  0
  9 10  1  0  0  0  0
  9 11  1  0  0  0  0
  9 15  1  0  0  0  0
  7  8  1  0  0  0  0
  7  9  1  0  0  0  0
 19 20  1  0  0  0  0
 19 21  1  0  0  0  0
 19 22  1  0  0  0  0
 17 18  1  0  0  0  0
 17 19  1  0  0  0  0
 27 28  2  0  0  0  0
 27 29  1  0  0  0  0
 24 25  1  0  0  0  0
 24 26  1  0  0  0  0
 24 27  1  0  0  0  0
 23 24  1  0  0  0  0
 37 38  2  0  0  0  0
 37 39  1  0  0  0  0
 33 34  1  0  0  0  0
 33 35  1  0  0  0  0
 33 36  1  0  0  0  0
 31 32  1  0  0  0  0
 31 33  1  0  0  0  0
 31 37  1  0  0  0  0
 29 30  1  0  0  0  0
 29 31  1  0  0  0  0
 41 42  1  0  0  0  0
 41 43  1  0  0  0  0
 41 44  1  0  0  0  0
 39 40  1  0  0  0  0
 39 41  1  0  0  0  0
M  END
$$$$
default_name
  -OEChem-01062215323D

 44 43  0     1  0  0  0  0  0999 V2000
    2.4488   -3.0448    2.0990 H   0  0  0  0  0  0  0  0  0  0  0  0
    2.2788   -2.0018    2.3640 C   0  0  0  0  0  0  0  0  0  0  0  0
    2.9228   -1.7258    3.1960 H   0  0  0  0  0  0  0  0  0  0  0  0
    1.2358   -1.8618    2.6430 H   0  0  0  0  0  0  0  0  0  0  0  0
    2.6018   -1.1318    1.1730 C   0  0  0  0  0  0  0  0  0  0  0  0
    3.0048   -1.6348    0.1320 O   0  0  0  0  0  0  0  0  0  0  0  0
    2.4088    0.1752    1.3190 N   0  0  0  0  0  0  0  0  0  0  0  0
    2.0708    0.5242    2.2050 H   0  0  0  0  0  0  0  0  0  0  0  0
    2.6638    1.1782    0.2840 C   0  0  1  0  0  0  0  0  0  0  0  0
    1.8007    1.8443    0.2368 H   0  0  0  0  0  0  0  0  0  0  0  0
    3.8946    2.0179    0.6683 C   0  0  0  0  0  0  0  0  0  0  0  0
    4.1681    2.6476   -0.1792 H   0  0  0  0  0  0  0  0  0  0  0  0
    4.7286    1.3344    0.8249 H   0  0  0  0  0  0  0  0  0  0  0  0
    3.7821    3.0621    2.1515 S   0  0  0  0  0  0  0  0  0  0  0  0
    2.8249    0.5193   -1.0989 C   0  0  0  0  0  0  0  0  0  0  0  0
    2.4649   -0.6432   -1.2832 O   0  0  0  0  0  0  0  0  0  0  0  0
    3.3609    1.2663   -2.0733 N   0  0  0  0  0  0  0  0  0  0  0  0
    3.6310    2.2117   -1.8541 H   0  0  0  0  0  0  0  0  0  0  0  0
    3.5811    0.7858   -3.4358 C   0  0  0  0  0  0  0  0  0  0  0  0
    4.2863   -0.0480   -3.4215 H   0  0  0  0  0  0  0  0  0  0  0  0
    2.6390    0.4343   -3.8604 H   0  0  0  0  0  0  0  0  0  0  0  0
    3.9813    1.5857   -4.0600 H   0  0  0  0  0  0  0  0  0  0  0  0
    3.4815    9.6552   -2.5670 H   0  0  0  0  0  0  0  0  0  0  0  0
    4.1915    8.9362   -2.1611 C   0  0  0  0  0  0  0  0  0  0  0  0
    5.1146    9.4453   -1.8884 H   0  0  0  0  0  0  0  0  0  0  0  0
    4.3988    8.1682   -2.9039 H   0  0  0  0  0  0  0  0  0  0  0  0
    3.5915    8.2948   -0.9319 C   0  0  0  0  0  0  0  0  0  0  0  0
    2.4694    8.6069   -0.5572 O   0  0  0  0  0  0  0  0  0  0  0  0
    4.3409    7.3890   -0.3093 N   0  0  0  0  0  0  0  0  0  0  0  0
    5.2627    7.1886   -0.6692 H   0  0  0  0  0  0  0  0  0  0  0  0
    3.9329    6.6571    0.8899 C   0  0  1  0  0  0  0  0  0  0  0  0
    3.3546    7.3226    1.5333 H   0  0  0  0  0  0  0  0  0  0  0  0
    3.0252    5.4983    0.4540 C   0  0  0  0  0  0  0  0  0  0  0  0
    2.1814    5.9280   -0.0878 H   0  0  0  0  0  0  0  0  0  0  0  0
    3.5708    4.8680   -0.2484 H   0  0  0  0  0  0  0  0  0  0  0  0
    2.3325    4.4444    1.7564 S   0  0  0  0  0  0  0  0  0  0  0  0
    5.1671    6.1819    1.6768 C   0  0  0  0  0  0  0  0  0  0  0  0
    6.2106    5.9132    1.0799 O   0  0  0  0  0  0  0  0  0  0  0  0
    5.0512    6.0874    3.0076 N   0  0  0  0  0  0  0  0  0  0  0  0
    4.1536    6.2932    3.4168 H   0  0  0  0  0  0  0  0  0  0  0  0
    6.1238    5.6446    3.8975 C   0  0  0  0  0  0  0  0  0  0  0  0
    6.2556    4.5652    3.8061 H   0  0  0  0  0  0  0  0  0  0  0  0
    7.0616    6.1344    3.6248 H   0  0  0  0  0  0  0  0  0  0  0  0
    5.8813    5.8906    4.9315 H   0  0  0  0  0  0  0  0  0  0  0  0
  5  6  2  0  0  0  0
  5  7  1  0  0  0  0
  2  3  1  0  0  0  0
  2  4  1  0  0  0  0
  2  5  1  0  0  0  0
  1  2  1  0  0  0  0
 15 16  2  0  0  0  0
 15 17  1  0  0  0  0
 14 36  1  0  0  0  0
 11 12  1  0  0  0  0
 11 13  1  0  0  0  0
 11 14  1  0  0  0  0
  9 10  1  0  0  0  0
  9 11  1  0  0  0  0
  9 15  1  0  0  0  0
  7  8  1  0  0  0  0
  7  9  1  0  0  0  0
 19 20  1  0  0  0  0
 19 21  1  0  0  0  0
 19 22  1  0  0  0  0
 17 18  1  0  0  0  0
 17 19  1  0  0  0  0
 27 28  2  0  0  0  0
 27 29  1  0  0  0  0
 24 25  1  0  0  0  0
 24 26  1  0  0  0  0
 24 27  1  0  0  0  0
 23 24  1  0  0  0  0
 37 38  2  0  0  0  0
 37 39  1  0  0  0  0
 33 34  1  0  0  0  0
 33 35  1  0  0  0  0
 33 36  1  0  0  0  0
 31 32  1  0  0  0  0
 31 33  1  0  0  0  0
 31 37  1  0  0  0  0
 29 30  1  0  0  0  0
 29 31  1  0  0  0  0
 41 42  1  0  0  0  0
 41 43  1  0  0  0  0
 41 44  1  0  0  0  0
 39 40  1  0  0  0  0
 39 41  1  0  0  0  0
M  END
$$$$
default_name
  -OEChem-01062215323D

 44 43  0     1  0  0  0  0  0999 V2000
    2.4488   -3.0448    2.0990 H   0  0  0  0  0  0  0  0  0  0  0  0
    2.2788   -2.0018    2.3640 C   0  0  0  0  0  0  0  0  0  0  0  0
    2.9228   -1.7258    3.1960 H   0  0  0  0  0  0  0  0  0  0  0  0
    1.2358   -1.8618    2.6430 H   0  0  0  0  0  0  0  0  0  0  0  0
    2.6018   -1.1318    1.1730 C   0  0  0  0  0  0  0  0  0  0  0  0
    3.0048   -1.6348    0.1320 O   0  0  0  0  0  0  0  0  0  0  0  0
    2.4088    0.1752    1.3190 N   0  0  0  0  0  0  0  0  0  0  0  0
    2.0708    0.5242    2.2050 H   0  0  0  0  0  0  0  0  0  0  0  0
    2.6638    1.1782    0.2840 C   0  0  1  0  0  0  0  0  0  0  0  0
    1.8007    1.8443    0.2368 H   0  0  0  0  0  0  0  0  0  0  0  0
    3.8946    2.0179    0.6683 C   0  0  0  0  0  0  0  0  0  0  0  0
    4.1681    2.6476   -0.1792 H   0  0  0  0  0  0  0  0  0  0  0  0
    4.7286    1.3344    0.8249 H   0  0  0  0  0  0  0  0  0  0  0  0
    3.7821    3.0621    2.1515 S   0  0  0  0  0  0  0  0  0  0  0  0
    2.8249    0.5193   -1.0989 C   0  0  0  0  0  0  0  0  0  0  0  0
    2.2297   -0.5241   -1.3673 O   0  0  0  0  0  0  0  0  0  0  0  0
    3.6263    1.1338   -1.9792 N   0  0  0  0  0  0  0  0  0  0  0  0
    4.0806    1.9866   -1.6945 H   0  0  0  0  0  0  0  0  0  0  0  0
    3.8833    0.6342   -3.3283 C   0  0  0  0  0  0  0  0  0  0  0  0
    4.3706   -0.3415   -3.2718 H   0  0  0  0  0  0  0  0  0  0  0  0
    2.9402    0.5188   -3.8655 H   0  0  0  0  0  0  0  0  0  0  0  0
    4.5258    1.3270   -3.8733 H   0  0  0  0  0  0  0  0  0  0  0  0
    3.4815    9.6552   -2.5670 H   0  0  0  0  0  0  0  0  0  0  0  0
    4.1915    8.9362   -2.1611 C   0  0  0  0  0  0  0  0  0  0  0  0
    5.1146    9.4453   -1.8884 H   0  0  0  0  0  0  0  0  0  0  0  0
    4.3988    8.1682   -2.9039 H   0  0  0  0  0  0  0  0  0  0  0  0
    3.5915    8.2948   -0.9319 C   0  0  0  0  0  0  0  0  0  0  0  0
    2.4694    8.6069   -0.5572 O   0  0  0  0  0  0  0  0  0  0  0  0
    4.3409    7.3890   -0.3093 N   0  0  0  0  0  0  0  0  0  0  0  0
    5.2627    7.1886   -0.6692 H   0  0  0  0  0  0  0  0  0  0  0  0
    3.9329    6.6571    0.8899 C   0  0  1  0  0  0  0  0  0  0  0  0
    3.3546    7.3226    1.5333 H   0  0  0  0  0  0  0  0  0  0  0  0
    3.0252    5.4983    0.4540 C   0  0  0  0  0  0  0  0  0  0  0  0
    2.1814    5.9280   -0.0878 H   0  0  0  0  0  0  0  0  0  0  0  0
    3.5708    4.8680   -0.2484 H   0  0  0  0  0  0  0  0  0  0  0  0
    2.3325    4.4444    1.7564 S   0  0  0  0  0  0  0  0  0  0  0  0
    5.1671    6.1819    1.6768 C   0  0  0  0  0  0  0  0  0  0  0  0
    6.2106    5.9132    1.0799 O   0  0  0  0  0  0  0  0  0  0  0  0
    5.0512    6.0874    3.0076 N   0  0  0  0  0  0  0  0  0  0  0  0
    4.1536    6.2932    3.4168 H   0  0  0  0  0  0  0  0  0  0  0  0
    6.1238    5.6446    3.8975 C   0  0  0  0  0  0  0  0  0  0  0  0
    6.2556    4.5652    3.8061 H   0  0  0  0  0  0  0  0  0  0  0  0
    7.0616    6.1344    3.6248 H   0  0  0  0  0  0  0  0  0  0  0  0
    5.8813    5.8906    4.9315 H   0  0  0  0  0  0  0  0  0  0  0  0
  5  6  2  0  0  0  0
  5  7  1  0  0  0  0
  2  3  1  0  0  0  0
  2  4  1  0  0  0  0
  2  5  1  0  0  0  0
  1  2  1  0  0  0  0
 15 16  2  0  0  0  0
 15 17  1  0  0  0  0
 14 36  1  0  0  0  0
 11 12  1  0  0  0  0
 11 13  1  0  0  0  0
 11 14  1  0  0  0  0
  9 10  1  0  0  0  0
  9 11  1  0  0  0  0
  9 15  1  0  0  0  0
  7  8  1  0  0  0  0
  7  9  1  0  0  0  0
 19 20  1  0  0  0  0
 19 21  1  0  0  0  0
 19 22  1  0  0  0  0
 17 18  1  0  0  0  0
 17 19  1  0  0  0  0
 27 28  2  0  0  0  0
 27 29  1  0  0  0  0
 24 25  1  0  0  0  0
 24 26  1  0  0  0  0
 24 27  1  0  0  0  0
 23 24  1  0  0  0  0
 37 38  2  0  0  0  0
 37 39  1  0  0  0  0
 33 34  1  0  0  0  0
 33 35  1  0  0  0  0
 33 36  1  0  0  0  0
 31 32  1  0  0  0  0
 31 33  1  0  0  0  0
 31 37  1  0  0  0  0
 29 30  1  0  0  0  0
 29 31  1  0  0  0  0
 41 42  1  0  0  0  0
 41 43  1  0  0  0  0
 41 44  1  0  0  0  0
 39 40  1  0  0  0  0
 39 41  1  0  0  0  0
M  END
$$$$
default_name
  -OEChem-01062215323D

 44 43  0     1  0  0  0  0  0999 V2000
    2.4488   -3.0448    2.0990 H   0  0  0  0  0  0  0  0  0  0  0  0
    2.2788   -2.0018    2.3640 C   0  0  0  0  0  0  0  0  0  0  0  0
    2.9228   -1.7258    3.1960 H   0  0  0  0  0  0  0  0  0  0  0  0
    1.2358   -1.8618    2.6430 H   0  0  0  0  0  0  0  0  0  0  0  0
    2.6018   -1.1318    1.1730 C   0  0  0  0  0  0  0  0  0  0  0  0
    3.0048   -1.6348    0.1320 O   0  0  0  0  0  0  0  0  0  0  0  0
    2.4088    0.1752    1.3190 N   0  0  0  0  0  0  0  0  0  0  0  0
    2.0708    0.5242    2.2050 H   0  0  0  0  0  0  0  0  0  0  0  0
    2.6638    1.1782    0.2840 C   0  0  1  0  0  0  0  0  0  0  0  0
    1.8007    1.8443    0.2368 H   0  0  0  0  0  0  0  0  0  0  0  0
    3.8946    2.0179    0.6683 C   0  0  0  0  0  0  0  0  0  0  0  0
    4.1681    2.6476   -0.1792 H   0  0  0  0  0  0  0  0  0  0  0  0
    4.7286    1.3344    0.8249 H   0  0  0  0  0  0  0  0  0  0  0  0
    3.7821    3.0621    2.1515 S   0  0  0  0  0  0  0  0  0  0  0  0
    2.8249    0.5193   -1.0989 C   0  0  0  0  0  0  0  0  0  0  0  0
    2.0394   -0.3521   -1.4715 O   0  0  0  0  0  0  0  0  0  0  0  0
    3.8414    0.9416   -1.8626 N   0  0  0  0  0  0  0  0  0  0  0  0
    4.4448    1.6604   -1.4966 H   0  0  0  0  0  0  0  0  0  0  0  0
    4.1281    0.4146   -3.1952 C   0  0  0  0  0  0  0  0  0  0  0  0
    4.3673   -0.6487   -3.1258 H   0  0  0  0  0  0  0  0  0  0  0  0
    3.2513    0.5305   -3.8349 H   0  0  0  0  0  0  0  0  0  0  0  0
    4.9710    0.9455   -3.6397 H   0  0  0  0  0  0  0  0  0  0  0  0
    3.4815    9.6552   -2.5670 H   0  0  0  0  0  0  0  0  0  0  0  0
    4.1915    8.9362   -2.1611 C   0  0  0  0  0  0  0  0  0  0  0  0
    5.1146    9.4453   -1.8884 H   0  0  0  0  0  0  0  0  0  0  0  0
    4.3988    8.1682   -2.9039 H   0  0  0  0  0  0  0  0  0  0  0  0
    3.5915    8.2948   -0.9319 C   0  0  0  0  0  0  0  0  0  0  0  0
    2.4694    8.6069   -0.5572 O   0  0  0  0  0  0  0  0  0  0  0  0
    4.3409    7.3890   -0.3093 N   0  0  0  0  0  0  0  0  0  0  0  0
    5.2627    7.1886   -0.6692 H   0  0  0  0  0  0  0  0  0  0  0  0
    3.9329    6.6571    0.8899 C   0  0  1  0  0  0  0  0  0  0  0  0
    3.3546    7.3226    1.5333 H   0  0  0  0  0  0  0  0  0  0  0  0
    3.0252    5.4983    0.4540 C   0  0  0  0  0  0  0  0  0  0  0  0
    2.1814    5.9280   -0.0878 H   0  0  0  0  0  0  0  0  0  0  0  0
    3.5708    4.8680   -0.2484 H   0  0  0  0  0  0  0  0  0  0  0  0
    2.3325    4.4444    1.7564 S   0  0  0  0  0  0  0  0  0  0  0  0
    5.1671    6.1819    1.6768 C   0  0  0  0  0  0  0  0  0  0  0  0
    6.2106    5.9132    1.0799 O   0  0  0  0  0  0  0  0  0  0  0  0
    5.0512    6.0874    3.0076 N   0  0  0  0  0  0  0  0  0  0  0  0
    4.1536    6.2932    3.4168 H   0  0  0  0  0  0  0  0  0  0  0  0
    6.1238    5.6446    3.8975 C   0  0  0  0  0  0  0  0  0  0  0  0
    6.2556    4.5652    3.8061 H   0  0  0  0  0  0  0  0  0  0  0  0
    7.0616    6.1344    3.6248 H   0  0  0  0  0  0  0  0  0  0  0  0
    5.8813    5.8906    4.9315 H   0  0  0  0  0  0  0  0  0  0  0  0
  5  6  2  0  0  0  0
  5  7  1  0  0  0  0
  2  3  1  0  0  0  0
  2  4  1  0  0  0  0
  2  5  1  0  0  0  0
  1  2  1  0  0  0  0
 15 16  2  0  0  0  0
 15 17  1  0  0  0  0
 14 36  1  0  0  0  0
 11 12  1  0  0  0  0
 11 13  1  0  0  0  0
 11 14  1  0  0  0  0
  9 10  1  0  0  0  0
  9 11  1  0  0  0  0
  9 15  1  0  0  0  0
  7  8  1  0  0  0  0
  7  9  1  0  0  0  0
 19 20  1  0  0  0  0
 19 21  1  0  0  0  0
 19 22  1  0  0  0  0
 17 18  1  0  0  0  0
 17 19  1  0  0  0  0
 27 28  2  0  0  0  0
 27 29  1  0  0  0  0
 24 25  1  0  0  0  0
 24 26  1  0  0  0  0
 24 27  1  0  0  0  0
 23 24  1  0  0  0  0
 37 38  2  0  0  0  0
 37 39  1  0  0  0  0
 33 34  1  0  0  0  0
 33 35  1  0  0  0  0
 33 36  1  0  0  0  0
 31 32  1  0  0  0  0
 31 33  1  0  0  0  0
 31 37  1  0  0  0  0
 29 30  1  0  0  0  0
 29 31  1  0  0  0  0
 41 42  1  0  0  0  0
 41 43  1  0  0  0  0
 41 44  1  0  0  0  0
 39 40  1  0  0  0  0
 39 41  1  0  0  0  0
M  END
$$$$
default_name
  -OEChem-01062215323D

 44 43  0     1  0  0  0  0  0999 V2000
    2.4488   -3.0448    2.0990 H   0  0  0  0  0  0  0  0  0  0  0  0
    2.2788   -2.0018    2.3640 C   0  0  0  0  0  0  0  0  0  0  0  0
    2.9228   -1.7258    3.1960 H   0  0  0  0  0  0  0  0  0  0  0  0
    1.2358   -1.8618    2.6430 H   0  0  0  0  0  0  0  0  0  0  0  0
    2.6018   -1.1318    1.1730 C   0  0  0  0  0  0  0  0  0  0  0  0
    3.0048   -1.6348    0.1320 O   0  0  0  0  0  0  0  0  0  0  0  0
    2.4088    0.1752    1.3190 N   0  0  0  0  0  0  0  0  0  0  0  0
    2.0708    0.5242    2.2050 H   0  0  0  0  0  0  0  0  0  0  0  0
    2.6638    1.1782    0.2840 C   0  0  1  0  0  0  0  0  0  0  0  0
    1.8007    1.8443    0.2368 H   0  0  0  0  0  0  0  0  0  0  0  0
    3.8946    2.0179    0.6683 C   0  0  0  0  0  0  0  0  0  0  0  0
    4.1681    2.6476   -0.1792 H   0  0  0  0  0  0  0  0  0  0  0  0
    4.7286    1.3344    0.8249 H   0  0  0  0  0  0  0  0  0  0  0  0
    3.7821    3.0621    2.1515 S   0  0  0  0  0  0  0  0  0  0  0  0
    2.8249    0.5193   -1.0989 C   0  0  0  0  0  0  0  0  0  0  0  0
    1.9072   -0.1389   -1.5885 O   0  0  0  0  0  0  0  0  0  0  0  0
    3.9916    0.7027   -1.7313 N   0  0  0  0  0  0  0  0  0  0  0  0
    4.6989    1.2553   -1.2740 H   0  0  0  0  0  0  0  0  0  0  0  0
    4.2988    0.1420   -3.0455 C   0  0  0  0  0  0  0  0  0  0  0  0
    4.2766   -0.9486   -2.9935 H   0  0  0  0  0  0  0  0  0  0  0  0
    3.5512    0.4688   -3.7705 H   0  0  0  0  0  0  0  0  0  0  0  0
    5.2864    0.4672   -3.3750 H   0  0  0  0  0  0  0  0  0  0  0  0
    3.4815    9.6552   -2.5670 H   0  0  0  0  0  0  0  0  0  0  0  0
    4.1915    8.9362   -2.1611 C   0  0  0  0  0  0  0  0  0  0  0  0
    5.1146    9.4453   -1.8884 H   0  0  0  0  0  0  0  0  0  0  0  0
    4.3988    8.1682   -2.9039 H   0  0  0  0  0  0  0  0  0  0  0  0
    3.5915    8.2948   -0.9319 C   0  0  0  0  0  0  0  0  0  0  0  0
    2.4694    8.6069   -0.5572 O   0  0  0  0  0  0  0  0  0  0  0  0
    4.3409    7.3890   -0.3093 N   0  0  0  0  0  0  0  0  0  0  0  0
    5.2627    7.1886   -0.6692 H   0  0  0  0  0  0  0  0  0  0  0  0
    3.9329    6.6571    0.8899 C   0  0  1  0  0  0  0  0  0  0  0  0
    3.3546    7.3226    1.5333 H   0  0  0  0  0  0  0  0  0  0  0  0
    3.0252    5.4983    0.4540 C   0  0  0  0  0  0  0  0  0  0  0  0
    2.1814    5.9280   -0.0878 H   0  0  0  0  0  0  0  0  0  0  0  0
    3.5708    4.8680   -0.2484 H   0  0  0  0  0  0  0  0  0  0  0  0
    2.3325    4.4444    1.7564 S   0  0  0  0  0  0  0  0  0  0  0  0
    5.1671    6.1819    1.6768 C   0  0  0  0  0  0  0  0  0  0  0  0
    6.2106    5.9132    1.0799 O   0  0  0  0  0  0  0  0  0  0  0  0
    5.0512    6.0874    3.0076 N   0  0  0  0  0  0  0  0  0  0  0  0
    4.1536    6.2932    3.4168 H   0  0  0  0  0  0  0  0  0  0  0  0
    6.1238    5.6446    3.8975 C   0  0  0  0  0  0  0  0  0  0  0  0
    6.2556    4.5652    3.8061 H   0  0  0  0  0  0  0  0  0  0  0  0
    7.0616    6.1344    3.6248 H   0  0  0  0  0  0  0  0  0  0  0  0
    5.8813    5.8906    4.9315 H   0  0  0  0  0  0  0  0  0  0  0  0
  5  6  2  0  0  0  0
  5  7  1  0  0  0  0
  2  3  1  0  0  0  0
  2  4  1  0  0  0  0
  2  5  1  0  0  0  0
  1  2  1  0  0  0  0
 15 16  2  0  0  0  0
 15 17  1  0  0  0  0
 14 36  1  0  0  0  0
 11 12  1  0  0  0  0
 11 13  1  0  0  0  0
 11 14  1  0  0  0  0
  9 10  1  0  0  0  0
  9 11  1  0  0  0  0
  9 15  1  0  0  0  0
  7  8  1  0  0  0  0
  7  9  1  0  0  0  0
 19 20  1  0  0  0  0
 19 21  1  0  0  0  0
 19 22  1  0  0  0  0
 17 18  1  0  0  0  0
 17 19  1  0  0  0  0
 27 28  2  0  0  0  0
 27 29  1  0  0  0  0
 24 25  1  0  0  0  0
 24 26  1  0  0  0  0
 24 27  1  0  0  0  0
 23 24  1  0  0  0  0
 37 38  2  0  0  0  0
 37 39  1  0  0  0  0
 33 34  1  0  0  0  0
 33 35  1  0  0  0  0
 33 36  1  0  0  0  0
 31 32  1  0  0  0  0
 31 33  1  0  0  0  0
 31 37  1  0  0  0  0
 29 30  1  0  0  0  0
 29 31  1  0  0  0  0
 41 42  1  0  0  0  0
 41 43  1  0  0  0  0
 41 44  1  0  0  0  0
 39 40  1  0  0  0  0
 39 41  1  0  0  0  0
M  END
$$$$
default_name
  -OEChem-01062215323D

 44 43  0     1  0  0  0  0  0999 V2000
    2.4488   -3.0448    2.0990 H   0  0  0  0  0  0  0  0  0  0  0  0
    2.2788   -2.0018    2.3640 C   0  0  0  0  0  0  0  0  0  0  0  0
    2.9228   -1.7258    3.1960 H   0  0  0  0  0  0  0  0  0  0  0  0
    1.2358   -1.8618    2.6430 H   0  0  0  0  0  0  0  0  0  0  0  0
    2.6018   -1.1318    1.1730 C   0  0  0  0  0  0  0  0  0  0  0  0
    3.0048   -1.6348    0.1320 O   0  0  0  0  0  0  0  0  0  0  0  0
    2.4088    0.1752    1.3190 N   0  0  0  0  0  0  0  0  0  0  0  0
    2.0708    0.5242    2.2050 H   0  0  0  0  0  0  0  0  0  0  0  0
    2.6638    1.1782    0.2840 C   0  0  1  0  0  0  0  0  0  0  0  0
    1.8007    1.8443    0.2368 H   0  0  0  0  0  0  0  0  0  0  0  0
    3.8946    2.0179    0.6683 C   0  0  0  0  0  0  0  0  0  0  0  0
    4.1681    2.6476   -0.1792 H   0  0  0  0  0  0  0  0  0  0  0  0
    4.7286    1.3344    0.8249 H   0  0  0  0  0  0  0  0  0  0  0  0
    3.7821    3.0621    2.1515 S   0  0  0  0  0  0  0  0  0  0  0  0
    2.8249    0.5193   -1.0989 C   0  0  0  0  0  0  0  0  0  0  0  0
    1.8420    0.1009   -1.7103 O   0  0  0  0  0  0  0  0  0  0  0  0
    4.0667    0.4336   -1.5943 N   0  0  0  0  0  0  0  0  0  0  0  0
    4.8256    0.7989   -1.0418 H   0  0  0  0  0  0  0  0  0  0  0  0
    4.3838   -0.1650   -2.8893 C   0  0  0  0  0  0  0  0  0  0  0  0
    4.1046   -1.2208   -2.8839 H   0  0  0  0  0  0  0  0  0  0  0  0
    3.8194    0.3377   -3.6768 H   0  0  0  0  0  0  0  0  0  0  0  0
    5.4507   -0.0752   -3.0974 H   0  0  0  0  0  0  0  0  0  0  0  0
    3.4815    9.6552   -2.5670 H   0  0  0  0  0  0  0  0  0  0  0  0
    4.1915    8.9362   -2.1611 C   0  0  0  0  0  0  0  0  0  0  0  0
    5.1146    9.4453   -1.8884 H   0  0  0  0  0  0  0  0  0  0  0  0
    4.3988    8.1682   -2.9039 H   0  0  0  0  0  0  0  0  0  0  0  0
    3.5915    8.2948   -0.9319 C   0  0  0  0  0  0  0  0  0  0  0  0
    2.4694    8.6069   -0.5572 O   0  0  0  0  0  0  0  0  0  0  0  0
    4.3409    7.3890   -0.3093 N   0  0  0  0  0  0  0  0  0  0  0  0
    5.2627    7.1886   -0.6692 H   0  0  0  0  0  0  0  0  0  0  0  0
    3.9329    6.6571    0.8899 C   0  0  1  0  0  0  0  0  0  0  0  0
    3.3546    7.3226    1.5333 H   0  0  0  0  0  0  0  0  0  0  0  0
    3.0252    5.4983    0.4540 C   0  0  0  0  0  0  0  0  0  0  0  0
    2.1814    5.9280   -0.0878 H   0  0  0  0  0  0  0  0  0  0  0  0
    3.5708    4.8680   -0.2484 H   0  0  0  0  0  0  0  0  0  0  0  0
    2.3325    4.4444    1.7564 S   0  0  0  0  0  0  0  0  0  0  0  0
    5.1671    6.1819    1.6768 C   0  0  0  0  0  0  0  0  0  0  0  0
    6.2106    5.9132    1.0799 O   0  0  0  0  0  0  0  0  0  0  0  0
    5.0512    6.0874    3.0076 N   0  0  0  0  0  0  0  0  0  0  0  0
    4.1536    6.2932    3.4168 H   0  0  0  0  0  0  0  0  0  0  0  0
    6.1238    5.6446    3.8975 C   0  0  0  0  0  0  0  0  0  0  0  0
    6.2556    4.5652    3.8061 H   0  0  0  0  0  0  0  0  0  0  0  0
    7.0616    6.1344    3.6248 H   0  0  0  0  0  0  0  0  0  0  0  0
    5.8813    5.8906    4.9315 H   0  0  0  0  0  0  0  0  0  0  0  0
  5  6  2  0  0  0  0
  5  7  1  0  0  0  0
  2  3  1  0  0  0  0
  2  4  1  0  0  0  0
  2  5  1  0  0  0  0
  1  2  1  0  0  0  0
 15 16  2  0  0  0  0
 15 17  1  0  0  0  0
 14 36  1  0  0  0  0
 11 12  1  0  0  0  0
 11 13  1  0  0  0  0
 11 14  1  0  0  0  0
  9 10  1  0  0  0  0
  9 11  1  0  0  0  0
  9 15  1  0  0  0  0
  7  8  1  0  0  0  0
  7  9  1  0  0  0  0
 19 20  1  0  0  0  0
 19 21  1  0  0  0  0
 19 22  1  0  0  0  0
 17 18  1  0  0  0  0
 17 19  1  0  0  0  0
 27 28  2  0  0  0  0
 27 29  1  0  0  0  0
 24 25  1  0  0  0  0
 24 26  1  0  0  0  0
 24 27  1  0  0  0  0
 23 24  1  0  0  0  0
 37 38  2  0  0  0  0
 37 39  1  0  0  0  0
 33 34  1  0  0  0  0
 33 35  1  0  0  0  0
 33 36  1  0  0  0  0
 31 32  1  0  0  0  0
 31 33  1  0  0  0  0
 31 37  1  0  0  0  0
 29 30  1  0  0  0  0
 29 31  1  0  0  0  0
 41 42  1  0  0  0  0
 41 43  1  0  0  0  0
 41 44  1  0  0  0  0
 39 40  1  0  0  0  0
 39 41  1  0  0  0  0
M  END
$$$$
default_name
  -OEChem-01062215323D

 44 43  0     1  0  0  0  0  0999 V2000
    2.4488   -3.0448    2.0990 H   0  0  0  0  0  0  0  0  0  0  0  0
    2.2788   -2.0018    2.3640 C   0  0  0  0  0  0  0  0  0  0  0  0
    2.9228   -1.7258    3.1960 H   0  0  0  0  0  0  0  0  0  0  0  0
    1.2358   -1.8618    2.6430 H   0  0  0  0  0  0  0  0  0  0  0  0
    2.6018   -1.1318    1.1730 C   0  0  0  0  0  0  0  0  0  0  0  0
    3.0048   -1.6348    0.1320 O   0  0  0  0  0  0  0  0  0  0  0  0
    2.4088    0.1752    1.3190 N   0  0  0  0  0  0  0  0  0  0  0  0
    2.0708    0.5242    2.2050 H   0  0  0  0  0  0  0  0  0  0  0  0
    2.6638    1.1782    0.2840 C   0  0  1  0  0  0  0  0  0  0  0  0
    1.8007    1.8443    0.2368 H   0  0  0  0  0  0  0  0  0  0  0  0
    3.8946    2.0179    0.6683 C   0  0  0  0  0  0  0  0  0  0  0  0
    4.1681    2.6476   -0.1792 H   0  0  0  0  0  0  0  0  0  0  0  0
    4.7286    1.3344    0.8249 H   0  0  0  0  0  0  0  0  0  0  0  0
    3.7821    3.0621    2.1515 S   0  0  0  0  0  0  0  0  0  0  0  0
    2.8249    0.5193   -1.0989 C   0  0  0  0  0  0  0  0  0  0  0  0
    1.8482    0.3511   -1.8288 O   0  0  0  0  0  0  0  0  0  0  0  0
    4.0615    0.1525   -1.4610 N   0  0  0  0  0  0  0  0  0  0  0  0
    4.8163    0.3224   -0.8159 H   0  0  0  0  0  0  0  0  0  0  0  0
    4.3773   -0.4855   -2.7373 C   0  0  0  0  0  0  0  0  0  0  0  0
    3.8632   -1.4467   -2.8044 H   0  0  0  0  0  0  0  0  0  0  0  0
    4.0376    0.1462   -3.5602 H   0  0  0  0  0  0  0  0  0  0  0  0
    5.4527   -0.6449   -2.8258 H   0  0  0  0  0  0  0  0  0  0  0  0
    3.4815    9.6552   -2.5670 H   0  0  0  0  0  0  0  0  0  0  0  0
    4.1915    8.9362   -2.1611 C   0  0  0  0  0  0  0  0  0  0  0  0
    5.1146    9.4453   -1.8884 H   0  0  0  0  0  0  0  0  0  0  0  0
    4.3988    8.1682   -2.9039 H   0  0  0  0  0  0  0  0  0  0  0  0
    3.5915    8.2948   -0.9319 C   0  0  0  0  0  0  0  0  0  0  0  0
    2.4694    8.6069   -0.5572 O   0  0  0  0  0  0  0  0  0  0  0  0
    4.3409    7.3890   -0.3093 N   0  0  0  0  0  0  0  0  0  0  0  0
    5.2627    7.1886   -0.6692 H   0  0  0  0  0  0  0  0  0  0  0  0
    3.9329    6.6571    0.8899 C   0  0  1  0  0  0  0  0  0  0  0  0
    3.3546    7.3226    1.5333 H   0  0  0  0  0  0  0  0  0  0  0  0
    3.0252    5.4983    0.4540 C   0  0  0  0  0  0  0  0  0  0  0  0
    2.1814    5.9280   -0.0878 H   0  0  0  0  0  0  0  0  0  0  0  0
    3.5708    4.8680   -0.2484 H   0  0  0  0  0  0  0  0  0  0  0  0
    2.3325    4.4444    1.7564 S   0  0  0  0  0  0  0  0  0  0  0  0
    5.1671    6.1819    1.6768 C   0  0  0  0  0  0  0  0  0  0  0  0
    6.2106    5.9132    1.0799 O   0  0  0  0  0  0  0  0  0  0  0  0
    5.0512    6.0874    3.0076 N   0  0  0  0  0  0  0  0  0  0  0  0
    4.1536    6.2932    3.4168 H   0  0  0  0  0  0  0  0  0  0  0  0
    6.1238    5.6446    3.8975 C   0  0  0  0  0  0  0  0  0  0  0  0
    6.2556    4.5652    3.8061 H   0  0  0  0  0  0  0  0  0  0  0  0
    7.0616    6.1344    3.6248 H   0  0  0  0  0  0  0  0  0  0  0  0
    5.8813    5.8906    4.9315 H   0  0  0  0  0  0  0  0  0  0  0  0
  5  6  2  0  0  0  0
  5  7  1  0  0  0  0
  2  3  1  0  0  0  0
  2  4  1  0  0  0  0
  2  5  1  0  0  0  0
  1  2  1  0  0  0  0
 15 16  2  0  0  0  0
 15 17  1  0  0  0  0
 14 36  1  0  0  0  0
 11 12  1  0  0  0  0
 11 13  1  0  0  0  0
 11 14  1  0  0  0  0
  9 10  1  0  0  0  0
  9 11  1  0  0  0  0
  9 15  1  0  0  0  0
  7  8  1  0  0  0  0
  7  9  1  0  0  0  0
 19 20  1  0  0  0  0
 19 21  1  0  0  0  0
 19 22  1  0  0  0  0
 17 18  1  0  0  0  0
 17 19  1  0  0  0  0
 27 28  2  0  0  0  0
 27 29  1  0  0  0  0
 24 25  1  0  0  0  0
 24 26  1  0  0  0  0
 24 27  1  0  0  0  0
 23 24  1  0  0  0  0
 37 38  2  0  0  0  0
 37 39  1  0  0  0  0
 33 34  1  0  0  0  0
 33 35  1  0  0  0  0
 33 36  1  0  0  0  0
 31 32  1  0  0  0  0
 31 33  1  0  0  0  0
 31 37  1  0  0  0  0
 29 30  1  0  0  0  0
 29 31  1  0  0  0  0
 41 42  1  0  0  0  0
 41 43  1  0  0  0  0
 41 44  1  0  0  0  0
 39 40  1  0  0  0  0
 39 41  1  0  0  0  0
M  END
$$$$
default_name
  -OEChem-01062215323D

 44 43  0     1  0  0  0  0  0999 V2000
    2.4488   -3.0448    2.0990 H   0  0  0  0  0  0  0  0  0  0  0  0
    2.2788   -2.0018    2.3640 C   0  0  0  0  0  0  0  0  0  0  0  0
    2.9228   -1.7258    3.1960 H   0  0  0  0  0  0  0  0  0  0  0  0
    1.2358   -1.8618    2.6430 H   0  0  0  0  0  0  0  0  0  0  0  0
    2.6018   -1.1318    1.1730 C   0  0  0  0  0  0  0  0  0  0  0  0
    3.0048   -1.6348    0.1320 O   0  0  0  0  0  0  0  0  0  0  0  0
    2.4088    0.1752    1.3190 N   0  0  0  0  0  0  0  0  0  0  0  0
    2.0708    0.5242    2.2050 H   0  0  0  0  0  0  0  0  0  0  0  0
    2.6638    1.1782    0.2840 C   0  0  1  0  0  0  0  0  0  0  0  0
    1.8007    1.8443    0.2368 H   0  0  0  0  0  0  0  0  0  0  0  0
    3.8946    2.0179    0.6683 C   0  0  0  0  0  0  0  0  0  0  0  0
    4.1681    2.6476   -0.1792 H   0  0  0  0  0  0  0  0  0  0  0  0
    4.7286    1.3344    0.8249 H   0  0  0  0  0  0  0  0  0  0  0  0
    3.7821    3.0621    2.1515 S   0  0  0  0  0  0  0  0  0  0  0  0
    2.8249    0.5193   -1.0989 C   0  0  0  0  0  0  0  0  0  0  0  0
    1.9254    0.5944   -1.9357 O   0  0  0  0  0  0  0  0  0  0  0  0
    3.9764   -0.1215   -1.3404 N   0  0  0  0  0  0  0  0  0  0  0  0
    4.6714   -0.1419   -0.6115 H   0  0  0  0  0  0  0  0  0  0  0  0
    4.2796   -0.7977   -2.6000 C   0  0  0  0  0  0  0  0  0  0  0  0
    3.5686   -1.6109   -2.7604 H   0  0  0  0  0  0  0  0  0  0  0  0
    4.1910   -0.0926   -3.4285 H   0  0  0  0  0  0  0  0  0  0  0  0
    5.2921   -1.2030   -2.5786 H   0  0  0  0  0  0  0  0  0  0  0  0
    3.4815    9.6552   -2.5670 H   0  0  0  0  0  0  0  0  0  0  0  0
    4.1915    8.9362   -2.1611 C   0  0  0  0  0  0  0  0  0  0  0  0
    5.1146    9.4453   -1.8884 H   0  0  0  0  0  0  0  0  0  0  0  0
    4.3988    8.1682   -2.9039 H   0  0  0  0  0  0  0  0  0  0  0  0
    3.5915    8.2948   -0.9319 C   0  0  0  0  0  0  0  0  0  0  0  0
    2.4694    8.6069   -0.5572 O   0  0  0  0  0  0  0  0  0  0  0  0
    4.3409    7.3890   -0.3093 N   0  0  0  0  0  0  0  0  0  0  0  0
    5.2627    7.1886   -0.6692 H   0  0  0  0  0  0  0  0  0  0  0  0
    3.9329    6.6571    0.8899 C   0  0  1  0  0  0  0  0  0  0  0  0
    3.3546    7.3226    1.5333 H   0  0  0  0  0  0  0  0  0  0  0  0
    3.0252    5.4983    0.4540 C   0  0  0  0  0  0  0  0  0  0  0  0
    2.1814    5.9280   -0.0878 H   0  0  0  0  0  0  0  0  0  0  0  0
    3.5708    4.8680   -0.2484 H   0  0  0  0  0  0  0  0  0  0  0  0
    2.3325    4.4444    1.7564 S   0  0  0  0  0  0  0  0  0  0  0  0
    5.1671    6.1819    1.6768 C   0  0  0  0  0  0  0  0  0  0  0  0
    6.2106    5.9132    1.0799 O   0  0  0  0  0  0  0  0  0  0  0  0
    5.0512    6.0874    3.0076 N   0  0  0  0  0  0  0  0  0  0  0  0
    4.1536    6.2932    3.4168 H   0  0  0  0  0  0  0  0  0  0  0  0
    6.1238    5.6446    3.8975 C   0  0  0  0  0  0  0  0  0  0  0  0
    6.2556    4.5652    3.8061 H   0  0  0  0  0  0  0  0  0  0  0  0
    7.0616    6.1344    3.6248 H   0  0  0  0  0  0  0  0  0  0  0  0
    5.8813    5.8906    4.9315 H   0  0  0  0  0  0  0  0  0  0  0  0
  5  6  2  0  0  0  0
  5  7  1  0  0  0  0
  2  3  1  0  0  0  0
  2  4  1  0  0  0  0
  2  5  1  0  0  0  0
  1  2  1  0  0  0  0
 15 16  2  0  0  0  0
 15 17  1  0  0  0  0
 14 36  1  0  0  0  0
 11 12  1  0  0  0  0
 11 13  1  0  0  0  0
 11 14  1  0  0  0  0
  9 10  1  0  0  0  0
  9 11  1  0  0  0  0
  9 15  1  0  0  0  0
  7  8  1  0  0  0  0
  7  9  1  0  0  0  0
 19 20  1  0  0  0  0
 19 21  1  0  0  0  0
 19 22  1  0  0  0  0
 17 18  1  0  0  0  0
 17 19  1  0  0  0  0
 27 28  2  0  0  0  0
 27 29  1  0  0  0  0
 24 25  1  0  0  0  0
 24 26  1  0  0  0  0
 24 27  1  0  0  0  0
 23 24  1  0  0  0  0
 37 38  2  0  0  0  0
 37 39  1  0  0  0  0
 33 34  1  0  0  0  0
 33 35  1  0  0  0  0
 33 36  1  0  0  0  0
 31 32  1  0  0  0  0
 31 33  1  0  0  0  0
 31 37  1  0  0  0  0
 29 30  1  0  0  0  0
 29 31  1  0  0  0  0
 41 42  1  0  0  0  0
 41 43  1  0  0  0  0
 41 44  1  0  0  0  0
 39 40  1  0  0  0  0
 39 41  1  0  0  0  0
M  END
$$$$
default_name
  -OEChem-01062215323D

 44 43  0     1  0  0  0  0  0999 V2000
    2.4488   -3.0448    2.0990 H   0  0  0  0  0  0  0  0  0  0  0  0
    2.2788   -2.0018    2.3640 C   0  0  0  0  0  0  0  0  0  0  0  0
    2.9228   -1.7258    3.1960 H   0  0  0  0  0  0  0  0  0  0  0  0
    1.2358   -1.8618    2.6430 H   0  0  0  0  0  0  0  0  0  0  0  0
    2.6018   -1.1318    1.1730 C   0  0  0  0  0  0  0  0  0  0  0  0
    3.0048   -1.6348    0.1320 O   0  0  0  0  0  0  0  0  0  0  0  0
    2.4088    0.1752    1.3190 N   0  0  0  0  0  0  0  0  0  0  0  0
    2.0708    0.5242    2.2050 H   0  0  0  0  0  0  0  0  0  0  0  0
    2.6638    1.1782    0.2840 C   0  0  1  0  0  0  0  0  0  0  0  0
    1.8007    1.8443    0.2368 H   0  0  0  0  0  0  0  0  0  0  0  0
    3.8946    2.0179    0.6683 C   0  0  0  0  0  0  0  0  0  0  0  0
    4.1681    2.6476   -0.1792 H   0  0  0  0  0  0  0  0  0  0  0  0
    4.7286    1.3344    0.8249 H   0  0  0  0  0  0  0  0  0  0  0  0
    3.7821    3.0621    2.1515 S   0  0  0  0  0  0  0  0  0  0  0  0
    2.8249    0.5193   -1.0989 C   0  0  0  0  0  0  0  0  0  0  0  0
    2.0683    0.8144   -2.0239 O   0  0  0  0  0  0  0  0  0  0  0  0
    3.8172   -0.3696   -1.2407 N   0  0  0  0  0  0  0  0  0  0  0  0
    4.4011   -0.5622   -0.4428 H   0  0  0  0  0  0  0  0  0  0  0  0
    4.0976   -1.0803   -2.4865 C   0  0  0  0  0  0  0  0  0  0  0  0
    3.2411   -1.7023   -2.7551 H   0  0  0  0  0  0  0  0  0  0  0  0
    4.2690   -0.3625   -3.2908 H   0  0  0  0  0  0  0  0  0  0  0  0
    4.9799   -1.7114   -2.3728 H   0  0  0  0  0  0  0  0  0  0  0  0
    3.4815    9.6552   -2.5670 H   0  0  0  0  0  0  0  0  0  0  0  0
    4.1915    8.9362   -2.1611 C   0  0  0  0  0  0  0  0  0  0  0  0
    5.1146    9.4453   -1.8884 H   0  0  0  0  0  0  0  0  0  0  0  0
    4.3988    8.1682   -2.9039 H   0  0  0  0  0  0  0  0  0  0  0  0
    3.5915    8.2948   -0.9319 C   0  0  0  0  0  0  0  0  0  0  0  0
    2.4694    8.6069   -0.5572 O   0  0  0  0  0  0  0  0  0  0  0  0
    4.3409    7.3890   -0.3093 N   0  0  0  0  0  0  0  0  0  0  0  0
    5.2627    7.1886   -0.6692 H   0  0  0  0  0  0  0  0  0  0  0  0
    3.9329    6.6571    0.8899 C   0  0  1  0  0  0  0  0  0  0  0  0
    3.3546    7.3226    1.5333 H   0  0  0  0  0  0  0  0  0  0  0  0
    3.0252    5.4983    0.4540 C   0  0  0  0  0  0  0  0  0  0  0  0
    2.1814    5.9280   -0.0878 H   0  0  0  0  0  0  0  0  0  0  0  0
    3.5708    4.8680   -0.2484 H   0  0  0  0  0  0  0  0  0  0  0  0
    2.3325    4.4444    1.7564 S   0  0  0  0  0  0  0  0  0  0  0  0
    5.1671    6.1819    1.6768 C   0  0  0  0  0  0  0  0  0  0  0  0
    6.2106    5.9132    1.0799 O   0  0  0  0  0  0  0  0  0  0  0  0
    5.0512    6.0874    3.0076 N   0  0  0  0  0  0  0  0  0  0  0  0
    4.1536    6.2932    3.4168 H   0  0  0  0  0  0  0  0  0  0  0  0
    6.1238    5.6446    3.8975 C   0  0  0  0  0  0  0  0  0  0  0  0
    6.2556    4.5652    3.8061 H   0  0  0  0  0  0  0  0  0  0  0  0
    7.0616    6.1344    3.6248 H   0  0  0  0  0  0  0  0  0  0  0  0
    5.8813    5.8906    4.9315 H   0  0  0  0  0  0  0  0  0  0  0  0
  5  6  2  0  0  0  0
  5  7  1  0  0  0  0
  2  3  1  0  0  0  0
  2  4  1  0  0  0  0
  2  5  1  0  0  0  0
  1  2  1  0  0  0  0
 15 16  2  0  0  0  0
 15 17  1  0  0  0  0
 14 36  1  0  0  0  0
 11 12  1  0  0  0  0
 11 13  1  0  0  0  0
 11 14  1  0  0  0  0
  9 10  1  0  0  0  0
  9 11  1  0  0  0  0
  9 15  1  0  0  0  0
  7  8  1  0  0  0  0
  7  9  1  0  0  0  0
 19 20  1  0  0  0  0
 19 21  1  0  0  0  0
 19 22  1  0  0  0  0
 17 18  1  0  0  0  0
 17 19  1  0  0  0  0
 27 28  2  0  0  0  0
 27 29  1  0  0  0  0
 24 25  1  0  0  0  0
 24 26  1  0  0  0  0
 24 27  1  0  0  0  0
 23 24  1  0  0  0  0
 37 38  2  0  0  0  0
 37 39  1  0  0  0  0
 33 34  1  0  0  0  0
 33 35  1  0  0  0  0
 33 36  1  0  0  0  0
 31 32  1  0  0  0  0
 31 33  1  0  0  0  0
 31 37  1  0  0  0  0
 29 30  1  0  0  0  0
 29 31  1  0  0  0  0
 41 42  1  0  0  0  0
 41 43  1  0  0  0  0
 41 44  1  0  0  0  0
 39 40  1  0  0  0  0
 39 41  1  0  0  0  0
M  END
$$$$
default_name
  -OEChem-01062215323D

 44 43  0     1  0  0  0  0  0999 V2000
    2.4488   -3.0448    2.0990 H   0  0  0  0  0  0  0  0  0  0  0  0
    2.2788   -2.0018    2.3640 C   0  0  0  0  0  0  0  0  0  0  0  0
    2.9228   -1.7258    3.1960 H   0  0  0  0  0  0  0  0  0  0  0  0
    1.2358   -1.8618    2.6430 H   0  0  0  0  0  0  0  0  0  0  0  0
    2.6018   -1.1318    1.1730 C   0  0  0  0  0  0  0  0  0  0  0  0
    3.0048   -1.6348    0.1320 O   0  0  0  0  0  0  0  0  0  0  0  0
    2.4088    0.1752    1.3190 N   0  0  0  0  0  0  0  0  0  0  0  0
    2.0708    0.5242    2.2050 H   0  0  0  0  0  0  0  0  0  0  0  0
    2.6638    1.1782    0.2840 C   0  0  1  0  0  0  0  0  0  0  0  0
    1.8007    1.8443    0.2368 H   0  0  0  0  0  0  0  0  0  0  0  0
    3.8946    2.0179    0.6683 C   0  0  0  0  0  0  0  0  0  0  0  0
    4.1681    2.6476   -0.1792 H   0  0  0  0  0  0  0  0  0  0  0  0
    4.7286    1.3344    0.8249 H   0  0  0  0  0  0  0  0  0  0  0  0
    3.7821    3.0621    2.1515 S   0  0  0  0  0  0  0  0  0  0  0  0
    2.8249    0.5193   -1.0989 C   0  0  0  0  0  0  0  0  0  0  0  0
    2.2673    0.9961   -2.0873 O   0  0  0  0  0  0  0  0  0  0  0  0
    3.5947   -0.5749   -1.1688 N   0  0  0  0  0  0  0  0  0  0  0  0
    4.0236   -0.9099   -0.3211 H   0  0  0  0  0  0  0  0  0  0  0  0
    3.8435   -1.3140   -2.4048 C   0  0  0  0  0  0  0  0  0  0  0  0
    2.9028   -1.7146   -2.7886 H   0  0  0  0  0  0  0  0  0  0  0  0
    4.2665   -0.6451   -3.1565 H   0  0  0  0  0  0  0  0  0  0  0  0
    4.5374   -2.1355   -2.2222 H   0  0  0  0  0  0  0  0  0  0  0  0
    3.4815    9.6552   -2.5670 H   0  0  0  0  0  0  0  0  0  0  0  0
    4.1915    8.9362   -2.1611 C   0  0  0  0  0  0  0  0  0  0  0  0
    5.1146    9.4453   -1.8884 H   0  0  0  0  0  0  0  0  0  0  0  0
    4.3988    8.1682   -2.9039 H   0  0  0  0  0  0  0  0  0  0  0  0
    3.5915    8.2948   -0.9319 C   0  0  0  0  0  0  0  0  0  0  0  0
    2.4694    8.6069   -0.5572 O   0  0  0  0  0  0  0  0  0  0  0  0
    4.3409    7.3890   -0.3093 N   0  0  0  0  0  0  0  0  0  0  0  0
    5.2627    7.1886   -0.6692 H   0  0  0  0  0  0  0  0  0  0  0  0
    3.9329    6.6571    0.8899 C   0  0  1  0  0  0  0  0  0  0  0  0
    3.3546    7.3226    1.5333 H   0  0  0  0  0  0  0  0  0  0  0  0
    3.0252    5.4983    0.4540 C   0  0  0  0  0  0  0  0  0  0  0  0
    2.1814    5.9280   -0.0878 H   0  0  0  0  0  0  0  0  0  0  0  0
    3.5708    4.8680   -0.2484 H   0  0  0  0  0  0  0  0  0  0  0  0
    2.3325    4.4444    1.7564 S   0  0  0  0  0  0  0  0  0  0  0  0
    5.1671    6.1819    1.6768 C   0  0  0  0  0  0  0  0  0  0  0  0
    6.2106    5.9132    1.0799 O   0  0  0  0  0  0  0  0  0  0  0  0
    5.0512    6.0874    3.0076 N   0  0  0  0  0  0  0  0  0  0  0  0
    4.1536    6.2932    3.4168 H   0  0  0  0  0  0  0  0  0  0  0  0
    6.1238    5.6446    3.8975 C   0  0  0  0  0  0  0  0  0  0  0  0
    6.2556    4.5652    3.8061 H   0  0  0  0  0  0  0  0  0  0  0  0
    7.0616    6.1344    3.6248 H   0  0  0  0  0  0  0  0  0  0  0  0
    5.8813    5.8906    4.9315 H   0  0  0  0  0  0  0  0  0  0  0  0
  5  6  2  0  0  0  0
  5  7  1  0  0  0  0
  2  3  1  0  0  0  0
  2  4  1  0  0  0  0
  2  5  1  0  0  0  0
  1  2  1  0  0  0  0
 15 16  2  0  0  0  0
 15 17  1  0  0  0  0
 14 36  1  0  0  0  0
 11 12  1  0  0  0  0
 11 13  1  0  0  0  0
 11 14  1  0  0  0  0
  9 10  1  0  0  0  0
  9 11  1  0  0  0  0
  9 15  1  0  0  0  0
  7  8  1  0  0  0  0
  7  9  1  0  0  0  0
 19 20  1  0  0  0  0
 19 21  1  0  0  0  0
 19 22  1  0  0  0  0
 17 18  1  0  0  0  0
 17 19  1  0  0  0  0
 27 28  2  0  0  0  0
 27 29  1  0  0  0  0
 24 25  1  0  0  0  0
 24 26  1  0  0  0  0
 24 27  1  0  0  0  0
 23 24  1  0  0  0  0
 37 38  2  0  0  0  0
 37 39  1  0  0  0  0
 33 34  1  0  0  0  0
 33 35  1  0  0  0  0
 33 36  1  0  0  0  0
 31 32  1  0  0  0  0
 31 33  1  0  0  0  0
 31 37  1  0  0  0  0
 29 30  1  0  0  0  0
 29 31  1  0  0  0  0
 41 42  1  0  0  0  0
 41 43  1  0  0  0  0
 41 44  1  0  0  0  0
 39 40  1  0  0  0  0
 39 41  1  0  0  0  0
M  END
$$$$
default_name
  -OEChem-01062215323D

 44 43  0     1  0  0  0  0  0999 V2000
    2.4488   -3.0448    2.0990 H   0  0  0  0  0  0  0  0  0  0  0  0
    2.2788   -2.0018    2.3640 C   0  0  0  0  0  0  0  0  0  0  0  0
    2.9228   -1.7258    3.1960 H   0  0  0  0  0  0  0  0  0  0  0  0
    1.2358   -1.8618    2.6430 H   0  0  0  0  0  0  0  0  0  0  0  0
    2.6018   -1.1318    1.1730 C   0  0  0  0  0  0  0  0  0  0  0  0
    3.0048   -1.6348    0.1320 O   0  0  0  0  0  0  0  0  0  0  0  0
    2.4088    0.1752    1.3190 N   0  0  0  0  0  0  0  0  0  0  0  0
    2.0708    0.5242    2.2050 H   0  0  0  0  0  0  0  0  0  0  0  0
    2.6638    1.1782    0.2840 C   0  0  1  0  0  0  0  0  0  0  0  0
    1.8007    1.8443    0.2368 H   0  0  0  0  0  0  0  0  0  0  0  0
    3.8946    2.0179    0.6683 C   0  0  0  0  0  0  0  0  0  0  0  0
    4.1681    2.6476   -0.1792 H   0  0  0  0  0  0  0  0  0  0  0  0
    4.7286    1.3344    0.8249 H   0  0  0  0  0  0  0  0  0  0  0  0
    3.7821    3.0621    2.1515 S   0  0  0  0  0  0  0  0  0  0  0  0
    2.8249    0.5193   -1.0989 C   0  0  0  0  0  0  0  0  0  0  0  0
    2.5088    1.1271   -2.1215 O   0  0  0  0  0  0  0  0  0  0  0  0
    3.3241   -0.7235   -1.1295 N   0  0  0  0  0  0  0  0  0  0  0  0
    3.5646   -1.1613   -0.2548 H   0  0  0  0  0  0  0  0  0  0  0  0
    3.5347   -1.4829   -2.3603 C   0  0  0  0  0  0  0  0  0  0  0  0
    2.5770   -1.6470   -2.8588 H   0  0  0  0  0  0  0  0  0  0  0  0
    4.1835   -0.9210   -3.0347 H   0  0  0  0  0  0  0  0  0  0  0  0
    3.9948   -2.4464   -2.1373 H   0  0  0  0  0  0  0  0  0  0  0  0
    3.4815    9.6552   -2.5670 H   0  0  0  0  0  0  0  0  0  0  0  0
    4.1915    8.9362   -2.1611 C   0  0  0  0  0  0  0  0  0  0  0  0
    5.1146    9.4453   -1.8884 H   0  0  0  0  0  0  0  0  0  0  0  0
    4.3988    8.1682   -2.9039 H   0  0  0  0  0  0  0  0  0  0  0  0
    3.5915    8.2948   -0.9319 C   0  0  0  0  0  0  0  0  0  0  0  0
    2.4694    8.6069   -0.5572 O   0  0  0  0  0  0  0  0  0  0  0  0
    4.3409    7.3890   -0.3093 N   0  0  0  0  0  0  0  0  0  0  0  0
    5.2627    7.1886   -0.6692 H   0  0  0  0  0  0  0  0  0  0  0  0
    3.9329    6.6571    0.8899 C   0  0  1  0  0  0  0  0  0  0  0  0
    3.3546    7.3226    1.5333 H   0  0  0  0  0  0  0  0  0  0  0  0
    3.0252    5.4983    0.4540 C   0  0  0  0  0  0  0  0  0  0  0  0
    2.1814    5.9280   -0.0878 H   0  0  0  0  0  0  0  0  0  0  0  0
    3.5708    4.8680   -0.2484 H   0  0  0  0  0  0  0  0  0  0  0  0
    2.3325    4.4444    1.7564 S   0  0  0  0  0  0  0  0  0  0  0  0
    5.1671    6.1819    1.6768 C   0  0  0  0  0  0  0  0  0  0  0  0
    6.2106    5.9132    1.0799 O   0  0  0  0  0  0  0  0  0  0  0  0
    5.0512    6.0874    3.0076 N   0  0  0  0  0  0  0  0  0  0  0  0
    4.1536    6.2932    3.4168 H   0  0  0  0  0  0  0  0  0  0  0  0
    6.1238    5.6446    3.8975 C   0  0  0  0  0  0  0  0  0  0  0  0
    6.2556    4.5652    3.8061 H   0  0  0  0  0  0  0  0  0  0  0  0
    7.0616    6.1344    3.6248 H   0  0  0  0  0  0  0  0  0  0  0  0
    5.8813    5.8906    4.9315 H   0  0  0  0  0  0  0  0  0  0  0  0
  5  6  2  0  0  0  0
  5  7  1  0  0  0  0
  2  3  1  0  0  0  0
  2  4  1  0  0  0  0
  2  5  1  0  0  0  0
  1  2  1  0  0  0  0
 15 16  2  0  0  0  0
 15 17  1  0  0  0  0
 14 36  1  0  0  0  0
 11 12  1  0  0  0  0
 11 13  1  0  0  0  0
 11 14  1  0  0  0  0
  9 10  1  0  0  0  0
  9 11  1  0  0  0  0
  9 15  1  0  0  0  0
  7  8  1  0  0  0  0
  7  9  1  0  0  0  0
 19 20  1  0  0  0  0
 19 21  1  0  0  0  0
 19 22  1  0  0  0  0
 17 18  1  0  0  0  0
 17 19  1  0  0  0  0
 27 28  2  0  0  0  0
 27 29  1  0  0  0  0
 24 25  1  0  0  0  0
 24 26  1  0  0  0  0
 24 27  1  0  0  0  0
 23 24  1  0  0  0  0
 37 38  2  0  0  0  0
 37 39  1  0  0  0  0
 33 34  1  0  0  0  0
 33 35  1  0  0  0  0
 33 36  1  0  0  0  0
 31 32  1  0  0  0  0
 31 33  1  0  0  0  0
 31 37  1  0  0  0  0
 29 30  1  0  0  0  0
 29 31  1  0  0  0  0
 41 42  1  0  0  0  0
 41 43  1  0  0  0  0
 41 44  1  0  0  0  0
 39 40  1  0  0  0  0
 39 41  1  0  0  0  0
M  END
$$$$
default_name
  -OEChem-01062215323D

 44 43  0     1  0  0  0  0  0999 V2000
    2.4488   -3.0448    2.0990 H   0  0  0  0  0  0  0  0  0  0  0  0
    2.2788   -2.0018    2.3640 C   0  0  0  0  0  0  0  0  0  0  0  0
    2.9228   -1.7258    3.1960 H   0  0  0  0  0  0  0  0  0  0  0  0
    1.2358   -1.8618    2.6430 H   0  0  0  0  0  0  0  0  0  0  0  0
    2.6018   -1.1318    1.1730 C   0  0  0  0  0  0  0  0  0  0  0  0
    3.0048   -1.6348    0.1320 O   0  0  0  0  0  0  0  0  0  0  0  0
    2.4088    0.1752    1.3190 N   0  0  0  0  0  0  0  0  0  0  0  0
    2.0708    0.5242    2.2050 H   0  0  0  0  0  0  0  0  0  0  0  0
    2.6638    1.1782    0.2840 C   0  0  1  0  0  0  0  0  0  0  0  0
    1.8007    1.8443    0.2368 H   0  0  0  0  0  0  0  0  0  0  0  0
    3.8946    2.0179    0.6683 C   0  0  0  0  0  0  0  0  0  0  0  0
    4.1681    2.6476   -0.1792 H   0  0  0  0  0  0  0  0  0  0  0  0
    4.7286    1.3344    0.8249 H   0  0  0  0  0  0  0  0  0  0  0  0
    3.7821    3.0621    2.1515 S   0  0  0  0  0  0  0  0  0  0  0  0
    2.8249    0.5193   -1.0989 C   0  0  0  0  0  0  0  0  0  0  0  0
    2.7762    1.1984   -2.1244 O   0  0  0  0  0  0  0  0  0  0  0  0
    3.0238   -0.8053   -1.1256 N   0  0  0  0  0  0  0  0  0  0  0  0
    3.0556   -1.2994   -0.2483 H   0  0  0  0  0  0  0  0  0  0  0  0
    3.1923   -1.5756   -2.3560 C   0  0  0  0  0  0  0  0  0  0  0  0
    2.2857   -1.5041   -2.9608 H   0  0  0  0  0  0  0  0  0  0  0  0
    4.0257   -1.1716   -2.9337 H   0  0  0  0  0  0  0  0  0  0  0  0
    3.3891   -2.6230   -2.1238 H   0  0  0  0  0  0  0  0  0  0  0  0
    3.4815    9.6552   -2.5670 H   0  0  0  0  0  0  0  0  0  0  0  0
    4.1915    8.9362   -2.1611 C   0  0  0  0  0  0  0  0  0  0  0  0
    5.1146    9.4453   -1.8884 H   0  0  0  0  0  0  0  0  0  0  0  0
    4.3988    8.1682   -2.9039 H   0  0  0  0  0  0  0  0  0  0  0  0
    3.5915    8.2948   -0.9319 C   0  0  0  0  0  0  0  0  0  0  0  0
    2.4694    8.6069   -0.5572 O   0  0  0  0  0  0  0  0  0  0  0  0
    4.3409    7.3890   -0.3093 N   0  0  0  0  0  0  0  0  0  0  0  0
    5.2627    7.1886   -0.6692 H   0  0  0  0  0  0  0  0  0  0  0  0
    3.9329    6.6571    0.8899 C   0  0  1  0  0  0  0  0  0  0  0  0
    3.3546    7.3226    1.5333 H   0  0  0  0  0  0  0  0  0  0  0  0
    3.0252    5.4983    0.4540 C   0  0  0  0  0  0  0  0  0  0  0  0
    2.1814    5.9280   -0.0878 H   0  0  0  0  0  0  0  0  0  0  0  0
    3.5708    4.8680   -0.2484 H   0  0  0  0  0  0  0  0  0  0  0  0
    2.3325    4.4444    1.7564 S   0  0  0  0  0  0  0  0  0  0  0  0
    5.1671    6.1819    1.6768 C   0  0  0  0  0  0  0  0  0  0  0  0
    6.2106    5.9132    1.0799 O   0  0  0  0  0  0  0  0  0  0  0  0
    5.0512    6.0874    3.0076 N   0  0  0  0  0  0  0  0  0  0  0  0
    4.1536    6.2932    3.4168 H   0  0  0  0  0  0  0  0  0  0  0  0
    6.1238    5.6446    3.8975 C   0  0  0  0  0  0  0  0  0  0  0  0
    6.2556    4.5652    3.8061 H   0  0  0  0  0  0  0  0  0  0  0  0
    7.0616    6.1344    3.6248 H   0  0  0  0  0  0  0  0  0  0  0  0
    5.8813    5.8906    4.9315 H   0  0  0  0  0  0  0  0  0  0  0  0
  5  6  2  0  0  0  0
  5  7  1  0  0  0  0
  2  3  1  0  0  0  0
  2  4  1  0  0  0  0
  2  5  1  0  0  0  0
  1  2  1  0  0  0  0
 15 16  2  0  0  0  0
 15 17  1  0  0  0  0
 14 36  1  0  0  0  0
 11 12  1  0  0  0  0
 11 13  1  0  0  0  0
 11 14  1  0  0  0  0
  9 10  1  0  0  0  0
  9 11  1  0  0  0  0
  9 15  1  0  0  0  0
  7  8  1  0  0  0  0
  7  9  1  0  0  0  0
 19 20  1  0  0  0  0
 19 21  1  0  0  0  0
 19 22  1  0  0  0  0
 17 18  1  0  0  0  0
 17 19  1  0  0  0  0
 27 28  2  0  0  0  0
 27 29  1  0  0  0  0
 24 25  1  0  0  0  0
 24 26  1  0  0  0  0
 24 27  1  0  0  0  0
 23 24  1  0  0  0  0
 37 38  2  0  0  0  0
 37 39  1  0  0  0  0
 33 34  1  0  0  0  0
 33 35  1  0  0  0  0
 33 36  1  0  0  0  0
 31 32  1  0  0  0  0
 31 33  1  0  0  0  0
 31 37  1  0  0  0  0
 29 30  1  0  0  0  0
 29 31  1  0  0  0  0
 41 42  1  0  0  0  0
 41 43  1  0  0  0  0
 41 44  1  0  0  0  0
 39 40  1  0  0  0  0
 39 41  1  0  0  0  0
M  END
$$$$
default_name
  -OEChem-01062215323D

 44 43  0     1  0  0  0  0  0999 V2000
    2.4488   -3.0448    2.0990 H   0  0  0  0  0  0  0  0  0  0  0  0
    2.2788   -2.0018    2.3640 C   0  0  0  0  0  0  0  0  0  0  0  0
    2.9228   -1.7258    3.1960 H   0  0  0  0  0  0  0  0  0  0  0  0
    1.2358   -1.8618    2.6430 H   0  0  0  0  0  0  0  0  0  0  0  0
    2.6018   -1.1318    1.1730 C   0  0  0  0  0  0  0  0  0  0  0  0
    3.0048   -1.6348    0.1320 O   0  0  0  0  0  0  0  0  0  0  0  0
    2.4088    0.1752    1.3190 N   0  0  0  0  0  0  0  0  0  0  0  0
    2.0708    0.5242    2.2050 H   0  0  0  0  0  0  0  0  0  0  0  0
    2.6638    1.1782    0.2840 C   0  0  1  0  0  0  0  0  0  0  0  0
    1.8007    1.8443    0.2368 H   0  0  0  0  0  0  0  0  0  0  0  0
    3.8946    2.0179    0.6683 C   0  0  0  0  0  0  0  0  0  0  0  0
    4.1681    2.6476   -0.1792 H   0  0  0  0  0  0  0  0  0  0  0  0
    4.7286    1.3344    0.8249 H   0  0  0  0  0  0  0  0  0  0  0  0
    3.7821    3.0621    2.1515 S   0  0  0  0  0  0  0  0  0  0  0  0
    2.8249    0.5193   -1.0989 C   0  0  0  0  0  0  0  0  0  0  0  0
    3.0515    1.2052   -2.0955 O   0  0  0  0  0  0  0  0  0  0  0  0
    2.7144   -0.8145   -1.1572 N   0  0  0  0  0  0  0  0  0  0  0  0
    2.5311   -1.3146   -0.3022 H   0  0  0  0  0  0  0  0  0  0  0  0
    2.8395   -1.5856   -2.3924 C   0  0  0  0  0  0  0  0  0  0  0  0
    2.0489   -1.2956   -3.0877 H   0  0  0  0  0  0  0  0  0  0  0  0
    3.8039   -1.3797   -2.8603 H   0  0  0  0  0  0  0  0  0  0  0  0
    2.7614   -2.6531   -2.1826 H   0  0  0  0  0  0  0  0  0  0  0  0
    3.4815    9.6552   -2.5670 H   0  0  0  0  0  0  0  0  0  0  0  0
    4.1915    8.9362   -2.1611 C   0  0  0  0  0  0  0  0  0  0  0  0
    5.1146    9.4453   -1.8884 H   0  0  0  0  0  0  0  0  0  0  0  0
    4.3988    8.1682   -2.9039 H   0  0  0  0  0  0  0  0  0  0  0  0
    3.5915    8.2948   -0.9319 C   0  0  0  0  0  0  0  0  0  0  0  0
    2.4694    8.6069   -0.5572 O   0  0  0  0  0  0  0  0  0  0  0  0
    4.3409    7.3890   -0.3093 N   0  0  0  0  0  0  0  0  0  0  0  0
    5.2627    7.1886   -0.6692 H   0  0  0  0  0  0  0  0  0  0  0  0
    3.9329    6.6571    0.8899 C   0  0  1  0  0  0  0  0  0  0  0  0
    3.3546    7.3226    1.5333 H   0  0  0  0  0  0  0  0  0  0  0  0
    3.0252    5.4983    0.4540 C   0  0  0  0  0  0  0  0  0  0  0  0
    2.1814    5.9280   -0.0878 H   0  0  0  0  0  0  0  0  0  0  0  0
    3.5708    4.8680   -0.2484 H   0  0  0  0  0  0  0  0  0  0  0  0
    2.3325    4.4444    1.7564 S   0  0  0  0  0  0  0  0  0  0  0  0
    5.1671    6.1819    1.6768 C   0  0  0  0  0  0  0  0  0  0  0  0
    6.2106    5.9132    1.0799 O   0  0  0  0  0  0  0  0  0  0  0  0
    5.0512    6.0874    3.0076 N   0  0  0  0  0  0  0  0  0  0  0  0
    4.1536    6.2932    3.4168 H   0  0  0  0  0  0  0  0  0  0  0  0
    6.1238    5.6446    3.8975 C   0  0  0  0  0  0  0  0  0  0  0  0
    6.2556    4.5652    3.8061 H   0  0  0  0  0  0  0  0  0  0  0  0
    7.0616    6.1344    3.6248 H   0  0  0  0  0  0  0  0  0  0  0  0
    5.8813    5.8906    4.9315 H   0  0  0  0  0  0  0  0  0  0  0  0
  5  6  2  0  0  0  0
  5  7  1  0  0  0  0
  2  3  1  0  0  0  0
  2  4  1  0  0  0  0
  2  5  1  0  0  0  0
  1  2  1  0  0  0  0
 15 16  2  0  0  0  0
 15 17  1  0  0  0  0
 14 36  1  0  0  0  0
 11 12  1  0  0  0  0
 11 13  1  0  0  0  0
 11 14  1  0  0  0  0
  9 10  1  0  0  0  0
  9 11  1  0  0  0  0
  9 15  1  0  0  0  0
  7  8  1  0  0  0  0
  7  9  1  0  0  0  0
 19 20  1  0  0  0  0
 19 21  1  0  0  0  0
 19 22  1  0  0  0  0
 17 18  1  0  0  0  0
 17 19  1  0  0  0  0
 27 28  2  0  0  0  0
 27 29  1  0  0  0  0
 24 25  1  0  0  0  0
 24 26  1  0  0  0  0
 24 27  1  0  0  0  0
 23 24  1  0  0  0  0
 37 38  2  0  0  0  0
 37 39  1  0  0  0  0
 33 34  1  0  0  0  0
 33 35  1  0  0  0  0
 33 36  1  0  0  0  0
 31 32  1  0  0  0  0
 31 33  1  0  0  0  0
 31 37  1  0  0  0  0
 29 30  1  0  0  0  0
 29 31  1  0  0  0  0
 41 42  1  0  0  0  0
 41 43  1  0  0  0  0
 41 44  1  0  0  0  0
 39 40  1  0  0  0  0
 39 41  1  0  0  0  0
M  END
$$$$
default_name
  -OEChem-01062215323D

 44 43  0     1  0  0  0  0  0999 V2000
    2.4488   -3.0448    2.0990 H   0  0  0  0  0  0  0  0  0  0  0  0
    2.2788   -2.0018    2.3640 C   0  0  0  0  0  0  0  0  0  0  0  0
    2.9228   -1.7258    3.1960 H   0  0  0  0  0  0  0  0  0  0  0  0
    1.2358   -1.8618    2.6430 H   0  0  0  0  0  0  0  0  0  0  0  0
    2.6018   -1.1318    1.1730 C   0  0  0  0  0  0  0  0  0  0  0  0
    3.0048   -1.6348    0.1320 O   0  0  0  0  0  0  0  0  0  0  0  0
    2.4088    0.1752    1.3190 N   0  0  0  0  0  0  0  0  0  0  0  0
    2.0708    0.5242    2.2050 H   0  0  0  0  0  0  0  0  0  0  0  0
    2.6638    1.1782    0.2840 C   0  0  1  0  0  0  0  0  0  0  0  0
    1.8007    1.8443    0.2368 H   0  0  0  0  0  0  0  0  0  0  0  0
    3.8946    2.0179    0.6683 C   0  0  0  0  0  0  0  0  0  0  0  0
    4.1681    2.6476   -0.1792 H   0  0  0  0  0  0  0  0  0  0  0  0
    4.7286    1.3344    0.8249 H   0  0  0  0  0  0  0  0  0  0  0  0
    3.7821    3.0621    2.1515 S   0  0  0  0  0  0  0  0  0  0  0  0
    2.8249    0.5193   -1.0989 C   0  0  0  0  0  0  0  0  0  0  0  0
    3.3157    1.1471   -2.0370 O   0  0  0  0  0  0  0  0  0  0  0  0
    2.4168   -0.7507   -1.2223 N   0  0  0  0  0  0  0  0  0  0  0  0
    2.0269   -1.2059   -0.4127 H   0  0  0  0  0  0  0  0  0  0  0  0
    2.5004   -1.5123   -2.4668 C   0  0  0  0  0  0  0  0  0  0  0  0
    1.8826   -1.0358   -3.2309 H   0  0  0  0  0  0  0  0  0  0  0  0
    3.5332   -1.5312   -2.8197 H   0  0  0  0  0  0  0  0  0  0  0  0
    2.1547   -2.5348   -2.3096 H   0  0  0  0  0  0  0  0  0  0  0  0
    3.4815    9.6552   -2.5670 H   0  0  0  0  0  0  0  0  0  0  0  0
    4.1915    8.9362   -2.1611 C   0  0  0  0  0  0  0  0  0  0  0  0
    5.1146    9.4453   -1.8884 H   0  0  0  0  0  0  0  0  0  0  0  0
    4.3988    8.1682   -2.9039 H   0  0  0  0  0  0  0  0  0  0  0  0
    3.5915    8.2948   -0.9319 C   0  0  0  0  0  0  0  0  0  0  0  0
    2.4694    8.6069   -0.5572 O   0  0  0  0  0  0  0  0  0  0  0  0
    4.3409    7.3890   -0.3093 N   0  0  0  0  0  0  0  0  0  0  0  0
    5.2627    7.1886   -0.6692 H   0  0  0  0  0  0  0  0  0  0  0  0
    3.9329    6.6571    0.8899 C   0  0  1  0  0  0  0  0  0  0  0  0
    3.3546    7.3226    1.5333 H   0  0  0  0  0  0  0  0  0  0  0  0
    3.0252    5.4983    0.4540 C   0  0  0  0  0  0  0  0  0  0  0  0
    2.1814    5.9280   -0.0878 H   0  0  0  0  0  0  0  0  0  0  0  0
    3.5708    4.8680   -0.2484 H   0  0  0  0  0  0  0  0  0  0  0  0
    2.3325    4.4444    1.7564 S   0  0  0  0  0  0  0  0  0  0  0  0
    5.1671    6.1819    1.6768 C   0  0  0  0  0  0  0  0  0  0  0  0
    6.2106    5.9132    1.0799 O   0  0  0  0  0  0  0  0  0  0  0  0
    5.0512    6.0874    3.0076 N   0  0  0  0  0  0  0  0  0  0  0  0
    4.1536    6.2932    3.4168 H   0  0  0  0  0  0  0  0  0  0  0  0
    6.1238    5.6446    3.8975 C   0  0  0  0  0  0  0  0  0  0  0  0
    6.2556    4.5652    3.8061 H   0  0  0  0  0  0  0  0  0  0  0  0
    7.0616    6.1344    3.6248 H   0  0  0  0  0  0  0  0  0  0  0  0
    5.8813    5.8906    4.9315 H   0  0  0  0  0  0  0  0  0  0  0  0
  5  6  2  0  0  0  0
  5  7  1  0  0  0  0
  2  3  1  0  0  0  0
  2  4  1  0  0  0  0
  2  5  1  0  0  0  0
  1  2  1  0  0  0  0
 15 16  2  0  0  0  0
 15 17  1  0  0  0  0
 14 36  1  0  0  0  0
 11 12  1  0  0  0  0
 11 13  1  0  0  0  0
 11 14  1  0  0  0  0
  9 10  1  0  0  0  0
  9 11  1  0  0  0  0
  9 15  1  0  0  0  0
  7  8  1  0  0  0  0
  7  9  1  0  0  0  0
 19 20  1  0  0  0  0
 19 21  1  0  0  0  0
 19 22  1  0  0  0  0
 17 18  1  0  0  0  0
 17 19  1  0  0  0  0
 27 28  2  0  0  0  0
 27 29  1  0  0  0  0
 24 25  1  0  0  0  0
 24 26  1  0  0  0  0
 24 27  1  0  0  0  0
 23 24  1  0  0  0  0
 37 38  2  0  0  0  0
 37 39  1  0  0  0  0
 33 34  1  0  0  0  0
 33 35  1  0  0  0  0
 33 36  1  0  0  0  0
 31 32  1  0  0  0  0
 31 33  1  0  0  0  0
 31 37  1  0  0  0  0
 29 30  1  0  0  0  0
 29 31  1  0  0  0  0
 41 42  1  0  0  0  0
 41 43  1  0  0  0  0
 41 44  1  0  0  0  0
 39 40  1  0  0  0  0
 39 41  1  0  0  0  0
M  END
$$$$
default_name
  -OEChem-01062215323D

 44 43  0     1  0  0  0  0  0999 V2000
    2.4488   -3.0448    2.0990 H   0  0  0  0  0  0  0  0  0  0  0  0
    2.2788   -2.0018    2.3640 C   0  0  0  0  0  0  0  0  0  0  0  0
    2.9228   -1.7258    3.1960 H   0  0  0  0  0  0  0  0  0  0  0  0
    1.2358   -1.8618    2.6430 H   0  0  0  0  0  0  0  0  0  0  0  0
    2.6018   -1.1318    1.1730 C   0  0  0  0  0  0  0  0  0  0  0  0
    3.0048   -1.6348    0.1320 O   0  0  0  0  0  0  0  0  0  0  0  0
    2.4088    0.1752    1.3190 N   0  0  0  0  0  0  0  0  0  0  0  0
    2.0708    0.5242    2.2050 H   0  0  0  0  0  0  0  0  0  0  0  0
    2.6638    1.1782    0.2840 C   0  0  1  0  0  0  0  0  0  0  0  0
    1.8007    1.8443    0.2368 H   0  0  0  0  0  0  0  0  0  0  0  0
    3.8946    2.0179    0.6683 C   0  0  0  0  0  0  0  0  0  0  0  0
    4.1681    2.6476   -0.1792 H   0  0  0  0  0  0  0  0  0  0  0  0
    4.7286    1.3344    0.8249 H   0  0  0  0  0  0  0  0  0  0  0  0
    3.7821    3.0621    2.1515 S   0  0  0  0  0  0  0  0  0  0  0  0
    2.8249    0.5193   -1.0989 C   0  0  0  0  0  0  0  0  0  0  0  0
    3.5510    1.0280   -1.9529 O   0  0  0  0  0  0  0  0  0  0  0  0
    2.1515   -0.6182   -1.3163 N   0  0  0  0  0  0  0  0  0  0  0  0
    1.5773   -0.9808   -0.5723 H   0  0  0  0  0  0  0  0  0  0  0  0
    2.1982   -1.3607   -2.5742 C   0  0  0  0  0  0  0  0  0  0  0  0
    1.7983   -0.7422   -3.3806 H   0  0  0  0  0  0  0  0  0  0  0  0
    3.2320   -1.6157   -2.8146 H   0  0  0  0  0  0  0  0  0  0  0  0
    1.6102   -2.2760   -2.4964 H   0  0  0  0  0  0  0  0  0  0  0  0
    3.4815    9.6552   -2.5670 H   0  0  0  0  0  0  0  0  0  0  0  0
    4.1915    8.9362   -2.1611 C   0  0  0  0  0  0  0  0  0  0  0  0
    5.1146    9.4453   -1.8884 H   0  0  0  0  0  0  0  0  0  0  0  0
    4.3988    8.1682   -2.9039 H   0  0  0  0  0  0  0  0  0  0  0  0
    3.5915    8.2948   -0.9319 C   0  0  0  0  0  0  0  0  0  0  0  0
    2.4694    8.6069   -0.5572 O   0  0  0  0  0  0  0  0  0  0  0  0
    4.3409    7.3890   -0.3093 N   0  0  0  0  0  0  0  0  0  0  0  0
    5.2627    7.1886   -0.6692 H   0  0  0  0  0  0  0  0  0  0  0  0
    3.9329    6.6571    0.8899 C   0  0  1  0  0  0  0  0  0  0  0  0
    3.3546    7.3226    1.5333 H   0  0  0  0  0  0  0  0  0  0  0  0
    3.0252    5.4983    0.4540 C   0  0  0  0  0  0  0  0  0  0  0  0
    2.1814    5.9280   -0.0878 H   0  0  0  0  0  0  0  0  0  0  0  0
    3.5708    4.8680   -0.2484 H   0  0  0  0  0  0  0  0  0  0  0  0
    2.3325    4.4444    1.7564 S   0  0  0  0  0  0  0  0  0  0  0  0
    5.1671    6.1819    1.6768 C   0  0  0  0  0  0  0  0  0  0  0  0
    6.2106    5.9132    1.0799 O   0  0  0  0  0  0  0  0  0  0  0  0
    5.0512    6.0874    3.0076 N   0  0  0  0  0  0  0  0  0  0  0  0
    4.1536    6.2932    3.4168 H   0  0  0  0  0  0  0  0  0  0  0  0
    6.1238    5.6446    3.8975 C   0  0  0  0  0  0  0  0  0  0  0  0
    6.2556    4.5652    3.8061 H   0  0  0  0  0  0  0  0  0  0  0  0
    7.0616    6.1344    3.6248 H   0  0  0  0  0  0  0  0  0  0  0  0
    5.8813    5.8906    4.9315 H   0  0  0  0  0  0  0  0  0  0  0  0
  5  6  2  0  0  0  0
  5  7  1  0  0  0  0
  2  3  1  0  0  0  0
  2  4  1  0  0  0  0
  2  5  1  0  0  0  0
  1  2  1  0  0  0  0
 15 16  2  0  0  0  0
 15 17  1  0  0  0  0
 14 36  1  0  0  0  0
 11 12  1  0  0  0  0
 11 13  1  0  0  0  0
 11 14  1  0  0  0  0
  9 10  1  0  0  0  0
  9 11  1  0  0  0  0
  9 15  1  0  0  0  0
  7  8  1  0  0  0  0
  7  9  1  0  0  0  0
 19 20  1  0  0  0  0
 19 21  1  0  0  0  0
 19 22  1  0  0  0  0
 17 18  1  0  0  0  0
 17 19  1  0  0  0  0
 27 28  2  0  0  0  0
 27 29  1  0  0  0  0
 24 25  1  0  0  0  0
 24 26  1  0  0  0  0
 24 27  1  0  0  0  0
 23 24  1  0  0  0  0
 37 38  2  0  0  0  0
 37 39  1  0  0  0  0
 33 34  1  0  0  0  0
 33 35  1  0  0  0  0
 33 36  1  0  0  0  0
 31 32  1  0  0  0  0
 31 33  1  0  0  0  0
 31 37  1  0  0  0  0
 29 30  1  0  0  0  0
 29 31  1  0  0  0  0
 41 42  1  0  0  0  0
 41 43  1  0  0  0  0
 41 44  1  0  0  0  0
 39 40  1  0  0  0  0
 39 41  1  0  0  0  0
M  END
$$$$
default_name
  -OEChem-01062215323D

 44 43  0     1  0  0  0  0  0999 V2000
    2.4488   -3.0448    2.0990 H   0  0  0  0  0  0  0  0  0  0  0  0
    2.2788   -2.0018    2.3640 C   0  0  0  0  0  0  0  0  0  0  0  0
    2.9228   -1.7258    3.1960 H   0  0  0  0  0  0  0  0  0  0  0  0
    1.2358   -1.8618    2.6430 H   0  0  0  0  0  0  0  0  0  0  0  0
    2.6018   -1.1318    1.1730 C   0  0  0  0  0  0  0  0  0  0  0  0
    3.0048   -1.6348    0.1320 O   0  0  0  0  0  0  0  0  0  0  0  0
    2.4088    0.1752    1.3190 N   0  0  0  0  0  0  0  0  0  0  0  0
    2.0708    0.5242    2.2050 H   0  0  0  0  0  0  0  0  0  0  0  0
    2.6638    1.1782    0.2840 C   0  0  1  0  0  0  0  0  0  0  0  0
    1.8007    1.8443    0.2368 H   0  0  0  0  0  0  0  0  0  0  0  0
    3.8946    2.0179    0.6683 C   0  0  0  0  0  0  0  0  0  0  0  0
    4.1681    2.6476   -0.1792 H   0  0  0  0  0  0  0  0  0  0  0  0
    4.7286    1.3344    0.8249 H   0  0  0  0  0  0  0  0  0  0  0  0
    3.7821    3.0621    2.1515 S   0  0  0  0  0  0  0  0  0  0  0  0
    2.8249    0.5193   -1.0989 C   0  0  0  0  0  0  0  0  0  0  0  0
    3.7412    0.8559   -1.8487 O   0  0  0  0  0  0  0  0  0  0  0  0
    1.9363   -0.4260   -1.4330 N   0  0  0  0  0  0  0  0  0  0  0  0
    1.2131   -0.6546   -0.7702 H   0  0  0  0  0  0  0  0  0  0  0  0
    1.9534   -1.1411   -2.7074 C   0  0  0  0  0  0  0  0  0  0  0  0
    1.8016   -0.4351   -3.5266 H   0  0  0  0  0  0  0  0  0  0  0  0
    2.9208   -1.6275   -2.8452 H   0  0  0  0  0  0  0  0  0  0  0  0
    1.1650   -1.8945   -2.7300 H   0  0  0  0  0  0  0  0  0  0  0  0
    3.4815    9.6552   -2.5670 H   0  0  0  0  0  0  0  0  0  0  0  0
    4.1915    8.9362   -2.1611 C   0  0  0  0  0  0  0  0  0  0  0  0
    5.1146    9.4453   -1.8884 H   0  0  0  0  0  0  0  0  0  0  0  0
    4.3988    8.1682   -2.9039 H   0  0  0  0  0  0  0  0  0  0  0  0
    3.5915    8.2948   -0.9319 C   0  0  0  0  0  0  0  0  0  0  0  0
    2.4694    8.6069   -0.5572 O   0  0  0  0  0  0  0  0  0  0  0  0
    4.3409    7.3890   -0.3093 N   0  0  0  0  0  0  0  0  0  0  0  0
    5.2627    7.1886   -0.6692 H   0  0  0  0  0  0  0  0  0  0  0  0
    3.9329    6.6571    0.8899 C   0  0  1  0  0  0  0  0  0  0  0  0
    3.3546    7.3226    1.5333 H   0  0  0  0  0  0  0  0  0  0  0  0
    3.0252    5.4983    0.4540 C   0  0  0  0  0  0  0  0  0  0  0  0
    2.1814    5.9280   -0.0878 H   0  0  0  0  0  0  0  0  0  0  0  0
    3.5708    4.8680   -0.2484 H   0  0  0  0  0  0  0  0  0  0  0  0
    2.3325    4.4444    1.7564 S   0  0  0  0  0  0  0  0  0  0  0  0
    5.1671    6.1819    1.6768 C   0  0  0  0  0  0  0  0  0  0  0  0
    6.2106    5.9132    1.0799 O   0  0  0  0  0  0  0  0  0  0  0  0
    5.0512    6.0874    3.0076 N   0  0  0  0  0  0  0  0  0  0  0  0
    4.1536    6.2932    3.4168 H   0  0  0  0  0  0  0  0  0  0  0  0
    6.1238    5.6446    3.8975 C   0  0  0  0  0  0  0  0  0  0  0  0
    6.2556    4.5652    3.8061 H   0  0  0  0  0  0  0  0  0  0  0  0
    7.0616    6.1344    3.6248 H   0  0  0  0  0  0  0  0  0  0  0  0
    5.8813    5.8906    4.9315 H   0  0  0  0  0  0  0  0  0  0  0  0
  5  6  2  0  0  0  0
  5  7  1  0  0  0  0
  2  3  1  0  0  0  0
  2  4  1  0  0  0  0
  2  5  1  0  0  0  0
  1  2  1  0  0  0  0
 15 16  2  0  0  0  0
 15 17  1  0  0  0  0
 14 36  1  0  0  0  0
 11 12  1  0  0  0  0
 11 13  1  0  0  0  0
 11 14  1  0  0  0  0
  9 10  1  0  0  0  0
  9 11  1  0  0  0  0
  9 15  1  0  0  0  0
  7  8  1  0  0  0  0
  7  9  1  0  0  0  0
 19 20  1  0  0  0  0
 19 21  1  0  0  0  0
 19 22  1  0  0  0  0
 17 18  1  0  0  0  0
 17 19  1  0  0  0  0
 27 28  2  0  0  0  0
 27 29  1  0  0  0  0
 24 25  1  0  0  0  0
 24 26  1  0  0  0  0
 24 27  1  0  0  0  0
 23 24  1  0  0  0  0
 37 38  2  0  0  0  0
 37 39  1  0  0  0  0
 33 34  1  0  0  0  0
 33 35  1  0  0  0  0
 33 36  1  0  0  0  0
 31 32  1  0  0  0  0
 31 33  1  0  0  0  0
 31 37  1  0  0  0  0
 29 30  1  0  0  0  0
 29 31  1  0  0  0  0
 41 42  1  0  0  0  0
 41 43  1  0  0  0  0
 41 44  1  0  0  0  0
 39 40  1  0  0  0  0
 39 41  1  0  0  0  0
M  END
$$$$
default_name
  -OEChem-01062215323D

 44 43  0     1  0  0  0  0  0999 V2000
    2.4488   -3.0448    2.0990 H   0  0  0  0  0  0  0  0  0  0  0  0
    2.2788   -2.0018    2.3640 C   0  0  0  0  0  0  0  0  0  0  0  0
    2.9228   -1.7258    3.1960 H   0  0  0  0  0  0  0  0  0  0  0  0
    1.2358   -1.8618    2.6430 H   0  0  0  0  0  0  0  0  0  0  0  0
    2.6018   -1.1318    1.1730 C   0  0  0  0  0  0  0  0  0  0  0  0
    3.0048   -1.6348    0.1320 O   0  0  0  0  0  0  0  0  0  0  0  0
    2.4088    0.1752    1.3190 N   0  0  0  0  0  0  0  0  0  0  0  0
    2.0708    0.5242    2.2050 H   0  0  0  0  0  0  0  0  0  0  0  0
    2.6638    1.1782    0.2840 C   0  0  1  0  0  0  0  0  0  0  0  0
    1.8007    1.8443    0.2368 H   0  0  0  0  0  0  0  0  0  0  0  0
    3.8946    2.0179    0.6683 C   0  0  0  0  0  0  0  0  0  0  0  0
    4.1681    2.6476   -0.1792 H   0  0  0  0  0  0  0  0  0  0  0  0
    4.7286    1.3344    0.8249 H   0  0  0  0  0  0  0  0  0  0  0  0
    3.7821    3.0621    2.1515 S   0  0  0  0  0  0  0  0  0  0  0  0
    2.8249    0.5193   -1.0989 C   0  0  0  0  0  0  0  0  0  0  0  0
    3.8734    0.6427   -1.7318 O   0  0  0  0  0  0  0  0  0  0  0  0
    1.7861   -0.1871   -1.5643 N   0  0  0  0  0  0  0  0  0  0  0  0
    0.9589   -0.2495   -0.9928 H   0  0  0  0  0  0  0  0  0  0  0  0
    1.7827   -0.8686   -2.8571 C   0  0  0  0  0  0  0  0  0  0  0  0
    1.8923   -0.1352   -3.6589 H   0  0  0  0  0  0  0  0  0  0  0  0
    2.6209   -1.5657   -2.9096 H   0  0  0  0  0  0  0  0  0  0  0  0
    0.8495   -1.4163   -2.9946 H   0  0  0  0  0  0  0  0  0  0  0  0
    3.4815    9.6552   -2.5670 H   0  0  0  0  0  0  0  0  0  0  0  0
    4.1915    8.9362   -2.1611 C   0  0  0  0  0  0  0  0  0  0  0  0
    5.1146    9.4453   -1.8884 H   0  0  0  0  0  0  0  0  0  0  0  0
    4.3988    8.1682   -2.9039 H   0  0  0  0  0  0  0  0  0  0  0  0
    3.5915    8.2948   -0.9319 C   0  0  0  0  0  0  0  0  0  0  0  0
    2.4694    8.6069   -0.5572 O   0  0  0  0  0  0  0  0  0  0  0  0
    4.3409    7.3890   -0.3093 N   0  0  0  0  0  0  0  0  0  0  0  0
    5.2627    7.1886   -0.6692 H   0  0  0  0  0  0  0  0  0  0  0  0
    3.9329    6.6571    0.8899 C   0  0  1  0  0  0  0  0  0  0  0  0
    3.3546    7.3226    1.5333 H   0  0  0  0  0  0  0  0  0  0  0  0
    3.0252    5.4983    0.4540 C   0  0  0  0  0  0  0  0  0  0  0  0
    2.1814    5.9280   -0.0878 H   0  0  0  0  0  0  0  0  0  0  0  0
    3.5708    4.8680   -0.2484 H   0  0  0  0  0  0  0  0  0  0  0  0
    2.3325    4.4444    1.7564 S   0  0  0  0  0  0  0  0  0  0  0  0
    5.1671    6.1819    1.6768 C   0  0  0  0  0  0  0  0  0  0  0  0
    6.2106    5.9132    1.0799 O   0  0  0  0  0  0  0  0  0  0  0  0
    5.0512    6.0874    3.0076 N   0  0  0  0  0  0  0  0  0  0  0  0
    4.1536    6.2932    3.4168 H   0  0  0  0  0  0  0  0  0  0  0  0
    6.1238    5.6446    3.8975 C   0  0  0  0  0  0  0  0  0  0  0  0
    6.2556    4.5652    3.8061 H   0  0  0  0  0  0  0  0  0  0  0  0
    7.0616    6.1344    3.6248 H   0  0  0  0  0  0  0  0  0  0  0  0
    5.8813    5.8906    4.9315 H   0  0  0  0  0  0  0  0  0  0  0  0
  5  6  2  0  0  0  0
  5  7  1  0  0  0  0
  2  3  1  0  0  0  0
  2  4  1  0  0  0  0
  2  5  1  0  0  0  0
  1  2  1  0  0  0  0
 15 16  2  0  0  0  0
 15 17  1  0  0  0  0
 14 36  1  0  0  0  0
 11 12  1  0  0  0  0
 11 13  1  0  0  0  0
 11 14  1  0  0  0  0
  9 10  1  0  0  0  0
  9 11  1  0  0  0  0
  9 15  1  0  0  0  0
  7  8  1  0  0  0  0
  7  9  1  0  0  0  0
 19 20  1  0  0  0  0
 19 21  1  0  0  0  0
 19 22  1  0  0  0  0
 17 18  1  0  0  0  0
 17 19  1  0  0  0  0
 27 28  2  0  0  0  0
 27 29  1  0  0  0  0
 24 25  1  0  0  0  0
 24 26  1  0  0  0  0
 24 27  1  0  0  0  0
 23 24  1  0  0  0  0
 37 38  2  0  0  0  0
 37 39  1  0  0  0  0
 33 34  1  0  0  0  0
 33 35  1  0  0  0  0
 33 36  1  0  0  0  0
 31 32  1  0  0  0  0
 31 33  1  0  0  0  0
 31 37  1  0  0  0  0
 29 30  1  0  0  0  0
 29 31  1  0  0  0  0
 41 42  1  0  0  0  0
 41 43  1  0  0  0  0
 41 44  1  0  0  0  0
 39 40  1  0  0  0  0
 39 41  1  0  0  0  0
M  END
$$$$
default_name
  -OEChem-01062215323D

 44 43  0     1  0  0  0  0  0999 V2000
    2.4488   -3.0448    2.0990 H   0  0  0  0  0  0  0  0  0  0  0  0
    2.2788   -2.0018    2.3640 C   0  0  0  0  0  0  0  0  0  0  0  0
    2.9228   -1.7258    3.1960 H   0  0  0  0  0  0  0  0  0  0  0  0
    1.2358   -1.8618    2.6430 H   0  0  0  0  0  0  0  0  0  0  0  0
    2.6018   -1.1318    1.1730 C   0  0  0  0  0  0  0  0  0  0  0  0
    3.0048   -1.6348    0.1320 O   0  0  0  0  0  0  0  0  0  0  0  0
    2.4088    0.1752    1.3190 N   0  0  0  0  0  0  0  0  0  0  0  0
    2.0708    0.5242    2.2050 H   0  0  0  0  0  0  0  0  0  0  0  0
    2.6638    1.1782    0.2840 C   0  0  1  0  0  0  0  0  0  0  0  0
    1.8007    1.8443    0.2368 H   0  0  0  0  0  0  0  0  0  0  0  0
    3.8946    2.0179    0.6683 C   0  0  0  0  0  0  0  0  0  0  0  0
    4.1681    2.6476   -0.1792 H   0  0  0  0  0  0  0  0  0  0  0  0
    4.7286    1.3344    0.8249 H   0  0  0  0  0  0  0  0  0  0  0  0
    3.7821    3.0621    2.1515 S   0  0  0  0  0  0  0  0  0  0  0  0
    2.8249    0.5193   -1.0989 C   0  0  0  0  0  0  0  0  0  0  0  0
    3.9387    0.4029   -1.6099 O   0  0  0  0  0  0  0  0  0  0  0  0
    1.7111    0.0820   -1.7013 N   0  0  0  0  0  0  0  0  0  0  0  0
    0.8323    0.2068   -1.2250 H   0  0  0  0  0  0  0  0  0  0  0  0
    1.6977   -0.5615   -3.0133 C   0  0  0  0  0  0  0  0  0  0  0  0
    2.0643    0.1370   -3.7685 H   0  0  0  0  0  0  0  0  0  0  0  0
    2.3528   -1.4346   -3.0033 H   0  0  0  0  0  0  0  0  0  0  0  0
    0.6852   -0.8738   -3.2722 H   0  0  0  0  0  0  0  0  0  0  0  0
    3.4815    9.6552   -2.5670 H   0  0  0  0  0  0  0  0  0  0  0  0
    4.1915    8.9362   -2.1611 C   0  0  0  0  0  0  0  0  0  0  0  0
    5.1146    9.4453   -1.8884 H   0  0  0  0  0  0  0  0  0  0  0  0
    4.3988    8.1682   -2.9039 H   0  0  0  0  0  0  0  0  0  0  0  0
    3.5915    8.2948   -0.9319 C   0  0  0  0  0  0  0  0  0  0  0  0
    2.4694    8.6069   -0.5572 O   0  0  0  0  0  0  0  0  0  0  0  0
    4.3409    7.3890   -0.3093 N   0  0  0  0  0  0  0  0  0  0  0  0
    5.2627    7.1886   -0.6692 H   0  0  0  0  0  0  0  0  0  0  0  0
    3.9329    6.6571    0.8899 C   0  0  1  0  0  0  0  0  0  0  0  0
    3.3546    7.3226    1.5333 H   0  0  0  0  0  0  0  0  0  0  0  0
    3.0252    5.4983    0.4540 C   0  0  0  0  0  0  0  0  0  0  0  0
    2.1814    5.9280   -0.0878 H   0  0  0  0  0  0  0  0  0  0  0  0
    3.5708    4.8680   -0.2484 H   0  0  0  0  0  0  0  0  0  0  0  0
    2.3325    4.4444    1.7564 S   0  0  0  0  0  0  0  0  0  0  0  0
    5.1671    6.1819    1.6768 C   0  0  0  0  0  0  0  0  0  0  0  0
    6.2106    5.9132    1.0799 O   0  0  0  0  0  0  0  0  0  0  0  0
    5.0512    6.0874    3.0076 N   0  0  0  0  0  0  0  0  0  0  0  0
    4.1536    6.2932    3.4168 H   0  0  0  0  0  0  0  0  0  0  0  0
    6.1238    5.6446    3.8975 C   0  0  0  0  0  0  0  0  0  0  0  0
    6.2556    4.5652    3.8061 H   0  0  0  0  0  0  0  0  0  0  0  0
    7.0616    6.1344    3.6248 H   0  0  0  0  0  0  0  0  0  0  0  0
    5.8813    5.8906    4.9315 H   0  0  0  0  0  0  0  0  0  0  0  0
  5  6  2  0  0  0  0
  5  7  1  0  0  0  0
  2  3  1  0  0  0  0
  2  4  1  0  0  0  0
  2  5  1  0  0  0  0
  1  2  1  0  0  0  0
 15 16  2  0  0  0  0
 15 17  1  0  0  0  0
 14 36  1  0  0  0  0
 11 12  1  0  0  0  0
 11 13  1  0  0  0  0
 11 14  1  0  0  0  0
  9 10  1  0  0  0  0
  9 11  1  0  0  0  0
  9 15  1  0  0  0  0
  7  8  1  0  0  0  0
  7  9  1  0  0  0  0
 19 20  1  0  0  0  0
 19 21  1  0  0  0  0
 19 22  1  0  0  0  0
 17 18  1  0  0  0  0
 17 19  1  0  0  0  0
 27 28  2  0  0  0  0
 27 29  1  0  0  0  0
 24 25  1  0  0  0  0
 24 26  1  0  0  0  0
 24 27  1  0  0  0  0
 23 24  1  0  0  0  0
 37 38  2  0  0  0  0
 37 39  1  0  0  0  0
 33 34  1  0  0  0  0
 33 35  1  0  0  0  0
 33 36  1  0  0  0  0
 31 32  1  0  0  0  0
 31 33  1  0  0  0  0
 31 37  1  0  0  0  0
 29 30  1  0  0  0  0
 29 31  1  0  0  0  0
 41 42  1  0  0  0  0
 41 43  1  0  0  0  0
 41 44  1  0  0  0  0
 39 40  1  0  0  0  0
 39 41  1  0  0  0  0
M  END
$$$$
default_name
  -OEChem-01062215323D

 44 43  0     1  0  0  0  0  0999 V2000
    2.4488   -3.0448    2.0990 H   0  0  0  0  0  0  0  0  0  0  0  0
    2.2788   -2.0018    2.3640 C   0  0  0  0  0  0  0  0  0  0  0  0
    2.9228   -1.7258    3.1960 H   0  0  0  0  0  0  0  0  0  0  0  0
    1.2358   -1.8618    2.6430 H   0  0  0  0  0  0  0  0  0  0  0  0
    2.6018   -1.1318    1.1730 C   0  0  0  0  0  0  0  0  0  0  0  0
    3.0048   -1.6348    0.1320 O   0  0  0  0  0  0  0  0  0  0  0  0
    2.4088    0.1752    1.3190 N   0  0  0  0  0  0  0  0  0  0  0  0
    2.0708    0.5242    2.2050 H   0  0  0  0  0  0  0  0  0  0  0  0
    2.6638    1.1782    0.2840 C   0  0  1  0  0  0  0  0  0  0  0  0
    1.8007    1.8443    0.2368 H   0  0  0  0  0  0  0  0  0  0  0  0
    3.8946    2.0179    0.6683 C   0  0  0  0  0  0  0  0  0  0  0  0
    4.1681    2.6476   -0.1792 H   0  0  0  0  0  0  0  0  0  0  0  0
    4.7286    1.3344    0.8249 H   0  0  0  0  0  0  0  0  0  0  0  0
    3.7821    3.0621    2.1515 S   0  0  0  0  0  0  0  0  0  0  0  0
    2.8249    0.5193   -1.0989 C   0  0  0  0  0  0  0  0  0  0  0  0
    3.9325    0.1528   -1.4914 O   0  0  0  0  0  0  0  0  0  0  0  0
    1.7163    0.3631   -1.8346 N   0  0  0  0  0  0  0  0  0  0  0  0
    0.8416    0.6834   -1.4510 H   0  0  0  0  0  0  0  0  0  0  0  0
    1.7043   -0.2410   -3.1653 C   0  0  0  0  0  0  0  0  0  0  0  0
    2.3057    0.3629   -3.8480 H   0  0  0  0  0  0  0  0  0  0  0  0
    2.1345   -1.2432   -3.1199 H   0  0  0  0  0  0  0  0  0  0  0  0
    0.6833   -0.3042   -3.5439 H   0  0  0  0  0  0  0  0  0  0  0  0
    3.4815    9.6552   -2.5670 H   0  0  0  0  0  0  0  0  0  0  0  0
    4.1915    8.9362   -2.1611 C   0  0  0  0  0  0  0  0  0  0  0  0
    5.1146    9.4453   -1.8884 H   0  0  0  0  0  0  0  0  0  0  0  0
    4.3988    8.1682   -2.9039 H   0  0  0  0  0  0  0  0  0  0  0  0
    3.5915    8.2948   -0.9319 C   0  0  0  0  0  0  0  0  0  0  0  0
    2.4694    8.6069   -0.5572 O   0  0  0  0  0  0  0  0  0  0  0  0
    4.3409    7.3890   -0.3093 N   0  0  0  0  0  0  0  0  0  0  0  0
    5.2627    7.1886   -0.6692 H   0  0  0  0  0  0  0  0  0  0  0  0
    3.9329    6.6571    0.8899 C   0  0  1  0  0  0  0  0  0  0  0  0
    3.3546    7.3226    1.5333 H   0  0  0  0  0  0  0  0  0  0  0  0
    3.0252    5.4983    0.4540 C   0  0  0  0  0  0  0  0  0  0  0  0
    2.1814    5.9280   -0.0878 H   0  0  0  0  0  0  0  0  0  0  0  0
    3.5708    4.8680   -0.2484 H   0  0  0  0  0  0  0  0  0  0  0  0
    2.3325    4.4444    1.7564 S   0  0  0  0  0  0  0  0  0  0  0  0
    5.1671    6.1819    1.6768 C   0  0  0  0  0  0  0  0  0  0  0  0
    6.2106    5.9132    1.0799 O   0  0  0  0  0  0  0  0  0  0  0  0
    5.0512    6.0874    3.0076 N   0  0  0  0  0  0  0  0  0  0  0  0
    4.1536    6.2932    3.4168 H   0  0  0  0  0  0  0  0  0  0  0  0
    6.1238    5.6446    3.8975 C   0  0  0  0  0  0  0  0  0  0  0  0
    6.2556    4.5652    3.8061 H   0  0  0  0  0  0  0  0  0  0  0  0
    7.0616    6.1344    3.6248 H   0  0  0  0  0  0  0  0  0  0  0  0
    5.8813    5.8906    4.9315 H   0  0  0  0  0  0  0  0  0  0  0  0
  5  6  2  0  0  0  0
  5  7  1  0  0  0  0
  2  3  1  0  0  0  0
  2  4  1  0  0  0  0
  2  5  1  0  0  0  0
  1  2  1  0  0  0  0
 15 16  2  0  0  0  0
 15 17  1  0  0  0  0
 14 36  1  0  0  0  0
 11 12  1  0  0  0  0
 11 13  1  0  0  0  0
 11 14  1  0  0  0  0
  9 10  1  0  0  0  0
  9 11  1  0  0  0  0
  9 15  1  0  0  0  0
  7  8  1  0  0  0  0
  7  9  1  0  0  0  0
 19 20  1  0  0  0  0
 19 21  1  0  0  0  0
 19 22  1  0  0  0  0
 17 18  1  0  0  0  0
 17 19  1  0  0  0  0
 27 28  2  0  0  0  0
 27 29  1  0  0  0  0
 24 25  1  0  0  0  0
 24 26  1  0  0  0  0
 24 27  1  0  0  0  0
 23 24  1  0  0  0  0
 37 38  2  0  0  0  0
 37 39  1  0  0  0  0
 33 34  1  0  0  0  0
 33 35  1  0  0  0  0
 33 36  1  0  0  0  0
 31 32  1  0  0  0  0
 31 33  1  0  0  0  0
 31 37  1  0  0  0  0
 29 30  1  0  0  0  0
 29 31  1  0  0  0  0
 41 42  1  0  0  0  0
 41 43  1  0  0  0  0
 41 44  1  0  0  0  0
 39 40  1  0  0  0  0
 39 41  1  0  0  0  0
M  END
$$$$
default_name
  -OEChem-01062215323D

 44 43  0     1  0  0  0  0  0999 V2000
    2.4488   -3.0448    2.0990 H   0  0  0  0  0  0  0  0  0  0  0  0
    2.2788   -2.0018    2.3640 C   0  0  0  0  0  0  0  0  0  0  0  0
    2.9228   -1.7258    3.1960 H   0  0  0  0  0  0  0  0  0  0  0  0
    1.2358   -1.8618    2.6430 H   0  0  0  0  0  0  0  0  0  0  0  0
    2.6018   -1.1318    1.1730 C   0  0  0  0  0  0  0  0  0  0  0  0
    3.0048   -1.6348    0.1320 O   0  0  0  0  0  0  0  0  0  0  0  0
    2.4088    0.1752    1.3190 N   0  0  0  0  0  0  0  0  0  0  0  0
    2.0708    0.5242    2.2050 H   0  0  0  0  0  0  0  0  0  0  0  0
    2.6638    1.1782    0.2840 C   0  0  1  0  0  0  0  0  0  0  0  0
    1.8007    1.8443    0.2368 H   0  0  0  0  0  0  0  0  0  0  0  0
    3.8946    2.0179    0.6683 C   0  0  0  0  0  0  0  0  0  0  0  0
    4.1681    2.6476   -0.1792 H   0  0  0  0  0  0  0  0  0  0  0  0
    4.7286    1.3344    0.8249 H   0  0  0  0  0  0  0  0  0  0  0  0
    3.7821    3.0621    2.1515 S   0  0  0  0  0  0  0  0  0  0  0  0
    2.8249    0.5193   -1.0989 C   0  0  0  0  0  0  0  0  0  0  0  0
    3.8553   -0.0906   -1.3845 O   0  0  0  0  0  0  0  0  0  0  0  0
    1.8014    0.6371   -1.9552 N   0  0  0  0  0  0  0  0  0  0  0  0
    0.9865    1.1476   -1.6553 H   0  0  0  0  0  0  0  0  0  0  0  0
    1.8019    0.0712   -3.3026 C   0  0  0  0  0  0  0  0  0  0  0  0
    2.6003    0.5271   -3.8920 H   0  0  0  0  0  0  0  0  0  0  0  0
    1.9812   -1.0043   -3.2516 H   0  0  0  0  0  0  0  0  0  0  0  0
    0.8439    0.2539   -3.7910 H   0  0  0  0  0  0  0  0  0  0  0  0
    3.4815    9.6552   -2.5670 H   0  0  0  0  0  0  0  0  0  0  0  0
    4.1915    8.9362   -2.1611 C   0  0  0  0  0  0  0  0  0  0  0  0
    5.1146    9.4453   -1.8884 H   0  0  0  0  0  0  0  0  0  0  0  0
    4.3988    8.1682   -2.9039 H   0  0  0  0  0  0  0  0  0  0  0  0
    3.5915    8.2948   -0.9319 C   0  0  0  0  0  0  0  0  0  0  0  0
    2.4694    8.6069   -0.5572 O   0  0  0  0  0  0  0  0  0  0  0  0
    4.3409    7.3890   -0.3093 N   0  0  0  0  0  0  0  0  0  0  0  0
    5.2627    7.1886   -0.6692 H   0  0  0  0  0  0  0  0  0  0  0  0
    3.9329    6.6571    0.8899 C   0  0  1  0  0  0  0  0  0  0  0  0
    3.3546    7.3226    1.5333 H   0  0  0  0  0  0  0  0  0  0  0  0
    3.0252    5.4983    0.4540 C   0  0  0  0  0  0  0  0  0  0  0  0
    2.1814    5.9280   -0.0878 H   0  0  0  0  0  0  0  0  0  0  0  0
    3.5708    4.8680   -0.2484 H   0  0  0  0  0  0  0  0  0  0  0  0
    2.3325    4.4444    1.7564 S   0  0  0  0  0  0  0  0  0  0  0  0
    5.1671    6.1819    1.6768 C   0  0  0  0  0  0  0  0  0  0  0  0
    6.2106    5.9132    1.0799 O   0  0  0  0  0  0  0  0  0  0  0  0
    5.0512    6.0874    3.0076 N   0  0  0  0  0  0  0  0  0  0  0  0
    4.1536    6.2932    3.4168 H   0  0  0  0  0  0  0  0  0  0  0  0
    6.1238    5.6446    3.8975 C   0  0  0  0  0  0  0  0  0  0  0  0
    6.2556    4.5652    3.8061 H   0  0  0  0  0  0  0  0  0  0  0  0
    7.0616    6.1344    3.6248 H   0  0  0  0  0  0  0  0  0  0  0  0
    5.8813    5.8906    4.9315 H   0  0  0  0  0  0  0  0  0  0  0  0
  5  6  2  0  0  0  0
  5  7  1  0  0  0  0
  2  3  1  0  0  0  0
  2  4  1  0  0  0  0
  2  5  1  0  0  0  0
  1  2  1  0  0  0  0
 15 16  2  0  0  0  0
 15 17  1  0  0  0  0
 14 36  1  0  0  0  0
 11 12  1  0  0  0  0
 11 13  1  0  0  0  0
 11 14  1  0  0  0  0
  9 10  1  0  0  0  0
  9 11  1  0  0  0  0
  9 15  1  0  0  0  0
  7  8  1  0  0  0  0
  7  9  1  0  0  0  0
 19 20  1  0  0  0  0
 19 21  1  0  0  0  0
 19 22  1  0  0  0  0
 17 18  1  0  0  0  0
 17 19  1  0  0  0  0
 27 28  2  0  0  0  0
 27 29  1  0  0  0  0
 24 25  1  0  0  0  0
 24 26  1  0  0  0  0
 24 27  1  0  0  0  0
 23 24  1  0  0  0  0
 37 38  2  0  0  0  0
 37 39  1  0  0  0  0
 33 34  1  0  0  0  0
 33 35  1  0  0  0  0
 33 36  1  0  0  0  0
 31 32  1  0  0  0  0
 31 33  1  0  0  0  0
 31 37  1  0  0  0  0
 29 30  1  0  0  0  0
 29 31  1  0  0  0  0
 41 42  1  0  0  0  0
 41 43  1  0  0  0  0
 41 44  1  0  0  0  0
 39 40  1  0  0  0  0
 39 41  1  0  0  0  0
M  END
$$$$
default_name
  -OEChem-01062215323D

 44 43  0     1  0  0  0  0  0999 V2000
    2.4488   -3.0448    2.0990 H   0  0  0  0  0  0  0  0  0  0  0  0
    2.2788   -2.0018    2.3640 C   0  0  0  0  0  0  0  0  0  0  0  0
    2.9228   -1.7258    3.1960 H   0  0  0  0  0  0  0  0  0  0  0  0
    1.2358   -1.8618    2.6430 H   0  0  0  0  0  0  0  0  0  0  0  0
    2.6018   -1.1318    1.1730 C   0  0  0  0  0  0  0  0  0  0  0  0
    3.0048   -1.6348    0.1320 O   0  0  0  0  0  0  0  0  0  0  0  0
    2.4088    0.1752    1.3190 N   0  0  0  0  0  0  0  0  0  0  0  0
    2.0708    0.5242    2.2050 H   0  0  0  0  0  0  0  0  0  0  0  0
    2.6638    1.1782    0.2840 C   0  0  1  0  0  0  0  0  0  0  0  0
    1.8007    1.8443    0.2368 H   0  0  0  0  0  0  0  0  0  0  0  0
    3.8946    2.0179    0.6683 C   0  0  0  0  0  0  0  0  0  0  0  0
    4.1681    2.6476   -0.1792 H   0  0  0  0  0  0  0  0  0  0  0  0
    4.7286    1.3344    0.8249 H   0  0  0  0  0  0  0  0  0  0  0  0
    3.7821    3.0621    2.1515 S   0  0  0  0  0  0  0  0  0  0  0  0
    2.8249    0.5193   -1.0989 C   0  0  0  0  0  0  0  0  0  0  0  0
    3.7123   -0.3106   -1.2963 O   0  0  0  0  0  0  0  0  0  0  0  0
    1.9606    0.8852   -2.0549 N   0  0  0  0  0  0  0  0  0  0  0  0
    1.2568    1.5679   -1.8240 H   0  0  0  0  0  0  0  0  0  0  0  0
    1.9840    0.3538   -3.4161 C   0  0  0  0  0  0  0  0  0  0  0  0
    2.9278    0.6185   -3.8973 H   0  0  0  0  0  0  0  0  0  0  0  0
    1.9031   -0.7345   -3.3893 H   0  0  0  0  0  0  0  0  0  0  0  0
    1.1561    0.7623   -3.9969 H   0  0  0  0  0  0  0  0  0  0  0  0
    3.4815    9.6552   -2.5670 H   0  0  0  0  0  0  0  0  0  0  0  0
    4.1915    8.9362   -2.1611 C   0  0  0  0  0  0  0  0  0  0  0  0
    5.1146    9.4453   -1.8884 H   0  0  0  0  0  0  0  0  0  0  0  0
    4.3988    8.1682   -2.9039 H   0  0  0  0  0  0  0  0  0  0  0  0
    3.5915    8.2948   -0.9319 C   0  0  0  0  0  0  0  0  0  0  0  0
    2.4694    8.6069   -0.5572 O   0  0  0  0  0  0  0  0  0  0  0  0
    4.3409    7.3890   -0.3093 N   0  0  0  0  0  0  0  0  0  0  0  0
    5.2627    7.1886   -0.6692 H   0  0  0  0  0  0  0  0  0  0  0  0
    3.9329    6.6571    0.8899 C   0  0  1  0  0  0  0  0  0  0  0  0
    3.3546    7.3226    1.5333 H   0  0  0  0  0  0  0  0  0  0  0  0
    3.0252    5.4983    0.4540 C   0  0  0  0  0  0  0  0  0  0  0  0
    2.1814    5.9280   -0.0878 H   0  0  0  0  0  0  0  0  0  0  0  0
    3.5708    4.8680   -0.2484 H   0  0  0  0  0  0  0  0  0  0  0  0
    2.3325    4.4444    1.7564 S   0  0  0  0  0  0  0  0  0  0  0  0
    5.1671    6.1819    1.6768 C   0  0  0  0  0  0  0  0  0  0  0  0
    6.2106    5.9132    1.0799 O   0  0  0  0  0  0  0  0  0  0  0  0
    5.0512    6.0874    3.0076 N   0  0  0  0  0  0  0  0  0  0  0  0
    4.1536    6.2932    3.4168 H   0  0  0  0  0  0  0  0  0  0  0  0
    6.1238    5.6446    3.8975 C   0  0  0  0  0  0  0  0  0  0  0  0
    6.2556    4.5652    3.8061 H   0  0  0  0  0  0  0  0  0  0  0  0
    7.0616    6.1344    3.6248 H   0  0  0  0  0  0  0  0  0  0  0  0
    5.8813    5.8906    4.9315 H   0  0  0  0  0  0  0  0  0  0  0  0
  5  6  2  0  0  0  0
  5  7  1  0  0  0  0
  2  3  1  0  0  0  0
  2  4  1  0  0  0  0
  2  5  1  0  0  0  0
  1  2  1  0  0  0  0
 15 16  2  0  0  0  0
 15 17  1  0  0  0  0
 14 36  1  0  0  0  0
 11 12  1  0  0  0  0
 11 13  1  0  0  0  0
 11 14  1  0  0  0  0
  9 10  1  0  0  0  0
  9 11  1  0  0  0  0
  9 15  1  0  0  0  0
  7  8  1  0  0  0  0
  7  9  1  0  0  0  0
 19 20  1  0  0  0  0
 19 21  1  0  0  0  0
 19 22  1  0  0  0  0
 17 18  1  0  0  0  0
 17 19  1  0  0  0  0
 27 28  2  0  0  0  0
 27 29  1  0  0  0  0
 24 25  1  0  0  0  0
 24 26  1  0  0  0  0
 24 27  1  0  0  0  0
 23 24  1  0  0  0  0
 37 38  2  0  0  0  0
 37 39  1  0  0  0  0
 33 34  1  0  0  0  0
 33 35  1  0  0  0  0
 33 36  1  0  0  0  0
 31 32  1  0  0  0  0
 31 33  1  0  0  0  0
 31 37  1  0  0  0  0
 29 30  1  0  0  0  0
 29 31  1  0  0  0  0
 41 42  1  0  0  0  0
 41 43  1  0  0  0  0
 41 44  1  0  0  0  0
 39 40  1  0  0  0  0
 39 41  1  0  0  0  0
M  END
$$$$
default_name
  -OEChem-01062215323D

 44 43  0     1  0  0  0  0  0999 V2000
    2.4488   -3.0448    2.0990 H   0  0  0  0  0  0  0  0  0  0  0  0
    2.2788   -2.0018    2.3640 C   0  0  0  0  0  0  0  0  0  0  0  0
    2.9228   -1.7258    3.1960 H   0  0  0  0  0  0  0  0  0  0  0  0
    1.2358   -1.8618    2.6430 H   0  0  0  0  0  0  0  0  0  0  0  0
    2.6018   -1.1318    1.1730 C   0  0  0  0  0  0  0  0  0  0  0  0
    3.0048   -1.6348    0.1320 O   0  0  0  0  0  0  0  0  0  0  0  0
    2.4088    0.1752    1.3190 N   0  0  0  0  0  0  0  0  0  0  0  0
    2.0708    0.5242    2.2050 H   0  0  0  0  0  0  0  0  0  0  0  0
    2.6638    1.1782    0.2840 C   0  0  1  0  0  0  0  0  0  0  0  0
    1.8007    1.8443    0.2368 H   0  0  0  0  0  0  0  0  0  0  0  0
    3.8946    2.0179    0.6683 C   0  0  0  0  0  0  0  0  0  0  0  0
    4.1681    2.6476   -0.1792 H   0  0  0  0  0  0  0  0  0  0  0  0
    4.7286    1.3344    0.8249 H   0  0  0  0  0  0  0  0  0  0  0  0
    3.7821    3.0621    2.1515 S   0  0  0  0  0  0  0  0  0  0  0  0
    2.8249    0.5193   -1.0989 C   0  0  0  0  0  0  0  0  0  0  0  0
    3.5133   -0.4923   -1.2329 O   0  0  0  0  0  0  0  0  0  0  0  0
    2.1831    1.0905   -2.1268 N   0  0  0  0  0  0  0  0  0  0  0  0
    1.6343    1.9156   -1.9457 H   0  0  0  0  0  0  0  0  0  0  0  0
    2.2380    0.5875   -3.4978 C   0  0  0  0  0  0  0  0  0  0  0  0
    3.2661    0.6309   -3.8638 H   0  0  0  0  0  0  0  0  0  0  0  0
    1.9056   -0.4519   -3.5236 H   0  0  0  0  0  0  0  0  0  0  0  0
    1.5985    1.1864   -4.1474 H   0  0  0  0  0  0  0  0  0  0  0  0
    3.4815    9.6552   -2.5670 H   0  0  0  0  0  0  0  0  0  0  0  0
    4.1915    8.9362   -2.1611 C   0  0  0  0  0  0  0  0  0  0  0  0
    5.1146    9.4453   -1.8884 H   0  0  0  0  0  0  0  0  0  0  0  0
    4.3988    8.1682   -2.9039 H   0  0  0  0  0  0  0  0  0  0  0  0
    3.5915    8.2948   -0.9319 C   0  0  0  0  0  0  0  0  0  0  0  0
    2.4694    8.6069   -0.5572 O   0  0  0  0  0  0  0  0  0  0  0  0
    4.3409    7.3890   -0.3093 N   0  0  0  0  0  0  0  0  0  0  0  0
    5.2627    7.1886   -0.6692 H   0  0  0  0  0  0  0  0  0  0  0  0
    3.9329    6.6571    0.8899 C   0  0  1  0  0  0  0  0  0  0  0  0
    3.3546    7.3226    1.5333 H   0  0  0  0  0  0  0  0  0  0  0  0
    3.0252    5.4983    0.4540 C   0  0  0  0  0  0  0  0  0  0  0  0
    2.1814    5.9280   -0.0878 H   0  0  0  0  0  0  0  0  0  0  0  0
    3.5708    4.8680   -0.2484 H   0  0  0  0  0  0  0  0  0  0  0  0
    2.3325    4.4444    1.7564 S   0  0  0  0  0  0  0  0  0  0  0  0
    5.1671    6.1819    1.6768 C   0  0  0  0  0  0  0  0  0  0  0  0
    6.2106    5.9132    1.0799 O   0  0  0  0  0  0  0  0  0  0  0  0
    5.0512    6.0874    3.0076 N   0  0  0  0  0  0  0  0  0  0  0  0
    4.1536    6.2932    3.4168 H   0  0  0  0  0  0  0  0  0  0  0  0
    6.1238    5.6446    3.8975 C   0  0  0  0  0  0  0  0  0  0  0  0
    6.2556    4.5652    3.8061 H   0  0  0  0  0  0  0  0  0  0  0  0
    7.0616    6.1344    3.6248 H   0  0  0  0  0  0  0  0  0  0  0  0
    5.8813    5.8906    4.9315 H   0  0  0  0  0  0  0  0  0  0  0  0
  5  6  2  0  0  0  0
  5  7  1  0  0  0  0
  2  3  1  0  0  0  0
  2  4  1  0  0  0  0
  2  5  1  0  0  0  0
  1  2  1  0  0  0  0
 15 16  2  0  0  0  0
 15 17  1  0  0  0  0
 14 36  1  0  0  0  0
 11 12  1  0  0  0  0
 11 13  1  0  0  0  0
 11 14  1  0  0  0  0
  9 10  1  0  0  0  0
  9 11  1  0  0  0  0
  9 15  1  0  0  0  0
  7  8  1  0  0  0  0
  7  9  1  0  0  0  0
 19 20  1  0  0  0  0
 19 21  1  0  0  0  0
 19 22  1  0  0  0  0
 17 18  1  0  0  0  0
 17 19  1  0  0  0  0
 27 28  2  0  0  0  0
 27 29  1  0  0  0  0
 24 25  1  0  0  0  0
 24 26  1  0  0  0  0
 24 27  1  0  0  0  0
 23 24  1  0  0  0  0
 37 38  2  0  0  0  0
 37 39  1  0  0  0  0
 33 34  1  0  0  0  0
 33 35  1  0  0  0  0
 33 36  1  0  0  0  0
 31 32  1  0  0  0  0
 31 33  1  0  0  0  0
 31 37  1  0  0  0  0
 29 30  1  0  0  0  0
 29 31  1  0  0  0  0
 41 42  1  0  0  0  0
 41 43  1  0  0  0  0
 41 44  1  0  0  0  0
 39 40  1  0  0  0  0
 39 41  1  0  0  0  0
M  END
$$$$
default_name
  -OEChem-01062215323D

 44 43  0     1  0  0  0  0  0999 V2000
    2.4488   -3.0448    2.0990 H   0  0  0  0  0  0  0  0  0  0  0  0
    2.2788   -2.0018    2.3640 C   0  0  0  0  0  0  0  0  0  0  0  0
    2.9228   -1.7258    3.1960 H   0  0  0  0  0  0  0  0  0  0  0  0
    1.2358   -1.8618    2.6430 H   0  0  0  0  0  0  0  0  0  0  0  0
    2.6018   -1.1318    1.1730 C   0  0  0  0  0  0  0  0  0  0  0  0
    3.0048   -1.6348    0.1320 O   0  0  0  0  0  0  0  0  0  0  0  0
    2.4088    0.1752    1.3190 N   0  0  0  0  0  0  0  0  0  0  0  0
    2.0708    0.5242    2.2050 H   0  0  0  0  0  0  0  0  0  0  0  0
    2.6638    1.1782    0.2840 C   0  0  1  0  0  0  0  0  0  0  0  0
    1.8007    1.8443    0.2368 H   0  0  0  0  0  0  0  0  0  0  0  0
    3.8946    2.0179    0.6683 C   0  0  0  0  0  0  0  0  0  0  0  0
    4.1681    2.6476   -0.1792 H   0  0  0  0  0  0  0  0  0  0  0  0
    4.7286    1.3344    0.8249 H   0  0  0  0  0  0  0  0  0  0  0  0
    3.7821    3.0621    2.1515 S   0  0  0  0  0  0  0  0  0  0  0  0
    2.8249    0.5193   -1.0989 C   0  0  0  0  0  0  0  0  0  0  0  0
    3.2718   -0.6232   -1.1987 O   0  0  0  0  0  0  0  0  0  0  0  0
    2.4537    1.2391   -2.1661 N   0  0  0  0  0  0  0  0  0  0  0  0
    2.0933    2.1671   -2.0120 H   0  0  0  0  0  0  0  0  0  0  0  0
    2.5468    0.7564   -3.5423 C   0  0  0  0  0  0  0  0  0  0  0  0
    3.5919    0.5633   -3.7936 H   0  0  0  0  0  0  0  0  0  0  0  0
    1.9886   -0.1759   -3.6454 H   0  0  0  0  0  0  0  0  0  0  0  0
    2.1411    1.4973   -4.2323 H   0  0  0  0  0  0  0  0  0  0  0  0
    3.4815    9.6552   -2.5670 H   0  0  0  0  0  0  0  0  0  0  0  0
    4.1915    8.9362   -2.1611 C   0  0  0  0  0  0  0  0  0  0  0  0
    5.1146    9.4453   -1.8884 H   0  0  0  0  0  0  0  0  0  0  0  0
    4.3988    8.1682   -2.9039 H   0  0  0  0  0  0  0  0  0  0  0  0
    3.5915    8.2948   -0.9319 C   0  0  0  0  0  0  0  0  0  0  0  0
    2.4694    8.6069   -0.5572 O   0  0  0  0  0  0  0  0  0  0  0  0
    4.3409    7.3890   -0.3093 N   0  0  0  0  0  0  0  0  0  0  0  0
    5.2627    7.1886   -0.6692 H   0  0  0  0  0  0  0  0  0  0  0  0
    3.9329    6.6571    0.8899 C   0  0  1  0  0  0  0  0  0  0  0  0
    3.3546    7.3226    1.5333 H   0  0  0  0  0  0  0  0  0  0  0  0
    3.0252    5.4983    0.4540 C   0  0  0  0  0  0  0  0  0  0  0  0
    2.1814    5.9280   -0.0878 H   0  0  0  0  0  0  0  0  0  0  0  0
    3.5708    4.8680   -0.2484 H   0  0  0  0  0  0  0  0  0  0  0  0
    2.3325    4.4444    1.7564 S   0  0  0  0  0  0  0  0  0  0  0  0
    5.1671    6.1819    1.6768 C   0  0  0  0  0  0  0  0  0  0  0  0
    6.2106    5.9132    1.0799 O   0  0  0  0  0  0  0  0  0  0  0  0
    5.0512    6.0874    3.0076 N   0  0  0  0  0  0  0  0  0  0  0  0
    4.1536    6.2932    3.4168 H   0  0  0  0  0  0  0  0  0  0  0  0
    6.1238    5.6446    3.8975 C   0  0  0  0  0  0  0  0  0  0  0  0
    6.2556    4.5652    3.8061 H   0  0  0  0  0  0  0  0  0  0  0  0
    7.0616    6.1344    3.6248 H   0  0  0  0  0  0  0  0  0  0  0  0
    5.8813    5.8906    4.9315 H   0  0  0  0  0  0  0  0  0  0  0  0
  5  6  2  0  0  0  0
  5  7  1  0  0  0  0
  2  3  1  0  0  0  0
  2  4  1  0  0  0  0
  2  5  1  0  0  0  0
  1  2  1  0  0  0  0
 15 16  2  0  0  0  0
 15 17  1  0  0  0  0
 14 36  1  0  0  0  0
 11 12  1  0  0  0  0
 11 13  1  0  0  0  0
 11 14  1  0  0  0  0
  9 10  1  0  0  0  0
  9 11  1  0  0  0  0
  9 15  1  0  0  0  0
  7  8  1  0  0  0  0
  7  9  1  0  0  0  0
 19 20  1  0  0  0  0
 19 21  1  0  0  0  0
 19 22  1  0  0  0  0
 17 18  1  0  0  0  0
 17 19  1  0  0  0  0
 27 28  2  0  0  0  0
 27 29  1  0  0  0  0
 24 25  1  0  0  0  0
 24 26  1  0  0  0  0
 24 27  1  0  0  0  0
 23 24  1  0  0  0  0
 37 38  2  0  0  0  0
 37 39  1  0  0  0  0
 33 34  1  0  0  0  0
 33 35  1  0  0  0  0
 33 36  1  0  0  0  0
 31 32  1  0  0  0  0
 31 33  1  0  0  0  0
 31 37  1  0  0  0  0
 29 30  1  0  0  0  0
 29 31  1  0  0  0  0
 41 42  1  0  0  0  0
 41 43  1  0  0  0  0
 41 44  1  0  0  0  0
 39 40  1  0  0  0  0
 39 41  1  0  0  0  0
M  END
$$$$
default_name
  -OEChem-01062215323D

 44 43  0     1  0  0  0  0  0999 V2000
    2.4488   -3.0448    2.0990 H   0  0  0  0  0  0  0  0  0  0  0  0
    2.2788   -2.0018    2.3640 C   0  0  0  0  0  0  0  0  0  0  0  0
    2.9228   -1.7258    3.1960 H   0  0  0  0  0  0  0  0  0  0  0  0
    1.2358   -1.8618    2.6430 H   0  0  0  0  0  0  0  0  0  0  0  0
    2.6018   -1.1318    1.1730 C   0  0  0  0  0  0  0  0  0  0  0  0
    3.0048   -1.6348    0.1320 O   0  0  0  0  0  0  0  0  0  0  0  0
    2.4088    0.1752    1.3190 N   0  0  0  0  0  0  0  0  0  0  0  0
    2.0708    0.5242    2.2050 H   0  0  0  0  0  0  0  0  0  0  0  0
    2.6638    1.1782    0.2840 C   0  0  1  0  0  0  0  0  0  0  0  0
    1.8007    1.8443    0.2368 H   0  0  0  0  0  0  0  0  0  0  0  0
    3.8946    2.0179    0.6683 C   0  0  0  0  0  0  0  0  0  0  0  0
    4.1681    2.6476   -0.1792 H   0  0  0  0  0  0  0  0  0  0  0  0
    4.7286    1.3344    0.8249 H   0  0  0  0  0  0  0  0  0  0  0  0
    3.7821    3.0621    2.1515 S   0  0  0  0  0  0  0  0  0  0  0  0
    2.8249    0.5193   -1.0989 C   0  0  0  0  0  0  0  0  0  0  0  0
    3.0044   -0.6946   -1.1959 O   0  0  0  0  0  0  0  0  0  0  0  0
    2.7539    1.3209   -2.1700 N   0  0  0  0  0  0  0  0  0  0  0  0
    2.6023    2.3051   -2.0185 H   0  0  0  0  0  0  0  0  0  0  0  0
    2.8893    0.8490   -3.5466 C   0  0  0  0  0  0  0  0  0  0  0  0
    3.8832    0.4203   -3.6916 H   0  0  0  0  0  0  0  0  0  0  0  0
    2.1464    0.0747   -3.7464 H   0  0  0  0  0  0  0  0  0  0  0  0
    2.7469    1.6739   -4.2459 H   0  0  0  0  0  0  0  0  0  0  0  0
    3.4815    9.6552   -2.5670 H   0  0  0  0  0  0  0  0  0  0  0  0
    4.1915    8.9362   -2.1611 C   0  0  0  0  0  0  0  0  0  0  0  0
    5.1146    9.4453   -1.8884 H   0  0  0  0  0  0  0  0  0  0  0  0
    4.3988    8.1682   -2.9039 H   0  0  0  0  0  0  0  0  0  0  0  0
    3.5915    8.2948   -0.9319 C   0  0  0  0  0  0  0  0  0  0  0  0
    2.4694    8.6069   -0.5572 O   0  0  0  0  0  0  0  0  0  0  0  0
    4.3409    7.3890   -0.3093 N   0  0  0  0  0  0  0  0  0  0  0  0
    5.2627    7.1886   -0.6692 H   0  0  0  0  0  0  0  0  0  0  0  0
    3.9329    6.6571    0.8899 C   0  0  1  0  0  0  0  0  0  0  0  0
    3.3546    7.3226    1.5333 H   0  0  0  0  0  0  0  0  0  0  0  0
    3.0252    5.4983    0.4540 C   0  0  0  0  0  0  0  0  0  0  0  0
    2.1814    5.9280   -0.0878 H   0  0  0  0  0  0  0  0  0  0  0  0
    3.5708    4.8680   -0.2484 H   0  0  0  0  0  0  0  0  0  0  0  0
    2.3325    4.4444    1.7564 S   0  0  0  0  0  0  0  0  0  0  0  0
    5.1671    6.1819    1.6768 C   0  0  0  0  0  0  0  0  0  0  0  0
    6.2106    5.9132    1.0799 O   0  0  0  0  0  0  0  0  0  0  0  0
    5.0512    6.0874    3.0076 N   0  0  0  0  0  0  0  0  0  0  0  0
    4.1536    6.2932    3.4168 H   0  0  0  0  0  0  0  0  0  0  0  0
    6.1238    5.6446    3.8975 C   0  0  0  0  0  0  0  0  0  0  0  0
    6.2556    4.5652    3.8061 H   0  0  0  0  0  0  0  0  0  0  0  0
    7.0616    6.1344    3.6248 H   0  0  0  0  0  0  0  0  0  0  0  0
    5.8813    5.8906    4.9315 H   0  0  0  0  0  0  0  0  0  0  0  0
  5  6  2  0  0  0  0
  5  7  1  0  0  0  0
  2  3  1  0  0  0  0
  2  4  1  0  0  0  0
  2  5  1  0  0  0  0
  1  2  1  0  0  0  0
 15 16  2  0  0  0  0
 15 17  1  0  0  0  0
 14 36  1  0  0  0  0
 11 12  1  0  0  0  0
 11 13  1  0  0  0  0
 11 14  1  0  0  0  0
  9 10  1  0  0  0  0
  9 11  1  0  0  0  0
  9 15  1  0  0  0  0
  7  8  1  0  0  0  0
  7  9  1  0  0  0  0
 19 20  1  0  0  0  0
 19 21  1  0  0  0  0
 19 22  1  0  0  0  0
 17 18  1  0  0  0  0
 17 19  1  0  0  0  0
 27 28  2  0  0  0  0
 27 29  1  0  0  0  0
 24 25  1  0  0  0  0
 24 26  1  0  0  0  0
 24 27  1  0  0  0  0
 23 24  1  0  0  0  0
 37 38  2  0  0  0  0
 37 39  1  0  0  0  0
 33 34  1  0  0  0  0
 33 35  1  0  0  0  0
 33 36  1  0  0  0  0
 31 32  1  0  0  0  0
 31 33  1  0  0  0  0
 31 37  1  0  0  0  0
 29 30  1  0  0  0  0
 29 31  1  0  0  0  0
 41 42  1  0  0  0  0
 41 43  1  0  0  0  0
 41 44  1  0  0  0  0
 39 40  1  0  0  0  0
 39 41  1  0  0  0  0
M  END
$$$$
default_name
  -OEChem-01062215323D

 44 43  0     1  0  0  0  0  0999 V2000
    2.4488   -3.0448    2.0990 H   0  0  0  0  0  0  0  0  0  0  0  0
    2.2788   -2.0018    2.3640 C   0  0  0  0  0  0  0  0  0  0  0  0
    2.9228   -1.7258    3.1960 H   0  0  0  0  0  0  0  0  0  0  0  0
    1.2358   -1.8618    2.6430 H   0  0  0  0  0  0  0  0  0  0  0  0
    2.6018   -1.1318    1.1730 C   0  0  0  0  0  0  0  0  0  0  0  0
    3.0048   -1.6348    0.1320 O   0  0  0  0  0  0  0  0  0  0  0  0
    2.4088    0.1752    1.3190 N   0  0  0  0  0  0  0  0  0  0  0  0
    2.0708    0.5242    2.2050 H   0  0  0  0  0  0  0  0  0  0  0  0
    2.6638    1.1782    0.2840 C   0  0  1  0  0  0  0  0  0  0  0  0
    1.9456    1.9896    0.4134 H   0  0  0  0  0  0  0  0  0  0  0  0
    4.0775    1.7588    0.4623 C   0  0  0  0  0  0  0  0  0  0  0  0
    4.3131    2.3803   -0.4025 H   0  0  0  0  0  0  0  0  0  0  0  0
    4.7833    0.9287    0.4453 H   0  0  0  0  0  0  0  0  0  0  0  0
    4.4210    2.7129    1.9705 S   0  0  0  0  0  0  0  0  0  0  0  0
    2.4569    0.5876   -1.1234 C   0  0  0  0  0  0  0  0  0  0  0  0
    2.1141   -0.5862   -1.2646 O   0  0  0  0  0  0  0  0  0  0  0  0
    2.6591    1.4051   -2.1653 N   0  0  0  0  0  0  0  0  0  0  0  0
    2.9358    2.3553   -1.9777 H   0  0  0  0  0  0  0  0  0  0  0  0
    2.5062    0.9951   -3.5597 C   0  0  0  0  0  0  0  0  0  0  0  0
    3.2246    0.2058   -3.7911 H   0  0  0  0  0  0  0  0  0  0  0  0
    1.4999    0.6047   -3.7218 H   0  0  0  0  0  0  0  0  0  0  0  0
    2.6752    1.8428   -4.2249 H   0  0  0  0  0  0  0  0  0  0  0  0
    4.5468    9.5313   -2.4246 H   0  0  0  0  0  0  0  0  0  0  0  0
    5.1691    8.6732   -2.1751 C   0  0  0  0  0  0  0  0  0  0  0  0
    6.2042    8.9912   -2.0601 H   0  0  0  0  0  0  0  0  0  0  0  0
    5.0972    7.9278   -2.9648 H   0  0  0  0  0  0  0  0  0  0  0  0
    4.6818    8.0751   -0.8762 C   0  0  0  0  0  0  0  0  0  0  0  0
    3.7200    8.5592   -0.2953 O   0  0  0  0  0  0  0  0  0  0  0  0
    5.3447    7.0132   -0.4262 N   0  0  0  0  0  0  0  0  0  0  0  0
    6.1363    6.6736   -0.9530 H   0  0  0  0  0  0  0  0  0  0  0  0
    5.0209    6.2936    0.8057 C   0  0  1  0  0  0  0  0  0  0  0  0
    4.6977    7.0110    1.5622 H   0  0  0  0  0  0  0  0  0  0  0  0
    3.8509    5.3451    0.5090 C   0  0  0  0  0  0  0  0  0  0  0  0
    3.0216    5.9514    0.1418 H   0  0  0  0  0  0  0  0  0  0  0  0
    4.1390    4.6718   -0.2986 H   0  0  0  0  0  0  0  0  0  0  0  0
    3.2095    4.3539    1.8848 S   0  0  0  0  0  0  0  0  0  0  0  0
    6.2617    5.5577    1.3416 C   0  0  0  0  0  0  0  0  0  0  0  0
    7.1171    5.1439    0.5577 O   0  0  0  0  0  0  0  0  0  0  0  0
    6.3624    5.4037    2.6681 N   0  0  0  0  0  0  0  0  0  0  0  0
    5.6039    5.7411    3.2392 H   0  0  0  0  0  0  0  0  0  0  0  0
    7.4709    4.7221    3.3354 C   0  0  0  0  0  0  0  0  0  0  0  0
    7.3805    3.6442    3.1908 H   0  0  0  0  0  0  0  0  0  0  0  0
    8.4221    5.0520    2.9110 H   0  0  0  0  0  0  0  0  0  0  0  0
    7.4614    4.9433    4.4028 H   0  0  0  0  0  0  0  0  0  0  0  0
  5  6  2  0  0  0  0
  5  7  1  0  0  0  0
  2  3  1  0  0  0  0
  2  4  1  0  0  0  0
  2  5  1  0  0  0  0
  1  2  1  0  0  0  0
 15 16  2  0  0  0  0
 15 17  1  0  0  0  0
 14 36  1  0  0  0  0
 11 12  1  0  0  0  0
 11 13  1  0  0  0  0
 11 14  1  0  0  0  0
  9 10  1  0  0  0  0
  9 11  1  0  0  0  0
  9 15  1  0  0  0  0
  7  8  1  0  0  0  0
  7  9  1  0  0  0  0
 19 20  1  0  0  0  0
 19 21  1  0  0  0  0
 19 22  1  0  0  0  0
 17 18  1  0  0  0  0
 17 19  1  0  0  0  0
 27 28  2  0  0  0  0
 27 29  1  0  0  0  0
 24 25  1  0  0  0  0
 24 26  1  0  0  0  0
 24 27  1  0  0  0  0
 23 24  1  0  0  0  0
 37 38  2  0  0  0  0
 37 39  1  0  0  0  0
 33 34  1  0  0  0  0
 33 35  1  0  0  0  0
 33 36  1  0  0  0  0
 31 32  1  0  0  0  0
 31 33  1  0  0  0  0
 31 37  1  0  0  0  0
 29 30  1  0  0  0  0
 29 31  1  0  0  0  0
 41 42  1  0  0  0  0
 41 43  1  0  0  0  0
 41 44  1  0  0  0  0
 39 40  1  0  0  0  0
 39 41  1  0  0  0  0
M  END
$$$$
default_name
  -OEChem-01062215323D

 44 43  0     1  0  0  0  0  0999 V2000
    2.4488   -3.0448    2.0990 H   0  0  0  0  0  0  0  0  0  0  0  0
    2.2788   -2.0018    2.3640 C   0  0  0  0  0  0  0  0  0  0  0  0
    2.9228   -1.7258    3.1960 H   0  0  0  0  0  0  0  0  0  0  0  0
    1.2358   -1.8618    2.6430 H   0  0  0  0  0  0  0  0  0  0  0  0
    2.6018   -1.1318    1.1730 C   0  0  0  0  0  0  0  0  0  0  0  0
    3.0048   -1.6348    0.1320 O   0  0  0  0  0  0  0  0  0  0  0  0
    2.4088    0.1752    1.3190 N   0  0  0  0  0  0  0  0  0  0  0  0
    2.0708    0.5242    2.2050 H   0  0  0  0  0  0  0  0  0  0  0  0
    2.6638    1.1782    0.2840 C   0  0  1  0  0  0  0  0  0  0  0  0
    1.9456    1.9896    0.4134 H   0  0  0  0  0  0  0  0  0  0  0  0
    4.0775    1.7588    0.4623 C   0  0  0  0  0  0  0  0  0  0  0  0
    4.3131    2.3803   -0.4025 H   0  0  0  0  0  0  0  0  0  0  0  0
    4.7833    0.9287    0.4453 H   0  0  0  0  0  0  0  0  0  0  0  0
    4.4210    2.7129    1.9705 S   0  0  0  0  0  0  0  0  0  0  0  0
    2.4569    0.5876   -1.1234 C   0  0  0  0  0  0  0  0  0  0  0  0
    1.8594   -0.4782   -1.2724 O   0  0  0  0  0  0  0  0  0  0  0  0
    2.9462    1.2852   -2.1572 N   0  0  0  0  0  0  0  0  0  0  0  0
    3.4222    2.1516   -1.9638 H   0  0  0  0  0  0  0  0  0  0  0  0
    2.8332    0.8579   -3.5502 C   0  0  0  0  0  0  0  0  0  0  0  0
    3.3616   -0.0879   -3.6880 H   0  0  0  0  0  0  0  0  0  0  0  0
    1.7829    0.7075   -3.8065 H   0  0  0  0  0  0  0  0  0  0  0  0
    3.2618    1.6102   -4.2136 H   0  0  0  0  0  0  0  0  0  0  0  0
    4.5468    9.5313   -2.4246 H   0  0  0  0  0  0  0  0  0  0  0  0
    5.1691    8.6732   -2.1751 C   0  0  0  0  0  0  0  0  0  0  0  0
    6.2042    8.9912   -2.0601 H   0  0  0  0  0  0  0  0  0  0  0  0
    5.0972    7.9278   -2.9648 H   0  0  0  0  0  0  0  0  0  0  0  0
    4.6818    8.0751   -0.8762 C   0  0  0  0  0  0  0  0  0  0  0  0
    3.7200    8.5592   -0.2953 O   0  0  0  0  0  0  0  0  0  0  0  0
    5.3447    7.0132   -0.4262 N   0  0  0  0  0  0  0  0  0  0  0  0
    6.1363    6.6736   -0.9530 H   0  0  0  0  0  0  0  0  0  0  0  0
    5.0209    6.2936    0.8057 C   0  0  1  0  0  0  0  0  0  0  0  0
    4.6977    7.0110    1.5622 H   0  0  0  0  0  0  0  0  0  0  0  0
    3.8509    5.3451    0.5090 C   0  0  0  0  0  0  0  0  0  0  0  0
    3.0216    5.9514    0.1418 H   0  0  0  0  0  0  0  0  0  0  0  0
    4.1390    4.6718   -0.2986 H   0  0  0  0  0  0  0  0  0  0  0  0
    3.2095    4.3539    1.8848 S   0  0  0  0  0  0  0  0  0  0  0  0
    6.2617    5.5577    1.3416 C   0  0  0  0  0  0  0  0  0  0  0  0
    7.1171    5.1439    0.5577 O   0  0  0  0  0  0  0  0  0  0  0  0
    6.3624    5.4037    2.6681 N   0  0  0  0  0  0  0  0  0  0  0  0
    5.6039    5.7411    3.2392 H   0  0  0  0  0  0  0  0  0  0  0  0
    7.4709    4.7221    3.3354 C   0  0  0  0  0  0  0  0  0  0  0  0
    7.3805    3.6442    3.1908 H   0  0  0  0  0  0  0  0  0  0  0  0
    8.4221    5.0520    2.9110 H   0  0  0  0  0  0  0  0  0  0  0  0
    7.4614    4.9433    4.4028 H   0  0  0  0  0  0  0  0  0  0  0  0
  5  6  2  0  0  0  0
  5  7  1  0  0  0  0
  2  3  1  0  0  0  0
  2  4  1  0  0  0  0
  2  5  1  0  0  0  0
  1  2  1  0  0  0  0
 15 16  2  0  0  0  0
 15 17  1  0  0  0  0
 14 36  1  0  0  0  0
 11 12  1  0  0  0  0
 11 13  1  0  0  0  0
 11 14  1  0  0  0  0
  9 10  1  0  0  0  0
  9 11  1  0  0  0  0
  9 15  1  0  0  0  0
  7  8  1  0  0  0  0
  7  9  1  0  0  0  0
 19 20  1  0  0  0  0
 19 21  1  0  0  0  0
 19 22  1  0  0  0  0
 17 18  1  0  0  0  0
 17 19  1  0  0  0  0
 27 28  2  0  0  0  0
 27 29  1  0  0  0  0
 24 25  1  0  0  0  0
 24 26  1  0  0  0  0
 24 27  1  0  0  0  0
 23 24  1  0  0  0  0
 37 38  2  0  0  0  0
 37 39  1  0  0  0  0
 33 34  1  0  0  0  0
 33 35  1  0  0  0  0
 33 36  1  0  0  0  0
 31 32  1  0  0  0  0
 31 33  1  0  0  0  0
 31 37  1  0  0  0  0
 29 30  1  0  0  0  0
 29 31  1  0  0  0  0
 41 42  1  0  0  0  0
 41 43  1  0  0  0  0
 41 44  1  0  0  0  0
 39 40  1  0  0  0  0
 39 41  1  0  0  0  0
M  END
$$$$
default_name
  -OEChem-01062215323D

 44 43  0     1  0  0  0  0  0999 V2000
    2.4488   -3.0448    2.0990 H   0  0  0  0  0  0  0  0  0  0  0  0
    2.2788   -2.0018    2.3640 C   0  0  0  0  0  0  0  0  0  0  0  0
    2.9228   -1.7258    3.1960 H   0  0  0  0  0  0  0  0  0  0  0  0
    1.2358   -1.8618    2.6430 H   0  0  0  0  0  0  0  0  0  0  0  0
    2.6018   -1.1318    1.1730 C   0  0  0  0  0  0  0  0  0  0  0  0
    3.0048   -1.6348    0.1320 O   0  0  0  0  0  0  0  0  0  0  0  0
    2.4088    0.1752    1.3190 N   0  0  0  0  0  0  0  0  0  0  0  0
    2.0708    0.5242    2.2050 H   0  0  0  0  0  0  0  0  0  0  0  0
    2.6638    1.1782    0.2840 C   0  0  1  0  0  0  0  0  0  0  0  0
    1.9456    1.9896    0.4134 H   0  0  0  0  0  0  0  0  0  0  0  0
    4.0775    1.7588    0.4623 C   0  0  0  0  0  0  0  0  0  0  0  0
    4.3131    2.3803   -0.4025 H   0  0  0  0  0  0  0  0  0  0  0  0
    4.7833    0.9287    0.4453 H   0  0  0  0  0  0  0  0  0  0  0  0
    4.4210    2.7129    1.9705 S   0  0  0  0  0  0  0  0  0  0  0  0
    2.4569    0.5876   -1.1234 C   0  0  0  0  0  0  0  0  0  0  0  0
    1.6396   -0.3139   -1.3090 O   0  0  0  0  0  0  0  0  0  0  0  0
    3.1943    1.1018   -2.1167 N   0  0  0  0  0  0  0  0  0  0  0  0
    3.8424    1.8403   -1.8949 H   0  0  0  0  0  0  0  0  0  0  0  0
    3.1157    0.6483   -3.5038 C   0  0  0  0  0  0  0  0  0  0  0  0
    3.4142   -0.4005   -3.5646 H   0  0  0  0  0  0  0  0  0  0  0  0
    2.0891    0.7368   -3.8639 H   0  0  0  0  0  0  0  0  0  0  0  0
    3.7722    1.2472   -4.1363 H   0  0  0  0  0  0  0  0  0  0  0  0
    4.5468    9.5313   -2.4246 H   0  0  0  0  0  0  0  0  0  0  0  0
    5.1691    8.6732   -2.1751 C   0  0  0  0  0  0  0  0  0  0  0  0
    6.2042    8.9912   -2.0601 H   0  0  0  0  0  0  0  0  0  0  0  0
    5.0972    7.9278   -2.9648 H   0  0  0  0  0  0  0  0  0  0  0  0
    4.6818    8.0751   -0.8762 C   0  0  0  0  0  0  0  0  0  0  0  0
    3.7200    8.5592   -0.2953 O   0  0  0  0  0  0  0  0  0  0  0  0
    5.3447    7.0132   -0.4262 N   0  0  0  0  0  0  0  0  0  0  0  0
    6.1363    6.6736   -0.9530 H   0  0  0  0  0  0  0  0  0  0  0  0
    5.0209    6.2936    0.8057 C   0  0  1  0  0  0  0  0  0  0  0  0
    4.6977    7.0110    1.5622 H   0  0  0  0  0  0  0  0  0  0  0  0
    3.8509    5.3451    0.5090 C   0  0  0  0  0  0  0  0  0  0  0  0
    3.0216    5.9514    0.1418 H   0  0  0  0  0  0  0  0  0  0  0  0
    4.1390    4.6718   -0.2986 H   0  0  0  0  0  0  0  0  0  0  0  0
    3.2095    4.3539    1.8848 S   0  0  0  0  0  0  0  0  0  0  0  0
    6.2617    5.5577    1.3416 C   0  0  0  0  0  0  0  0  0  0  0  0
    7.1171    5.1439    0.5577 O   0  0  0  0  0  0  0  0  0  0  0  0
    6.3624    5.4037    2.6681 N   0  0  0  0  0  0  0  0  0  0  0  0
    5.6039    5.7411    3.2392 H   0  0  0  0  0  0  0  0  0  0  0  0
    7.4709    4.7221    3.3354 C   0  0  0  0  0  0  0  0  0  0  0  0
    7.3805    3.6442    3.1908 H   0  0  0  0  0  0  0  0  0  0  0  0
    8.4221    5.0520    2.9110 H   0  0  0  0  0  0  0  0  0  0  0  0
    7.4614    4.9433    4.4028 H   0  0  0  0  0  0  0  0  0  0  0  0
  5  6  2  0  0  0  0
  5  7  1  0  0  0  0
  2  3  1  0  0  0  0
  2  4  1  0  0  0  0
  2  5  1  0  0  0  0
  1  2  1  0  0  0  0
 15 16  2  0  0  0  0
 15 17  1  0  0  0  0
 14 36  1  0  0  0  0
 11 12  1  0  0  0  0
 11 13  1  0  0  0  0
 11 14  1  0  0  0  0
  9 10  1  0  0  0  0
  9 11  1  0  0  0  0
  9 15  1  0  0  0  0
  7  8  1  0  0  0  0
  7  9  1  0  0  0  0
 19 20  1  0  0  0  0
 19 21  1  0  0  0  0
 19 22  1  0  0  0  0
 17 18  1  0  0  0  0
 17 19  1  0  0  0  0
 27 28  2  0  0  0  0
 27 29  1  0  0  0  0
 24 25  1  0  0  0  0
 24 26  1  0  0  0  0
 24 27  1  0  0  0  0
 23 24  1  0  0  0  0
 37 38  2  0  0  0  0
 37 39  1  0  0  0  0
 33 34  1  0  0  0  0
 33 35  1  0  0  0  0
 33 36  1  0  0  0  0
 31 32  1  0  0  0  0
 31 33  1  0  0  0  0
 31 37  1  0  0  0  0
 29 30  1  0  0  0  0
 29 31  1  0  0  0  0
 41 42  1  0  0  0  0
 41 43  1  0  0  0  0
 41 44  1  0  0  0  0
 39 40  1  0  0  0  0
 39 41  1  0  0  0  0
M  END
$$$$
default_name
  -OEChem-01062215323D

 44 43  0     1  0  0  0  0  0999 V2000
    2.4488   -3.0448    2.0990 H   0  0  0  0  0  0  0  0  0  0  0  0
    2.2788   -2.0018    2.3640 C   0  0  0  0  0  0  0  0  0  0  0  0
    2.9228   -1.7258    3.1960 H   0  0  0  0  0  0  0  0  0  0  0  0
    1.2358   -1.8618    2.6430 H   0  0  0  0  0  0  0  0  0  0  0  0
    2.6018   -1.1318    1.1730 C   0  0  0  0  0  0  0  0  0  0  0  0
    3.0048   -1.6348    0.1320 O   0  0  0  0  0  0  0  0  0  0  0  0
    2.4088    0.1752    1.3190 N   0  0  0  0  0  0  0  0  0  0  0  0
    2.0708    0.5242    2.2050 H   0  0  0  0  0  0  0  0  0  0  0  0
    2.6638    1.1782    0.2840 C   0  0  1  0  0  0  0  0  0  0  0  0
    1.9456    1.9896    0.4134 H   0  0  0  0  0  0  0  0  0  0  0  0
    4.0775    1.7588    0.4623 C   0  0  0  0  0  0  0  0  0  0  0  0
    4.3131    2.3803   -0.4025 H   0  0  0  0  0  0  0  0  0  0  0  0
    4.7833    0.9287    0.4453 H   0  0  0  0  0  0  0  0  0  0  0  0
    4.4210    2.7129    1.9705 S   0  0  0  0  0  0  0  0  0  0  0  0
    2.4569    0.5876   -1.1234 C   0  0  0  0  0  0  0  0  0  0  0  0
    1.4698   -0.1045   -1.3719 O   0  0  0  0  0  0  0  0  0  0  0  0
    3.3866    0.8673   -2.0466 N   0  0  0  0  0  0  0  0  0  0  0  0
    4.1679    1.4426   -1.7759 H   0  0  0  0  0  0  0  0  0  0  0  0
    3.3344    0.3807   -3.4236 C   0  0  0  0  0  0  0  0  0  0  0  0
    3.3788   -0.7105   -3.4293 H   0  0  0  0  0  0  0  0  0  0  0  0
    2.3975    0.6908   -3.8899 H   0  0  0  0  0  0  0  0  0  0  0  0
    4.1718    0.7785   -3.9984 H   0  0  0  0  0  0  0  0  0  0  0  0
    4.5468    9.5313   -2.4246 H   0  0  0  0  0  0  0  0  0  0  0  0
    5.1691    8.6732   -2.1751 C   0  0  0  0  0  0  0  0  0  0  0  0
    6.2042    8.9912   -2.0601 H   0  0  0  0  0  0  0  0  0  0  0  0
    5.0972    7.9278   -2.9648 H   0  0  0  0  0  0  0  0  0  0  0  0
    4.6818    8.0751   -0.8762 C   0  0  0  0  0  0  0  0  0  0  0  0
    3.7200    8.5592   -0.2953 O   0  0  0  0  0  0  0  0  0  0  0  0
    5.3447    7.0132   -0.4262 N   0  0  0  0  0  0  0  0  0  0  0  0
    6.1363    6.6736   -0.9530 H   0  0  0  0  0  0  0  0  0  0  0  0
    5.0209    6.2936    0.8057 C   0  0  1  0  0  0  0  0  0  0  0  0
    4.6977    7.0110    1.5622 H   0  0  0  0  0  0  0  0  0  0  0  0
    3.8509    5.3451    0.5090 C   0  0  0  0  0  0  0  0  0  0  0  0
    3.0216    5.9514    0.1418 H   0  0  0  0  0  0  0  0  0  0  0  0
    4.1390    4.6718   -0.2986 H   0  0  0  0  0  0  0  0  0  0  0  0
    3.2095    4.3539    1.8848 S   0  0  0  0  0  0  0  0  0  0  0  0
    6.2617    5.5577    1.3416 C   0  0  0  0  0  0  0  0  0  0  0  0
    7.1171    5.1439    0.5577 O   0  0  0  0  0  0  0  0  0  0  0  0
    6.3624    5.4037    2.6681 N   0  0  0  0  0  0  0  0  0  0  0  0
    5.6039    5.7411    3.2392 H   0  0  0  0  0  0  0  0  0  0  0  0
    7.4709    4.7221    3.3354 C   0  0  0  0  0  0  0  0  0  0  0  0
    7.3805    3.6442    3.1908 H   0  0  0  0  0  0  0  0  0  0  0  0
    8.4221    5.0520    2.9110 H   0  0  0  0  0  0  0  0  0  0  0  0
    7.4614    4.9433    4.4028 H   0  0  0  0  0  0  0  0  0  0  0  0
  5  6  2  0  0  0  0
  5  7  1  0  0  0  0
  2  3  1  0  0  0  0
  2  4  1  0  0  0  0
  2  5  1  0  0  0  0
  1  2  1  0  0  0  0
 15 16  2  0  0  0  0
 15 17  1  0  0  0  0
 14 36  1  0  0  0  0
 11 12  1  0  0  0  0
 11 13  1  0  0  0  0
 11 14  1  0  0  0  0
  9 10  1  0  0  0  0
  9 11  1  0  0  0  0
  9 15  1  0  0  0  0
  7  8  1  0  0  0  0
  7  9  1  0  0  0  0
 19 20  1  0  0  0  0
 19 21  1  0  0  0  0
 19 22  1  0  0  0  0
 17 18  1  0  0  0  0
 17 19  1  0  0  0  0
 27 28  2  0  0  0  0
 27 29  1  0  0  0  0
 24 25  1  0  0  0  0
 24 26  1  0  0  0  0
 24 27  1  0  0  0  0
 23 24  1  0  0  0  0
 37 38  2  0  0  0  0
 37 39  1  0  0  0  0
 33 34  1  0  0  0  0
 33 35  1  0  0  0  0
 33 36  1  0  0  0  0
 31 32  1  0  0  0  0
 31 33  1  0  0  0  0
 31 37  1  0  0  0  0
 29 30  1  0  0  0  0
 29 31  1  0  0  0  0
 41 42  1  0  0  0  0
 41 43  1  0  0  0  0
 41 44  1  0  0  0  0
 39 40  1  0  0  0  0
 39 41  1  0  0  0  0
M  END
$$$$
default_name
  -OEChem-01062215323D

 44 43  0     1  0  0  0  0  0999 V2000
    2.4488   -3.0448    2.0990 H   0  0  0  0  0  0  0  0  0  0  0  0
    2.2788   -2.0018    2.3640 C   0  0  0  0  0  0  0  0  0  0  0  0
    2.9228   -1.7258    3.1960 H   0  0  0  0  0  0  0  0  0  0  0  0
    1.2358   -1.8618    2.6430 H   0  0  0  0  0  0  0  0  0  0  0  0
    2.6018   -1.1318    1.1730 C   0  0  0  0  0  0  0  0  0  0  0  0
    3.0048   -1.6348    0.1320 O   0  0  0  0  0  0  0  0  0  0  0  0
    2.4088    0.1752    1.3190 N   0  0  0  0  0  0  0  0  0  0  0  0
    2.0708    0.5242    2.2050 H   0  0  0  0  0  0  0  0  0  0  0  0
    2.6638    1.1782    0.2840 C   0  0  1  0  0  0  0  0  0  0  0  0
    1.9456    1.9896    0.4134 H   0  0  0  0  0  0  0  0  0  0  0  0
    4.0775    1.7588    0.4623 C   0  0  0  0  0  0  0  0  0  0  0  0
    4.3131    2.3803   -0.4025 H   0  0  0  0  0  0  0  0  0  0  0  0
    4.7833    0.9287    0.4453 H   0  0  0  0  0  0  0  0  0  0  0  0
    4.4210    2.7129    1.9705 S   0  0  0  0  0  0  0  0  0  0  0  0
    2.4569    0.5876   -1.1234 C   0  0  0  0  0  0  0  0  0  0  0  0
    1.3616    0.1357   -1.4568 O   0  0  0  0  0  0  0  0  0  0  0  0
    3.5099    0.5979   -1.9516 N   0  0  0  0  0  0  0  0  0  0  0  0
    4.3763    0.9857   -1.6148 H   0  0  0  0  0  0  0  0  0  0  0  0
    3.4744    0.0733   -3.3152 C   0  0  0  0  0  0  0  0  0  0  0  0
    3.2579   -0.9969   -3.2913 H   0  0  0  0  0  0  0  0  0  0  0  0
    2.6870    0.5725   -3.8828 H   0  0  0  0  0  0  0  0  0  0  0  0
    4.4332    0.2361   -3.8092 H   0  0  0  0  0  0  0  0  0  0  0  0
    4.5468    9.5313   -2.4246 H   0  0  0  0  0  0  0  0  0  0  0  0
    5.1691    8.6732   -2.1751 C   0  0  0  0  0  0  0  0  0  0  0  0
    6.2042    8.9912   -2.0601 H   0  0  0  0  0  0  0  0  0  0  0  0
    5.0972    7.9278   -2.9648 H   0  0  0  0  0  0  0  0  0  0  0  0
    4.6818    8.0751   -0.8762 C   0  0  0  0  0  0  0  0  0  0  0  0
    3.7200    8.5592   -0.2953 O   0  0  0  0  0  0  0  0  0  0  0  0
    5.3447    7.0132   -0.4262 N   0  0  0  0  0  0  0  0  0  0  0  0
    6.1363    6.6736   -0.9530 H   0  0  0  0  0  0  0  0  0  0  0  0
    5.0209    6.2936    0.8057 C   0  0  1  0  0  0  0  0  0  0  0  0
    4.6977    7.0110    1.5622 H   0  0  0  0  0  0  0  0  0  0  0  0
    3.8509    5.3451    0.5090 C   0  0  0  0  0  0  0  0  0  0  0  0
    3.0216    5.9514    0.1418 H   0  0  0  0  0  0  0  0  0  0  0  0
    4.1390    4.6718   -0.2986 H   0  0  0  0  0  0  0  0  0  0  0  0
    3.2095    4.3539    1.8848 S   0  0  0  0  0  0  0  0  0  0  0  0
    6.2617    5.5577    1.3416 C   0  0  0  0  0  0  0  0  0  0  0  0
    7.1171    5.1439    0.5577 O   0  0  0  0  0  0  0  0  0  0  0  0
    6.3624    5.4037    2.6681 N   0  0  0  0  0  0  0  0  0  0  0  0
    5.6039    5.7411    3.2392 H   0  0  0  0  0  0  0  0  0  0  0  0
    7.4709    4.7221    3.3354 C   0  0  0  0  0  0  0  0  0  0  0  0
    7.3805    3.6442    3.1908 H   0  0  0  0  0  0  0  0  0  0  0  0
    8.4221    5.0520    2.9110 H   0  0  0  0  0  0  0  0  0  0  0  0
    7.4614    4.9433    4.4028 H   0  0  0  0  0  0  0  0  0  0  0  0
  5  6  2  0  0  0  0
  5  7  1  0  0  0  0
  2  3  1  0  0  0  0
  2  4  1  0  0  0  0
  2  5  1  0  0  0  0
  1  2  1  0  0  0  0
 15 16  2  0  0  0  0
 15 17  1  0  0  0  0
 14 36  1  0  0  0  0
 11 12  1  0  0  0  0
 11 13  1  0  0  0  0
 11 14  1  0  0  0  0
  9 10  1  0  0  0  0
  9 11  1  0  0  0  0
  9 15  1  0  0  0  0
  7  8  1  0  0  0  0
  7  9  1  0  0  0  0
 19 20  1  0  0  0  0
 19 21  1  0  0  0  0
 19 22  1  0  0  0  0
 17 18  1  0  0  0  0
 17 19  1  0  0  0  0
 27 28  2  0  0  0  0
 27 29  1  0  0  0  0
 24 25  1  0  0  0  0
 24 26  1  0  0  0  0
 24 27  1  0  0  0  0
 23 24  1  0  0  0  0
 37 38  2  0  0  0  0
 37 39  1  0  0  0  0
 33 34  1  0  0  0  0
 33 35  1  0  0  0  0
 33 36  1  0  0  0  0
 31 32  1  0  0  0  0
 31 33  1  0  0  0  0
 31 37  1  0  0  0  0
 29 30  1  0  0  0  0
 29 31  1  0  0  0  0
 41 42  1  0  0  0  0
 41 43  1  0  0  0  0
 41 44  1  0  0  0  0
 39 40  1  0  0  0  0
 39 41  1  0  0  0  0
M  END
$$$$
default_name
  -OEChem-01062215323D

 44 43  0     1  0  0  0  0  0999 V2000
    2.4488   -3.0448    2.0990 H   0  0  0  0  0  0  0  0  0  0  0  0
    2.2788   -2.0018    2.3640 C   0  0  0  0  0  0  0  0  0  0  0  0
    2.9228   -1.7258    3.1960 H   0  0  0  0  0  0  0  0  0  0  0  0
    1.2358   -1.8618    2.6430 H   0  0  0  0  0  0  0  0  0  0  0  0
    2.6018   -1.1318    1.1730 C   0  0  0  0  0  0  0  0  0  0  0  0
    3.0048   -1.6348    0.1320 O   0  0  0  0  0  0  0  0  0  0  0  0
    2.4088    0.1752    1.3190 N   0  0  0  0  0  0  0  0  0  0  0  0
    2.0708    0.5242    2.2050 H   0  0  0  0  0  0  0  0  0  0  0  0
    2.6638    1.1782    0.2840 C   0  0  1  0  0  0  0  0  0  0  0  0
    1.9456    1.9896    0.4134 H   0  0  0  0  0  0  0  0  0  0  0  0
    4.0775    1.7588    0.4623 C   0  0  0  0  0  0  0  0  0  0  0  0
    4.3131    2.3803   -0.4025 H   0  0  0  0  0  0  0  0  0  0  0  0
    4.7833    0.9287    0.4453 H   0  0  0  0  0  0  0  0  0  0  0  0
    4.4210    2.7129    1.9705 S   0  0  0  0  0  0  0  0  0  0  0  0
    2.4569    0.5876   -1.1234 C   0  0  0  0  0  0  0  0  0  0  0  0
    1.3222    0.3903   -1.5579 O   0  0  0  0  0  0  0  0  0  0  0  0
    3.5558    0.3117   -1.8383 N   0  0  0  0  0  0  0  0  0  0  0  0
    4.4537    0.5006   -1.4226 H   0  0  0  0  0  0  0  0  0  0  0  0
    3.5262   -0.2530   -3.1859 C   0  0  0  0  0  0  0  0  0  0  0  0
    3.0597   -1.2401   -3.1601 H   0  0  0  0  0  0  0  0  0  0  0  0
    2.9381    0.3901   -3.8432 H   0  0  0  0  0  0  0  0  0  0  0  0
    4.5386   -0.3430   -3.5817 H   0  0  0  0  0  0  0  0  0  0  0  0
    4.5468    9.5313   -2.4246 H   0  0  0  0  0  0  0  0  0  0  0  0
    5.1691    8.6732   -2.1751 C   0  0  0  0  0  0  0  0  0  0  0  0
    6.2042    8.9912   -2.0601 H   0  0  0  0  0  0  0  0  0  0  0  0
    5.0972    7.9278   -2.9648 H   0  0  0  0  0  0  0  0  0  0  0  0
    4.6818    8.0751   -0.8762 C   0  0  0  0  0  0  0  0  0  0  0  0
    3.7200    8.5592   -0.2953 O   0  0  0  0  0  0  0  0  0  0  0  0
    5.3447    7.0132   -0.4262 N   0  0  0  0  0  0  0  0  0  0  0  0
    6.1363    6.6736   -0.9530 H   0  0  0  0  0  0  0  0  0  0  0  0
    5.0209    6.2936    0.8057 C   0  0  1  0  0  0  0  0  0  0  0  0
    4.6977    7.0110    1.5622 H   0  0  0  0  0  0  0  0  0  0  0  0
    3.8509    5.3451    0.5090 C   0  0  0  0  0  0  0  0  0  0  0  0
    3.0216    5.9514    0.1418 H   0  0  0  0  0  0  0  0  0  0  0  0
    4.1390    4.6718   -0.2986 H   0  0  0  0  0  0  0  0  0  0  0  0
    3.2095    4.3539    1.8848 S   0  0  0  0  0  0  0  0  0  0  0  0
    6.2617    5.5577    1.3416 C   0  0  0  0  0  0  0  0  0  0  0  0
    7.1171    5.1439    0.5577 O   0  0  0  0  0  0  0  0  0  0  0  0
    6.3624    5.4037    2.6681 N   0  0  0  0  0  0  0  0  0  0  0  0
    5.6039    5.7411    3.2392 H   0  0  0  0  0  0  0  0  0  0  0  0
    7.4709    4.7221    3.3354 C   0  0  0  0  0  0  0  0  0  0  0  0
    7.3805    3.6442    3.1908 H   0  0  0  0  0  0  0  0  0  0  0  0
    8.4221    5.0520    2.9110 H   0  0  0  0  0  0  0  0  0  0  0  0
    7.4614    4.9433    4.4028 H   0  0  0  0  0  0  0  0  0  0  0  0
  5  6  2  0  0  0  0
  5  7  1  0  0  0  0
  2  3  1  0  0  0  0
  2  4  1  0  0  0  0
  2  5  1  0  0  0  0
  1  2  1  0  0  0  0
 15 16  2  0  0  0  0
 15 17  1  0  0  0  0
 14 36  1  0  0  0  0
 11 12  1  0  0  0  0
 11 13  1  0  0  0  0
 11 14  1  0  0  0  0
  9 10  1  0  0  0  0
  9 11  1  0  0  0  0
  9 15  1  0  0  0  0
  7  8  1  0  0  0  0
  7  9  1  0  0  0  0
 19 20  1  0  0  0  0
 19 21  1  0  0  0  0
 19 22  1  0  0  0  0
 17 18  1  0  0  0  0
 17 19  1  0  0  0  0
 27 28  2  0  0  0  0
 27 29  1  0  0  0  0
 24 25  1  0  0  0  0
 24 26  1  0  0  0  0
 24 27  1  0  0  0  0
 23 24  1  0  0  0  0
 37 38  2  0  0  0  0
 37 39  1  0  0  0  0
 33 34  1  0  0  0  0
 33 35  1  0  0  0  0
 33 36  1  0  0  0  0
 31 32  1  0  0  0  0
 31 33  1  0  0  0  0
 31 37  1  0  0  0  0
 29 30  1  0  0  0  0
 29 31  1  0  0  0  0
 41 42  1  0  0  0  0
 41 43  1  0  0  0  0
 41 44  1  0  0  0  0
 39 40  1  0  0  0  0
 39 41  1  0  0  0  0
M  END
$$$$
default_name
  -OEChem-01062215323D

 44 43  0     1  0  0  0  0  0999 V2000
    2.4488   -3.0448    2.0990 H   0  0  0  0  0  0  0  0  0  0  0  0
    2.2788   -2.0018    2.3640 C   0  0  0  0  0  0  0  0  0  0  0  0
    2.9228   -1.7258    3.1960 H   0  0  0  0  0  0  0  0  0  0  0  0
    1.2358   -1.8618    2.6430 H   0  0  0  0  0  0  0  0  0  0  0  0
    2.6018   -1.1318    1.1730 C   0  0  0  0  0  0  0  0  0  0  0  0
    3.0048   -1.6348    0.1320 O   0  0  0  0  0  0  0  0  0  0  0  0
    2.4088    0.1752    1.3190 N   0  0  0  0  0  0  0  0  0  0  0  0
    2.0708    0.5242    2.2050 H   0  0  0  0  0  0  0  0  0  0  0  0
    2.6638    1.1782    0.2840 C   0  0  1  0  0  0  0  0  0  0  0  0
    1.9456    1.9896    0.4134 H   0  0  0  0  0  0  0  0  0  0  0  0
    4.0775    1.7588    0.4623 C   0  0  0  0  0  0  0  0  0  0  0  0
    4.3131    2.3803   -0.4025 H   0  0  0  0  0  0  0  0  0  0  0  0
    4.7833    0.9287    0.4453 H   0  0  0  0  0  0  0  0  0  0  0  0
    4.4210    2.7129    1.9705 S   0  0  0  0  0  0  0  0  0  0  0  0
    2.4569    0.5876   -1.1234 C   0  0  0  0  0  0  0  0  0  0  0  0
    1.3545    0.6421   -1.6683 O   0  0  0  0  0  0  0  0  0  0  0  0
    3.5213    0.0284   -1.7143 N   0  0  0  0  0  0  0  0  0  0  0  0
    4.3946    0.0204   -1.2124 H   0  0  0  0  0  0  0  0  0  0  0  0
    3.4862   -0.5759   -3.0445 C   0  0  0  0  0  0  0  0  0  0  0  0
    2.7977   -1.4236   -3.0445 H   0  0  0  0  0  0  0  0  0  0  0  0
    3.1335    0.1558   -3.7736 H   0  0  0  0  0  0  0  0  0  0  0  0
    4.4809   -0.9195   -3.3313 H   0  0  0  0  0  0  0  0  0  0  0  0
    4.5468    9.5313   -2.4246 H   0  0  0  0  0  0  0  0  0  0  0  0
    5.1691    8.6732   -2.1751 C   0  0  0  0  0  0  0  0  0  0  0  0
    6.2042    8.9912   -2.0601 H   0  0  0  0  0  0  0  0  0  0  0  0
    5.0972    7.9278   -2.9648 H   0  0  0  0  0  0  0  0  0  0  0  0
    4.6818    8.0751   -0.8762 C   0  0  0  0  0  0  0  0  0  0  0  0
    3.7200    8.5592   -0.2953 O   0  0  0  0  0  0  0  0  0  0  0  0
    5.3447    7.0132   -0.4262 N   0  0  0  0  0  0  0  0  0  0  0  0
    6.1363    6.6736   -0.9530 H   0  0  0  0  0  0  0  0  0  0  0  0
    5.0209    6.2936    0.8057 C   0  0  1  0  0  0  0  0  0  0  0  0
    4.6977    7.0110    1.5622 H   0  0  0  0  0  0  0  0  0  0  0  0
    3.8509    5.3451    0.5090 C   0  0  0  0  0  0  0  0  0  0  0  0
    3.0216    5.9514    0.1418 H   0  0  0  0  0  0  0  0  0  0  0  0
    4.1390    4.6718   -0.2986 H   0  0  0  0  0  0  0  0  0  0  0  0
    3.2095    4.3539    1.8848 S   0  0  0  0  0  0  0  0  0  0  0  0
    6.2617    5.5577    1.3416 C   0  0  0  0  0  0  0  0  0  0  0  0
    7.1171    5.1439    0.5577 O   0  0  0  0  0  0  0  0  0  0  0  0
    6.3624    5.4037    2.6681 N   0  0  0  0  0  0  0  0  0  0  0  0
    5.6039    5.7411    3.2392 H   0  0  0  0  0  0  0  0  0  0  0  0
    7.4709    4.7221    3.3354 C   0  0  0  0  0  0  0  0  0  0  0  0
    7.3805    3.6442    3.1908 H   0  0  0  0  0  0  0  0  0  0  0  0
    8.4221    5.0520    2.9110 H   0  0  0  0  0  0  0  0  0  0  0  0
    7.4614    4.9433    4.4028 H   0  0  0  0  0  0  0  0  0  0  0  0
  5  6  2  0  0  0  0
  5  7  1  0  0  0  0
  2  3  1  0  0  0  0
  2  4  1  0  0  0  0
  2  5  1  0  0  0  0
  1  2  1  0  0  0  0
 15 16  2  0  0  0  0
 15 17  1  0  0  0  0
 14 36  1  0  0  0  0
 11 12  1  0  0  0  0
 11 13  1  0  0  0  0
 11 14  1  0  0  0  0
  9 10  1  0  0  0  0
  9 11  1  0  0  0  0
  9 15  1  0  0  0  0
  7  8  1  0  0  0  0
  7  9  1  0  0  0  0
 19 20  1  0  0  0  0
 19 21  1  0  0  0  0
 19 22  1  0  0  0  0
 17 18  1  0  0  0  0
 17 19  1  0  0  0  0
 27 28  2  0  0  0  0
 27 29  1  0  0  0  0
 24 25  1  0  0  0  0
 24 26  1  0  0  0  0
 24 27  1  0  0  0  0
 23 24  1  0  0  0  0
 37 38  2  0  0  0  0
 37 39  1  0  0  0  0
 33 34  1  0  0  0  0
 33 35  1  0  0  0  0
 33 36  1  0  0  0  0
 31 32  1  0  0  0  0
 31 33  1  0  0  0  0
 31 37  1  0  0  0  0
 29 30  1  0  0  0  0
 29 31  1  0  0  0  0
 41 42  1  0  0  0  0
 41 43  1  0  0  0  0
 41 44  1  0  0  0  0
 39 40  1  0  0  0  0
 39 41  1  0  0  0  0
M  END
$$$$
default_name
  -OEChem-01062215323D

 44 43  0     1  0  0  0  0  0999 V2000
    2.4488   -3.0448    2.0990 H   0  0  0  0  0  0  0  0  0  0  0  0
    2.2788   -2.0018    2.3640 C   0  0  0  0  0  0  0  0  0  0  0  0
    2.9228   -1.7258    3.1960 H   0  0  0  0  0  0  0  0  0  0  0  0
    1.2358   -1.8618    2.6430 H   0  0  0  0  0  0  0  0  0  0  0  0
    2.6018   -1.1318    1.1730 C   0  0  0  0  0  0  0  0  0  0  0  0
    3.0048   -1.6348    0.1320 O   0  0  0  0  0  0  0  0  0  0  0  0
    2.4088    0.1752    1.3190 N   0  0  0  0  0  0  0  0  0  0  0  0
    2.0708    0.5242    2.2050 H   0  0  0  0  0  0  0  0  0  0  0  0
    2.6638    1.1782    0.2840 C   0  0  1  0  0  0  0  0  0  0  0  0
    1.9456    1.9896    0.4134 H   0  0  0  0  0  0  0  0  0  0  0  0
    4.0775    1.7588    0.4623 C   0  0  0  0  0  0  0  0  0  0  0  0
    4.3131    2.3803   -0.4025 H   0  0  0  0  0  0  0  0  0  0  0  0
    4.7833    0.9287    0.4453 H   0  0  0  0  0  0  0  0  0  0  0  0
    4.4210    2.7129    1.9705 S   0  0  0  0  0  0  0  0  0  0  0  0
    2.4569    0.5876   -1.1234 C   0  0  0  0  0  0  0  0  0  0  0  0
    1.4562    0.8738   -1.7805 O   0  0  0  0  0  0  0  0  0  0  0  0
    3.4086   -0.2328   -1.5881 N   0  0  0  0  0  0  0  0  0  0  0  0
    4.2031   -0.4221   -0.9985 H   0  0  0  0  0  0  0  0  0  0  0  0
    3.3572   -0.8735   -2.9007 C   0  0  0  0  0  0  0  0  0  0  0  0
    2.4897   -1.5349   -2.9526 H   0  0  0  0  0  0  0  0  0  0  0  0
    3.2599   -0.1142   -3.6788 H   0  0  0  0  0  0  0  0  0  0  0  0
    4.2640   -1.4539   -3.0751 H   0  0  0  0  0  0  0  0  0  0  0  0
    4.5468    9.5313   -2.4246 H   0  0  0  0  0  0  0  0  0  0  0  0
    5.1691    8.6732   -2.1751 C   0  0  0  0  0  0  0  0  0  0  0  0
    6.2042    8.9912   -2.0601 H   0  0  0  0  0  0  0  0  0  0  0  0
    5.0972    7.9278   -2.9648 H   0  0  0  0  0  0  0  0  0  0  0  0
    4.6818    8.0751   -0.8762 C   0  0  0  0  0  0  0  0  0  0  0  0
    3.7200    8.5592   -0.2953 O   0  0  0  0  0  0  0  0  0  0  0  0
    5.3447    7.0132   -0.4262 N   0  0  0  0  0  0  0  0  0  0  0  0
    6.1363    6.6736   -0.9530 H   0  0  0  0  0  0  0  0  0  0  0  0
    5.0209    6.2936    0.8057 C   0  0  1  0  0  0  0  0  0  0  0  0
    4.6977    7.0110    1.5622 H   0  0  0  0  0  0  0  0  0  0  0  0
    3.8509    5.3451    0.5090 C   0  0  0  0  0  0  0  0  0  0  0  0
    3.0216    5.9514    0.1418 H   0  0  0  0  0  0  0  0  0  0  0  0
    4.1390    4.6718   -0.2986 H   0  0  0  0  0  0  0  0  0  0  0  0
    3.2095    4.3539    1.8848 S   0  0  0  0  0  0  0  0  0  0  0  0
    6.2617    5.5577    1.3416 C   0  0  0  0  0  0  0  0  0  0  0  0
    7.1171    5.1439    0.5577 O   0  0  0  0  0  0  0  0  0  0  0  0
    6.3624    5.4037    2.6681 N   0  0  0  0  0  0  0  0  0  0  0  0
    5.6039    5.7411    3.2392 H   0  0  0  0  0  0  0  0  0  0  0  0
    7.4709    4.7221    3.3354 C   0  0  0  0  0  0  0  0  0  0  0  0
    7.3805    3.6442    3.1908 H   0  0  0  0  0  0  0  0  0  0  0  0
    8.4221    5.0520    2.9110 H   0  0  0  0  0  0  0  0  0  0  0  0
    7.4614    4.9433    4.4028 H   0  0  0  0  0  0  0  0  0  0  0  0
  5  6  2  0  0  0  0
  5  7  1  0  0  0  0
  2  3  1  0  0  0  0
  2  4  1  0  0  0  0
  2  5  1  0  0  0  0
  1  2  1  0  0  0  0
 15 16  2  0  0  0  0
 15 17  1  0  0  0  0
 14 36  1  0  0  0  0
 11 12  1  0  0  0  0
 11 13  1  0  0  0  0
 11 14  1  0  0  0  0
  9 10  1  0  0  0  0
  9 11  1  0  0  0  0
  9 15  1  0  0  0  0
  7  8  1  0  0  0  0
  7  9  1  0  0  0  0
 19 20  1  0  0  0  0
 19 21  1  0  0  0  0
 19 22  1  0  0  0  0
 17 18  1  0  0  0  0
 17 19  1  0  0  0  0
 27 28  2  0  0  0  0
 27 29  1  0  0  0  0
 24 25  1  0  0  0  0
 24 26  1  0  0  0  0
 24 27  1  0  0  0  0
 23 24  1  0  0  0  0
 37 38  2  0  0  0  0
 37 39  1  0  0  0  0
 33 34  1  0  0  0  0
 33 35  1  0  0  0  0
 33 36  1  0  0  0  0
 31 32  1  0  0  0  0
 31 33  1  0  0  0  0
 31 37  1  0  0  0  0
 29 30  1  0  0  0  0
 29 31  1  0  0  0  0
 41 42  1  0  0  0  0
 41 43  1  0  0  0  0
 41 44  1  0  0  0  0
 39 40  1  0  0  0  0
 39 41  1  0  0  0  0
M  END
$$$$
default_name
  -OEChem-01062215323D

 44 43  0     1  0  0  0  0  0999 V2000
    2.4488   -3.0448    2.0990 H   0  0  0  0  0  0  0  0  0  0  0  0
    2.2788   -2.0018    2.3640 C   0  0  0  0  0  0  0  0  0  0  0  0
    2.9228   -1.7258    3.1960 H   0  0  0  0  0  0  0  0  0  0  0  0
    1.2358   -1.8618    2.6430 H   0  0  0  0  0  0  0  0  0  0  0  0
    2.6018   -1.1318    1.1730 C   0  0  0  0  0  0  0  0  0  0  0  0
    3.0048   -1.6348    0.1320 O   0  0  0  0  0  0  0  0  0  0  0  0
    2.4088    0.1752    1.3190 N   0  0  0  0  0  0  0  0  0  0  0  0
    2.0708    0.5242    2.2050 H   0  0  0  0  0  0  0  0  0  0  0  0
    2.6638    1.1782    0.2840 C   0  0  1  0  0  0  0  0  0  0  0  0
    1.9456    1.9896    0.4134 H   0  0  0  0  0  0  0  0  0  0  0  0
    4.0775    1.7588    0.4623 C   0  0  0  0  0  0  0  0  0  0  0  0
    4.3131    2.3803   -0.4025 H   0  0  0  0  0  0  0  0  0  0  0  0
    4.7833    0.9287    0.4453 H   0  0  0  0  0  0  0  0  0  0  0  0
    4.4210    2.7129    1.9705 S   0  0  0  0  0  0  0  0  0  0  0  0
    2.4569    0.5876   -1.1234 C   0  0  0  0  0  0  0  0  0  0  0  0
    1.6203    1.0697   -1.8869 O   0  0  0  0  0  0  0  0  0  0  0  0
    3.2255   -0.4541   -1.4684 N   0  0  0  0  0  0  0  0  0  0  0  0
    3.8922   -0.7968   -0.7956 H   0  0  0  0  0  0  0  0  0  0  0  0
    3.1479   -1.1254   -2.7642 C   0  0  0  0  0  0  0  0  0  0  0  0
    2.1568   -1.5663   -2.8904 H   0  0  0  0  0  0  0  0  0  0  0  0
    3.3087   -0.4017   -3.5654 H   0  0  0  0  0  0  0  0  0  0  0  0
    3.9027   -1.9099   -2.8306 H   0  0  0  0  0  0  0  0  0  0  0  0
    4.5468    9.5313   -2.4246 H   0  0  0  0  0  0  0  0  0  0  0  0
    5.1691    8.6732   -2.1751 C   0  0  0  0  0  0  0  0  0  0  0  0
    6.2042    8.9912   -2.0601 H   0  0  0  0  0  0  0  0  0  0  0  0
    5.0972    7.9278   -2.9648 H   0  0  0  0  0  0  0  0  0  0  0  0
    4.6818    8.0751   -0.8762 C   0  0  0  0  0  0  0  0  0  0  0  0
    3.7200    8.5592   -0.2953 O   0  0  0  0  0  0  0  0  0  0  0  0
    5.3447    7.0132   -0.4262 N   0  0  0  0  0  0  0  0  0  0  0  0
    6.1363    6.6736   -0.9530 H   0  0  0  0  0  0  0  0  0  0  0  0
    5.0209    6.2936    0.8057 C   0  0  1  0  0  0  0  0  0  0  0  0
    4.6977    7.0110    1.5622 H   0  0  0  0  0  0  0  0  0  0  0  0
    3.8509    5.3451    0.5090 C   0  0  0  0  0  0  0  0  0  0  0  0
    3.0216    5.9514    0.1418 H   0  0  0  0  0  0  0  0  0  0  0  0
    4.1390    4.6718   -0.2986 H   0  0  0  0  0  0  0  0  0  0  0  0
    3.2095    4.3539    1.8848 S   0  0  0  0  0  0  0  0  0  0  0  0
    6.2617    5.5577    1.3416 C   0  0  0  0  0  0  0  0  0  0  0  0
    7.1171    5.1439    0.5577 O   0  0  0  0  0  0  0  0  0  0  0  0
    6.3624    5.4037    2.6681 N   0  0  0  0  0  0  0  0  0  0  0  0
    5.6039    5.7411    3.2392 H   0  0  0  0  0  0  0  0  0  0  0  0
    7.4709    4.7221    3.3354 C   0  0  0  0  0  0  0  0  0  0  0  0
    7.3805    3.6442    3.1908 H   0  0  0  0  0  0  0  0  0  0  0  0
    8.4221    5.0520    2.9110 H   0  0  0  0  0  0  0  0  0  0  0  0
    7.4614    4.9433    4.4028 H   0  0  0  0  0  0  0  0  0  0  0  0
  5  6  2  0  0  0  0
  5  7  1  0  0  0  0
  2  3  1  0  0  0  0
  2  4  1  0  0  0  0
  2  5  1  0  0  0  0
  1  2  1  0  0  0  0
 15 16  2  0  0  0  0
 15 17  1  0  0  0  0
 14 36  1  0  0  0  0
 11 12  1  0  0  0  0
 11 13  1  0  0  0  0
 11 14  1  0  0  0  0
  9 10  1  0  0  0  0
  9 11  1  0  0  0  0
  9 15  1  0  0  0  0
  7  8  1  0  0  0  0
  7  9  1  0  0  0  0
 19 20  1  0  0  0  0
 19 21  1  0  0  0  0
 19 22  1  0  0  0  0
 17 18  1  0  0  0  0
 17 19  1  0  0  0  0
 27 28  2  0  0  0  0
 27 29  1  0  0  0  0
 24 25  1  0  0  0  0
 24 26  1  0  0  0  0
 24 27  1  0  0  0  0
 23 24  1  0  0  0  0
 37 38  2  0  0  0  0
 37 39  1  0  0  0  0
 33 34  1  0  0  0  0
 33 35  1  0  0  0  0
 33 36  1  0  0  0  0
 31 32  1  0  0  0  0
 31 33  1  0  0  0  0
 31 37  1  0  0  0  0
 29 30  1  0  0  0  0
 29 31  1  0  0  0  0
 41 42  1  0  0  0  0
 41 43  1  0  0  0  0
 41 44  1  0  0  0  0
 39 40  1  0  0  0  0
 39 41  1  0  0  0  0
M  END
$$$$
default_name
  -OEChem-01062215323D

 44 43  0     1  0  0  0  0  0999 V2000
    2.4488   -3.0448    2.0990 H   0  0  0  0  0  0  0  0  0  0  0  0
    2.2788   -2.0018    2.3640 C   0  0  0  0  0  0  0  0  0  0  0  0
    2.9228   -1.7258    3.1960 H   0  0  0  0  0  0  0  0  0  0  0  0
    1.2358   -1.8618    2.6430 H   0  0  0  0  0  0  0  0  0  0  0  0
    2.6018   -1.1318    1.1730 C   0  0  0  0  0  0  0  0  0  0  0  0
    3.0048   -1.6348    0.1320 O   0  0  0  0  0  0  0  0  0  0  0  0
    2.4088    0.1752    1.3190 N   0  0  0  0  0  0  0  0  0  0  0  0
    2.0708    0.5242    2.2050 H   0  0  0  0  0  0  0  0  0  0  0  0
    2.6638    1.1782    0.2840 C   0  0  1  0  0  0  0  0  0  0  0  0
    1.9456    1.9896    0.4134 H   0  0  0  0  0  0  0  0  0  0  0  0
    4.0775    1.7588    0.4623 C   0  0  0  0  0  0  0  0  0  0  0  0
    4.3131    2.3803   -0.4025 H   0  0  0  0  0  0  0  0  0  0  0  0
    4.7833    0.9287    0.4453 H   0  0  0  0  0  0  0  0  0  0  0  0
    4.4210    2.7129    1.9705 S   0  0  0  0  0  0  0  0  0  0  0  0
    2.4569    0.5876   -1.1234 C   0  0  0  0  0  0  0  0  0  0  0  0
    1.8358    1.2164   -1.9801 O   0  0  0  0  0  0  0  0  0  0  0  0
    2.9844   -0.6204   -1.3631 N   0  0  0  0  0  0  0  0  0  0  0  0
    3.4832   -1.0782   -0.6173 H   0  0  0  0  0  0  0  0  0  0  0  0
    2.8727   -1.3144   -2.6444 C   0  0  0  0  0  0  0  0  0  0  0  0
    1.8217   -1.5158   -2.8623 H   0  0  0  0  0  0  0  0  0  0  0  0
    3.2767   -0.6870   -3.4410 H   0  0  0  0  0  0  0  0  0  0  0  0
    3.4216   -2.2565   -2.6144 H   0  0  0  0  0  0  0  0  0  0  0  0
    4.5468    9.5313   -2.4246 H   0  0  0  0  0  0  0  0  0  0  0  0
    5.1691    8.6732   -2.1751 C   0  0  0  0  0  0  0  0  0  0  0  0
    6.2042    8.9912   -2.0601 H   0  0  0  0  0  0  0  0  0  0  0  0
    5.0972    7.9278   -2.9648 H   0  0  0  0  0  0  0  0  0  0  0  0
    4.6818    8.0751   -0.8762 C   0  0  0  0  0  0  0  0  0  0  0  0
    3.7200    8.5592   -0.2953 O   0  0  0  0  0  0  0  0  0  0  0  0
    5.3447    7.0132   -0.4262 N   0  0  0  0  0  0  0  0  0  0  0  0
    6.1363    6.6736   -0.9530 H   0  0  0  0  0  0  0  0  0  0  0  0
    5.0209    6.2936    0.8057 C   0  0  1  0  0  0  0  0  0  0  0  0
    4.6977    7.0110    1.5622 H   0  0  0  0  0  0  0  0  0  0  0  0
    3.8509    5.3451    0.5090 C   0  0  0  0  0  0  0  0  0  0  0  0
    3.0216    5.9514    0.1418 H   0  0  0  0  0  0  0  0  0  0  0  0
    4.1390    4.6718   -0.2986 H   0  0  0  0  0  0  0  0  0  0  0  0
    3.2095    4.3539    1.8848 S   0  0  0  0  0  0  0  0  0  0  0  0
    6.2617    5.5577    1.3416 C   0  0  0  0  0  0  0  0  0  0  0  0
    7.1171    5.1439    0.5577 O   0  0  0  0  0  0  0  0  0  0  0  0
    6.3624    5.4037    2.6681 N   0  0  0  0  0  0  0  0  0  0  0  0
    5.6039    5.7411    3.2392 H   0  0  0  0  0  0  0  0  0  0  0  0
    7.4709    4.7221    3.3354 C   0  0  0  0  0  0  0  0  0  0  0  0
    7.3805    3.6442    3.1908 H   0  0  0  0  0  0  0  0  0  0  0  0
    8.4221    5.0520    2.9110 H   0  0  0  0  0  0  0  0  0  0  0  0
    7.4614    4.9433    4.4028 H   0  0  0  0  0  0  0  0  0  0  0  0
  5  6  2  0  0  0  0
  5  7  1  0  0  0  0
  2  3  1  0  0  0  0
  2  4  1  0  0  0  0
  2  5  1  0  0  0  0
  1  2  1  0  0  0  0
 15 16  2  0  0  0  0
 15 17  1  0  0  0  0
 14 36  1  0  0  0  0
 11 12  1  0  0  0  0
 11 13  1  0  0  0  0
 11 14  1  0  0  0  0
  9 10  1  0  0  0  0
  9 11  1  0  0  0  0
  9 15  1  0  0  0  0
  7  8  1  0  0  0  0
  7  9  1  0  0  0  0
 19 20  1  0  0  0  0
 19 21  1  0  0  0  0
 19 22  1  0  0  0  0
 17 18  1  0  0  0  0
 17 19  1  0  0  0  0
 27 28  2  0  0  0  0
 27 29  1  0  0  0  0
 24 25  1  0  0  0  0
 24 26  1  0  0  0  0
 24 27  1  0  0  0  0
 23 24  1  0  0  0  0
 37 38  2  0  0  0  0
 37 39  1  0  0  0  0
 33 34  1  0  0  0  0
 33 35  1  0  0  0  0
 33 36  1  0  0  0  0
 31 32  1  0  0  0  0
 31 33  1  0  0  0  0
 31 37  1  0  0  0  0
 29 30  1  0  0  0  0
 29 31  1  0  0  0  0
 41 42  1  0  0  0  0
 41 43  1  0  0  0  0
 41 44  1  0  0  0  0
 39 40  1  0  0  0  0
 39 41  1  0  0  0  0
M  END
$$$$
default_name
  -OEChem-01062215323D

 44 43  0     1  0  0  0  0  0999 V2000
    2.4488   -3.0448    2.0990 H   0  0  0  0  0  0  0  0  0  0  0  0
    2.2788   -2.0018    2.3640 C   0  0  0  0  0  0  0  0  0  0  0  0
    2.9228   -1.7258    3.1960 H   0  0  0  0  0  0  0  0  0  0  0  0
    1.2358   -1.8618    2.6430 H   0  0  0  0  0  0  0  0  0  0  0  0
    2.6018   -1.1318    1.1730 C   0  0  0  0  0  0  0  0  0  0  0  0
    3.0048   -1.6348    0.1320 O   0  0  0  0  0  0  0  0  0  0  0  0
    2.4088    0.1752    1.3190 N   0  0  0  0  0  0  0  0  0  0  0  0
    2.0708    0.5242    2.2050 H   0  0  0  0  0  0  0  0  0  0  0  0
    2.6638    1.1782    0.2840 C   0  0  1  0  0  0  0  0  0  0  0  0
    1.9456    1.9896    0.4134 H   0  0  0  0  0  0  0  0  0  0  0  0
    4.0775    1.7588    0.4623 C   0  0  0  0  0  0  0  0  0  0  0  0
    4.3131    2.3803   -0.4025 H   0  0  0  0  0  0  0  0  0  0  0  0
    4.7833    0.9287    0.4453 H   0  0  0  0  0  0  0  0  0  0  0  0
    4.4210    2.7129    1.9705 S   0  0  0  0  0  0  0  0  0  0  0  0
    2.4569    0.5876   -1.1234 C   0  0  0  0  0  0  0  0  0  0  0  0
    2.0878    1.3039   -2.0539 O   0  0  0  0  0  0  0  0  0  0  0  0
    2.7017   -0.7203   -1.2797 N   0  0  0  0  0  0  0  0  0  0  0  0
    3.0039   -1.2471   -0.4760 H   0  0  0  0  0  0  0  0  0  0  0  0
    2.5502   -1.4278   -2.5494 C   0  0  0  0  0  0  0  0  0  0  0  0
    1.5071   -1.3868   -2.8702 H   0  0  0  0  0  0  0  0  0  0  0  0
    3.1659   -0.9506   -3.3140 H   0  0  0  0  0  0  0  0  0  0  0  0
    2.8535   -2.4699   -2.4413 H   0  0  0  0  0  0  0  0  0  0  0  0
    4.5468    9.5313   -2.4246 H   0  0  0  0  0  0  0  0  0  0  0  0
    5.1691    8.6732   -2.1751 C   0  0  0  0  0  0  0  0  0  0  0  0
    6.2042    8.9912   -2.0601 H   0  0  0  0  0  0  0  0  0  0  0  0
    5.0972    7.9278   -2.9648 H   0  0  0  0  0  0  0  0  0  0  0  0
    4.6818    8.0751   -0.8762 C   0  0  0  0  0  0  0  0  0  0  0  0
    3.7200    8.5592   -0.2953 O   0  0  0  0  0  0  0  0  0  0  0  0
    5.3447    7.0132   -0.4262 N   0  0  0  0  0  0  0  0  0  0  0  0
    6.1363    6.6736   -0.9530 H   0  0  0  0  0  0  0  0  0  0  0  0
    5.0209    6.2936    0.8057 C   0  0  1  0  0  0  0  0  0  0  0  0
    4.6977    7.0110    1.5622 H   0  0  0  0  0  0  0  0  0  0  0  0
    3.8509    5.3451    0.5090 C   0  0  0  0  0  0  0  0  0  0  0  0
    3.0216    5.9514    0.1418 H   0  0  0  0  0  0  0  0  0  0  0  0
    4.1390    4.6718   -0.2986 H   0  0  0  0  0  0  0  0  0  0  0  0
    3.2095    4.3539    1.8848 S   0  0  0  0  0  0  0  0  0  0  0  0
    6.2617    5.5577    1.3416 C   0  0  0  0  0  0  0  0  0  0  0  0
    7.1171    5.1439    0.5577 O   0  0  0  0  0  0  0  0  0  0  0  0
    6.3624    5.4037    2.6681 N   0  0  0  0  0  0  0  0  0  0  0  0
    5.6039    5.7411    3.2392 H   0  0  0  0  0  0  0  0  0  0  0  0
    7.4709    4.7221    3.3354 C   0  0  0  0  0  0  0  0  0  0  0  0
    7.3805    3.6442    3.1908 H   0  0  0  0  0  0  0  0  0  0  0  0
    8.4221    5.0520    2.9110 H   0  0  0  0  0  0  0  0  0  0  0  0
    7.4614    4.9433    4.4028 H   0  0  0  0  0  0  0  0  0  0  0  0
  5  6  2  0  0  0  0
  5  7  1  0  0  0  0
  2  3  1  0  0  0  0
  2  4  1  0  0  0  0
  2  5  1  0  0  0  0
  1  2  1  0  0  0  0
 15 16  2  0  0  0  0
 15 17  1  0  0  0  0
 14 36  1  0  0  0  0
 11 12  1  0  0  0  0
 11 13  1  0  0  0  0
 11 14  1  0  0  0  0
  9 10  1  0  0  0  0
  9 11  1  0  0  0  0
  9 15  1  0  0  0  0
  7  8  1  0  0  0  0
  7  9  1  0  0  0  0
 19 20  1  0  0  0  0
 19 21  1  0  0  0  0
 19 22  1  0  0  0  0
 17 18  1  0  0  0  0
 17 19  1  0  0  0  0
 27 28  2  0  0  0  0
 27 29  1  0  0  0  0
 24 25  1  0  0  0  0
 24 26  1  0  0  0  0
 24 27  1  0  0  0  0
 23 24  1  0  0  0  0
 37 38  2  0  0  0  0
 37 39  1  0  0  0  0
 33 34  1  0  0  0  0
 33 35  1  0  0  0  0
 33 36  1  0  0  0  0
 31 32  1  0  0  0  0
 31 33  1  0  0  0  0
 31 37  1  0  0  0  0
 29 30  1  0  0  0  0
 29 31  1  0  0  0  0
 41 42  1  0  0  0  0
 41 43  1  0  0  0  0
 41 44  1  0  0  0  0
 39 40  1  0  0  0  0
 39 41  1  0  0  0  0
M  END
$$$$
default_name
  -OEChem-01062215323D

 44 43  0     1  0  0  0  0  0999 V2000
    2.4488   -3.0448    2.0990 H   0  0  0  0  0  0  0  0  0  0  0  0
    2.2788   -2.0018    2.3640 C   0  0  0  0  0  0  0  0  0  0  0  0
    2.9228   -1.7258    3.1960 H   0  0  0  0  0  0  0  0  0  0  0  0
    1.2358   -1.8618    2.6430 H   0  0  0  0  0  0  0  0  0  0  0  0
    2.6018   -1.1318    1.1730 C   0  0  0  0  0  0  0  0  0  0  0  0
    3.0048   -1.6348    0.1320 O   0  0  0  0  0  0  0  0  0  0  0  0
    2.4088    0.1752    1.3190 N   0  0  0  0  0  0  0  0  0  0  0  0
    2.0708    0.5242    2.2050 H   0  0  0  0  0  0  0  0  0  0  0  0
    2.6638    1.1782    0.2840 C   0  0  1  0  0  0  0  0  0  0  0  0
    1.9456    1.9896    0.4134 H   0  0  0  0  0  0  0  0  0  0  0  0
    4.0775    1.7588    0.4623 C   0  0  0  0  0  0  0  0  0  0  0  0
    4.3131    2.3803   -0.4025 H   0  0  0  0  0  0  0  0  0  0  0  0
    4.7833    0.9287    0.4453 H   0  0  0  0  0  0  0  0  0  0  0  0
    4.4210    2.7129    1.9705 S   0  0  0  0  0  0  0  0  0  0  0  0
    2.4569    0.5876   -1.1234 C   0  0  0  0  0  0  0  0  0  0  0  0
    2.3593    1.3263   -2.1032 O   0  0  0  0  0  0  0  0  0  0  0  0
    2.3968   -0.7470   -1.2236 N   0  0  0  0  0  0  0  0  0  0  0  0
    2.4869   -1.2919   -0.3812 H   0  0  0  0  0  0  0  0  0  0  0  0
    2.2024   -1.4577   -2.4857 C   0  0  0  0  0  0  0  0  0  0  0  0
    1.2345   -1.1881   -2.9136 H   0  0  0  0  0  0  0  0  0  0  0  0
    2.9839   -1.1747   -3.1933 H   0  0  0  0  0  0  0  0  0  0  0  0
    2.2370   -2.5357   -2.3231 H   0  0  0  0  0  0  0  0  0  0  0  0
    4.5468    9.5313   -2.4246 H   0  0  0  0  0  0  0  0  0  0  0  0
    5.1691    8.6732   -2.1751 C   0  0  0  0  0  0  0  0  0  0  0  0
    6.2042    8.9912   -2.0601 H   0  0  0  0  0  0  0  0  0  0  0  0
    5.0972    7.9278   -2.9648 H   0  0  0  0  0  0  0  0  0  0  0  0
    4.6818    8.0751   -0.8762 C   0  0  0  0  0  0  0  0  0  0  0  0
    3.7200    8.5592   -0.2953 O   0  0  0  0  0  0  0  0  0  0  0  0
    5.3447    7.0132   -0.4262 N   0  0  0  0  0  0  0  0  0  0  0  0
    6.1363    6.6736   -0.9530 H   0  0  0  0  0  0  0  0  0  0  0  0
    5.0209    6.2936    0.8057 C   0  0  1  0  0  0  0  0  0  0  0  0
    4.6977    7.0110    1.5622 H   0  0  0  0  0  0  0  0  0  0  0  0
    3.8509    5.3451    0.5090 C   0  0  0  0  0  0  0  0  0  0  0  0
    3.0216    5.9514    0.1418 H   0  0  0  0  0  0  0  0  0  0  0  0
    4.1390    4.6718   -0.2986 H   0  0  0  0  0  0  0  0  0  0  0  0
    3.2095    4.3539    1.8848 S   0  0  0  0  0  0  0  0  0  0  0  0
    6.2617    5.5577    1.3416 C   0  0  0  0  0  0  0  0  0  0  0  0
    7.1171    5.1439    0.5577 O   0  0  0  0  0  0  0  0  0  0  0  0
    6.3624    5.4037    2.6681 N   0  0  0  0  0  0  0  0  0  0  0  0
    5.6039    5.7411    3.2392 H   0  0  0  0  0  0  0  0  0  0  0  0
    7.4709    4.7221    3.3354 C   0  0  0  0  0  0  0  0  0  0  0  0
    7.3805    3.6442    3.1908 H   0  0  0  0  0  0  0  0  0  0  0  0
    8.4221    5.0520    2.9110 H   0  0  0  0  0  0  0  0  0  0  0  0
    7.4614    4.9433    4.4028 H   0  0  0  0  0  0  0  0  0  0  0  0
  5  6  2  0  0  0  0
  5  7  1  0  0  0  0
  2  3  1  0  0  0  0
  2  4  1  0  0  0  0
  2  5  1  0  0  0  0
  1  2  1  0  0  0  0
 15 16  2  0  0  0  0
 15 17  1  0  0  0  0
 14 36  1  0  0  0  0
 11 12  1  0  0  0  0
 11 13  1  0  0  0  0
 11 14  1  0  0  0  0
  9 10  1  0  0  0  0
  9 11  1  0  0  0  0
  9 15  1  0  0  0  0
  7  8  1  0  0  0  0
  7  9  1  0  0  0  0
 19 20  1  0  0  0  0
 19 21  1  0  0  0  0
 19 22  1  0  0  0  0
 17 18  1  0  0  0  0
 17 19  1  0  0  0  0
 27 28  2  0  0  0  0
 27 29  1  0  0  0  0
 24 25  1  0  0  0  0
 24 26  1  0  0  0  0
 24 27  1  0  0  0  0
 23 24  1  0  0  0  0
 37 38  2  0  0  0  0
 37 39  1  0  0  0  0
 33 34  1  0  0  0  0
 33 35  1  0  0  0  0
 33 36  1  0  0  0  0
 31 32  1  0  0  0  0
 31 33  1  0  0  0  0
 31 37  1  0  0  0  0
 29 30  1  0  0  0  0
 29 31  1  0  0  0  0
 41 42  1  0  0  0  0
 41 43  1  0  0  0  0
 41 44  1  0  0  0  0
 39 40  1  0  0  0  0
 39 41  1  0  0  0  0
M  END
$$$$
default_name
  -OEChem-01062215323D

 44 43  0     1  0  0  0  0  0999 V2000
    2.4488   -3.0448    2.0990 H   0  0  0  0  0  0  0  0  0  0  0  0
    2.2788   -2.0018    2.3640 C   0  0  0  0  0  0  0  0  0  0  0  0
    2.9228   -1.7258    3.1960 H   0  0  0  0  0  0  0  0  0  0  0  0
    1.2358   -1.8618    2.6430 H   0  0  0  0  0  0  0  0  0  0  0  0
    2.6018   -1.1318    1.1730 C   0  0  0  0  0  0  0  0  0  0  0  0
    3.0048   -1.6348    0.1320 O   0  0  0  0  0  0  0  0  0  0  0  0
    2.4088    0.1752    1.3190 N   0  0  0  0  0  0  0  0  0  0  0  0
    2.0708    0.5242    2.2050 H   0  0  0  0  0  0  0  0  0  0  0  0
    2.6638    1.1782    0.2840 C   0  0  1  0  0  0  0  0  0  0  0  0
    1.9456    1.9896    0.4134 H   0  0  0  0  0  0  0  0  0  0  0  0
    4.0775    1.7588    0.4623 C   0  0  0  0  0  0  0  0  0  0  0  0
    4.3131    2.3803   -0.4025 H   0  0  0  0  0  0  0  0  0  0  0  0
    4.7833    0.9287    0.4453 H   0  0  0  0  0  0  0  0  0  0  0  0
    4.4210    2.7129    1.9705 S   0  0  0  0  0  0  0  0  0  0  0  0
    2.4569    0.5876   -1.1234 C   0  0  0  0  0  0  0  0  0  0  0  0
    2.6317    1.2820   -2.1246 O   0  0  0  0  0  0  0  0  0  0  0  0
    2.0903   -0.6988   -1.1988 N   0  0  0  0  0  0  0  0  0  0  0  0
    1.9676   -1.2097   -0.3393 H   0  0  0  0  0  0  0  0  0  0  0  0
    1.8532   -1.4022   -2.4577 C   0  0  0  0  0  0  0  0  0  0  0  0
    1.0225   -0.9332   -2.9894 H   0  0  0  0  0  0  0  0  0  0  0  0
    2.7432   -1.3438   -3.0869 H   0  0  0  0  0  0  0  0  0  0  0  0
    1.6143   -2.4494   -2.2678 H   0  0  0  0  0  0  0  0  0  0  0  0
    4.5468    9.5313   -2.4246 H   0  0  0  0  0  0  0  0  0  0  0  0
    5.1691    8.6732   -2.1751 C   0  0  0  0  0  0  0  0  0  0  0  0
    6.2042    8.9912   -2.0601 H   0  0  0  0  0  0  0  0  0  0  0  0
    5.0972    7.9278   -2.9648 H   0  0  0  0  0  0  0  0  0  0  0  0
    4.6818    8.0751   -0.8762 C   0  0  0  0  0  0  0  0  0  0  0  0
    3.7200    8.5592   -0.2953 O   0  0  0  0  0  0  0  0  0  0  0  0
    5.3447    7.0132   -0.4262 N   0  0  0  0  0  0  0  0  0  0  0  0
    6.1363    6.6736   -0.9530 H   0  0  0  0  0  0  0  0  0  0  0  0
    5.0209    6.2936    0.8057 C   0  0  1  0  0  0  0  0  0  0  0  0
    4.6977    7.0110    1.5622 H   0  0  0  0  0  0  0  0  0  0  0  0
    3.8509    5.3451    0.5090 C   0  0  0  0  0  0  0  0  0  0  0  0
    3.0216    5.9514    0.1418 H   0  0  0  0  0  0  0  0  0  0  0  0
    4.1390    4.6718   -0.2986 H   0  0  0  0  0  0  0  0  0  0  0  0
    3.2095    4.3539    1.8848 S   0  0  0  0  0  0  0  0  0  0  0  0
    6.2617    5.5577    1.3416 C   0  0  0  0  0  0  0  0  0  0  0  0
    7.1171    5.1439    0.5577 O   0  0  0  0  0  0  0  0  0  0  0  0
    6.3624    5.4037    2.6681 N   0  0  0  0  0  0  0  0  0  0  0  0
    5.6039    5.7411    3.2392 H   0  0  0  0  0  0  0  0  0  0  0  0
    7.4709    4.7221    3.3354 C   0  0  0  0  0  0  0  0  0  0  0  0
    7.3805    3.6442    3.1908 H   0  0  0  0  0  0  0  0  0  0  0  0
    8.4221    5.0520    2.9110 H   0  0  0  0  0  0  0  0  0  0  0  0
    7.4614    4.9433    4.4028 H   0  0  0  0  0  0  0  0  0  0  0  0
  5  6  2  0  0  0  0
  5  7  1  0  0  0  0
  2  3  1  0  0  0  0
  2  4  1  0  0  0  0
  2  5  1  0  0  0  0
  1  2  1  0  0  0  0
 15 16  2  0  0  0  0
 15 17  1  0  0  0  0
 14 36  1  0  0  0  0
 11 12  1  0  0  0  0
 11 13  1  0  0  0  0
 11 14  1  0  0  0  0
  9 10  1  0  0  0  0
  9 11  1  0  0  0  0
  9 15  1  0  0  0  0
  7  8  1  0  0  0  0
  7  9  1  0  0  0  0
 19 20  1  0  0  0  0
 19 21  1  0  0  0  0
 19 22  1  0  0  0  0
 17 18  1  0  0  0  0
 17 19  1  0  0  0  0
 27 28  2  0  0  0  0
 27 29  1  0  0  0  0
 24 25  1  0  0  0  0
 24 26  1  0  0  0  0
 24 27  1  0  0  0  0
 23 24  1  0  0  0  0
 37 38  2  0  0  0  0
 37 39  1  0  0  0  0
 33 34  1  0  0  0  0
 33 35  1  0  0  0  0
 33 36  1  0  0  0  0
 31 32  1  0  0  0  0
 31 33  1  0  0  0  0
 31 37  1  0  0  0  0
 29 30  1  0  0  0  0
 29 31  1  0  0  0  0
 41 42  1  0  0  0  0
 41 43  1  0  0  0  0
 41 44  1  0  0  0  0
 39 40  1  0  0  0  0
 39 41  1  0  0  0  0
M  END
$$$$
default_name
  -OEChem-01062215323D

 44 43  0     1  0  0  0  0  0999 V2000
    2.4488   -3.0448    2.0990 H   0  0  0  0  0  0  0  0  0  0  0  0
    2.2788   -2.0018    2.3640 C   0  0  0  0  0  0  0  0  0  0  0  0
    2.9228   -1.7258    3.1960 H   0  0  0  0  0  0  0  0  0  0  0  0
    1.2358   -1.8618    2.6430 H   0  0  0  0  0  0  0  0  0  0  0  0
    2.6018   -1.1318    1.1730 C   0  0  0  0  0  0  0  0  0  0  0  0
    3.0048   -1.6348    0.1320 O   0  0  0  0  0  0  0  0  0  0  0  0
    2.4088    0.1752    1.3190 N   0  0  0  0  0  0  0  0  0  0  0  0
    2.0708    0.5242    2.2050 H   0  0  0  0  0  0  0  0  0  0  0  0
    2.6638    1.1782    0.2840 C   0  0  1  0  0  0  0  0  0  0  0  0
    1.9456    1.9896    0.4134 H   0  0  0  0  0  0  0  0  0  0  0  0
    4.0775    1.7588    0.4623 C   0  0  0  0  0  0  0  0  0  0  0  0
    4.3131    2.3803   -0.4025 H   0  0  0  0  0  0  0  0  0  0  0  0
    4.7833    0.9287    0.4453 H   0  0  0  0  0  0  0  0  0  0  0  0
    4.4210    2.7129    1.9705 S   0  0  0  0  0  0  0  0  0  0  0  0
    2.4569    0.5876   -1.1234 C   0  0  0  0  0  0  0  0  0  0  0  0
    2.8864    1.1740   -2.1168 O   0  0  0  0  0  0  0  0  0  0  0  0
    1.8033   -0.5789   -1.2069 N   0  0  0  0  0  0  0  0  0  0  0  0
    1.4812   -1.0060   -0.3533 H   0  0  0  0  0  0  0  0  0  0  0  0
    1.5261   -1.2650   -2.4672 C   0  0  0  0  0  0  0  0  0  0  0  0
    0.8856   -0.6394   -3.0925 H   0  0  0  0  0  0  0  0  0  0  0  0
    2.4601   -1.4466   -3.0021 H   0  0  0  0  0  0  0  0  0  0  0  0
    1.0277   -2.2168   -2.2791 H   0  0  0  0  0  0  0  0  0  0  0  0
    4.5468    9.5313   -2.4246 H   0  0  0  0  0  0  0  0  0  0  0  0
    5.1691    8.6732   -2.1751 C   0  0  0  0  0  0  0  0  0  0  0  0
    6.2042    8.9912   -2.0601 H   0  0  0  0  0  0  0  0  0  0  0  0
    5.0972    7.9278   -2.9648 H   0  0  0  0  0  0  0  0  0  0  0  0
    4.6818    8.0751   -0.8762 C   0  0  0  0  0  0  0  0  0  0  0  0
    3.7200    8.5592   -0.2953 O   0  0  0  0  0  0  0  0  0  0  0  0
    5.3447    7.0132   -0.4262 N   0  0  0  0  0  0  0  0  0  0  0  0
    6.1363    6.6736   -0.9530 H   0  0  0  0  0  0  0  0  0  0  0  0
    5.0209    6.2936    0.8057 C   0  0  1  0  0  0  0  0  0  0  0  0
    4.6977    7.0110    1.5622 H   0  0  0  0  0  0  0  0  0  0  0  0
    3.8509    5.3451    0.5090 C   0  0  0  0  0  0  0  0  0  0  0  0
    3.0216    5.9514    0.1418 H   0  0  0  0  0  0  0  0  0  0  0  0
    4.1390    4.6718   -0.2986 H   0  0  0  0  0  0  0  0  0  0  0  0
    3.2095    4.3539    1.8848 S   0  0  0  0  0  0  0  0  0  0  0  0
    6.2617    5.5577    1.3416 C   0  0  0  0  0  0  0  0  0  0  0  0
    7.1171    5.1439    0.5577 O   0  0  0  0  0  0  0  0  0  0  0  0
    6.3624    5.4037    2.6681 N   0  0  0  0  0  0  0  0  0  0  0  0
    5.6039    5.7411    3.2392 H   0  0  0  0  0  0  0  0  0  0  0  0
    7.4709    4.7221    3.3354 C   0  0  0  0  0  0  0  0  0  0  0  0
    7.3805    3.6442    3.1908 H   0  0  0  0  0  0  0  0  0  0  0  0
    8.4221    5.0520    2.9110 H   0  0  0  0  0  0  0  0  0  0  0  0
    7.4614    4.9433    4.4028 H   0  0  0  0  0  0  0  0  0  0  0  0
  5  6  2  0  0  0  0
  5  7  1  0  0  0  0
  2  3  1  0  0  0  0
  2  4  1  0  0  0  0
  2  5  1  0  0  0  0
  1  2  1  0  0  0  0
 15 16  2  0  0  0  0
 15 17  1  0  0  0  0
 14 36  1  0  0  0  0
 11 12  1  0  0  0  0
 11 13  1  0  0  0  0
 11 14  1  0  0  0  0
  9 10  1  0  0  0  0
  9 11  1  0  0  0  0
  9 15  1  0  0  0  0
  7  8  1  0  0  0  0
  7  9  1  0  0  0  0
 19 20  1  0  0  0  0
 19 21  1  0  0  0  0
 19 22  1  0  0  0  0
 17 18  1  0  0  0  0
 17 19  1  0  0  0  0
 27 28  2  0  0  0  0
 27 29  1  0  0  0  0
 24 25  1  0  0  0  0
 24 26  1  0  0  0  0
 24 27  1  0  0  0  0
 23 24  1  0  0  0  0
 37 38  2  0  0  0  0
 37 39  1  0  0  0  0
 33 34  1  0  0  0  0
 33 35  1  0  0  0  0
 33 36  1  0  0  0  0
 31 32  1  0  0  0  0
 31 33  1  0  0  0  0
 31 37  1  0  0  0  0
 29 30  1  0  0  0  0
 29 31  1  0  0  0  0
 41 42  1  0  0  0  0
 41 43  1  0  0  0  0
 41 44  1  0  0  0  0
 39 40  1  0  0  0  0
 39 41  1  0  0  0  0
M  END
$$$$
default_name
  -OEChem-01062215323D

 44 43  0     1  0  0  0  0  0999 V2000
    2.4488   -3.0448    2.0990 H   0  0  0  0  0  0  0  0  0  0  0  0
    2.2788   -2.0018    2.3640 C   0  0  0  0  0  0  0  0  0  0  0  0
    2.9228   -1.7258    3.1960 H   0  0  0  0  0  0  0  0  0  0  0  0
    1.2358   -1.8618    2.6430 H   0  0  0  0  0  0  0  0  0  0  0  0
    2.6018   -1.1318    1.1730 C   0  0  0  0  0  0  0  0  0  0  0  0
    3.0048   -1.6348    0.1320 O   0  0  0  0  0  0  0  0  0  0  0  0
    2.4088    0.1752    1.3190 N   0  0  0  0  0  0  0  0  0  0  0  0
    2.0708    0.5242    2.2050 H   0  0  0  0  0  0  0  0  0  0  0  0
    2.6638    1.1782    0.2840 C   0  0  1  0  0  0  0  0  0  0  0  0
    1.9456    1.9896    0.4134 H   0  0  0  0  0  0  0  0  0  0  0  0
    4.0775    1.7588    0.4623 C   0  0  0  0  0  0  0  0  0  0  0  0
    4.3131    2.3803   -0.4025 H   0  0  0  0  0  0  0  0  0  0  0  0
    4.7833    0.9287    0.4453 H   0  0  0  0  0  0  0  0  0  0  0  0
    4.4210    2.7129    1.9705 S   0  0  0  0  0  0  0  0  0  0  0  0
    2.4569    0.5876   -1.1234 C   0  0  0  0  0  0  0  0  0  0  0  0
    3.1062    1.0097   -2.0801 O   0  0  0  0  0  0  0  0  0  0  0  0
    1.5552   -0.3955   -1.2474 N   0  0  0  0  0  0  0  0  0  0  0  0
    1.0610   -0.6946   -0.4222 H   0  0  0  0  0  0  0  0  0  0  0  0
    1.2437   -1.0554   -2.5136 C   0  0  0  0  0  0  0  0  0  0  0  0
    0.8330   -0.3269   -3.2159 H   0  0  0  0  0  0  0  0  0  0  0  0
    2.1539   -1.4760   -2.9448 H   0  0  0  0  0  0  0  0  0  0  0  0
    0.5173   -1.8538   -2.3564 H   0  0  0  0  0  0  0  0  0  0  0  0
    4.5468    9.5313   -2.4246 H   0  0  0  0  0  0  0  0  0  0  0  0
    5.1691    8.6732   -2.1751 C   0  0  0  0  0  0  0  0  0  0  0  0
    6.2042    8.9912   -2.0601 H   0  0  0  0  0  0  0  0  0  0  0  0
    5.0972    7.9278   -2.9648 H   0  0  0  0  0  0  0  0  0  0  0  0
    4.6818    8.0751   -0.8762 C   0  0  0  0  0  0  0  0  0  0  0  0
    3.7200    8.5592   -0.2953 O   0  0  0  0  0  0  0  0  0  0  0  0
    5.3447    7.0132   -0.4262 N   0  0  0  0  0  0  0  0  0  0  0  0
    6.1363    6.6736   -0.9530 H   0  0  0  0  0  0  0  0  0  0  0  0
    5.0209    6.2936    0.8057 C   0  0  1  0  0  0  0  0  0  0  0  0
    4.6977    7.0110    1.5622 H   0  0  0  0  0  0  0  0  0  0  0  0
    3.8509    5.3451    0.5090 C   0  0  0  0  0  0  0  0  0  0  0  0
    3.0216    5.9514    0.1418 H   0  0  0  0  0  0  0  0  0  0  0  0
    4.1390    4.6718   -0.2986 H   0  0  0  0  0  0  0  0  0  0  0  0
    3.2095    4.3539    1.8848 S   0  0  0  0  0  0  0  0  0  0  0  0
    6.2617    5.5577    1.3416 C   0  0  0  0  0  0  0  0  0  0  0  0
    7.1171    5.1439    0.5577 O   0  0  0  0  0  0  0  0  0  0  0  0
    6.3624    5.4037    2.6681 N   0  0  0  0  0  0  0  0  0  0  0  0
    5.6039    5.7411    3.2392 H   0  0  0  0  0  0  0  0  0  0  0  0
    7.4709    4.7221    3.3354 C   0  0  0  0  0  0  0  0  0  0  0  0
    7.3805    3.6442    3.1908 H   0  0  0  0  0  0  0  0  0  0  0  0
    8.4221    5.0520    2.9110 H   0  0  0  0  0  0  0  0  0  0  0  0
    7.4614    4.9433    4.4028 H   0  0  0  0  0  0  0  0  0  0  0  0
  5  6  2  0  0  0  0
  5  7  1  0  0  0  0
  2  3  1  0  0  0  0
  2  4  1  0  0  0  0
  2  5  1  0  0  0  0
  1  2  1  0  0  0  0
 15 16  2  0  0  0  0
 15 17  1  0  0  0  0
 14 36  1  0  0  0  0
 11 12  1  0  0  0  0
 11 13  1  0  0  0  0
 11 14  1  0  0  0  0
  9 10  1  0  0  0  0
  9 11  1  0  0  0  0
  9 15  1  0  0  0  0
  7  8  1  0  0  0  0
  7  9  1  0  0  0  0
 19 20  1  0  0  0  0
 19 21  1  0  0  0  0
 19 22  1  0  0  0  0
 17 18  1  0  0  0  0
 17 19  1  0  0  0  0
 27 28  2  0  0  0  0
 27 29  1  0  0  0  0
 24 25  1  0  0  0  0
 24 26  1  0  0  0  0
 24 27  1  0  0  0  0
 23 24  1  0  0  0  0
 37 38  2  0  0  0  0
 37 39  1  0  0  0  0
 33 34  1  0  0  0  0
 33 35  1  0  0  0  0
 33 36  1  0  0  0  0
 31 32  1  0  0  0  0
 31 33  1  0  0  0  0
 31 37  1  0  0  0  0
 29 30  1  0  0  0  0
 29 31  1  0  0  0  0
 41 42  1  0  0  0  0
 41 43  1  0  0  0  0
 41 44  1  0  0  0  0
 39 40  1  0  0  0  0
 39 41  1  0  0  0  0
M  END
$$$$
default_name
  -OEChem-01062215323D

 44 43  0     1  0  0  0  0  0999 V2000
    2.4488   -3.0448    2.0990 H   0  0  0  0  0  0  0  0  0  0  0  0
    2.2788   -2.0018    2.3640 C   0  0  0  0  0  0  0  0  0  0  0  0
    2.9228   -1.7258    3.1960 H   0  0  0  0  0  0  0  0  0  0  0  0
    1.2358   -1.8618    2.6430 H   0  0  0  0  0  0  0  0  0  0  0  0
    2.6018   -1.1318    1.1730 C   0  0  0  0  0  0  0  0  0  0  0  0
    3.0048   -1.6348    0.1320 O   0  0  0  0  0  0  0  0  0  0  0  0
    2.4088    0.1752    1.3190 N   0  0  0  0  0  0  0  0  0  0  0  0
    2.0708    0.5242    2.2050 H   0  0  0  0  0  0  0  0  0  0  0  0
    2.6638    1.1782    0.2840 C   0  0  1  0  0  0  0  0  0  0  0  0
    1.9456    1.9896    0.4134 H   0  0  0  0  0  0  0  0  0  0  0  0
    4.0775    1.7588    0.4623 C   0  0  0  0  0  0  0  0  0  0  0  0
    4.3131    2.3803   -0.4025 H   0  0  0  0  0  0  0  0  0  0  0  0
    4.7833    0.9287    0.4453 H   0  0  0  0  0  0  0  0  0  0  0  0
    4.4210    2.7129    1.9705 S   0  0  0  0  0  0  0  0  0  0  0  0
    2.4569    0.5876   -1.1234 C   0  0  0  0  0  0  0  0  0  0  0  0
    3.2760    0.8003   -2.0172 O   0  0  0  0  0  0  0  0  0  0  0  0
    1.3629   -0.1610   -1.3175 N   0  0  0  0  0  0  0  0  0  0  0  0
    0.7356   -0.2970   -0.5412 H   0  0  0  0  0  0  0  0  0  0  0  0
    1.0250   -0.7878   -2.5937 C   0  0  0  0  0  0  0  0  0  0  0  0
    0.8684   -0.0169   -3.3512 H   0  0  0  0  0  0  0  0  0  0  0  0
    1.8456   -1.4300   -2.9188 H   0  0  0  0  0  0  0  0  0  0  0  0
    0.1177   -1.3851   -2.4944 H   0  0  0  0  0  0  0  0  0  0  0  0
    4.5468    9.5313   -2.4246 H   0  0  0  0  0  0  0  0  0  0  0  0
    5.1691    8.6732   -2.1751 C   0  0  0  0  0  0  0  0  0  0  0  0
    6.2042    8.9912   -2.0601 H   0  0  0  0  0  0  0  0  0  0  0  0
    5.0972    7.9278   -2.9648 H   0  0  0  0  0  0  0  0  0  0  0  0
    4.6818    8.0751   -0.8762 C   0  0  0  0  0  0  0  0  0  0  0  0
    3.7200    8.5592   -0.2953 O   0  0  0  0  0  0  0  0  0  0  0  0
    5.3447    7.0132   -0.4262 N   0  0  0  0  0  0  0  0  0  0  0  0
    6.1363    6.6736   -0.9530 H   0  0  0  0  0  0  0  0  0  0  0  0
    5.0209    6.2936    0.8057 C   0  0  1  0  0  0  0  0  0  0  0  0
    4.6977    7.0110    1.5622 H   0  0  0  0  0  0  0  0  0  0  0  0
    3.8509    5.3451    0.5090 C   0  0  0  0  0  0  0  0  0  0  0  0
    3.0216    5.9514    0.1418 H   0  0  0  0  0  0  0  0  0  0  0  0
    4.1390    4.6718   -0.2986 H   0  0  0  0  0  0  0  0  0  0  0  0
    3.2095    4.3539    1.8848 S   0  0  0  0  0  0  0  0  0  0  0  0
    6.2617    5.5577    1.3416 C   0  0  0  0  0  0  0  0  0  0  0  0
    7.1171    5.1439    0.5577 O   0  0  0  0  0  0  0  0  0  0  0  0
    6.3624    5.4037    2.6681 N   0  0  0  0  0  0  0  0  0  0  0  0
    5.6039    5.7411    3.2392 H   0  0  0  0  0  0  0  0  0  0  0  0
    7.4709    4.7221    3.3354 C   0  0  0  0  0  0  0  0  0  0  0  0
    7.3805    3.6442    3.1908 H   0  0  0  0  0  0  0  0  0  0  0  0
    8.4221    5.0520    2.9110 H   0  0  0  0  0  0  0  0  0  0  0  0
    7.4614    4.9433    4.4028 H   0  0  0  0  0  0  0  0  0  0  0  0
  5  6  2  0  0  0  0
  5  7  1  0  0  0  0
  2  3  1  0  0  0  0
  2  4  1  0  0  0  0
  2  5  1  0  0  0  0
  1  2  1  0  0  0  0
 15 16  2  0  0  0  0
 15 17  1  0  0  0  0
 14 36  1  0  0  0  0
 11 12  1  0  0  0  0
 11 13  1  0  0  0  0
 11 14  1  0  0  0  0
  9 10  1  0  0  0  0
  9 11  1  0  0  0  0
  9 15  1  0  0  0  0
  7  8  1  0  0  0  0
  7  9  1  0  0  0  0
 19 20  1  0  0  0  0
 19 21  1  0  0  0  0
 19 22  1  0  0  0  0
 17 18  1  0  0  0  0
 17 19  1  0  0  0  0
 27 28  2  0  0  0  0
 27 29  1  0  0  0  0
 24 25  1  0  0  0  0
 24 26  1  0  0  0  0
 24 27  1  0  0  0  0
 23 24  1  0  0  0  0
 37 38  2  0  0  0  0
 37 39  1  0  0  0  0
 33 34  1  0  0  0  0
 33 35  1  0  0  0  0
 33 36  1  0  0  0  0
 31 32  1  0  0  0  0
 31 33  1  0  0  0  0
 31 37  1  0  0  0  0
 29 30  1  0  0  0  0
 29 31  1  0  0  0  0
 41 42  1  0  0  0  0
 41 43  1  0  0  0  0
 41 44  1  0  0  0  0
 39 40  1  0  0  0  0
 39 41  1  0  0  0  0
M  END
$$$$
default_name
  -OEChem-01062215323D

 44 43  0     1  0  0  0  0  0999 V2000
    2.4488   -3.0448    2.0990 H   0  0  0  0  0  0  0  0  0  0  0  0
    2.2788   -2.0018    2.3640 C   0  0  0  0  0  0  0  0  0  0  0  0
    2.9228   -1.7258    3.1960 H   0  0  0  0  0  0  0  0  0  0  0  0
    1.2358   -1.8618    2.6430 H   0  0  0  0  0  0  0  0  0  0  0  0
    2.6018   -1.1318    1.1730 C   0  0  0  0  0  0  0  0  0  0  0  0
    3.0048   -1.6348    0.1320 O   0  0  0  0  0  0  0  0  0  0  0  0
    2.4088    0.1752    1.3190 N   0  0  0  0  0  0  0  0  0  0  0  0
    2.0708    0.5242    2.2050 H   0  0  0  0  0  0  0  0  0  0  0  0
    2.6638    1.1782    0.2840 C   0  0  1  0  0  0  0  0  0  0  0  0
    1.9456    1.9896    0.4134 H   0  0  0  0  0  0  0  0  0  0  0  0
    4.0775    1.7588    0.4623 C   0  0  0  0  0  0  0  0  0  0  0  0
    4.3131    2.3803   -0.4025 H   0  0  0  0  0  0  0  0  0  0  0  0
    4.7833    0.9287    0.4453 H   0  0  0  0  0  0  0  0  0  0  0  0
    4.4210    2.7129    1.9705 S   0  0  0  0  0  0  0  0  0  0  0  0
    2.4569    0.5876   -1.1234 C   0  0  0  0  0  0  0  0  0  0  0  0
    3.3842    0.5601   -1.9323 O   0  0  0  0  0  0  0  0  0  0  0  0
    1.2396    0.1085   -1.4125 N   0  0  0  0  0  0  0  0  0  0  0  0
    0.5271    0.1600   -0.7023 H   0  0  0  0  0  0  0  0  0  0  0  0
    0.8850   -0.4804   -2.7022 C   0  0  0  0  0  0  0  0  0  0  0  0
    0.9893    0.2695   -3.4892 H   0  0  0  0  0  0  0  0  0  0  0  0
    1.5560   -1.3117   -2.9258 H   0  0  0  0  0  0  0  0  0  0  0  0
   -0.1437   -0.8427   -2.6835 H   0  0  0  0  0  0  0  0  0  0  0  0
    4.5468    9.5313   -2.4246 H   0  0  0  0  0  0  0  0  0  0  0  0
    5.1691    8.6732   -2.1751 C   0  0  0  0  0  0  0  0  0  0  0  0
    6.2042    8.9912   -2.0601 H   0  0  0  0  0  0  0  0  0  0  0  0
    5.0972    7.9278   -2.9648 H   0  0  0  0  0  0  0  0  0  0  0  0
    4.6818    8.0751   -0.8762 C   0  0  0  0  0  0  0  0  0  0  0  0
    3.7200    8.5592   -0.2953 O   0  0  0  0  0  0  0  0  0  0  0  0
    5.3447    7.0132   -0.4262 N   0  0  0  0  0  0  0  0  0  0  0  0
    6.1363    6.6736   -0.9530 H   0  0  0  0  0  0  0  0  0  0  0  0
    5.0209    6.2936    0.8057 C   0  0  1  0  0  0  0  0  0  0  0  0
    4.6977    7.0110    1.5622 H   0  0  0  0  0  0  0  0  0  0  0  0
    3.8509    5.3451    0.5090 C   0  0  0  0  0  0  0  0  0  0  0  0
    3.0216    5.9514    0.1418 H   0  0  0  0  0  0  0  0  0  0  0  0
    4.1390    4.6718   -0.2986 H   0  0  0  0  0  0  0  0  0  0  0  0
    3.2095    4.3539    1.8848 S   0  0  0  0  0  0  0  0  0  0  0  0
    6.2617    5.5577    1.3416 C   0  0  0  0  0  0  0  0  0  0  0  0
    7.1171    5.1439    0.5577 O   0  0  0  0  0  0  0  0  0  0  0  0
    6.3624    5.4037    2.6681 N   0  0  0  0  0  0  0  0  0  0  0  0
    5.6039    5.7411    3.2392 H   0  0  0  0  0  0  0  0  0  0  0  0
    7.4709    4.7221    3.3354 C   0  0  0  0  0  0  0  0  0  0  0  0
    7.3805    3.6442    3.1908 H   0  0  0  0  0  0  0  0  0  0  0  0
    8.4221    5.0520    2.9110 H   0  0  0  0  0  0  0  0  0  0  0  0
    7.4614    4.9433    4.4028 H   0  0  0  0  0  0  0  0  0  0  0  0
  5  6  2  0  0  0  0
  5  7  1  0  0  0  0
  2  3  1  0  0  0  0
  2  4  1  0  0  0  0
  2  5  1  0  0  0  0
  1  2  1  0  0  0  0
 15 16  2  0  0  0  0
 15 17  1  0  0  0  0
 14 36  1  0  0  0  0
 11 12  1  0  0  0  0
 11 13  1  0  0  0  0
 11 14  1  0  0  0  0
  9 10  1  0  0  0  0
  9 11  1  0  0  0  0
  9 15  1  0  0  0  0
  7  8  1  0  0  0  0
  7  9  1  0  0  0  0
 19 20  1  0  0  0  0
 19 21  1  0  0  0  0
 19 22  1  0  0  0  0
 17 18  1  0  0  0  0
 17 19  1  0  0  0  0
 27 28  2  0  0  0  0
 27 29  1  0  0  0  0
 24 25  1  0  0  0  0
 24 26  1  0  0  0  0
 24 27  1  0  0  0  0
 23 24  1  0  0  0  0
 37 38  2  0  0  0  0
 37 39  1  0  0  0  0
 33 34  1  0  0  0  0
 33 35  1  0  0  0  0
 33 36  1  0  0  0  0
 31 32  1  0  0  0  0
 31 33  1  0  0  0  0
 31 37  1  0  0  0  0
 29 30  1  0  0  0  0
 29 31  1  0  0  0  0
 41 42  1  0  0  0  0
 41 43  1  0  0  0  0
 41 44  1  0  0  0  0
 39 40  1  0  0  0  0
 39 41  1  0  0  0  0
M  END
$$$$
default_name
  -OEChem-01062215323D

 44 43  0     1  0  0  0  0  0999 V2000
    2.4488   -3.0448    2.0990 H   0  0  0  0  0  0  0  0  0  0  0  0
    2.2788   -2.0018    2.3640 C   0  0  0  0  0  0  0  0  0  0  0  0
    2.9228   -1.7258    3.1960 H   0  0  0  0  0  0  0  0  0  0  0  0
    1.2358   -1.8618    2.6430 H   0  0  0  0  0  0  0  0  0  0  0  0
    2.6018   -1.1318    1.1730 C   0  0  0  0  0  0  0  0  0  0  0  0
    3.0048   -1.6348    0.1320 O   0  0  0  0  0  0  0  0  0  0  0  0
    2.4088    0.1752    1.3190 N   0  0  0  0  0  0  0  0  0  0  0  0
    2.0708    0.5242    2.2050 H   0  0  0  0  0  0  0  0  0  0  0  0
    2.6638    1.1782    0.2840 C   0  0  1  0  0  0  0  0  0  0  0  0
    1.9456    1.9896    0.4134 H   0  0  0  0  0  0  0  0  0  0  0  0
    4.0775    1.7588    0.4623 C   0  0  0  0  0  0  0  0  0  0  0  0
    4.3131    2.3803   -0.4025 H   0  0  0  0  0  0  0  0  0  0  0  0
    4.7833    0.9287    0.4453 H   0  0  0  0  0  0  0  0  0  0  0  0
    4.4210    2.7129    1.9705 S   0  0  0  0  0  0  0  0  0  0  0  0
    2.4569    0.5876   -1.1234 C   0  0  0  0  0  0  0  0  0  0  0  0
    3.4236    0.3055   -1.8313 O   0  0  0  0  0  0  0  0  0  0  0  0
    1.1937    0.3946   -1.5258 N   0  0  0  0  0  0  0  0  0  0  0  0
    0.4497    0.6451   -0.8945 H   0  0  0  0  0  0  0  0  0  0  0  0
    0.8332   -0.1541   -2.8315 C   0  0  0  0  0  0  0  0  0  0  0  0
    1.1875    0.5127   -3.6204 H   0  0  0  0  0  0  0  0  0  0  0  0
    1.3050   -1.1292   -2.9655 H   0  0  0  0  0  0  0  0  0  0  0  0
   -0.2491   -0.2636   -2.9111 H   0  0  0  0  0  0  0  0  0  0  0  0
    4.5468    9.5313   -2.4246 H   0  0  0  0  0  0  0  0  0  0  0  0
    5.1691    8.6732   -2.1751 C   0  0  0  0  0  0  0  0  0  0  0  0
    6.2042    8.9912   -2.0601 H   0  0  0  0  0  0  0  0  0  0  0  0
    5.0972    7.9278   -2.9648 H   0  0  0  0  0  0  0  0  0  0  0  0
    4.6818    8.0751   -0.8762 C   0  0  0  0  0  0  0  0  0  0  0  0
    3.7200    8.5592   -0.2953 O   0  0  0  0  0  0  0  0  0  0  0  0
    5.3447    7.0132   -0.4262 N   0  0  0  0  0  0  0  0  0  0  0  0
    6.1363    6.6736   -0.9530 H   0  0  0  0  0  0  0  0  0  0  0  0
    5.0209    6.2936    0.8057 C   0  0  1  0  0  0  0  0  0  0  0  0
    4.6977    7.0110    1.5622 H   0  0  0  0  0  0  0  0  0  0  0  0
    3.8509    5.3451    0.5090 C   0  0  0  0  0  0  0  0  0  0  0  0
    3.0216    5.9514    0.1418 H   0  0  0  0  0  0  0  0  0  0  0  0
    4.1390    4.6718   -0.2986 H   0  0  0  0  0  0  0  0  0  0  0  0
    3.2095    4.3539    1.8848 S   0  0  0  0  0  0  0  0  0  0  0  0
    6.2617    5.5577    1.3416 C   0  0  0  0  0  0  0  0  0  0  0  0
    7.1171    5.1439    0.5577 O   0  0  0  0  0  0  0  0  0  0  0  0
    6.3624    5.4037    2.6681 N   0  0  0  0  0  0  0  0  0  0  0  0
    5.6039    5.7411    3.2392 H   0  0  0  0  0  0  0  0  0  0  0  0
    7.4709    4.7221    3.3354 C   0  0  0  0  0  0  0  0  0  0  0  0
    7.3805    3.6442    3.1908 H   0  0  0  0  0  0  0  0  0  0  0  0
    8.4221    5.0520    2.9110 H   0  0  0  0  0  0  0  0  0  0  0  0
    7.4614    4.9433    4.4028 H   0  0  0  0  0  0  0  0  0  0  0  0
  5  6  2  0  0  0  0
  5  7  1  0  0  0  0
  2  3  1  0  0  0  0
  2  4  1  0  0  0  0
  2  5  1  0  0  0  0
  1  2  1  0  0  0  0
 15 16  2  0  0  0  0
 15 17  1  0  0  0  0
 14 36  1  0  0  0  0
 11 12  1  0  0  0  0
 11 13  1  0  0  0  0
 11 14  1  0  0  0  0
  9 10  1  0  0  0  0
  9 11  1  0  0  0  0
  9 15  1  0  0  0  0
  7  8  1  0  0  0  0
  7  9  1  0  0  0  0
 19 20  1  0  0  0  0
 19 21  1  0  0  0  0
 19 22  1  0  0  0  0
 17 18  1  0  0  0  0
 17 19  1  0  0  0  0
 27 28  2  0  0  0  0
 27 29  1  0  0  0  0
 24 25  1  0  0  0  0
 24 26  1  0  0  0  0
 24 27  1  0  0  0  0
 23 24  1  0  0  0  0
 37 38  2  0  0  0  0
 37 39  1  0  0  0  0
 33 34  1  0  0  0  0
 33 35  1  0  0  0  0
 33 36  1  0  0  0  0
 31 32  1  0  0  0  0
 31 33  1  0  0  0  0
 31 37  1  0  0  0  0
 29 30  1  0  0  0  0
 29 31  1  0  0  0  0
 41 42  1  0  0  0  0
 41 43  1  0  0  0  0
 41 44  1  0  0  0  0
 39 40  1  0  0  0  0
 39 41  1  0  0  0  0
M  END
$$$$
default_name
  -OEChem-01062215323D

 44 43  0     1  0  0  0  0  0999 V2000
    2.4488   -3.0448    2.0990 H   0  0  0  0  0  0  0  0  0  0  0  0
    2.2788   -2.0018    2.3640 C   0  0  0  0  0  0  0  0  0  0  0  0
    2.9228   -1.7258    3.1960 H   0  0  0  0  0  0  0  0  0  0  0  0
    1.2358   -1.8618    2.6430 H   0  0  0  0  0  0  0  0  0  0  0  0
    2.6018   -1.1318    1.1730 C   0  0  0  0  0  0  0  0  0  0  0  0
    3.0048   -1.6348    0.1320 O   0  0  0  0  0  0  0  0  0  0  0  0
    2.4088    0.1752    1.3190 N   0  0  0  0  0  0  0  0  0  0  0  0
    2.0708    0.5242    2.2050 H   0  0  0  0  0  0  0  0  0  0  0  0
    2.6638    1.1782    0.2840 C   0  0  1  0  0  0  0  0  0  0  0  0
    1.9456    1.9896    0.4134 H   0  0  0  0  0  0  0  0  0  0  0  0
    4.0775    1.7588    0.4623 C   0  0  0  0  0  0  0  0  0  0  0  0
    4.3131    2.3803   -0.4025 H   0  0  0  0  0  0  0  0  0  0  0  0
    4.7833    0.9287    0.4453 H   0  0  0  0  0  0  0  0  0  0  0  0
    4.4210    2.7129    1.9705 S   0  0  0  0  0  0  0  0  0  0  0  0
    2.4569    0.5876   -1.1234 C   0  0  0  0  0  0  0  0  0  0  0  0
    3.3913    0.0537   -1.7208 O   0  0  0  0  0  0  0  0  0  0  0  0
    1.2282    0.6779   -1.6498 N   0  0  0  0  0  0  0  0  0  0  0  0
    0.5088    1.1253   -1.1047 H   0  0  0  0  0  0  0  0  0  0  0  0
    0.8732    0.1688   -2.9729 C   0  0  0  0  0  0  0  0  0  0  0  0
    1.4495    0.6962   -3.7359 H   0  0  0  0  0  0  0  0  0  0  0  0
    1.1096   -0.8950   -3.0351 H   0  0  0  0  0  0  0  0  0  0  0  0
   -0.1914    0.3129   -3.1614 H   0  0  0  0  0  0  0  0  0  0  0  0
    4.5468    9.5313   -2.4246 H   0  0  0  0  0  0  0  0  0  0  0  0
    5.1691    8.6732   -2.1751 C   0  0  0  0  0  0  0  0  0  0  0  0
    6.2042    8.9912   -2.0601 H   0  0  0  0  0  0  0  0  0  0  0  0
    5.0972    7.9278   -2.9648 H   0  0  0  0  0  0  0  0  0  0  0  0
    4.6818    8.0751   -0.8762 C   0  0  0  0  0  0  0  0  0  0  0  0
    3.7200    8.5592   -0.2953 O   0  0  0  0  0  0  0  0  0  0  0  0
    5.3447    7.0132   -0.4262 N   0  0  0  0  0  0  0  0  0  0  0  0
    6.1363    6.6736   -0.9530 H   0  0  0  0  0  0  0  0  0  0  0  0
    5.0209    6.2936    0.8057 C   0  0  1  0  0  0  0  0  0  0  0  0
    4.6977    7.0110    1.5622 H   0  0  0  0  0  0  0  0  0  0  0  0
    3.8509    5.3451    0.5090 C   0  0  0  0  0  0  0  0  0  0  0  0
    3.0216    5.9514    0.1418 H   0  0  0  0  0  0  0  0  0  0  0  0
    4.1390    4.6718   -0.2986 H   0  0  0  0  0  0  0  0  0  0  0  0
    3.2095    4.3539    1.8848 S   0  0  0  0  0  0  0  0  0  0  0  0
    6.2617    5.5577    1.3416 C   0  0  0  0  0  0  0  0  0  0  0  0
    7.1171    5.1439    0.5577 O   0  0  0  0  0  0  0  0  0  0  0  0
    6.3624    5.4037    2.6681 N   0  0  0  0  0  0  0  0  0  0  0  0
    5.6039    5.7411    3.2392 H   0  0  0  0  0  0  0  0  0  0  0  0
    7.4709    4.7221    3.3354 C   0  0  0  0  0  0  0  0  0  0  0  0
    7.3805    3.6442    3.1908 H   0  0  0  0  0  0  0  0  0  0  0  0
    8.4221    5.0520    2.9110 H   0  0  0  0  0  0  0  0  0  0  0  0
    7.4614    4.9433    4.4028 H   0  0  0  0  0  0  0  0  0  0  0  0
  5  6  2  0  0  0  0
  5  7  1  0  0  0  0
  2  3  1  0  0  0  0
  2  4  1  0  0  0  0
  2  5  1  0  0  0  0
  1  2  1  0  0  0  0
 15 16  2  0  0  0  0
 15 17  1  0  0  0  0
 14 36  1  0  0  0  0
 11 12  1  0  0  0  0
 11 13  1  0  0  0  0
 11 14  1  0  0  0  0
  9 10  1  0  0  0  0
  9 11  1  0  0  0  0
  9 15  1  0  0  0  0
  7  8  1  0  0  0  0
  7  9  1  0  0  0  0
 19 20  1  0  0  0  0
 19 21  1  0  0  0  0
 19 22  1  0  0  0  0
 17 18  1  0  0  0  0
 17 19  1  0  0  0  0
 27 28  2  0  0  0  0
 27 29  1  0  0  0  0
 24 25  1  0  0  0  0
 24 26  1  0  0  0  0
 24 27  1  0  0  0  0
 23 24  1  0  0  0  0
 37 38  2  0  0  0  0
 37 39  1  0  0  0  0
 33 34  1  0  0  0  0
 33 35  1  0  0  0  0
 33 36  1  0  0  0  0
 31 32  1  0  0  0  0
 31 33  1  0  0  0  0
 31 37  1  0  0  0  0
 29 30  1  0  0  0  0
 29 31  1  0  0  0  0
 41 42  1  0  0  0  0
 41 43  1  0  0  0  0
 41 44  1  0  0  0  0
 39 40  1  0  0  0  0
 39 41  1  0  0  0  0
M  END
$$$$
default_name
  -OEChem-01062215323D

 44 43  0     1  0  0  0  0  0999 V2000
    2.4488   -3.0448    2.0990 H   0  0  0  0  0  0  0  0  0  0  0  0
    2.2788   -2.0018    2.3640 C   0  0  0  0  0  0  0  0  0  0  0  0
    2.9228   -1.7258    3.1960 H   0  0  0  0  0  0  0  0  0  0  0  0
    1.2358   -1.8618    2.6430 H   0  0  0  0  0  0  0  0  0  0  0  0
    2.6018   -1.1318    1.1730 C   0  0  0  0  0  0  0  0  0  0  0  0
    3.0048   -1.6348    0.1320 O   0  0  0  0  0  0  0  0  0  0  0  0
    2.4088    0.1752    1.3190 N   0  0  0  0  0  0  0  0  0  0  0  0
    2.0708    0.5242    2.2050 H   0  0  0  0  0  0  0  0  0  0  0  0
    2.6638    1.1782    0.2840 C   0  0  1  0  0  0  0  0  0  0  0  0
    1.9456    1.9896    0.4134 H   0  0  0  0  0  0  0  0  0  0  0  0
    4.0775    1.7588    0.4623 C   0  0  0  0  0  0  0  0  0  0  0  0
    4.3131    2.3803   -0.4025 H   0  0  0  0  0  0  0  0  0  0  0  0
    4.7833    0.9287    0.4453 H   0  0  0  0  0  0  0  0  0  0  0  0
    4.4210    2.7129    1.9705 S   0  0  0  0  0  0  0  0  0  0  0  0
    2.4569    0.5876   -1.1234 C   0  0  0  0  0  0  0  0  0  0  0  0
    3.2896   -0.1781   -1.6087 O   0  0  0  0  0  0  0  0  0  0  0  0
    1.3409    0.9391   -1.7760 N   0  0  0  0  0  0  0  0  0  0  0  0
    0.7003    1.5678   -1.3186 H   0  0  0  0  0  0  0  0  0  0  0  0
    1.0022    0.4664   -3.1167 C   0  0  0  0  0  0  0  0  0  0  0  0
    1.7575    0.8075   -3.8279 H   0  0  0  0  0  0  0  0  0  0  0  0
    0.9832   -0.6249   -3.1298 H   0  0  0  0  0  0  0  0  0  0  0  0
    0.0255    0.8473   -3.4176 H   0  0  0  0  0  0  0  0  0  0  0  0
    4.5468    9.5313   -2.4246 H   0  0  0  0  0  0  0  0  0  0  0  0
    5.1691    8.6732   -2.1751 C   0  0  0  0  0  0  0  0  0  0  0  0
    6.2042    8.9912   -2.0601 H   0  0  0  0  0  0  0  0  0  0  0  0
    5.0972    7.9278   -2.9648 H   0  0  0  0  0  0  0  0  0  0  0  0
    4.6818    8.0751   -0.8762 C   0  0  0  0  0  0  0  0  0  0  0  0
    3.7200    8.5592   -0.2953 O   0  0  0  0  0  0  0  0  0  0  0  0
    5.3447    7.0132   -0.4262 N   0  0  0  0  0  0  0  0  0  0  0  0
    6.1363    6.6736   -0.9530 H   0  0  0  0  0  0  0  0  0  0  0  0
    5.0209    6.2936    0.8057 C   0  0  1  0  0  0  0  0  0  0  0  0
    4.6977    7.0110    1.5622 H   0  0  0  0  0  0  0  0  0  0  0  0
    3.8509    5.3451    0.5090 C   0  0  0  0  0  0  0  0  0  0  0  0
    3.0216    5.9514    0.1418 H   0  0  0  0  0  0  0  0  0  0  0  0
    4.1390    4.6718   -0.2986 H   0  0  0  0  0  0  0  0  0  0  0  0
    3.2095    4.3539    1.8848 S   0  0  0  0  0  0  0  0  0  0  0  0
    6.2617    5.5577    1.3416 C   0  0  0  0  0  0  0  0  0  0  0  0
    7.1171    5.1439    0.5577 O   0  0  0  0  0  0  0  0  0  0  0  0
    6.3624    5.4037    2.6681 N   0  0  0  0  0  0  0  0  0  0  0  0
    5.6039    5.7411    3.2392 H   0  0  0  0  0  0  0  0  0  0  0  0
    7.4709    4.7221    3.3354 C   0  0  0  0  0  0  0  0  0  0  0  0
    7.3805    3.6442    3.1908 H   0  0  0  0  0  0  0  0  0  0  0  0
    8.4221    5.0520    2.9110 H   0  0  0  0  0  0  0  0  0  0  0  0
    7.4614    4.9433    4.4028 H   0  0  0  0  0  0  0  0  0  0  0  0
  5  6  2  0  0  0  0
  5  7  1  0  0  0  0
  2  3  1  0  0  0  0
  2  4  1  0  0  0  0
  2  5  1  0  0  0  0
  1  2  1  0  0  0  0
 15 16  2  0  0  0  0
 15 17  1  0  0  0  0
 14 36  1  0  0  0  0
 11 12  1  0  0  0  0
 11 13  1  0  0  0  0
 11 14  1  0  0  0  0
  9 10  1  0  0  0  0
  9 11  1  0  0  0  0
  9 15  1  0  0  0  0
  7  8  1  0  0  0  0
  7  9  1  0  0  0  0
 19 20  1  0  0  0  0
 19 21  1  0  0  0  0
 19 22  1  0  0  0  0
 17 18  1  0  0  0  0
 17 19  1  0  0  0  0
 27 28  2  0  0  0  0
 27 29  1  0  0  0  0
 24 25  1  0  0  0  0
 24 26  1  0  0  0  0
 24 27  1  0  0  0  0
 23 24  1  0  0  0  0
 37 38  2  0  0  0  0
 37 39  1  0  0  0  0
 33 34  1  0  0  0  0
 33 35  1  0  0  0  0
 33 36  1  0  0  0  0
 31 32  1  0  0  0  0
 31 33  1  0  0  0  0
 31 37  1  0  0  0  0
 29 30  1  0  0  0  0
 29 31  1  0  0  0  0
 41 42  1  0  0  0  0
 41 43  1  0  0  0  0
 41 44  1  0  0  0  0
 39 40  1  0  0  0  0
 39 41  1  0  0  0  0
M  END
$$$$
default_name
  -OEChem-01062215323D

 44 43  0     1  0  0  0  0  0999 V2000
    2.4488   -3.0448    2.0990 H   0  0  0  0  0  0  0  0  0  0  0  0
    2.2788   -2.0018    2.3640 C   0  0  0  0  0  0  0  0  0  0  0  0
    2.9228   -1.7258    3.1960 H   0  0  0  0  0  0  0  0  0  0  0  0
    1.2358   -1.8618    2.6430 H   0  0  0  0  0  0  0  0  0  0  0  0
    2.6018   -1.1318    1.1730 C   0  0  0  0  0  0  0  0  0  0  0  0
    3.0048   -1.6348    0.1320 O   0  0  0  0  0  0  0  0  0  0  0  0
    2.4088    0.1752    1.3190 N   0  0  0  0  0  0  0  0  0  0  0  0
    2.0708    0.5242    2.2050 H   0  0  0  0  0  0  0  0  0  0  0  0
    2.6638    1.1782    0.2840 C   0  0  1  0  0  0  0  0  0  0  0  0
    1.9456    1.9896    0.4134 H   0  0  0  0  0  0  0  0  0  0  0  0
    4.0775    1.7588    0.4623 C   0  0  0  0  0  0  0  0  0  0  0  0
    4.3131    2.3803   -0.4025 H   0  0  0  0  0  0  0  0  0  0  0  0
    4.7833    0.9287    0.4453 H   0  0  0  0  0  0  0  0  0  0  0  0
    4.4210    2.7129    1.9705 S   0  0  0  0  0  0  0  0  0  0  0  0
    2.4569    0.5876   -1.1234 C   0  0  0  0  0  0  0  0  0  0  0  0
    3.1255   -0.3739   -1.5023 O   0  0  0  0  0  0  0  0  0  0  0  0
    1.5240    1.1604   -1.8957 N   0  0  0  0  0  0  0  0  0  0  0  0
    1.0112    1.9425   -1.5215 H   0  0  0  0  0  0  0  0  0  0  0  0
    1.2115    0.7183   -3.2532 C   0  0  0  0  0  0  0  0  0  0  0  0
    2.0904    0.8390   -3.8900 H   0  0  0  0  0  0  0  0  0  0  0  0
    0.9343   -0.3375   -3.2433 H   0  0  0  0  0  0  0  0  0  0  0  0
    0.3868    1.3033   -3.6621 H   0  0  0  0  0  0  0  0  0  0  0  0
    4.5468    9.5313   -2.4246 H   0  0  0  0  0  0  0  0  0  0  0  0
    5.1691    8.6732   -2.1751 C   0  0  0  0  0  0  0  0  0  0  0  0
    6.2042    8.9912   -2.0601 H   0  0  0  0  0  0  0  0  0  0  0  0
    5.0972    7.9278   -2.9648 H   0  0  0  0  0  0  0  0  0  0  0  0
    4.6818    8.0751   -0.8762 C   0  0  0  0  0  0  0  0  0  0  0  0
    3.7200    8.5592   -0.2953 O   0  0  0  0  0  0  0  0  0  0  0  0
    5.3447    7.0132   -0.4262 N   0  0  0  0  0  0  0  0  0  0  0  0
    6.1363    6.6736   -0.9530 H   0  0  0  0  0  0  0  0  0  0  0  0
    5.0209    6.2936    0.8057 C   0  0  1  0  0  0  0  0  0  0  0  0
    4.6977    7.0110    1.5622 H   0  0  0  0  0  0  0  0  0  0  0  0
    3.8509    5.3451    0.5090 C   0  0  0  0  0  0  0  0  0  0  0  0
    3.0216    5.9514    0.1418 H   0  0  0  0  0  0  0  0  0  0  0  0
    4.1390    4.6718   -0.2986 H   0  0  0  0  0  0  0  0  0  0  0  0
    3.2095    4.3539    1.8848 S   0  0  0  0  0  0  0  0  0  0  0  0
    6.2617    5.5577    1.3416 C   0  0  0  0  0  0  0  0  0  0  0  0
    7.1171    5.1439    0.5577 O   0  0  0  0  0  0  0  0  0  0  0  0
    6.3624    5.4037    2.6681 N   0  0  0  0  0  0  0  0  0  0  0  0
    5.6039    5.7411    3.2392 H   0  0  0  0  0  0  0  0  0  0  0  0
    7.4709    4.7221    3.3354 C   0  0  0  0  0  0  0  0  0  0  0  0
    7.3805    3.6442    3.1908 H   0  0  0  0  0  0  0  0  0  0  0  0
    8.4221    5.0520    2.9110 H   0  0  0  0  0  0  0  0  0  0  0  0
    7.4614    4.9433    4.4028 H   0  0  0  0  0  0  0  0  0  0  0  0
  5  6  2  0  0  0  0
  5  7  1  0  0  0  0
  2  3  1  0  0  0  0
  2  4  1  0  0  0  0
  2  5  1  0  0  0  0
  1  2  1  0  0  0  0
 15 16  2  0  0  0  0
 15 17  1  0  0  0  0
 14 36  1  0  0  0  0
 11 12  1  0  0  0  0
 11 13  1  0  0  0  0
 11 14  1  0  0  0  0
  9 10  1  0  0  0  0
  9 11  1  0  0  0  0
  9 15  1  0  0  0  0
  7  8  1  0  0  0  0
  7  9  1  0  0  0  0
 19 20  1  0  0  0  0
 19 21  1  0  0  0  0
 19 22  1  0  0  0  0
 17 18  1  0  0  0  0
 17 19  1  0  0  0  0
 27 28  2  0  0  0  0
 27 29  1  0  0  0  0
 24 25  1  0  0  0  0
 24 26  1  0  0  0  0
 24 27  1  0  0  0  0
 23 24  1  0  0  0  0
 37 38  2  0  0  0  0
 37 39  1  0  0  0  0
 33 34  1  0  0  0  0
 33 35  1  0  0  0  0
 33 36  1  0  0  0  0
 31 32  1  0  0  0  0
 31 33  1  0  0  0  0
 31 37  1  0  0  0  0
 29 30  1  0  0  0  0
 29 31  1  0  0  0  0
 41 42  1  0  0  0  0
 41 43  1  0  0  0  0
 41 44  1  0  0  0  0
 39 40  1  0  0  0  0
 39 41  1  0  0  0  0
M  END
$$$$
default_name
  -OEChem-01062215323D

 44 43  0     1  0  0  0  0  0999 V2000
    2.4488   -3.0448    2.0990 H   0  0  0  0  0  0  0  0  0  0  0  0
    2.2788   -2.0018    2.3640 C   0  0  0  0  0  0  0  0  0  0  0  0
    2.9228   -1.7258    3.1960 H   0  0  0  0  0  0  0  0  0  0  0  0
    1.2358   -1.8618    2.6430 H   0  0  0  0  0  0  0  0  0  0  0  0
    2.6018   -1.1318    1.1730 C   0  0  0  0  0  0  0  0  0  0  0  0
    3.0048   -1.6348    0.1320 O   0  0  0  0  0  0  0  0  0  0  0  0
    2.4088    0.1752    1.3190 N   0  0  0  0  0  0  0  0  0  0  0  0
    2.0708    0.5242    2.2050 H   0  0  0  0  0  0  0  0  0  0  0  0
    2.6638    1.1782    0.2840 C   0  0  1  0  0  0  0  0  0  0  0  0
    1.9456    1.9896    0.4134 H   0  0  0  0  0  0  0  0  0  0  0  0
    4.0775    1.7588    0.4623 C   0  0  0  0  0  0  0  0  0  0  0  0
    4.3131    2.3803   -0.4025 H   0  0  0  0  0  0  0  0  0  0  0  0
    4.7833    0.9287    0.4453 H   0  0  0  0  0  0  0  0  0  0  0  0
    4.4210    2.7129    1.9705 S   0  0  0  0  0  0  0  0  0  0  0  0
    2.4569    0.5876   -1.1234 C   0  0  0  0  0  0  0  0  0  0  0  0
    2.9100   -0.5206   -1.4091 O   0  0  0  0  0  0  0  0  0  0  0  0
    1.7651    1.3267   -2.0009 N   0  0  0  0  0  0  0  0  0  0  0  0
    1.4202    2.2239   -1.6997 H   0  0  0  0  0  0  0  0  0  0  0  0
    1.4867    0.9073   -3.3730 C   0  0  0  0  0  0  0  0  0  0  0  0
    2.4255    0.7885   -3.9181 H   0  0  0  0  0  0  0  0  0  0  0  0
    0.9664   -0.0522   -3.3677 H   0  0  0  0  0  0  0  0  0  0  0  0
    0.8679    1.6499   -3.8783 H   0  0  0  0  0  0  0  0  0  0  0  0
    4.5468    9.5313   -2.4246 H   0  0  0  0  0  0  0  0  0  0  0  0
    5.1691    8.6732   -2.1751 C   0  0  0  0  0  0  0  0  0  0  0  0
    6.2042    8.9912   -2.0601 H   0  0  0  0  0  0  0  0  0  0  0  0
    5.0972    7.9278   -2.9648 H   0  0  0  0  0  0  0  0  0  0  0  0
    4.6818    8.0751   -0.8762 C   0  0  0  0  0  0  0  0  0  0  0  0
    3.7200    8.5592   -0.2953 O   0  0  0  0  0  0  0  0  0  0  0  0
    5.3447    7.0132   -0.4262 N   0  0  0  0  0  0  0  0  0  0  0  0
    6.1363    6.6736   -0.9530 H   0  0  0  0  0  0  0  0  0  0  0  0
    5.0209    6.2936    0.8057 C   0  0  1  0  0  0  0  0  0  0  0  0
    4.6977    7.0110    1.5622 H   0  0  0  0  0  0  0  0  0  0  0  0
    3.8509    5.3451    0.5090 C   0  0  0  0  0  0  0  0  0  0  0  0
    3.0216    5.9514    0.1418 H   0  0  0  0  0  0  0  0  0  0  0  0
    4.1390    4.6718   -0.2986 H   0  0  0  0  0  0  0  0  0  0  0  0
    3.2095    4.3539    1.8848 S   0  0  0  0  0  0  0  0  0  0  0  0
    6.2617    5.5577    1.3416 C   0  0  0  0  0  0  0  0  0  0  0  0
    7.1171    5.1439    0.5577 O   0  0  0  0  0  0  0  0  0  0  0  0
    6.3624    5.4037    2.6681 N   0  0  0  0  0  0  0  0  0  0  0  0
    5.6039    5.7411    3.2392 H   0  0  0  0  0  0  0  0  0  0  0  0
    7.4709    4.7221    3.3354 C   0  0  0  0  0  0  0  0  0  0  0  0
    7.3805    3.6442    3.1908 H   0  0  0  0  0  0  0  0  0  0  0  0
    8.4221    5.0520    2.9110 H   0  0  0  0  0  0  0  0  0  0  0  0
    7.4614    4.9433    4.4028 H   0  0  0  0  0  0  0  0  0  0  0  0
  5  6  2  0  0  0  0
  5  7  1  0  0  0  0
  2  3  1  0  0  0  0
  2  4  1  0  0  0  0
  2  5  1  0  0  0  0
  1  2  1  0  0  0  0
 15 16  2  0  0  0  0
 15 17  1  0  0  0  0
 14 36  1  0  0  0  0
 11 12  1  0  0  0  0
 11 13  1  0  0  0  0
 11 14  1  0  0  0  0
  9 10  1  0  0  0  0
  9 11  1  0  0  0  0
  9 15  1  0  0  0  0
  7  8  1  0  0  0  0
  7  9  1  0  0  0  0
 19 20  1  0  0  0  0
 19 21  1  0  0  0  0
 19 22  1  0  0  0  0
 17 18  1  0  0  0  0
 17 19  1  0  0  0  0
 27 28  2  0  0  0  0
 27 29  1  0  0  0  0
 24 25  1  0  0  0  0
 24 26  1  0  0  0  0
 24 27  1  0  0  0  0
 23 24  1  0  0  0  0
 37 38  2  0  0  0  0
 37 39  1  0  0  0  0
 33 34  1  0  0  0  0
 33 35  1  0  0  0  0
 33 36  1  0  0  0  0
 31 32  1  0  0  0  0
 31 33  1  0  0  0  0
 31 37  1  0  0  0  0
 29 30  1  0  0  0  0
 29 31  1  0  0  0  0
 41 42  1  0  0  0  0
 41 43  1  0  0  0  0
 41 44  1  0  0  0  0
 39 40  1  0  0  0  0
 39 41  1  0  0  0  0
M  END
$$$$
default_name
  -OEChem-01062215323D

 44 43  0     1  0  0  0  0  0999 V2000
    2.4488   -3.0448    2.0990 H   0  0  0  0  0  0  0  0  0  0  0  0
    2.2788   -2.0018    2.3640 C   0  0  0  0  0  0  0  0  0  0  0  0
    2.9228   -1.7258    3.1960 H   0  0  0  0  0  0  0  0  0  0  0  0
    1.2358   -1.8618    2.6430 H   0  0  0  0  0  0  0  0  0  0  0  0
    2.6018   -1.1318    1.1730 C   0  0  0  0  0  0  0  0  0  0  0  0
    3.0048   -1.6348    0.1320 O   0  0  0  0  0  0  0  0  0  0  0  0
    2.4088    0.1752    1.3190 N   0  0  0  0  0  0  0  0  0  0  0  0
    2.0708    0.5242    2.2050 H   0  0  0  0  0  0  0  0  0  0  0  0
    2.6638    1.1782    0.2840 C   0  0  1  0  0  0  0  0  0  0  0  0
    1.9456    1.9896    0.4134 H   0  0  0  0  0  0  0  0  0  0  0  0
    4.0775    1.7588    0.4623 C   0  0  0  0  0  0  0  0  0  0  0  0
    4.3131    2.3803   -0.4025 H   0  0  0  0  0  0  0  0  0  0  0  0
    4.7833    0.9287    0.4453 H   0  0  0  0  0  0  0  0  0  0  0  0
    4.4210    2.7129    1.9705 S   0  0  0  0  0  0  0  0  0  0  0  0
    2.4569    0.5876   -1.1234 C   0  0  0  0  0  0  0  0  0  0  0  0
    2.6580   -0.6081   -1.3353 O   0  0  0  0  0  0  0  0  0  0  0  0
    2.0478    1.4266   -2.0844 N   0  0  0  0  0  0  0  0  0  0  0  0
    1.8995    2.3927   -1.8411 H   0  0  0  0  0  0  0  0  0  0  0  0
    1.8092    1.0207   -3.4680 C   0  0  0  0  0  0  0  0  0  0  0  0
    2.7401    0.6595   -3.9102 H   0  0  0  0  0  0  0  0  0  0  0  0
    1.0772    0.2114   -3.4946 H   0  0  0  0  0  0  0  0  0  0  0  0
    1.4360    1.8633   -4.0514 H   0  0  0  0  0  0  0  0  0  0  0  0
    4.5468    9.5313   -2.4246 H   0  0  0  0  0  0  0  0  0  0  0  0
    5.1691    8.6732   -2.1751 C   0  0  0  0  0  0  0  0  0  0  0  0
    6.2042    8.9912   -2.0601 H   0  0  0  0  0  0  0  0  0  0  0  0
    5.0972    7.9278   -2.9648 H   0  0  0  0  0  0  0  0  0  0  0  0
    4.6818    8.0751   -0.8762 C   0  0  0  0  0  0  0  0  0  0  0  0
    3.7200    8.5592   -0.2953 O   0  0  0  0  0  0  0  0  0  0  0  0
    5.3447    7.0132   -0.4262 N   0  0  0  0  0  0  0  0  0  0  0  0
    6.1363    6.6736   -0.9530 H   0  0  0  0  0  0  0  0  0  0  0  0
    5.0209    6.2936    0.8057 C   0  0  1  0  0  0  0  0  0  0  0  0
    4.6977    7.0110    1.5622 H   0  0  0  0  0  0  0  0  0  0  0  0
    3.8509    5.3451    0.5090 C   0  0  0  0  0  0  0  0  0  0  0  0
    3.0216    5.9514    0.1418 H   0  0  0  0  0  0  0  0  0  0  0  0
    4.1390    4.6718   -0.2986 H   0  0  0  0  0  0  0  0  0  0  0  0
    3.2095    4.3539    1.8848 S   0  0  0  0  0  0  0  0  0  0  0  0
    6.2617    5.5577    1.3416 C   0  0  0  0  0  0  0  0  0  0  0  0
    7.1171    5.1439    0.5577 O   0  0  0  0  0  0  0  0  0  0  0  0
    6.3624    5.4037    2.6681 N   0  0  0  0  0  0  0  0  0  0  0  0
    5.6039    5.7411    3.2392 H   0  0  0  0  0  0  0  0  0  0  0  0
    7.4709    4.7221    3.3354 C   0  0  0  0  0  0  0  0  0  0  0  0
    7.3805    3.6442    3.1908 H   0  0  0  0  0  0  0  0  0  0  0  0
    8.4221    5.0520    2.9110 H   0  0  0  0  0  0  0  0  0  0  0  0
    7.4614    4.9433    4.4028 H   0  0  0  0  0  0  0  0  0  0  0  0
  5  6  2  0  0  0  0
  5  7  1  0  0  0  0
  2  3  1  0  0  0  0
  2  4  1  0  0  0  0
  2  5  1  0  0  0  0
  1  2  1  0  0  0  0
 15 16  2  0  0  0  0
 15 17  1  0  0  0  0
 14 36  1  0  0  0  0
 11 12  1  0  0  0  0
 11 13  1  0  0  0  0
 11 14  1  0  0  0  0
  9 10  1  0  0  0  0
  9 11  1  0  0  0  0
  9 15  1  0  0  0  0
  7  8  1  0  0  0  0
  7  9  1  0  0  0  0
 19 20  1  0  0  0  0
 19 21  1  0  0  0  0
 19 22  1  0  0  0  0
 17 18  1  0  0  0  0
 17 19  1  0  0  0  0
 27 28  2  0  0  0  0
 27 29  1  0  0  0  0
 24 25  1  0  0  0  0
 24 26  1  0  0  0  0
 24 27  1  0  0  0  0
 23 24  1  0  0  0  0
 37 38  2  0  0  0  0
 37 39  1  0  0  0  0
 33 34  1  0  0  0  0
 33 35  1  0  0  0  0
 33 36  1  0  0  0  0
 31 32  1  0  0  0  0
 31 33  1  0  0  0  0
 31 37  1  0  0  0  0
 29 30  1  0  0  0  0
 29 31  1  0  0  0  0
 41 42  1  0  0  0  0
 41 43  1  0  0  0  0
 41 44  1  0  0  0  0
 39 40  1  0  0  0  0
 39 41  1  0  0  0  0
M  END
$$$$
default_name
  -OEChem-01062215323D

 44 43  0     1  0  0  0  0  0999 V2000
    2.4488   -3.0448    2.0990 H   0  0  0  0  0  0  0  0  0  0  0  0
    2.2788   -2.0018    2.3640 C   0  0  0  0  0  0  0  0  0  0  0  0
    2.9228   -1.7258    3.1960 H   0  0  0  0  0  0  0  0  0  0  0  0
    1.2358   -1.8618    2.6430 H   0  0  0  0  0  0  0  0  0  0  0  0
    2.6018   -1.1318    1.1730 C   0  0  0  0  0  0  0  0  0  0  0  0
    3.0048   -1.6348    0.1320 O   0  0  0  0  0  0  0  0  0  0  0  0
    2.4088    0.1752    1.3190 N   0  0  0  0  0  0  0  0  0  0  0  0
    2.0708    0.5242    2.2050 H   0  0  0  0  0  0  0  0  0  0  0  0
    2.6638    1.1782    0.2840 C   0  0  1  0  0  0  0  0  0  0  0  0
    1.9456    1.9896    0.4134 H   0  0  0  0  0  0  0  0  0  0  0  0
    4.0775    1.7588    0.4623 C   0  0  0  0  0  0  0  0  0  0  0  0
    4.3131    2.3803   -0.4025 H   0  0  0  0  0  0  0  0  0  0  0  0
    4.7833    0.9287    0.4453 H   0  0  0  0  0  0  0  0  0  0  0  0
    4.4210    2.7129    1.9705 S   0  0  0  0  0  0  0  0  0  0  0  0
    2.4569    0.5876   -1.1234 C   0  0  0  0  0  0  0  0  0  0  0  0
    2.3865   -0.6305   -1.2860 O   0  0  0  0  0  0  0  0  0  0  0  0
    2.3527    1.4533   -2.1405 N   0  0  0  0  0  0  0  0  0  0  0  0
    2.4165    2.4376   -1.9359 H   0  0  0  0  0  0  0  0  0  0  0  0
    2.1569    1.0506   -3.5316 C   0  0  0  0  0  0  0  0  0  0  0  0
    3.0127    0.4607   -3.8669 H   0  0  0  0  0  0  0  0  0  0  0  0
    1.2591    0.4355   -3.6154 H   0  0  0  0  0  0  0  0  0  0  0  0
    2.0525    1.9291   -4.1696 H   0  0  0  0  0  0  0  0  0  0  0  0
    4.5468    9.5313   -2.4246 H   0  0  0  0  0  0  0  0  0  0  0  0
    5.1691    8.6732   -2.1751 C   0  0  0  0  0  0  0  0  0  0  0  0
    6.2042    8.9912   -2.0601 H   0  0  0  0  0  0  0  0  0  0  0  0
    5.0972    7.9278   -2.9648 H   0  0  0  0  0  0  0  0  0  0  0  0
    4.6818    8.0751   -0.8762 C   0  0  0  0  0  0  0  0  0  0  0  0
    3.7200    8.5592   -0.2953 O   0  0  0  0  0  0  0  0  0  0  0  0
    5.3447    7.0132   -0.4262 N   0  0  0  0  0  0  0  0  0  0  0  0
    6.1363    6.6736   -0.9530 H   0  0  0  0  0  0  0  0  0  0  0  0
    5.0209    6.2936    0.8057 C   0  0  1  0  0  0  0  0  0  0  0  0
    4.6977    7.0110    1.5622 H   0  0  0  0  0  0  0  0  0  0  0  0
    3.8509    5.3451    0.5090 C   0  0  0  0  0  0  0  0  0  0  0  0
    3.0216    5.9514    0.1418 H   0  0  0  0  0  0  0  0  0  0  0  0
    4.1390    4.6718   -0.2986 H   0  0  0  0  0  0  0  0  0  0  0  0
    3.2095    4.3539    1.8848 S   0  0  0  0  0  0  0  0  0  0  0  0
    6.2617    5.5577    1.3416 C   0  0  0  0  0  0  0  0  0  0  0  0
    7.1171    5.1439    0.5577 O   0  0  0  0  0  0  0  0  0  0  0  0
    6.3624    5.4037    2.6681 N   0  0  0  0  0  0  0  0  0  0  0  0
    5.6039    5.7411    3.2392 H   0  0  0  0  0  0  0  0  0  0  0  0
    7.4709    4.7221    3.3354 C   0  0  0  0  0  0  0  0  0  0  0  0
    7.3805    3.6442    3.1908 H   0  0  0  0  0  0  0  0  0  0  0  0
    8.4221    5.0520    2.9110 H   0  0  0  0  0  0  0  0  0  0  0  0
    7.4614    4.9433    4.4028 H   0  0  0  0  0  0  0  0  0  0  0  0
  5  6  2  0  0  0  0
  5  7  1  0  0  0  0
  2  3  1  0  0  0  0
  2  4  1  0  0  0  0
  2  5  1  0  0  0  0
  1  2  1  0  0  0  0
 15 16  2  0  0  0  0
 15 17  1  0  0  0  0
 14 36  1  0  0  0  0
 11 12  1  0  0  0  0
 11 13  1  0  0  0  0
 11 14  1  0  0  0  0
  9 10  1  0  0  0  0
  9 11  1  0  0  0  0
  9 15  1  0  0  0  0
  7  8  1  0  0  0  0
  7  9  1  0  0  0  0
 19 20  1  0  0  0  0
 19 21  1  0  0  0  0
 19 22  1  0  0  0  0
 17 18  1  0  0  0  0
 17 19  1  0  0  0  0
 27 28  2  0  0  0  0
 27 29  1  0  0  0  0
 24 25  1  0  0  0  0
 24 26  1  0  0  0  0
 24 27  1  0  0  0  0
 23 24  1  0  0  0  0
 37 38  2  0  0  0  0
 37 39  1  0  0  0  0
 33 34  1  0  0  0  0
 33 35  1  0  0  0  0
 33 36  1  0  0  0  0
 31 32  1  0  0  0  0
 31 33  1  0  0  0  0
 31 37  1  0  0  0  0
 29 30  1  0  0  0  0
 29 31  1  0  0  0  0
 41 42  1  0  0  0  0
 41 43  1  0  0  0  0
 41 44  1  0  0  0  0
 39 40  1  0  0  0  0
 39 41  1  0  0  0  0
M  END
$$$$
default_name
  -OEChem-01062215323D

 44 43  0     1  0  0  0  0  0999 V2000
    2.4488   -3.0448    2.0990 H   0  0  0  0  0  0  0  0  0  0  0  0
    2.2788   -2.0018    2.3640 C   0  0  0  0  0  0  0  0  0  0  0  0
    2.9228   -1.7258    3.1960 H   0  0  0  0  0  0  0  0  0  0  0  0
    1.2358   -1.8618    2.6430 H   0  0  0  0  0  0  0  0  0  0  0  0
    2.6018   -1.1318    1.1730 C   0  0  0  0  0  0  0  0  0  0  0  0
    3.0048   -1.6348    0.1320 O   0  0  0  0  0  0  0  0  0  0  0  0
    2.4088    0.1752    1.3190 N   0  0  0  0  0  0  0  0  0  0  0  0
    2.0708    0.5242    2.2050 H   0  0  0  0  0  0  0  0  0  0  0  0
    2.6638    1.1782    0.2840 C   0  0  1  0  0  0  0  0  0  0  0  0
    2.1436    2.0955    0.5647 H   0  0  0  0  0  0  0  0  0  0  0  0
    4.1703    1.4843    0.2191 C   0  0  0  0  0  0  0  0  0  0  0  0
    4.3647    2.1057   -0.6559 H   0  0  0  0  0  0  0  0  0  0  0  0
    4.6945    0.5440    0.0506 H   0  0  0  0  0  0  0  0  0  0  0  0
    4.9421    2.2668    1.6665 S   0  0  0  0  0  0  0  0  0  0  0  0
    2.1095    0.7220   -1.0787 C   0  0  0  0  0  0  0  0  0  0  0  0
    1.5340   -0.3605   -1.1888 O   0  0  0  0  0  0  0  0  0  0  0  0
    2.2776    1.5527   -2.1163 N   0  0  0  0  0  0  0  0  0  0  0  0
    2.7554    2.4247   -1.9550 H   0  0  0  0  0  0  0  0  0  0  0  0
    1.8116    1.2634   -3.4708 C   0  0  0  0  0  0  0  0  0  0  0  0
    2.3185    0.3741   -3.8513 H   0  0  0  0  0  0  0  0  0  0  0  0
    0.7374    1.0701   -3.4586 H   0  0  0  0  0  0  0  0  0  0  0  0
    2.0184    2.1065   -4.1312 H   0  0  0  0  0  0  0  0  0  0  0  0
    5.5783    9.2102   -2.4816 H   0  0  0  0  0  0  0  0  0  0  0  0
    6.0628    8.2409   -2.3738 C   0  0  0  0  0  0  0  0  0  0  0  0
    7.1430    8.3608   -2.4397 H   0  0  0  0  0  0  0  0  0  0  0  0
    5.7170    7.5705   -3.1584 H   0  0  0  0  0  0  0  0  0  0  0  0
    5.7045    7.6608   -1.0257 C   0  0  0  0  0  0  0  0  0  0  0  0
    4.9657    8.2725   -0.2662 O   0  0  0  0  0  0  0  0  0  0  0  0
    6.2249    6.4717   -0.7341 N   0  0  0  0  0  0  0  0  0  0  0  0
    6.8355    6.0291   -1.4054 H   0  0  0  0  0  0  0  0  0  0  0  0
    5.9904    5.7472    0.5151 C   0  0  1  0  0  0  0  0  0  0  0  0
    5.9431    6.4628    1.3379 H   0  0  0  0  0  0  0  0  0  0  0  0
    4.6303    5.0435    0.4087 C   0  0  0  0  0  0  0  0  0  0  0  0
    3.8782    5.8099    0.2157 H   0  0  0  0  0  0  0  0  0  0  0  0
    4.6430    4.3805   -0.4567 H   0  0  0  0  0  0  0  0  0  0  0  0
    4.0628    4.1003    1.8493 S   0  0  0  0  0  0  0  0  0  0  0  0
    7.1453    4.7695    0.7955 C   0  0  0  0  0  0  0  0  0  0  0  0
    7.7593    4.2584   -0.1422 O   0  0  0  0  0  0  0  0  0  0  0  0
    7.4436    4.5185    2.0767 N   0  0  0  0  0  0  0  0  0  0  0  0
    6.8721    4.9505    2.7854 H   0  0  0  0  0  0  0  0  0  0  0  0
    8.5035    3.6099    2.5119 C   0  0  0  0  0  0  0  0  0  0  0  0
    8.1894    2.5765    2.3554 H   0  0  0  0  0  0  0  0  0  0  0  0
    9.4115    3.7897    1.9315 H   0  0  0  0  0  0  0  0  0  0  0  0
    8.7205    3.7630    3.5692 H   0  0  0  0  0  0  0  0  0  0  0  0
  5  6  2  0  0  0  0
  5  7  1  0  0  0  0
  2  3  1  0  0  0  0
  2  4  1  0  0  0  0
  2  5  1  0  0  0  0
  1  2  1  0  0  0  0
 15 16  2  0  0  0  0
 15 17  1  0  0  0  0
 14 36  1  0  0  0  0
 11 12  1  0  0  0  0
 11 13  1  0  0  0  0
 11 14  1  0  0  0  0
  9 10  1  0  0  0  0
  9 11  1  0  0  0  0
  9 15  1  0  0  0  0
  7  8  1  0  0  0  0
  7  9  1  0  0  0  0
 19 20  1  0  0  0  0
 19 21  1  0  0  0  0
 19 22  1  0  0  0  0
 17 18  1  0  0  0  0
 17 19  1  0  0  0  0
 27 28  2  0  0  0  0
 27 29  1  0  0  0  0
 24 25  1  0  0  0  0
 24 26  1  0  0  0  0
 24 27  1  0  0  0  0
 23 24  1  0  0  0  0
 37 38  2  0  0  0  0
 37 39  1  0  0  0  0
 33 34  1  0  0  0  0
 33 35  1  0  0  0  0
 33 36  1  0  0  0  0
 31 32  1  0  0  0  0
 31 33  1  0  0  0  0
 31 37  1  0  0  0  0
 29 30  1  0  0  0  0
 29 31  1  0  0  0  0
 41 42  1  0  0  0  0
 41 43  1  0  0  0  0
 41 44  1  0  0  0  0
 39 40  1  0  0  0  0
 39 41  1  0  0  0  0
M  END
$$$$
default_name
  -OEChem-01062215323D

 44 43  0     1  0  0  0  0  0999 V2000
    2.4488   -3.0448    2.0990 H   0  0  0  0  0  0  0  0  0  0  0  0
    2.2788   -2.0018    2.3640 C   0  0  0  0  0  0  0  0  0  0  0  0
    2.9228   -1.7258    3.1960 H   0  0  0  0  0  0  0  0  0  0  0  0
    1.2358   -1.8618    2.6430 H   0  0  0  0  0  0  0  0  0  0  0  0
    2.6018   -1.1318    1.1730 C   0  0  0  0  0  0  0  0  0  0  0  0
    3.0048   -1.6348    0.1320 O   0  0  0  0  0  0  0  0  0  0  0  0
    2.4088    0.1752    1.3190 N   0  0  0  0  0  0  0  0  0  0  0  0
    2.0708    0.5242    2.2050 H   0  0  0  0  0  0  0  0  0  0  0  0
    2.6638    1.1782    0.2840 C   0  0  1  0  0  0  0  0  0  0  0  0
    2.1436    2.0955    0.5647 H   0  0  0  0  0  0  0  0  0  0  0  0
    4.1703    1.4843    0.2191 C   0  0  0  0  0  0  0  0  0  0  0  0
    4.3647    2.1057   -0.6559 H   0  0  0  0  0  0  0  0  0  0  0  0
    4.6945    0.5440    0.0506 H   0  0  0  0  0  0  0  0  0  0  0  0
    4.9421    2.2668    1.6665 S   0  0  0  0  0  0  0  0  0  0  0  0
    2.1095    0.7220   -1.0787 C   0  0  0  0  0  0  0  0  0  0  0  0
    1.3065   -0.2084   -1.1472 O   0  0  0  0  0  0  0  0  0  0  0  0
    2.5342    1.3831   -2.1638 N   0  0  0  0  0  0  0  0  0  0  0  0
    3.1900    2.1368   -2.0353 H   0  0  0  0  0  0  0  0  0  0  0  0
    2.1038    1.0695   -3.5248 C   0  0  0  0  0  0  0  0  0  0  0  0
    2.4139    0.0548   -3.7832 H   0  0  0  0  0  0  0  0  0  0  0  0
    1.0157    1.1256   -3.5904 H   0  0  0  0  0  0  0  0  0  0  0  0
    2.5440    1.7724   -4.2332 H   0  0  0  0  0  0  0  0  0  0  0  0
    5.5783    9.2102   -2.4816 H   0  0  0  0  0  0  0  0  0  0  0  0
    6.0628    8.2409   -2.3738 C   0  0  0  0  0  0  0  0  0  0  0  0
    7.1430    8.3608   -2.4397 H   0  0  0  0  0  0  0  0  0  0  0  0
    5.7170    7.5705   -3.1584 H   0  0  0  0  0  0  0  0  0  0  0  0
    5.7045    7.6608   -1.0257 C   0  0  0  0  0  0  0  0  0  0  0  0
    4.9657    8.2725   -0.2662 O   0  0  0  0  0  0  0  0  0  0  0  0
    6.2249    6.4717   -0.7341 N   0  0  0  0  0  0  0  0  0  0  0  0
    6.8355    6.0291   -1.4054 H   0  0  0  0  0  0  0  0  0  0  0  0
    5.9904    5.7472    0.5151 C   0  0  1  0  0  0  0  0  0  0  0  0
    5.9431    6.4628    1.3379 H   0  0  0  0  0  0  0  0  0  0  0  0
    4.6303    5.0435    0.4087 C   0  0  0  0  0  0  0  0  0  0  0  0
    3.8782    5.8099    0.2157 H   0  0  0  0  0  0  0  0  0  0  0  0
    4.6430    4.3805   -0.4567 H   0  0  0  0  0  0  0  0  0  0  0  0
    4.0628    4.1003    1.8493 S   0  0  0  0  0  0  0  0  0  0  0  0
    7.1453    4.7695    0.7955 C   0  0  0  0  0  0  0  0  0  0  0  0
    7.7593    4.2584   -0.1422 O   0  0  0  0  0  0  0  0  0  0  0  0
    7.4436    4.5185    2.0767 N   0  0  0  0  0  0  0  0  0  0  0  0
    6.8721    4.9505    2.7854 H   0  0  0  0  0  0  0  0  0  0  0  0
    8.5035    3.6099    2.5119 C   0  0  0  0  0  0  0  0  0  0  0  0
    8.1894    2.5765    2.3554 H   0  0  0  0  0  0  0  0  0  0  0  0
    9.4115    3.7897    1.9315 H   0  0  0  0  0  0  0  0  0  0  0  0
    8.7205    3.7630    3.5692 H   0  0  0  0  0  0  0  0  0  0  0  0
  5  6  2  0  0  0  0
  5  7  1  0  0  0  0
  2  3  1  0  0  0  0
  2  4  1  0  0  0  0
  2  5  1  0  0  0  0
  1  2  1  0  0  0  0
 15 16  2  0  0  0  0
 15 17  1  0  0  0  0
 14 36  1  0  0  0  0
 11 12  1  0  0  0  0
 11 13  1  0  0  0  0
 11 14  1  0  0  0  0
  9 10  1  0  0  0  0
  9 11  1  0  0  0  0
  9 15  1  0  0  0  0
  7  8  1  0  0  0  0
  7  9  1  0  0  0  0
 19 20  1  0  0  0  0
 19 21  1  0  0  0  0
 19 22  1  0  0  0  0
 17 18  1  0  0  0  0
 17 19  1  0  0  0  0
 27 28  2  0  0  0  0
 27 29  1  0  0  0  0
 24 25  1  0  0  0  0
 24 26  1  0  0  0  0
 24 27  1  0  0  0  0
 23 24  1  0  0  0  0
 37 38  2  0  0  0  0
 37 39  1  0  0  0  0
 33 34  1  0  0  0  0
 33 35  1  0  0  0  0
 33 36  1  0  0  0  0
 31 32  1  0  0  0  0
 31 33  1  0  0  0  0
 31 37  1  0  0  0  0
 29 30  1  0  0  0  0
 29 31  1  0  0  0  0
 41 42  1  0  0  0  0
 41 43  1  0  0  0  0
 41 44  1  0  0  0  0
 39 40  1  0  0  0  0
 39 41  1  0  0  0  0
M  END
$$$$
default_name
  -OEChem-01062215323D

 44 43  0     1  0  0  0  0  0999 V2000
    2.4488   -3.0448    2.0990 H   0  0  0  0  0  0  0  0  0  0  0  0
    2.2788   -2.0018    2.3640 C   0  0  0  0  0  0  0  0  0  0  0  0
    2.9228   -1.7258    3.1960 H   0  0  0  0  0  0  0  0  0  0  0  0
    1.2358   -1.8618    2.6430 H   0  0  0  0  0  0  0  0  0  0  0  0
    2.6018   -1.1318    1.1730 C   0  0  0  0  0  0  0  0  0  0  0  0
    3.0048   -1.6348    0.1320 O   0  0  0  0  0  0  0  0  0  0  0  0
    2.4088    0.1752    1.3190 N   0  0  0  0  0  0  0  0  0  0  0  0
    2.0708    0.5242    2.2050 H   0  0  0  0  0  0  0  0  0  0  0  0
    2.6638    1.1782    0.2840 C   0  0  1  0  0  0  0  0  0  0  0  0
    2.1436    2.0955    0.5647 H   0  0  0  0  0  0  0  0  0  0  0  0
    4.1703    1.4843    0.2191 C   0  0  0  0  0  0  0  0  0  0  0  0
    4.3647    2.1057   -0.6559 H   0  0  0  0  0  0  0  0  0  0  0  0
    4.6945    0.5440    0.0506 H   0  0  0  0  0  0  0  0  0  0  0  0
    4.9421    2.2668    1.6665 S   0  0  0  0  0  0  0  0  0  0  0  0
    2.1095    0.7220   -1.0787 C   0  0  0  0  0  0  0  0  0  0  0  0
    1.1184   -0.0055   -1.1386 O   0  0  0  0  0  0  0  0  0  0  0  0
    2.7468    1.1561   -2.1743 N   0  0  0  0  0  0  0  0  0  0  0  0
    3.5500    1.7517   -2.0529 H   0  0  0  0  0  0  0  0  0  0  0  0
    2.3458    0.8103   -3.5364 C   0  0  0  0  0  0  0  0  0  0  0  0
    2.4276   -0.2691   -3.6803 H   0  0  0  0  0  0  0  0  0  0  0  0
    1.3073    1.1032   -3.7015 H   0  0  0  0  0  0  0  0  0  0  0  0
    2.9831    1.3199   -4.2603 H   0  0  0  0  0  0  0  0  0  0  0  0
    5.5783    9.2102   -2.4816 H   0  0  0  0  0  0  0  0  0  0  0  0
    6.0628    8.2409   -2.3738 C   0  0  0  0  0  0  0  0  0  0  0  0
    7.1430    8.3608   -2.4397 H   0  0  0  0  0  0  0  0  0  0  0  0
    5.7170    7.5705   -3.1584 H   0  0  0  0  0  0  0  0  0  0  0  0
    5.7045    7.6608   -1.0257 C   0  0  0  0  0  0  0  0  0  0  0  0
    4.9657    8.2725   -0.2662 O   0  0  0  0  0  0  0  0  0  0  0  0
    6.2249    6.4717   -0.7341 N   0  0  0  0  0  0  0  0  0  0  0  0
    6.8355    6.0291   -1.4054 H   0  0  0  0  0  0  0  0  0  0  0  0
    5.9904    5.7472    0.5151 C   0  0  1  0  0  0  0  0  0  0  0  0
    5.9431    6.4628    1.3379 H   0  0  0  0  0  0  0  0  0  0  0  0
    4.6303    5.0435    0.4087 C   0  0  0  0  0  0  0  0  0  0  0  0
    3.8782    5.8099    0.2157 H   0  0  0  0  0  0  0  0  0  0  0  0
    4.6430    4.3805   -0.4567 H   0  0  0  0  0  0  0  0  0  0  0  0
    4.0628    4.1003    1.8493 S   0  0  0  0  0  0  0  0  0  0  0  0
    7.1453    4.7695    0.7955 C   0  0  0  0  0  0  0  0  0  0  0  0
    7.7593    4.2584   -0.1422 O   0  0  0  0  0  0  0  0  0  0  0  0
    7.4436    4.5185    2.0767 N   0  0  0  0  0  0  0  0  0  0  0  0
    6.8721    4.9505    2.7854 H   0  0  0  0  0  0  0  0  0  0  0  0
    8.5035    3.6099    2.5119 C   0  0  0  0  0  0  0  0  0  0  0  0
    8.1894    2.5765    2.3554 H   0  0  0  0  0  0  0  0  0  0  0  0
    9.4115    3.7897    1.9315 H   0  0  0  0  0  0  0  0  0  0  0  0
    8.7205    3.7630    3.5692 H   0  0  0  0  0  0  0  0  0  0  0  0
  5  6  2  0  0  0  0
  5  7  1  0  0  0  0
  2  3  1  0  0  0  0
  2  4  1  0  0  0  0
  2  5  1  0  0  0  0
  1  2  1  0  0  0  0
 15 16  2  0  0  0  0
 15 17  1  0  0  0  0
 14 36  1  0  0  0  0
 11 12  1  0  0  0  0
 11 13  1  0  0  0  0
 11 14  1  0  0  0  0
  9 10  1  0  0  0  0
  9 11  1  0  0  0  0
  9 15  1  0  0  0  0
  7  8  1  0  0  0  0
  7  9  1  0  0  0  0
 19 20  1  0  0  0  0
 19 21  1  0  0  0  0
 19 22  1  0  0  0  0
 17 18  1  0  0  0  0
 17 19  1  0  0  0  0
 27 28  2  0  0  0  0
 27 29  1  0  0  0  0
 24 25  1  0  0  0  0
 24 26  1  0  0  0  0
 24 27  1  0  0  0  0
 23 24  1  0  0  0  0
 37 38  2  0  0  0  0
 37 39  1  0  0  0  0
 33 34  1  0  0  0  0
 33 35  1  0  0  0  0
 33 36  1  0  0  0  0
 31 32  1  0  0  0  0
 31 33  1  0  0  0  0
 31 37  1  0  0  0  0
 29 30  1  0  0  0  0
 29 31  1  0  0  0  0
 41 42  1  0  0  0  0
 41 43  1  0  0  0  0
 41 44  1  0  0  0  0
 39 40  1  0  0  0  0
 39 41  1  0  0  0  0
M  END
$$$$
default_name
  -OEChem-01062215323D

 44 43  0     1  0  0  0  0  0999 V2000
    2.4488   -3.0448    2.0990 H   0  0  0  0  0  0  0  0  0  0  0  0
    2.2788   -2.0018    2.3640 C   0  0  0  0  0  0  0  0  0  0  0  0
    2.9228   -1.7258    3.1960 H   0  0  0  0  0  0  0  0  0  0  0  0
    1.2358   -1.8618    2.6430 H   0  0  0  0  0  0  0  0  0  0  0  0
    2.6018   -1.1318    1.1730 C   0  0  0  0  0  0  0  0  0  0  0  0
    3.0048   -1.6348    0.1320 O   0  0  0  0  0  0  0  0  0  0  0  0
    2.4088    0.1752    1.3190 N   0  0  0  0  0  0  0  0  0  0  0  0
    2.0708    0.5242    2.2050 H   0  0  0  0  0  0  0  0  0  0  0  0
    2.6638    1.1782    0.2840 C   0  0  1  0  0  0  0  0  0  0  0  0
    2.1436    2.0955    0.5647 H   0  0  0  0  0  0  0  0  0  0  0  0
    4.1703    1.4843    0.2191 C   0  0  0  0  0  0  0  0  0  0  0  0
    4.3647    2.1057   -0.6559 H   0  0  0  0  0  0  0  0  0  0  0  0
    4.6945    0.5440    0.0506 H   0  0  0  0  0  0  0  0  0  0  0  0
    4.9421    2.2668    1.6665 S   0  0  0  0  0  0  0  0  0  0  0  0
    2.1095    0.7220   -1.0787 C   0  0  0  0  0  0  0  0  0  0  0  0
    0.9825    0.2343   -1.1636 O   0  0  0  0  0  0  0  0  0  0  0  0
    2.9010    0.8872   -2.1470 N   0  0  0  0  0  0  0  0  0  0  0  0
    3.8110    1.2956   -2.0063 H   0  0  0  0  0  0  0  0  0  0  0  0
    2.5211    0.5035   -3.5050 C   0  0  0  0  0  0  0  0  0  0  0  0
    2.3588   -0.5755   -3.5498 H   0  0  0  0  0  0  0  0  0  0  0  0
    1.5923    1.0044   -3.7844 H   0  0  0  0  0  0  0  0  0  0  0  0
    3.3056    0.7797   -4.2106 H   0  0  0  0  0  0  0  0  0  0  0  0
    5.5783    9.2102   -2.4816 H   0  0  0  0  0  0  0  0  0  0  0  0
    6.0628    8.2409   -2.3738 C   0  0  0  0  0  0  0  0  0  0  0  0
    7.1430    8.3608   -2.4397 H   0  0  0  0  0  0  0  0  0  0  0  0
    5.7170    7.5705   -3.1584 H   0  0  0  0  0  0  0  0  0  0  0  0
    5.7045    7.6608   -1.0257 C   0  0  0  0  0  0  0  0  0  0  0  0
    4.9657    8.2725   -0.2662 O   0  0  0  0  0  0  0  0  0  0  0  0
    6.2249    6.4717   -0.7341 N   0  0  0  0  0  0  0  0  0  0  0  0
    6.8355    6.0291   -1.4054 H   0  0  0  0  0  0  0  0  0  0  0  0
    5.9904    5.7472    0.5151 C   0  0  1  0  0  0  0  0  0  0  0  0
    5.9431    6.4628    1.3379 H   0  0  0  0  0  0  0  0  0  0  0  0
    4.6303    5.0435    0.4087 C   0  0  0  0  0  0  0  0  0  0  0  0
    3.8782    5.8099    0.2157 H   0  0  0  0  0  0  0  0  0  0  0  0
    4.6430    4.3805   -0.4567 H   0  0  0  0  0  0  0  0  0  0  0  0
    4.0628    4.1003    1.8493 S   0  0  0  0  0  0  0  0  0  0  0  0
    7.1453    4.7695    0.7955 C   0  0  0  0  0  0  0  0  0  0  0  0
    7.7593    4.2584   -0.1422 O   0  0  0  0  0  0  0  0  0  0  0  0
    7.4436    4.5185    2.0767 N   0  0  0  0  0  0  0  0  0  0  0  0
    6.8721    4.9505    2.7854 H   0  0  0  0  0  0  0  0  0  0  0  0
    8.5035    3.6099    2.5119 C   0  0  0  0  0  0  0  0  0  0  0  0
    8.1894    2.5765    2.3554 H   0  0  0  0  0  0  0  0  0  0  0  0
    9.4115    3.7897    1.9315 H   0  0  0  0  0  0  0  0  0  0  0  0
    8.7205    3.7630    3.5692 H   0  0  0  0  0  0  0  0  0  0  0  0
  5  6  2  0  0  0  0
  5  7  1  0  0  0  0
  2  3  1  0  0  0  0
  2  4  1  0  0  0  0
  2  5  1  0  0  0  0
  1  2  1  0  0  0  0
 15 16  2  0  0  0  0
 15 17  1  0  0  0  0
 14 36  1  0  0  0  0
 11 12  1  0  0  0  0
 11 13  1  0  0  0  0
 11 14  1  0  0  0  0
  9 10  1  0  0  0  0
  9 11  1  0  0  0  0
  9 15  1  0  0  0  0
  7  8  1  0  0  0  0
  7  9  1  0  0  0  0
 19 20  1  0  0  0  0
 19 21  1  0  0  0  0
 19 22  1  0  0  0  0
 17 18  1  0  0  0  0
 17 19  1  0  0  0  0
 27 28  2  0  0  0  0
 27 29  1  0  0  0  0
 24 25  1  0  0  0  0
 24 26  1  0  0  0  0
 24 27  1  0  0  0  0
 23 24  1  0  0  0  0
 37 38  2  0  0  0  0
 37 39  1  0  0  0  0
 33 34  1  0  0  0  0
 33 35  1  0  0  0  0
 33 36  1  0  0  0  0
 31 32  1  0  0  0  0
 31 33  1  0  0  0  0
 31 37  1  0  0  0  0
 29 30  1  0  0  0  0
 29 31  1  0  0  0  0
 41 42  1  0  0  0  0
 41 43  1  0  0  0  0
 41 44  1  0  0  0  0
 39 40  1  0  0  0  0
 39 41  1  0  0  0  0
M  END
$$$$
default_name
  -OEChem-01062215323D

 44 43  0     1  0  0  0  0  0999 V2000
    2.4488   -3.0448    2.0990 H   0  0  0  0  0  0  0  0  0  0  0  0
    2.2788   -2.0018    2.3640 C   0  0  0  0  0  0  0  0  0  0  0  0
    2.9228   -1.7258    3.1960 H   0  0  0  0  0  0  0  0  0  0  0  0
    1.2358   -1.8618    2.6430 H   0  0  0  0  0  0  0  0  0  0  0  0
    2.6018   -1.1318    1.1730 C   0  0  0  0  0  0  0  0  0  0  0  0
    3.0048   -1.6348    0.1320 O   0  0  0  0  0  0  0  0  0  0  0  0
    2.4088    0.1752    1.3190 N   0  0  0  0  0  0  0  0  0  0  0  0
    2.0708    0.5242    2.2050 H   0  0  0  0  0  0  0  0  0  0  0  0
    2.6638    1.1782    0.2840 C   0  0  1  0  0  0  0  0  0  0  0  0
    2.1436    2.0955    0.5647 H   0  0  0  0  0  0  0  0  0  0  0  0
    4.1703    1.4843    0.2191 C   0  0  0  0  0  0  0  0  0  0  0  0
    4.3647    2.1057   -0.6559 H   0  0  0  0  0  0  0  0  0  0  0  0
    4.6945    0.5440    0.0506 H   0  0  0  0  0  0  0  0  0  0  0  0
    4.9421    2.2668    1.6665 S   0  0  0  0  0  0  0  0  0  0  0  0
    2.1095    0.7220   -1.0787 C   0  0  0  0  0  0  0  0  0  0  0  0
    0.9081    0.4948   -1.2205 O   0  0  0  0  0  0  0  0  0  0  0  0
    2.9862    0.5947   -2.0837 N   0  0  0  0  0  0  0  0  0  0  0  0
    3.9550    0.7997   -1.8989 H   0  0  0  0  0  0  0  0  0  0  0  0
    2.6177    0.1699   -3.4327 C   0  0  0  0  0  0  0  0  0  0  0  0
    2.2122   -0.8436   -3.4004 H   0  0  0  0  0  0  0  0  0  0  0  0
    1.8514    0.8360   -3.8334 H   0  0  0  0  0  0  0  0  0  0  0  0
    3.4897    0.1887   -4.0876 H   0  0  0  0  0  0  0  0  0  0  0  0
    5.5783    9.2102   -2.4816 H   0  0  0  0  0  0  0  0  0  0  0  0
    6.0628    8.2409   -2.3738 C   0  0  0  0  0  0  0  0  0  0  0  0
    7.1430    8.3608   -2.4397 H   0  0  0  0  0  0  0  0  0  0  0  0
    5.7170    7.5705   -3.1584 H   0  0  0  0  0  0  0  0  0  0  0  0
    5.7045    7.6608   -1.0257 C   0  0  0  0  0  0  0  0  0  0  0  0
    4.9657    8.2725   -0.2662 O   0  0  0  0  0  0  0  0  0  0  0  0
    6.2249    6.4717   -0.7341 N   0  0  0  0  0  0  0  0  0  0  0  0
    6.8355    6.0291   -1.4054 H   0  0  0  0  0  0  0  0  0  0  0  0
    5.9904    5.7472    0.5151 C   0  0  1  0  0  0  0  0  0  0  0  0
    5.9431    6.4628    1.3379 H   0  0  0  0  0  0  0  0  0  0  0  0
    4.6303    5.0435    0.4087 C   0  0  0  0  0  0  0  0  0  0  0  0
    3.8782    5.8099    0.2157 H   0  0  0  0  0  0  0  0  0  0  0  0
    4.6430    4.3805   -0.4567 H   0  0  0  0  0  0  0  0  0  0  0  0
    4.0628    4.1003    1.8493 S   0  0  0  0  0  0  0  0  0  0  0  0
    7.1453    4.7695    0.7955 C   0  0  0  0  0  0  0  0  0  0  0  0
    7.7593    4.2584   -0.1422 O   0  0  0  0  0  0  0  0  0  0  0  0
    7.4436    4.5185    2.0767 N   0  0  0  0  0  0  0  0  0  0  0  0
    6.8721    4.9505    2.7854 H   0  0  0  0  0  0  0  0  0  0  0  0
    8.5035    3.6099    2.5119 C   0  0  0  0  0  0  0  0  0  0  0  0
    8.1894    2.5765    2.3554 H   0  0  0  0  0  0  0  0  0  0  0  0
    9.4115    3.7897    1.9315 H   0  0  0  0  0  0  0  0  0  0  0  0
    8.7205    3.7630    3.5692 H   0  0  0  0  0  0  0  0  0  0  0  0
  5  6  2  0  0  0  0
  5  7  1  0  0  0  0
  2  3  1  0  0  0  0
  2  4  1  0  0  0  0
  2  5  1  0  0  0  0
  1  2  1  0  0  0  0
 15 16  2  0  0  0  0
 15 17  1  0  0  0  0
 14 36  1  0  0  0  0
 11 12  1  0  0  0  0
 11 13  1  0  0  0  0
 11 14  1  0  0  0  0
  9 10  1  0  0  0  0
  9 11  1  0  0  0  0
  9 15  1  0  0  0  0
  7  8  1  0  0  0  0
  7  9  1  0  0  0  0
 19 20  1  0  0  0  0
 19 21  1  0  0  0  0
 19 22  1  0  0  0  0
 17 18  1  0  0  0  0
 17 19  1  0  0  0  0
 27 28  2  0  0  0  0
 27 29  1  0  0  0  0
 24 25  1  0  0  0  0
 24 26  1  0  0  0  0
 24 27  1  0  0  0  0
 23 24  1  0  0  0  0
 37 38  2  0  0  0  0
 37 39  1  0  0  0  0
 33 34  1  0  0  0  0
 33 35  1  0  0  0  0
 33 36  1  0  0  0  0
 31 32  1  0  0  0  0
 31 33  1  0  0  0  0
 31 37  1  0  0  0  0
 29 30  1  0  0  0  0
 29 31  1  0  0  0  0
 41 42  1  0  0  0  0
 41 43  1  0  0  0  0
 41 44  1  0  0  0  0
 39 40  1  0  0  0  0
 39 41  1  0  0  0  0
M  END
$$$$
default_name
  -OEChem-01062215323D

 44 43  0     1  0  0  0  0  0999 V2000
    2.4488   -3.0448    2.0990 H   0  0  0  0  0  0  0  0  0  0  0  0
    2.2788   -2.0018    2.3640 C   0  0  0  0  0  0  0  0  0  0  0  0
    2.9228   -1.7258    3.1960 H   0  0  0  0  0  0  0  0  0  0  0  0
    1.2358   -1.8618    2.6430 H   0  0  0  0  0  0  0  0  0  0  0  0
    2.6018   -1.1318    1.1730 C   0  0  0  0  0  0  0  0  0  0  0  0
    3.0048   -1.6348    0.1320 O   0  0  0  0  0  0  0  0  0  0  0  0
    2.4088    0.1752    1.3190 N   0  0  0  0  0  0  0  0  0  0  0  0
    2.0708    0.5242    2.2050 H   0  0  0  0  0  0  0  0  0  0  0  0
    2.6638    1.1782    0.2840 C   0  0  1  0  0  0  0  0  0  0  0  0
    2.1436    2.0955    0.5647 H   0  0  0  0  0  0  0  0  0  0  0  0
    4.1703    1.4843    0.2191 C   0  0  0  0  0  0  0  0  0  0  0  0
    4.3647    2.1057   -0.6559 H   0  0  0  0  0  0  0  0  0  0  0  0
    4.6945    0.5440    0.0506 H   0  0  0  0  0  0  0  0  0  0  0  0
    4.9421    2.2668    1.6665 S   0  0  0  0  0  0  0  0  0  0  0  0
    2.1095    0.7220   -1.0787 C   0  0  0  0  0  0  0  0  0  0  0  0
    0.9002    0.7581   -1.3055 O   0  0  0  0  0  0  0  0  0  0  0  0
    2.9967    0.2985   -1.9889 N   0  0  0  0  0  0  0  0  0  0  0  0
    3.9723    0.2977   -1.7378 H   0  0  0  0  0  0  0  0  0  0  0  0
    2.6291   -0.1677   -3.3243 C   0  0  0  0  0  0  0  0  0  0  0  0
    1.9978   -1.0551   -3.2424 H   0  0  0  0  0  0  0  0  0  0  0  0
    2.0669    0.6095   -3.8452 H   0  0  0  0  0  0  0  0  0  0  0  0
    3.5227   -0.4129   -3.8997 H   0  0  0  0  0  0  0  0  0  0  0  0
    5.5783    9.2102   -2.4816 H   0  0  0  0  0  0  0  0  0  0  0  0
    6.0628    8.2409   -2.3738 C   0  0  0  0  0  0  0  0  0  0  0  0
    7.1430    8.3608   -2.4397 H   0  0  0  0  0  0  0  0  0  0  0  0
    5.7170    7.5705   -3.1584 H   0  0  0  0  0  0  0  0  0  0  0  0
    5.7045    7.6608   -1.0257 C   0  0  0  0  0  0  0  0  0  0  0  0
    4.9657    8.2725   -0.2662 O   0  0  0  0  0  0  0  0  0  0  0  0
    6.2249    6.4717   -0.7341 N   0  0  0  0  0  0  0  0  0  0  0  0
    6.8355    6.0291   -1.4054 H   0  0  0  0  0  0  0  0  0  0  0  0
    5.9904    5.7472    0.5151 C   0  0  1  0  0  0  0  0  0  0  0  0
    5.9431    6.4628    1.3379 H   0  0  0  0  0  0  0  0  0  0  0  0
    4.6303    5.0435    0.4087 C   0  0  0  0  0  0  0  0  0  0  0  0
    3.8782    5.8099    0.2157 H   0  0  0  0  0  0  0  0  0  0  0  0
    4.6430    4.3805   -0.4567 H   0  0  0  0  0  0  0  0  0  0  0  0
    4.0628    4.1003    1.8493 S   0  0  0  0  0  0  0  0  0  0  0  0
    7.1453    4.7695    0.7955 C   0  0  0  0  0  0  0  0  0  0  0  0
    7.7593    4.2584   -0.1422 O   0  0  0  0  0  0  0  0  0  0  0  0
    7.4436    4.5185    2.0767 N   0  0  0  0  0  0  0  0  0  0  0  0
    6.8721    4.9505    2.7854 H   0  0  0  0  0  0  0  0  0  0  0  0
    8.5035    3.6099    2.5119 C   0  0  0  0  0  0  0  0  0  0  0  0
    8.1894    2.5765    2.3554 H   0  0  0  0  0  0  0  0  0  0  0  0
    9.4115    3.7897    1.9315 H   0  0  0  0  0  0  0  0  0  0  0  0
    8.7205    3.7630    3.5692 H   0  0  0  0  0  0  0  0  0  0  0  0
  5  6  2  0  0  0  0
  5  7  1  0  0  0  0
  2  3  1  0  0  0  0
  2  4  1  0  0  0  0
  2  5  1  0  0  0  0
  1  2  1  0  0  0  0
 15 16  2  0  0  0  0
 15 17  1  0  0  0  0
 14 36  1  0  0  0  0
 11 12  1  0  0  0  0
 11 13  1  0  0  0  0
 11 14  1  0  0  0  0
  9 10  1  0  0  0  0
  9 11  1  0  0  0  0
  9 15  1  0  0  0  0
  7  8  1  0  0  0  0
  7  9  1  0  0  0  0
 19 20  1  0  0  0  0
 19 21  1  0  0  0  0
 19 22  1  0  0  0  0
 17 18  1  0  0  0  0
 17 19  1  0  0  0  0
 27 28  2  0  0  0  0
 27 29  1  0  0  0  0
 24 25  1  0  0  0  0
 24 26  1  0  0  0  0
 24 27  1  0  0  0  0
 23 24  1  0  0  0  0
 37 38  2  0  0  0  0
 37 39  1  0  0  0  0
 33 34  1  0  0  0  0
 33 35  1  0  0  0  0
 33 36  1  0  0  0  0
 31 32  1  0  0  0  0
 31 33  1  0  0  0  0
 31 37  1  0  0  0  0
 29 30  1  0  0  0  0
 29 31  1  0  0  0  0
 41 42  1  0  0  0  0
 41 43  1  0  0  0  0
 41 44  1  0  0  0  0
 39 40  1  0  0  0  0
 39 41  1  0  0  0  0
M  END
$$$$
default_name
  -OEChem-01062215323D

 44 43  0     1  0  0  0  0  0999 V2000
    2.4488   -3.0448    2.0990 H   0  0  0  0  0  0  0  0  0  0  0  0
    2.2788   -2.0018    2.3640 C   0  0  0  0  0  0  0  0  0  0  0  0
    2.9228   -1.7258    3.1960 H   0  0  0  0  0  0  0  0  0  0  0  0
    1.2358   -1.8618    2.6430 H   0  0  0  0  0  0  0  0  0  0  0  0
    2.6018   -1.1318    1.1730 C   0  0  0  0  0  0  0  0  0  0  0  0
    3.0048   -1.6348    0.1320 O   0  0  0  0  0  0  0  0  0  0  0  0
    2.4088    0.1752    1.3190 N   0  0  0  0  0  0  0  0  0  0  0  0
    2.0708    0.5242    2.2050 H   0  0  0  0  0  0  0  0  0  0  0  0
    2.6638    1.1782    0.2840 C   0  0  1  0  0  0  0  0  0  0  0  0
    2.1436    2.0955    0.5647 H   0  0  0  0  0  0  0  0  0  0  0  0
    4.1703    1.4843    0.2191 C   0  0  0  0  0  0  0  0  0  0  0  0
    4.3647    2.1057   -0.6559 H   0  0  0  0  0  0  0  0  0  0  0  0
    4.6945    0.5440    0.0506 H   0  0  0  0  0  0  0  0  0  0  0  0
    4.9421    2.2668    1.6665 S   0  0  0  0  0  0  0  0  0  0  0  0
    2.1095    0.7220   -1.0787 C   0  0  0  0  0  0  0  0  0  0  0  0
    0.9594    1.0064   -1.4127 O   0  0  0  0  0  0  0  0  0  0  0  0
    2.9318    0.0188   -1.8688 N   0  0  0  0  0  0  0  0  0  0  0  0
    3.8617   -0.1762   -1.5342 H   0  0  0  0  0  0  0  0  0  0  0  0
    2.5545   -0.4864   -3.1873 C   0  0  0  0  0  0  0  0  0  0  0  0
    1.7301   -1.1955   -3.0865 H   0  0  0  0  0  0  0  0  0  0  0  0
    2.2240    0.3402   -3.8190 H   0  0  0  0  0  0  0  0  0  0  0  0
    3.4024   -0.9840   -3.6596 H   0  0  0  0  0  0  0  0  0  0  0  0
    5.5783    9.2102   -2.4816 H   0  0  0  0  0  0  0  0  0  0  0  0
    6.0628    8.2409   -2.3738 C   0  0  0  0  0  0  0  0  0  0  0  0
    7.1430    8.3608   -2.4397 H   0  0  0  0  0  0  0  0  0  0  0  0
    5.7170    7.5705   -3.1584 H   0  0  0  0  0  0  0  0  0  0  0  0
    5.7045    7.6608   -1.0257 C   0  0  0  0  0  0  0  0  0  0  0  0
    4.9657    8.2725   -0.2662 O   0  0  0  0  0  0  0  0  0  0  0  0
    6.2249    6.4717   -0.7341 N   0  0  0  0  0  0  0  0  0  0  0  0
    6.8355    6.0291   -1.4054 H   0  0  0  0  0  0  0  0  0  0  0  0
    5.9904    5.7472    0.5151 C   0  0  1  0  0  0  0  0  0  0  0  0
    5.9431    6.4628    1.3379 H   0  0  0  0  0  0  0  0  0  0  0  0
    4.6303    5.0435    0.4087 C   0  0  0  0  0  0  0  0  0  0  0  0
    3.8782    5.8099    0.2157 H   0  0  0  0  0  0  0  0  0  0  0  0
    4.6430    4.3805   -0.4567 H   0  0  0  0  0  0  0  0  0  0  0  0
    4.0628    4.1003    1.8493 S   0  0  0  0  0  0  0  0  0  0  0  0
    7.1453    4.7695    0.7955 C   0  0  0  0  0  0  0  0  0  0  0  0
    7.7593    4.2584   -0.1422 O   0  0  0  0  0  0  0  0  0  0  0  0
    7.4436    4.5185    2.0767 N   0  0  0  0  0  0  0  0  0  0  0  0
    6.8721    4.9505    2.7854 H   0  0  0  0  0  0  0  0  0  0  0  0
    8.5035    3.6099    2.5119 C   0  0  0  0  0  0  0  0  0  0  0  0
    8.1894    2.5765    2.3554 H   0  0  0  0  0  0  0  0  0  0  0  0
    9.4115    3.7897    1.9315 H   0  0  0  0  0  0  0  0  0  0  0  0
    8.7205    3.7630    3.5692 H   0  0  0  0  0  0  0  0  0  0  0  0
  5  6  2  0  0  0  0
  5  7  1  0  0  0  0
  2  3  1  0  0  0  0
  2  4  1  0  0  0  0
  2  5  1  0  0  0  0
  1  2  1  0  0  0  0
 15 16  2  0  0  0  0
 15 17  1  0  0  0  0
 14 36  1  0  0  0  0
 11 12  1  0  0  0  0
 11 13  1  0  0  0  0
 11 14  1  0  0  0  0
  9 10  1  0  0  0  0
  9 11  1  0  0  0  0
  9 15  1  0  0  0  0
  7  8  1  0  0  0  0
  7  9  1  0  0  0  0
 19 20  1  0  0  0  0
 19 21  1  0  0  0  0
 19 22  1  0  0  0  0
 17 18  1  0  0  0  0
 17 19  1  0  0  0  0
 27 28  2  0  0  0  0
 27 29  1  0  0  0  0
 24 25  1  0  0  0  0
 24 26  1  0  0  0  0
 24 27  1  0  0  0  0
 23 24  1  0  0  0  0
 37 38  2  0  0  0  0
 37 39  1  0  0  0  0
 33 34  1  0  0  0  0
 33 35  1  0  0  0  0
 33 36  1  0  0  0  0
 31 32  1  0  0  0  0
 31 33  1  0  0  0  0
 31 37  1  0  0  0  0
 29 30  1  0  0  0  0
 29 31  1  0  0  0  0
 41 42  1  0  0  0  0
 41 43  1  0  0  0  0
 41 44  1  0  0  0  0
 39 40  1  0  0  0  0
 39 41  1  0  0  0  0
M  END
$$$$
default_name
  -OEChem-01062215323D

 44 43  0     1  0  0  0  0  0999 V2000
    2.4488   -3.0448    2.0990 H   0  0  0  0  0  0  0  0  0  0  0  0
    2.2788   -2.0018    2.3640 C   0  0  0  0  0  0  0  0  0  0  0  0
    2.9228   -1.7258    3.1960 H   0  0  0  0  0  0  0  0  0  0  0  0
    1.2358   -1.8618    2.6430 H   0  0  0  0  0  0  0  0  0  0  0  0
    2.6018   -1.1318    1.1730 C   0  0  0  0  0  0  0  0  0  0  0  0
    3.0048   -1.6348    0.1320 O   0  0  0  0  0  0  0  0  0  0  0  0
    2.4088    0.1752    1.3190 N   0  0  0  0  0  0  0  0  0  0  0  0
    2.0708    0.5242    2.2050 H   0  0  0  0  0  0  0  0  0  0  0  0
    2.6638    1.1782    0.2840 C   0  0  1  0  0  0  0  0  0  0  0  0
    2.1436    2.0955    0.5647 H   0  0  0  0  0  0  0  0  0  0  0  0
    4.1703    1.4843    0.2191 C   0  0  0  0  0  0  0  0  0  0  0  0
    4.3647    2.1057   -0.6559 H   0  0  0  0  0  0  0  0  0  0  0  0
    4.6945    0.5440    0.0506 H   0  0  0  0  0  0  0  0  0  0  0  0
    4.9421    2.2668    1.6665 S   0  0  0  0  0  0  0  0  0  0  0  0
    2.1095    0.7220   -1.0787 C   0  0  0  0  0  0  0  0  0  0  0  0
    1.0817    1.2226   -1.5348 O   0  0  0  0  0  0  0  0  0  0  0  0
    2.7958   -0.2253   -1.7318 N   0  0  0  0  0  0  0  0  0  0  0  0
    3.6307   -0.5896   -1.3019 H   0  0  0  0  0  0  0  0  0  0  0  0
    2.3990   -0.7643   -3.0309 C   0  0  0  0  0  0  0  0  0  0  0  0
    1.4274   -1.2553   -2.9434 H   0  0  0  0  0  0  0  0  0  0  0  0
    2.3122    0.0466   -3.7565 H   0  0  0  0  0  0  0  0  0  0  0  0
    3.1371   -1.4858   -3.3836 H   0  0  0  0  0  0  0  0  0  0  0  0
    5.5783    9.2102   -2.4816 H   0  0  0  0  0  0  0  0  0  0  0  0
    6.0628    8.2409   -2.3738 C   0  0  0  0  0  0  0  0  0  0  0  0
    7.1430    8.3608   -2.4397 H   0  0  0  0  0  0  0  0  0  0  0  0
    5.7170    7.5705   -3.1584 H   0  0  0  0  0  0  0  0  0  0  0  0
    5.7045    7.6608   -1.0257 C   0  0  0  0  0  0  0  0  0  0  0  0
    4.9657    8.2725   -0.2662 O   0  0  0  0  0  0  0  0  0  0  0  0
    6.2249    6.4717   -0.7341 N   0  0  0  0  0  0  0  0  0  0  0  0
    6.8355    6.0291   -1.4054 H   0  0  0  0  0  0  0  0  0  0  0  0
    5.9904    5.7472    0.5151 C   0  0  1  0  0  0  0  0  0  0  0  0
    5.9431    6.4628    1.3379 H   0  0  0  0  0  0  0  0  0  0  0  0
    4.6303    5.0435    0.4087 C   0  0  0  0  0  0  0  0  0  0  0  0
    3.8782    5.8099    0.2157 H   0  0  0  0  0  0  0  0  0  0  0  0
    4.6430    4.3805   -0.4567 H   0  0  0  0  0  0  0  0  0  0  0  0
    4.0628    4.1003    1.8493 S   0  0  0  0  0  0  0  0  0  0  0  0
    7.1453    4.7695    0.7955 C   0  0  0  0  0  0  0  0  0  0  0  0
    7.7593    4.2584   -0.1422 O   0  0  0  0  0  0  0  0  0  0  0  0
    7.4436    4.5185    2.0767 N   0  0  0  0  0  0  0  0  0  0  0  0
    6.8721    4.9505    2.7854 H   0  0  0  0  0  0  0  0  0  0  0  0
    8.5035    3.6099    2.5119 C   0  0  0  0  0  0  0  0  0  0  0  0
    8.1894    2.5765    2.3554 H   0  0  0  0  0  0  0  0  0  0  0  0
    9.4115    3.7897    1.9315 H   0  0  0  0  0  0  0  0  0  0  0  0
    8.7205    3.7630    3.5692 H   0  0  0  0  0  0  0  0  0  0  0  0
  5  6  2  0  0  0  0
  5  7  1  0  0  0  0
  2  3  1  0  0  0  0
  2  4  1  0  0  0  0
  2  5  1  0  0  0  0
  1  2  1  0  0  0  0
 15 16  2  0  0  0  0
 15 17  1  0  0  0  0
 14 36  1  0  0  0  0
 11 12  1  0  0  0  0
 11 13  1  0  0  0  0
 11 14  1  0  0  0  0
  9 10  1  0  0  0  0
  9 11  1  0  0  0  0
  9 15  1  0  0  0  0
  7  8  1  0  0  0  0
  7  9  1  0  0  0  0
 19 20  1  0  0  0  0
 19 21  1  0  0  0  0
 19 22  1  0  0  0  0
 17 18  1  0  0  0  0
 17 19  1  0  0  0  0
 27 28  2  0  0  0  0
 27 29  1  0  0  0  0
 24 25  1  0  0  0  0
 24 26  1  0  0  0  0
 24 27  1  0  0  0  0
 23 24  1  0  0  0  0
 37 38  2  0  0  0  0
 37 39  1  0  0  0  0
 33 34  1  0  0  0  0
 33 35  1  0  0  0  0
 33 36  1  0  0  0  0
 31 32  1  0  0  0  0
 31 33  1  0  0  0  0
 31 37  1  0  0  0  0
 29 30  1  0  0  0  0
 29 31  1  0  0  0  0
 41 42  1  0  0  0  0
 41 43  1  0  0  0  0
 41 44  1  0  0  0  0
 39 40  1  0  0  0  0
 39 41  1  0  0  0  0
M  END
$$$$
default_name
  -OEChem-01062215323D

 44 43  0     1  0  0  0  0  0999 V2000
    2.4488   -3.0448    2.0990 H   0  0  0  0  0  0  0  0  0  0  0  0
    2.2788   -2.0018    2.3640 C   0  0  0  0  0  0  0  0  0  0  0  0
    2.9228   -1.7258    3.1960 H   0  0  0  0  0  0  0  0  0  0  0  0
    1.2358   -1.8618    2.6430 H   0  0  0  0  0  0  0  0  0  0  0  0
    2.6018   -1.1318    1.1730 C   0  0  0  0  0  0  0  0  0  0  0  0
    3.0048   -1.6348    0.1320 O   0  0  0  0  0  0  0  0  0  0  0  0
    2.4088    0.1752    1.3190 N   0  0  0  0  0  0  0  0  0  0  0  0
    2.0708    0.5242    2.2050 H   0  0  0  0  0  0  0  0  0  0  0  0
    2.6638    1.1782    0.2840 C   0  0  1  0  0  0  0  0  0  0  0  0
    2.1436    2.0955    0.5647 H   0  0  0  0  0  0  0  0  0  0  0  0
    4.1703    1.4843    0.2191 C   0  0  0  0  0  0  0  0  0  0  0  0
    4.3647    2.1057   -0.6559 H   0  0  0  0  0  0  0  0  0  0  0  0
    4.6945    0.5440    0.0506 H   0  0  0  0  0  0  0  0  0  0  0  0
    4.9421    2.2668    1.6665 S   0  0  0  0  0  0  0  0  0  0  0  0
    2.1095    0.7220   -1.0787 C   0  0  0  0  0  0  0  0  0  0  0  0
    1.2586    1.3922   -1.6635 O   0  0  0  0  0  0  0  0  0  0  0  0
    2.5981   -0.4172   -1.5871 N   0  0  0  0  0  0  0  0  0  0  0  0
    3.2952   -0.9145   -1.0567 H   0  0  0  0  0  0  0  0  0  0  0  0
    2.1731   -0.9826   -2.8660 C   0  0  0  0  0  0  0  0  0  0  0  0
    1.1104   -1.2305   -2.8227 H   0  0  0  0  0  0  0  0  0  0  0  0
    2.3253   -0.2514   -3.6621 H   0  0  0  0  0  0  0  0  0  0  0  0
    2.7447   -1.8840   -3.0907 H   0  0  0  0  0  0  0  0  0  0  0  0
    5.5783    9.2102   -2.4816 H   0  0  0  0  0  0  0  0  0  0  0  0
    6.0628    8.2409   -2.3738 C   0  0  0  0  0  0  0  0  0  0  0  0
    7.1430    8.3608   -2.4397 H   0  0  0  0  0  0  0  0  0  0  0  0
    5.7170    7.5705   -3.1584 H   0  0  0  0  0  0  0  0  0  0  0  0
    5.7045    7.6608   -1.0257 C   0  0  0  0  0  0  0  0  0  0  0  0
    4.9657    8.2725   -0.2662 O   0  0  0  0  0  0  0  0  0  0  0  0
    6.2249    6.4717   -0.7341 N   0  0  0  0  0  0  0  0  0  0  0  0
    6.8355    6.0291   -1.4054 H   0  0  0  0  0  0  0  0  0  0  0  0
    5.9904    5.7472    0.5151 C   0  0  1  0  0  0  0  0  0  0  0  0
    5.9431    6.4628    1.3379 H   0  0  0  0  0  0  0  0  0  0  0  0
    4.6303    5.0435    0.4087 C   0  0  0  0  0  0  0  0  0  0  0  0
    3.8782    5.8099    0.2157 H   0  0  0  0  0  0  0  0  0  0  0  0
    4.6430    4.3805   -0.4567 H   0  0  0  0  0  0  0  0  0  0  0  0
    4.0628    4.1003    1.8493 S   0  0  0  0  0  0  0  0  0  0  0  0
    7.1453    4.7695    0.7955 C   0  0  0  0  0  0  0  0  0  0  0  0
    7.7593    4.2584   -0.1422 O   0  0  0  0  0  0  0  0  0  0  0  0
    7.4436    4.5185    2.0767 N   0  0  0  0  0  0  0  0  0  0  0  0
    6.8721    4.9505    2.7854 H   0  0  0  0  0  0  0  0  0  0  0  0
    8.5035    3.6099    2.5119 C   0  0  0  0  0  0  0  0  0  0  0  0
    8.1894    2.5765    2.3554 H   0  0  0  0  0  0  0  0  0  0  0  0
    9.4115    3.7897    1.9315 H   0  0  0  0  0  0  0  0  0  0  0  0
    8.7205    3.7630    3.5692 H   0  0  0  0  0  0  0  0  0  0  0  0
  5  6  2  0  0  0  0
  5  7  1  0  0  0  0
  2  3  1  0  0  0  0
  2  4  1  0  0  0  0
  2  5  1  0  0  0  0
  1  2  1  0  0  0  0
 15 16  2  0  0  0  0
 15 17  1  0  0  0  0
 14 36  1  0  0  0  0
 11 12  1  0  0  0  0
 11 13  1  0  0  0  0
 11 14  1  0  0  0  0
  9 10  1  0  0  0  0
  9 11  1  0  0  0  0
  9 15  1  0  0  0  0
  7  8  1  0  0  0  0
  7  9  1  0  0  0  0
 19 20  1  0  0  0  0
 19 21  1  0  0  0  0
 19 22  1  0  0  0  0
 17 18  1  0  0  0  0
 17 19  1  0  0  0  0
 27 28  2  0  0  0  0
 27 29  1  0  0  0  0
 24 25  1  0  0  0  0
 24 26  1  0  0  0  0
 24 27  1  0  0  0  0
 23 24  1  0  0  0  0
 37 38  2  0  0  0  0
 37 39  1  0  0  0  0
 33 34  1  0  0  0  0
 33 35  1  0  0  0  0
 33 36  1  0  0  0  0
 31 32  1  0  0  0  0
 31 33  1  0  0  0  0
 31 37  1  0  0  0  0
 29 30  1  0  0  0  0
 29 31  1  0  0  0  0
 41 42  1  0  0  0  0
 41 43  1  0  0  0  0
 41 44  1  0  0  0  0
 39 40  1  0  0  0  0
 39 41  1  0  0  0  0
M  END
$$$$
default_name
  -OEChem-01062215323D

 44 43  0     1  0  0  0  0  0999 V2000
    2.4488   -3.0448    2.0990 H   0  0  0  0  0  0  0  0  0  0  0  0
    2.2788   -2.0018    2.3640 C   0  0  0  0  0  0  0  0  0  0  0  0
    2.9228   -1.7258    3.1960 H   0  0  0  0  0  0  0  0  0  0  0  0
    1.2358   -1.8618    2.6430 H   0  0  0  0  0  0  0  0  0  0  0  0
    2.6018   -1.1318    1.1730 C   0  0  0  0  0  0  0  0  0  0  0  0
    3.0048   -1.6348    0.1320 O   0  0  0  0  0  0  0  0  0  0  0  0
    2.4088    0.1752    1.3190 N   0  0  0  0  0  0  0  0  0  0  0  0
    2.0708    0.5242    2.2050 H   0  0  0  0  0  0  0  0  0  0  0  0
    2.6638    1.1782    0.2840 C   0  0  1  0  0  0  0  0  0  0  0  0
    2.1436    2.0955    0.5647 H   0  0  0  0  0  0  0  0  0  0  0  0
    4.1703    1.4843    0.2191 C   0  0  0  0  0  0  0  0  0  0  0  0
    4.3647    2.1057   -0.6559 H   0  0  0  0  0  0  0  0  0  0  0  0
    4.6945    0.5440    0.0506 H   0  0  0  0  0  0  0  0  0  0  0  0
    4.9421    2.2668    1.6665 S   0  0  0  0  0  0  0  0  0  0  0  0
    2.1095    0.7220   -1.0787 C   0  0  0  0  0  0  0  0  0  0  0  0
    1.4782    1.5034   -1.7901 O   0  0  0  0  0  0  0  0  0  0  0  0
    2.3521   -0.5437   -1.4447 N   0  0  0  0  0  0  0  0  0  0  0  0
    2.8779   -1.1285   -0.8153 H   0  0  0  0  0  0  0  0  0  0  0  0
    1.8923   -1.1264   -2.7037 C   0  0  0  0  0  0  0  0  0  0  0  0
    0.8006   -1.1226   -2.7328 H   0  0  0  0  0  0  0  0  0  0  0  0
    2.2624   -0.5335   -3.5421 H   0  0  0  0  0  0  0  0  0  0  0  0
    2.2521   -2.1515   -2.8008 H   0  0  0  0  0  0  0  0  0  0  0  0
    5.5783    9.2102   -2.4816 H   0  0  0  0  0  0  0  0  0  0  0  0
    6.0628    8.2409   -2.3738 C   0  0  0  0  0  0  0  0  0  0  0  0
    7.1430    8.3608   -2.4397 H   0  0  0  0  0  0  0  0  0  0  0  0
    5.7170    7.5705   -3.1584 H   0  0  0  0  0  0  0  0  0  0  0  0
    5.7045    7.6608   -1.0257 C   0  0  0  0  0  0  0  0  0  0  0  0
    4.9657    8.2725   -0.2662 O   0  0  0  0  0  0  0  0  0  0  0  0
    6.2249    6.4717   -0.7341 N   0  0  0  0  0  0  0  0  0  0  0  0
    6.8355    6.0291   -1.4054 H   0  0  0  0  0  0  0  0  0  0  0  0
    5.9904    5.7472    0.5151 C   0  0  1  0  0  0  0  0  0  0  0  0
    5.9431    6.4628    1.3379 H   0  0  0  0  0  0  0  0  0  0  0  0
    4.6303    5.0435    0.4087 C   0  0  0  0  0  0  0  0  0  0  0  0
    3.8782    5.8099    0.2157 H   0  0  0  0  0  0  0  0  0  0  0  0
    4.6430    4.3805   -0.4567 H   0  0  0  0  0  0  0  0  0  0  0  0
    4.0628    4.1003    1.8493 S   0  0  0  0  0  0  0  0  0  0  0  0
    7.1453    4.7695    0.7955 C   0  0  0  0  0  0  0  0  0  0  0  0
    7.7593    4.2584   -0.1422 O   0  0  0  0  0  0  0  0  0  0  0  0
    7.4436    4.5185    2.0767 N   0  0  0  0  0  0  0  0  0  0  0  0
    6.8721    4.9505    2.7854 H   0  0  0  0  0  0  0  0  0  0  0  0
    8.5035    3.6099    2.5119 C   0  0  0  0  0  0  0  0  0  0  0  0
    8.1894    2.5765    2.3554 H   0  0  0  0  0  0  0  0  0  0  0  0
    9.4115    3.7897    1.9315 H   0  0  0  0  0  0  0  0  0  0  0  0
    8.7205    3.7630    3.5692 H   0  0  0  0  0  0  0  0  0  0  0  0
  5  6  2  0  0  0  0
  5  7  1  0  0  0  0
  2  3  1  0  0  0  0
  2  4  1  0  0  0  0
  2  5  1  0  0  0  0
  1  2  1  0  0  0  0
 15 16  2  0  0  0  0
 15 17  1  0  0  0  0
 14 36  1  0  0  0  0
 11 12  1  0  0  0  0
 11 13  1  0  0  0  0
 11 14  1  0  0  0  0
  9 10  1  0  0  0  0
  9 11  1  0  0  0  0
  9 15  1  0  0  0  0
  7  8  1  0  0  0  0
  7  9  1  0  0  0  0
 19 20  1  0  0  0  0
 19 21  1  0  0  0  0
 19 22  1  0  0  0  0
 17 18  1  0  0  0  0
 17 19  1  0  0  0  0
 27 28  2  0  0  0  0
 27 29  1  0  0  0  0
 24 25  1  0  0  0  0
 24 26  1  0  0  0  0
 24 27  1  0  0  0  0
 23 24  1  0  0  0  0
 37 38  2  0  0  0  0
 37 39  1  0  0  0  0
 33 34  1  0  0  0  0
 33 35  1  0  0  0  0
 33 36  1  0  0  0  0
 31 32  1  0  0  0  0
 31 33  1  0  0  0  0
 31 37  1  0  0  0  0
 29 30  1  0  0  0  0
 29 31  1  0  0  0  0
 41 42  1  0  0  0  0
 41 43  1  0  0  0  0
 41 44  1  0  0  0  0
 39 40  1  0  0  0  0
 39 41  1  0  0  0  0
M  END
$$$$
default_name
  -OEChem-01062215323D

 44 43  0     1  0  0  0  0  0999 V2000
    2.4488   -3.0448    2.0990 H   0  0  0  0  0  0  0  0  0  0  0  0
    2.2788   -2.0018    2.3640 C   0  0  0  0  0  0  0  0  0  0  0  0
    2.9228   -1.7258    3.1960 H   0  0  0  0  0  0  0  0  0  0  0  0
    1.2358   -1.8618    2.6430 H   0  0  0  0  0  0  0  0  0  0  0  0
    2.6018   -1.1318    1.1730 C   0  0  0  0  0  0  0  0  0  0  0  0
    3.0048   -1.6348    0.1320 O   0  0  0  0  0  0  0  0  0  0  0  0
    2.4088    0.1752    1.3190 N   0  0  0  0  0  0  0  0  0  0  0  0
    2.0708    0.5242    2.2050 H   0  0  0  0  0  0  0  0  0  0  0  0
    2.6638    1.1782    0.2840 C   0  0  1  0  0  0  0  0  0  0  0  0
    2.1436    2.0955    0.5647 H   0  0  0  0  0  0  0  0  0  0  0  0
    4.1703    1.4843    0.2191 C   0  0  0  0  0  0  0  0  0  0  0  0
    4.3647    2.1057   -0.6559 H   0  0  0  0  0  0  0  0  0  0  0  0
    4.6945    0.5440    0.0506 H   0  0  0  0  0  0  0  0  0  0  0  0
    4.9421    2.2668    1.6665 S   0  0  0  0  0  0  0  0  0  0  0  0
    2.1095    0.7220   -1.0787 C   0  0  0  0  0  0  0  0  0  0  0  0
    1.7255    1.5488   -1.9059 O   0  0  0  0  0  0  0  0  0  0  0  0
    2.0745   -0.5964   -1.3142 N   0  0  0  0  0  0  0  0  0  0  0  0
    2.4073   -1.2173   -0.5941 H   0  0  0  0  0  0  0  0  0  0  0  0
    1.5757   -1.1858   -2.5550 C   0  0  0  0  0  0  0  0  0  0  0  0
    0.5192   -0.9392   -2.6798 H   0  0  0  0  0  0  0  0  0  0  0  0
    2.1280   -0.7803   -3.4048 H   0  0  0  0  0  0  0  0  0  0  0  0
    1.6927   -2.2701   -2.5336 H   0  0  0  0  0  0  0  0  0  0  0  0
    5.5783    9.2102   -2.4816 H   0  0  0  0  0  0  0  0  0  0  0  0
    6.0628    8.2409   -2.3738 C   0  0  0  0  0  0  0  0  0  0  0  0
    7.1430    8.3608   -2.4397 H   0  0  0  0  0  0  0  0  0  0  0  0
    5.7170    7.5705   -3.1584 H   0  0  0  0  0  0  0  0  0  0  0  0
    5.7045    7.6608   -1.0257 C   0  0  0  0  0  0  0  0  0  0  0  0
    4.9657    8.2725   -0.2662 O   0  0  0  0  0  0  0  0  0  0  0  0
    6.2249    6.4717   -0.7341 N   0  0  0  0  0  0  0  0  0  0  0  0
    6.8355    6.0291   -1.4054 H   0  0  0  0  0  0  0  0  0  0  0  0
    5.9904    5.7472    0.5151 C   0  0  1  0  0  0  0  0  0  0  0  0
    5.9431    6.4628    1.3379 H   0  0  0  0  0  0  0  0  0  0  0  0
    4.6303    5.0435    0.4087 C   0  0  0  0  0  0  0  0  0  0  0  0
    3.8782    5.8099    0.2157 H   0  0  0  0  0  0  0  0  0  0  0  0
    4.6430    4.3805   -0.4567 H   0  0  0  0  0  0  0  0  0  0  0  0
    4.0628    4.1003    1.8493 S   0  0  0  0  0  0  0  0  0  0  0  0
    7.1453    4.7695    0.7955 C   0  0  0  0  0  0  0  0  0  0  0  0
    7.7593    4.2584   -0.1422 O   0  0  0  0  0  0  0  0  0  0  0  0
    7.4436    4.5185    2.0767 N   0  0  0  0  0  0  0  0  0  0  0  0
    6.8721    4.9505    2.7854 H   0  0  0  0  0  0  0  0  0  0  0  0
    8.5035    3.6099    2.5119 C   0  0  0  0  0  0  0  0  0  0  0  0
    8.1894    2.5765    2.3554 H   0  0  0  0  0  0  0  0  0  0  0  0
    9.4115    3.7897    1.9315 H   0  0  0  0  0  0  0  0  0  0  0  0
    8.7205    3.7630    3.5692 H   0  0  0  0  0  0  0  0  0  0  0  0
  5  6  2  0  0  0  0
  5  7  1  0  0  0  0
  2  3  1  0  0  0  0
  2  4  1  0  0  0  0
  2  5  1  0  0  0  0
  1  2  1  0  0  0  0
 15 16  2  0  0  0  0
 15 17  1  0  0  0  0
 14 36  1  0  0  0  0
 11 12  1  0  0  0  0
 11 13  1  0  0  0  0
 11 14  1  0  0  0  0
  9 10  1  0  0  0  0
  9 11  1  0  0  0  0
  9 15  1  0  0  0  0
  7  8  1  0  0  0  0
  7  9  1  0  0  0  0
 19 20  1  0  0  0  0
 19 21  1  0  0  0  0
 19 22  1  0  0  0  0
 17 18  1  0  0  0  0
 17 19  1  0  0  0  0
 27 28  2  0  0  0  0
 27 29  1  0  0  0  0
 24 25  1  0  0  0  0
 24 26  1  0  0  0  0
 24 27  1  0  0  0  0
 23 24  1  0  0  0  0
 37 38  2  0  0  0  0
 37 39  1  0  0  0  0
 33 34  1  0  0  0  0
 33 35  1  0  0  0  0
 33 36  1  0  0  0  0
 31 32  1  0  0  0  0
 31 33  1  0  0  0  0
 31 37  1  0  0  0  0
 29 30  1  0  0  0  0
 29 31  1  0  0  0  0
 41 42  1  0  0  0  0
 41 43  1  0  0  0  0
 41 44  1  0  0  0  0
 39 40  1  0  0  0  0
 39 41  1  0  0  0  0
M  END
$$$$
default_name
  -OEChem-01062215323D

 44 43  0     1  0  0  0  0  0999 V2000
    2.4488   -3.0448    2.0990 H   0  0  0  0  0  0  0  0  0  0  0  0
    2.2788   -2.0018    2.3640 C   0  0  0  0  0  0  0  0  0  0  0  0
    2.9228   -1.7258    3.1960 H   0  0  0  0  0  0  0  0  0  0  0  0
    1.2358   -1.8618    2.6430 H   0  0  0  0  0  0  0  0  0  0  0  0
    2.6018   -1.1318    1.1730 C   0  0  0  0  0  0  0  0  0  0  0  0
    3.0048   -1.6348    0.1320 O   0  0  0  0  0  0  0  0  0  0  0  0
    2.4088    0.1752    1.3190 N   0  0  0  0  0  0  0  0  0  0  0  0
    2.0708    0.5242    2.2050 H   0  0  0  0  0  0  0  0  0  0  0  0
    2.6638    1.1782    0.2840 C   0  0  1  0  0  0  0  0  0  0  0  0
    2.1436    2.0955    0.5647 H   0  0  0  0  0  0  0  0  0  0  0  0
    4.1703    1.4843    0.2191 C   0  0  0  0  0  0  0  0  0  0  0  0
    4.3647    2.1057   -0.6559 H   0  0  0  0  0  0  0  0  0  0  0  0
    4.6945    0.5440    0.0506 H   0  0  0  0  0  0  0  0  0  0  0  0
    4.9421    2.2668    1.6665 S   0  0  0  0  0  0  0  0  0  0  0  0
    2.1095    0.7220   -1.0787 C   0  0  0  0  0  0  0  0  0  0  0  0
    1.9837    1.5252   -2.0030 O   0  0  0  0  0  0  0  0  0  0  0  0
    1.7844   -0.5716   -1.2045 N   0  0  0  0  0  0  0  0  0  0  0  0
    1.9155   -1.1746   -0.4083 H   0  0  0  0  0  0  0  0  0  0  0  0
    1.2449   -1.1569   -2.4301 C   0  0  0  0  0  0  0  0  0  0  0  0
    0.2853   -0.6926   -2.6672 H   0  0  0  0  0  0  0  0  0  0  0  0
    1.9310   -0.9752   -3.2594 H   0  0  0  0  0  0  0  0  0  0  0  0
    1.1048   -2.2316   -2.3073 H   0  0  0  0  0  0  0  0  0  0  0  0
    5.5783    9.2102   -2.4816 H   0  0  0  0  0  0  0  0  0  0  0  0
    6.0628    8.2409   -2.3738 C   0  0  0  0  0  0  0  0  0  0  0  0
    7.1430    8.3608   -2.4397 H   0  0  0  0  0  0  0  0  0  0  0  0
    5.7170    7.5705   -3.1584 H   0  0  0  0  0  0  0  0  0  0  0  0
    5.7045    7.6608   -1.0257 C   0  0  0  0  0  0  0  0  0  0  0  0
    4.9657    8.2725   -0.2662 O   0  0  0  0  0  0  0  0  0  0  0  0
    6.2249    6.4717   -0.7341 N   0  0  0  0  0  0  0  0  0  0  0  0
    6.8355    6.0291   -1.4054 H   0  0  0  0  0  0  0  0  0  0  0  0
    5.9904    5.7472    0.5151 C   0  0  1  0  0  0  0  0  0  0  0  0
    5.9431    6.4628    1.3379 H   0  0  0  0  0  0  0  0  0  0  0  0
    4.6303    5.0435    0.4087 C   0  0  0  0  0  0  0  0  0  0  0  0
    3.8782    5.8099    0.2157 H   0  0  0  0  0  0  0  0  0  0  0  0
    4.6430    4.3805   -0.4567 H   0  0  0  0  0  0  0  0  0  0  0  0
    4.0628    4.1003    1.8493 S   0  0  0  0  0  0  0  0  0  0  0  0
    7.1453    4.7695    0.7955 C   0  0  0  0  0  0  0  0  0  0  0  0
    7.7593    4.2584   -0.1422 O   0  0  0  0  0  0  0  0  0  0  0  0
    7.4436    4.5185    2.0767 N   0  0  0  0  0  0  0  0  0  0  0  0
    6.8721    4.9505    2.7854 H   0  0  0  0  0  0  0  0  0  0  0  0
    8.5035    3.6099    2.5119 C   0  0  0  0  0  0  0  0  0  0  0  0
    8.1894    2.5765    2.3554 H   0  0  0  0  0  0  0  0  0  0  0  0
    9.4115    3.7897    1.9315 H   0  0  0  0  0  0  0  0  0  0  0  0
    8.7205    3.7630    3.5692 H   0  0  0  0  0  0  0  0  0  0  0  0
  5  6  2  0  0  0  0
  5  7  1  0  0  0  0
  2  3  1  0  0  0  0
  2  4  1  0  0  0  0
  2  5  1  0  0  0  0
  1  2  1  0  0  0  0
 15 16  2  0  0  0  0
 15 17  1  0  0  0  0
 14 36  1  0  0  0  0
 11 12  1  0  0  0  0
 11 13  1  0  0  0  0
 11 14  1  0  0  0  0
  9 10  1  0  0  0  0
  9 11  1  0  0  0  0
  9 15  1  0  0  0  0
  7  8  1  0  0  0  0
  7  9  1  0  0  0  0
 19 20  1  0  0  0  0
 19 21  1  0  0  0  0
 19 22  1  0  0  0  0
 17 18  1  0  0  0  0
 17 19  1  0  0  0  0
 27 28  2  0  0  0  0
 27 29  1  0  0  0  0
 24 25  1  0  0  0  0
 24 26  1  0  0  0  0
 24 27  1  0  0  0  0
 23 24  1  0  0  0  0
 37 38  2  0  0  0  0
 37 39  1  0  0  0  0
 33 34  1  0  0  0  0
 33 35  1  0  0  0  0
 33 36  1  0  0  0  0
 31 32  1  0  0  0  0
 31 33  1  0  0  0  0
 31 37  1  0  0  0  0
 29 30  1  0  0  0  0
 29 31  1  0  0  0  0
 41 42  1  0  0  0  0
 41 43  1  0  0  0  0
 41 44  1  0  0  0  0
 39 40  1  0  0  0  0
 39 41  1  0  0  0  0
M  END
$$$$
default_name
  -OEChem-01062215323D

 44 43  0     1  0  0  0  0  0999 V2000
    2.4488   -3.0448    2.0990 H   0  0  0  0  0  0  0  0  0  0  0  0
    2.2788   -2.0018    2.3640 C   0  0  0  0  0  0  0  0  0  0  0  0
    2.9228   -1.7258    3.1960 H   0  0  0  0  0  0  0  0  0  0  0  0
    1.2358   -1.8618    2.6430 H   0  0  0  0  0  0  0  0  0  0  0  0
    2.6018   -1.1318    1.1730 C   0  0  0  0  0  0  0  0  0  0  0  0
    3.0048   -1.6348    0.1320 O   0  0  0  0  0  0  0  0  0  0  0  0
    2.4088    0.1752    1.3190 N   0  0  0  0  0  0  0  0  0  0  0  0
    2.0708    0.5242    2.2050 H   0  0  0  0  0  0  0  0  0  0  0  0
    2.6638    1.1782    0.2840 C   0  0  1  0  0  0  0  0  0  0  0  0
    2.1436    2.0955    0.5647 H   0  0  0  0  0  0  0  0  0  0  0  0
    4.1703    1.4843    0.2191 C   0  0  0  0  0  0  0  0  0  0  0  0
    4.3647    2.1057   -0.6559 H   0  0  0  0  0  0  0  0  0  0  0  0
    4.6945    0.5440    0.0506 H   0  0  0  0  0  0  0  0  0  0  0  0
    4.9421    2.2668    1.6665 S   0  0  0  0  0  0  0  0  0  0  0  0
    2.1095    0.7220   -1.0787 C   0  0  0  0  0  0  0  0  0  0  0  0
    2.2351    1.4342   -2.0748 O   0  0  0  0  0  0  0  0  0  0  0  0
    1.5014   -0.4709   -1.1230 N   0  0  0  0  0  0  0  0  0  0  0  0
    1.4359   -1.0035   -0.2706 H   0  0  0  0  0  0  0  0  0  0  0  0
    0.9224   -1.0416   -2.3375 C   0  0  0  0  0  0  0  0  0  0  0  0
    0.1149   -0.3996   -2.6960 H   0  0  0  0  0  0  0  0  0  0  0  0
    1.6850   -1.1048   -3.1160 H   0  0  0  0  0  0  0  0  0  0  0  0
    0.5284   -2.0388   -2.1374 H   0  0  0  0  0  0  0  0  0  0  0  0
    5.5783    9.2102   -2.4816 H   0  0  0  0  0  0  0  0  0  0  0  0
    6.0628    8.2409   -2.3738 C   0  0  0  0  0  0  0  0  0  0  0  0
    7.1430    8.3608   -2.4397 H   0  0  0  0  0  0  0  0  0  0  0  0
    5.7170    7.5705   -3.1584 H   0  0  0  0  0  0  0  0  0  0  0  0
    5.7045    7.6608   -1.0257 C   0  0  0  0  0  0  0  0  0  0  0  0
    4.9657    8.2725   -0.2662 O   0  0  0  0  0  0  0  0  0  0  0  0
    6.2249    6.4717   -0.7341 N   0  0  0  0  0  0  0  0  0  0  0  0
    6.8355    6.0291   -1.4054 H   0  0  0  0  0  0  0  0  0  0  0  0
    5.9904    5.7472    0.5151 C   0  0  1  0  0  0  0  0  0  0  0  0
    5.9431    6.4628    1.3379 H   0  0  0  0  0  0  0  0  0  0  0  0
    4.6303    5.0435    0.4087 C   0  0  0  0  0  0  0  0  0  0  0  0
    3.8782    5.8099    0.2157 H   0  0  0  0  0  0  0  0  0  0  0  0
    4.6430    4.3805   -0.4567 H   0  0  0  0  0  0  0  0  0  0  0  0
    4.0628    4.1003    1.8493 S   0  0  0  0  0  0  0  0  0  0  0  0
    7.1453    4.7695    0.7955 C   0  0  0  0  0  0  0  0  0  0  0  0
    7.7593    4.2584   -0.1422 O   0  0  0  0  0  0  0  0  0  0  0  0
    7.4436    4.5185    2.0767 N   0  0  0  0  0  0  0  0  0  0  0  0
    6.8721    4.9505    2.7854 H   0  0  0  0  0  0  0  0  0  0  0  0
    8.5035    3.6099    2.5119 C   0  0  0  0  0  0  0  0  0  0  0  0
    8.1894    2.5765    2.3554 H   0  0  0  0  0  0  0  0  0  0  0  0
    9.4115    3.7897    1.9315 H   0  0  0  0  0  0  0  0  0  0  0  0
    8.7205    3.7630    3.5692 H   0  0  0  0  0  0  0  0  0  0  0  0
  5  6  2  0  0  0  0
  5  7  1  0  0  0  0
  2  3  1  0  0  0  0
  2  4  1  0  0  0  0
  2  5  1  0  0  0  0
  1  2  1  0  0  0  0
 15 16  2  0  0  0  0
 15 17  1  0  0  0  0
 14 36  1  0  0  0  0
 11 12  1  0  0  0  0
 11 13  1  0  0  0  0
 11 14  1  0  0  0  0
  9 10  1  0  0  0  0
  9 11  1  0  0  0  0
  9 15  1  0  0  0  0
  7  8  1  0  0  0  0
  7  9  1  0  0  0  0
 19 20  1  0  0  0  0
 19 21  1  0  0  0  0
 19 22  1  0  0  0  0
 17 18  1  0  0  0  0
 17 19  1  0  0  0  0
 27 28  2  0  0  0  0
 27 29  1  0  0  0  0
 24 25  1  0  0  0  0
 24 26  1  0  0  0  0
 24 27  1  0  0  0  0
 23 24  1  0  0  0  0
 37 38  2  0  0  0  0
 37 39  1  0  0  0  0
 33 34  1  0  0  0  0
 33 35  1  0  0  0  0
 33 36  1  0  0  0  0
 31 32  1  0  0  0  0
 31 33  1  0  0  0  0
 31 37  1  0  0  0  0
 29 30  1  0  0  0  0
 29 31  1  0  0  0  0
 41 42  1  0  0  0  0
 41 43  1  0  0  0  0
 41 44  1  0  0  0  0
 39 40  1  0  0  0  0
 39 41  1  0  0  0  0
M  END
$$$$
default_name
  -OEChem-01062215323D

 44 43  0     1  0  0  0  0  0999 V2000
    2.4488   -3.0448    2.0990 H   0  0  0  0  0  0  0  0  0  0  0  0
    2.2788   -2.0018    2.3640 C   0  0  0  0  0  0  0  0  0  0  0  0
    2.9228   -1.7258    3.1960 H   0  0  0  0  0  0  0  0  0  0  0  0
    1.2358   -1.8618    2.6430 H   0  0  0  0  0  0  0  0  0  0  0  0
    2.6018   -1.1318    1.1730 C   0  0  0  0  0  0  0  0  0  0  0  0
    3.0048   -1.6348    0.1320 O   0  0  0  0  0  0  0  0  0  0  0  0
    2.4088    0.1752    1.3190 N   0  0  0  0  0  0  0  0  0  0  0  0
    2.0708    0.5242    2.2050 H   0  0  0  0  0  0  0  0  0  0  0  0
    2.6638    1.1782    0.2840 C   0  0  1  0  0  0  0  0  0  0  0  0
    2.1436    2.0955    0.5647 H   0  0  0  0  0  0  0  0  0  0  0  0
    4.1703    1.4843    0.2191 C   0  0  0  0  0  0  0  0  0  0  0  0
    4.3647    2.1057   -0.6559 H   0  0  0  0  0  0  0  0  0  0  0  0
    4.6945    0.5440    0.0506 H   0  0  0  0  0  0  0  0  0  0  0  0
    4.9421    2.2668    1.6665 S   0  0  0  0  0  0  0  0  0  0  0  0
    2.1095    0.7220   -1.0787 C   0  0  0  0  0  0  0  0  0  0  0  0
    2.4626    1.2821   -2.1164 O   0  0  0  0  0  0  0  0  0  0  0  0
    1.2448   -0.3013   -1.0755 N   0  0  0  0  0  0  0  0  0  0  0  0
    1.0013   -0.7156   -0.1902 H   0  0  0  0  0  0  0  0  0  0  0  0
    0.6302   -0.8477   -2.2836 C   0  0  0  0  0  0  0  0  0  0  0  0
    0.0196   -0.0804   -2.7641 H   0  0  0  0  0  0  0  0  0  0  0  0
    1.4067   -1.1603   -2.9842 H   0  0  0  0  0  0  0  0  0  0  0  0
    0.0028   -1.7047   -2.0355 H   0  0  0  0  0  0  0  0  0  0  0  0
    5.5783    9.2102   -2.4816 H   0  0  0  0  0  0  0  0  0  0  0  0
    6.0628    8.2409   -2.3738 C   0  0  0  0  0  0  0  0  0  0  0  0
    7.1430    8.3608   -2.4397 H   0  0  0  0  0  0  0  0  0  0  0  0
    5.7170    7.5705   -3.1584 H   0  0  0  0  0  0  0  0  0  0  0  0
    5.7045    7.6608   -1.0257 C   0  0  0  0  0  0  0  0  0  0  0  0
    4.9657    8.2725   -0.2662 O   0  0  0  0  0  0  0  0  0  0  0  0
    6.2249    6.4717   -0.7341 N   0  0  0  0  0  0  0  0  0  0  0  0
    6.8355    6.0291   -1.4054 H   0  0  0  0  0  0  0  0  0  0  0  0
    5.9904    5.7472    0.5151 C   0  0  1  0  0  0  0  0  0  0  0  0
    5.9431    6.4628    1.3379 H   0  0  0  0  0  0  0  0  0  0  0  0
    4.6303    5.0435    0.4087 C   0  0  0  0  0  0  0  0  0  0  0  0
    3.8782    5.8099    0.2157 H   0  0  0  0  0  0  0  0  0  0  0  0
    4.6430    4.3805   -0.4567 H   0  0  0  0  0  0  0  0  0  0  0  0
    4.0628    4.1003    1.8493 S   0  0  0  0  0  0  0  0  0  0  0  0
    7.1453    4.7695    0.7955 C   0  0  0  0  0  0  0  0  0  0  0  0
    7.7593    4.2584   -0.1422 O   0  0  0  0  0  0  0  0  0  0  0  0
    7.4436    4.5185    2.0767 N   0  0  0  0  0  0  0  0  0  0  0  0
    6.8721    4.9505    2.7854 H   0  0  0  0  0  0  0  0  0  0  0  0
    8.5035    3.6099    2.5119 C   0  0  0  0  0  0  0  0  0  0  0  0
    8.1894    2.5765    2.3554 H   0  0  0  0  0  0  0  0  0  0  0  0
    9.4115    3.7897    1.9315 H   0  0  0  0  0  0  0  0  0  0  0  0
    8.7205    3.7630    3.5692 H   0  0  0  0  0  0  0  0  0  0  0  0
  5  6  2  0  0  0  0
  5  7  1  0  0  0  0
  2  3  1  0  0  0  0
  2  4  1  0  0  0  0
  2  5  1  0  0  0  0
  1  2  1  0  0  0  0
 15 16  2  0  0  0  0
 15 17  1  0  0  0  0
 14 36  1  0  0  0  0
 11 12  1  0  0  0  0
 11 13  1  0  0  0  0
 11 14  1  0  0  0  0
  9 10  1  0  0  0  0
  9 11  1  0  0  0  0
  9 15  1  0  0  0  0
  7  8  1  0  0  0  0
  7  9  1  0  0  0  0
 19 20  1  0  0  0  0
 19 21  1  0  0  0  0
 19 22  1  0  0  0  0
 17 18  1  0  0  0  0
 17 19  1  0  0  0  0
 27 28  2  0  0  0  0
 27 29  1  0  0  0  0
 24 25  1  0  0  0  0
 24 26  1  0  0  0  0
 24 27  1  0  0  0  0
 23 24  1  0  0  0  0
 37 38  2  0  0  0  0
 37 39  1  0  0  0  0
 33 34  1  0  0  0  0
 33 35  1  0  0  0  0
 33 36  1  0  0  0  0
 31 32  1  0  0  0  0
 31 33  1  0  0  0  0
 31 37  1  0  0  0  0
 29 30  1  0  0  0  0
 29 31  1  0  0  0  0
 41 42  1  0  0  0  0
 41 43  1  0  0  0  0
 41 44  1  0  0  0  0
 39 40  1  0  0  0  0
 39 41  1  0  0  0  0
M  END
$$$$
default_name
  -OEChem-01062215323D

 44 43  0     1  0  0  0  0  0999 V2000
    2.4488   -3.0448    2.0990 H   0  0  0  0  0  0  0  0  0  0  0  0
    2.2788   -2.0018    2.3640 C   0  0  0  0  0  0  0  0  0  0  0  0
    2.9228   -1.7258    3.1960 H   0  0  0  0  0  0  0  0  0  0  0  0
    1.2358   -1.8618    2.6430 H   0  0  0  0  0  0  0  0  0  0  0  0
    2.6018   -1.1318    1.1730 C   0  0  0  0  0  0  0  0  0  0  0  0
    3.0048   -1.6348    0.1320 O   0  0  0  0  0  0  0  0  0  0  0  0
    2.4088    0.1752    1.3190 N   0  0  0  0  0  0  0  0  0  0  0  0
    2.0708    0.5242    2.2050 H   0  0  0  0  0  0  0  0  0  0  0  0
    2.6638    1.1782    0.2840 C   0  0  1  0  0  0  0  0  0  0  0  0
    2.1436    2.0955    0.5647 H   0  0  0  0  0  0  0  0  0  0  0  0
    4.1703    1.4843    0.2191 C   0  0  0  0  0  0  0  0  0  0  0  0
    4.3647    2.1057   -0.6559 H   0  0  0  0  0  0  0  0  0  0  0  0
    4.6945    0.5440    0.0506 H   0  0  0  0  0  0  0  0  0  0  0  0
    4.9421    2.2668    1.6665 S   0  0  0  0  0  0  0  0  0  0  0  0
    2.1095    0.7220   -1.0787 C   0  0  0  0  0  0  0  0  0  0  0  0
    2.6507    1.0792   -2.1250 O   0  0  0  0  0  0  0  0  0  0  0  0
    1.0322   -0.0743   -1.0650 N   0  0  0  0  0  0  0  0  0  0  0  0
    0.6413   -0.3305   -0.1727 H   0  0  0  0  0  0  0  0  0  0  0  0
    0.3883   -0.5886   -2.2719 C   0  0  0  0  0  0  0  0  0  0  0  0
    0.0059    0.2435   -2.8669 H   0  0  0  0  0  0  0  0  0  0  0  0
    1.1151   -1.1379   -2.8731 H   0  0  0  0  0  0  0  0  0  0  0  0
   -0.4363   -1.2522   -2.0084 H   0  0  0  0  0  0  0  0  0  0  0  0
    5.5783    9.2102   -2.4816 H   0  0  0  0  0  0  0  0  0  0  0  0
    6.0628    8.2409   -2.3738 C   0  0  0  0  0  0  0  0  0  0  0  0
    7.1430    8.3608   -2.4397 H   0  0  0  0  0  0  0  0  0  0  0  0
    5.7170    7.5705   -3.1584 H   0  0  0  0  0  0  0  0  0  0  0  0
    5.7045    7.6608   -1.0257 C   0  0  0  0  0  0  0  0  0  0  0  0
    4.9657    8.2725   -0.2662 O   0  0  0  0  0  0  0  0  0  0  0  0
    6.2249    6.4717   -0.7341 N   0  0  0  0  0  0  0  0  0  0  0  0
    6.8355    6.0291   -1.4054 H   0  0  0  0  0  0  0  0  0  0  0  0
    5.9904    5.7472    0.5151 C   0  0  1  0  0  0  0  0  0  0  0  0
    5.9431    6.4628    1.3379 H   0  0  0  0  0  0  0  0  0  0  0  0
    4.6303    5.0435    0.4087 C   0  0  0  0  0  0  0  0  0  0  0  0
    3.8782    5.8099    0.2157 H   0  0  0  0  0  0  0  0  0  0  0  0
    4.6430    4.3805   -0.4567 H   0  0  0  0  0  0  0  0  0  0  0  0
    4.0628    4.1003    1.8493 S   0  0  0  0  0  0  0  0  0  0  0  0
    7.1453    4.7695    0.7955 C   0  0  0  0  0  0  0  0  0  0  0  0
    7.7593    4.2584   -0.1422 O   0  0  0  0  0  0  0  0  0  0  0  0
    7.4436    4.5185    2.0767 N   0  0  0  0  0  0  0  0  0  0  0  0
    6.8721    4.9505    2.7854 H   0  0  0  0  0  0  0  0  0  0  0  0
    8.5035    3.6099    2.5119 C   0  0  0  0  0  0  0  0  0  0  0  0
    8.1894    2.5765    2.3554 H   0  0  0  0  0  0  0  0  0  0  0  0
    9.4115    3.7897    1.9315 H   0  0  0  0  0  0  0  0  0  0  0  0
    8.7205    3.7630    3.5692 H   0  0  0  0  0  0  0  0  0  0  0  0
  5  6  2  0  0  0  0
  5  7  1  0  0  0  0
  2  3  1  0  0  0  0
  2  4  1  0  0  0  0
  2  5  1  0  0  0  0
  1  2  1  0  0  0  0
 15 16  2  0  0  0  0
 15 17  1  0  0  0  0
 14 36  1  0  0  0  0
 11 12  1  0  0  0  0
 11 13  1  0  0  0  0
 11 14  1  0  0  0  0
  9 10  1  0  0  0  0
  9 11  1  0  0  0  0
  9 15  1  0  0  0  0
  7  8  1  0  0  0  0
  7  9  1  0  0  0  0
 19 20  1  0  0  0  0
 19 21  1  0  0  0  0
 19 22  1  0  0  0  0
 17 18  1  0  0  0  0
 17 19  1  0  0  0  0
 27 28  2  0  0  0  0
 27 29  1  0  0  0  0
 24 25  1  0  0  0  0
 24 26  1  0  0  0  0
 24 27  1  0  0  0  0
 23 24  1  0  0  0  0
 37 38  2  0  0  0  0
 37 39  1  0  0  0  0
 33 34  1  0  0  0  0
 33 35  1  0  0  0  0
 33 36  1  0  0  0  0
 31 32  1  0  0  0  0
 31 33  1  0  0  0  0
 31 37  1  0  0  0  0
 29 30  1  0  0  0  0
 29 31  1  0  0  0  0
 41 42  1  0  0  0  0
 41 43  1  0  0  0  0
 41 44  1  0  0  0  0
 39 40  1  0  0  0  0
 39 41  1  0  0  0  0
M  END
$$$$
default_name
  -OEChem-01062215323D

 44 43  0     1  0  0  0  0  0999 V2000
    2.4488   -3.0448    2.0990 H   0  0  0  0  0  0  0  0  0  0  0  0
    2.2788   -2.0018    2.3640 C   0  0  0  0  0  0  0  0  0  0  0  0
    2.9228   -1.7258    3.1960 H   0  0  0  0  0  0  0  0  0  0  0  0
    1.2358   -1.8618    2.6430 H   0  0  0  0  0  0  0  0  0  0  0  0
    2.6018   -1.1318    1.1730 C   0  0  0  0  0  0  0  0  0  0  0  0
    3.0048   -1.6348    0.1320 O   0  0  0  0  0  0  0  0  0  0  0  0
    2.4088    0.1752    1.3190 N   0  0  0  0  0  0  0  0  0  0  0  0
    2.0708    0.5242    2.2050 H   0  0  0  0  0  0  0  0  0  0  0  0
    2.6638    1.1782    0.2840 C   0  0  1  0  0  0  0  0  0  0  0  0
    2.1436    2.0955    0.5647 H   0  0  0  0  0  0  0  0  0  0  0  0
    4.1703    1.4843    0.2191 C   0  0  0  0  0  0  0  0  0  0  0  0
    4.3647    2.1057   -0.6559 H   0  0  0  0  0  0  0  0  0  0  0  0
    4.6945    0.5440    0.0506 H   0  0  0  0  0  0  0  0  0  0  0  0
    4.9421    2.2668    1.6665 S   0  0  0  0  0  0  0  0  0  0  0  0
    2.1095    0.7220   -1.0787 C   0  0  0  0  0  0  0  0  0  0  0  0
    2.7866    0.8394   -2.1000 O   0  0  0  0  0  0  0  0  0  0  0  0
    0.8780    0.1946   -1.0923 N   0  0  0  0  0  0  0  0  0  0  0  0
    0.3804    0.1256   -0.2192 H   0  0  0  0  0  0  0  0  0  0  0  0
    0.2130   -0.2817   -2.3033 C   0  0  0  0  0  0  0  0  0  0  0  0
    0.0747    0.5499   -2.9975 H   0  0  0  0  0  0  0  0  0  0  0  0
    0.8300   -1.0391   -2.7902 H   0  0  0  0  0  0  0  0  0  0  0  0
   -0.7588   -0.7120   -2.0580 H   0  0  0  0  0  0  0  0  0  0  0  0
    5.5783    9.2102   -2.4816 H   0  0  0  0  0  0  0  0  0  0  0  0
    6.0628    8.2409   -2.3738 C   0  0  0  0  0  0  0  0  0  0  0  0
    7.1430    8.3608   -2.4397 H   0  0  0  0  0  0  0  0  0  0  0  0
    5.7170    7.5705   -3.1584 H   0  0  0  0  0  0  0  0  0  0  0  0
    5.7045    7.6608   -1.0257 C   0  0  0  0  0  0  0  0  0  0  0  0
    4.9657    8.2725   -0.2662 O   0  0  0  0  0  0  0  0  0  0  0  0
    6.2249    6.4717   -0.7341 N   0  0  0  0  0  0  0  0  0  0  0  0
    6.8355    6.0291   -1.4054 H   0  0  0  0  0  0  0  0  0  0  0  0
    5.9904    5.7472    0.5151 C   0  0  1  0  0  0  0  0  0  0  0  0
    5.9431    6.4628    1.3379 H   0  0  0  0  0  0  0  0  0  0  0  0
    4.6303    5.0435    0.4087 C   0  0  0  0  0  0  0  0  0  0  0  0
    3.8782    5.8099    0.2157 H   0  0  0  0  0  0  0  0  0  0  0  0
    4.6430    4.3805   -0.4567 H   0  0  0  0  0  0  0  0  0  0  0  0
    4.0628    4.1003    1.8493 S   0  0  0  0  0  0  0  0  0  0  0  0
    7.1453    4.7695    0.7955 C   0  0  0  0  0  0  0  0  0  0  0  0
    7.7593    4.2584   -0.1422 O   0  0  0  0  0  0  0  0  0  0  0  0
    7.4436    4.5185    2.0767 N   0  0  0  0  0  0  0  0  0  0  0  0
    6.8721    4.9505    2.7854 H   0  0  0  0  0  0  0  0  0  0  0  0
    8.5035    3.6099    2.5119 C   0  0  0  0  0  0  0  0  0  0  0  0
    8.1894    2.5765    2.3554 H   0  0  0  0  0  0  0  0  0  0  0  0
    9.4115    3.7897    1.9315 H   0  0  0  0  0  0  0  0  0  0  0  0
    8.7205    3.7630    3.5692 H   0  0  0  0  0  0  0  0  0  0  0  0
  5  6  2  0  0  0  0
  5  7  1  0  0  0  0
  2  3  1  0  0  0  0
  2  4  1  0  0  0  0
  2  5  1  0  0  0  0
  1  2  1  0  0  0  0
 15 16  2  0  0  0  0
 15 17  1  0  0  0  0
 14 36  1  0  0  0  0
 11 12  1  0  0  0  0
 11 13  1  0  0  0  0
 11 14  1  0  0  0  0
  9 10  1  0  0  0  0
  9 11  1  0  0  0  0
  9 15  1  0  0  0  0
  7  8  1  0  0  0  0
  7  9  1  0  0  0  0
 19 20  1  0  0  0  0
 19 21  1  0  0  0  0
 19 22  1  0  0  0  0
 17 18  1  0  0  0  0
 17 19  1  0  0  0  0
 27 28  2  0  0  0  0
 27 29  1  0  0  0  0
 24 25  1  0  0  0  0
 24 26  1  0  0  0  0
 24 27  1  0  0  0  0
 23 24  1  0  0  0  0
 37 38  2  0  0  0  0
 37 39  1  0  0  0  0
 33 34  1  0  0  0  0
 33 35  1  0  0  0  0
 33 36  1  0  0  0  0
 31 32  1  0  0  0  0
 31 33  1  0  0  0  0
 31 37  1  0  0  0  0
 29 30  1  0  0  0  0
 29 31  1  0  0  0  0
 41 42  1  0  0  0  0
 41 43  1  0  0  0  0
 41 44  1  0  0  0  0
 39 40  1  0  0  0  0
 39 41  1  0  0  0  0
M  END
$$$$
default_name
  -OEChem-01062215323D

 44 43  0     1  0  0  0  0  0999 V2000
    2.4488   -3.0448    2.0990 H   0  0  0  0  0  0  0  0  0  0  0  0
    2.2788   -2.0018    2.3640 C   0  0  0  0  0  0  0  0  0  0  0  0
    2.9228   -1.7258    3.1960 H   0  0  0  0  0  0  0  0  0  0  0  0
    1.2358   -1.8618    2.6430 H   0  0  0  0  0  0  0  0  0  0  0  0
    2.6018   -1.1318    1.1730 C   0  0  0  0  0  0  0  0  0  0  0  0
    3.0048   -1.6348    0.1320 O   0  0  0  0  0  0  0  0  0  0  0  0
    2.4088    0.1752    1.3190 N   0  0  0  0  0  0  0  0  0  0  0  0
    2.0708    0.5242    2.2050 H   0  0  0  0  0  0  0  0  0  0  0  0
    2.6638    1.1782    0.2840 C   0  0  1  0  0  0  0  0  0  0  0  0
    2.1436    2.0955    0.5647 H   0  0  0  0  0  0  0  0  0  0  0  0
    4.1703    1.4843    0.2191 C   0  0  0  0  0  0  0  0  0  0  0  0
    4.3647    2.1057   -0.6559 H   0  0  0  0  0  0  0  0  0  0  0  0
    4.6945    0.5440    0.0506 H   0  0  0  0  0  0  0  0  0  0  0  0
    4.9421    2.2668    1.6665 S   0  0  0  0  0  0  0  0  0  0  0  0
    2.1095    0.7220   -1.0787 C   0  0  0  0  0  0  0  0  0  0  0  0
    2.8610    0.5789   -2.0431 O   0  0  0  0  0  0  0  0  0  0  0  0
    0.7928    0.4872   -1.1556 N   0  0  0  0  0  0  0  0  0  0  0  0
    0.2364    0.6215   -0.3267 H   0  0  0  0  0  0  0  0  0  0  0  0
    0.1163    0.0519   -2.3757 C   0  0  0  0  0  0  0  0  0  0  0  0
    0.2213    0.8180   -3.1469 H   0  0  0  0  0  0  0  0  0  0  0  0
    0.5709   -0.8708   -2.7412 H   0  0  0  0  0  0  0  0  0  0  0  0
   -0.9429   -0.1210   -2.1810 H   0  0  0  0  0  0  0  0  0  0  0  0
    5.5783    9.2102   -2.4816 H   0  0  0  0  0  0  0  0  0  0  0  0
    6.0628    8.2409   -2.3738 C   0  0  0  0  0  0  0  0  0  0  0  0
    7.1430    8.3608   -2.4397 H   0  0  0  0  0  0  0  0  0  0  0  0
    5.7170    7.5705   -3.1584 H   0  0  0  0  0  0  0  0  0  0  0  0
    5.7045    7.6608   -1.0257 C   0  0  0  0  0  0  0  0  0  0  0  0
    4.9657    8.2725   -0.2662 O   0  0  0  0  0  0  0  0  0  0  0  0
    6.2249    6.4717   -0.7341 N   0  0  0  0  0  0  0  0  0  0  0  0
    6.8355    6.0291   -1.4054 H   0  0  0  0  0  0  0  0  0  0  0  0
    5.9904    5.7472    0.5151 C   0  0  1  0  0  0  0  0  0  0  0  0
    5.9431    6.4628    1.3379 H   0  0  0  0  0  0  0  0  0  0  0  0
    4.6303    5.0435    0.4087 C   0  0  0  0  0  0  0  0  0  0  0  0
    3.8782    5.8099    0.2157 H   0  0  0  0  0  0  0  0  0  0  0  0
    4.6430    4.3805   -0.4567 H   0  0  0  0  0  0  0  0  0  0  0  0
    4.0628    4.1003    1.8493 S   0  0  0  0  0  0  0  0  0  0  0  0
    7.1453    4.7695    0.7955 C   0  0  0  0  0  0  0  0  0  0  0  0
    7.7593    4.2584   -0.1422 O   0  0  0  0  0  0  0  0  0  0  0  0
    7.4436    4.5185    2.0767 N   0  0  0  0  0  0  0  0  0  0  0  0
    6.8721    4.9505    2.7854 H   0  0  0  0  0  0  0  0  0  0  0  0
    8.5035    3.6099    2.5119 C   0  0  0  0  0  0  0  0  0  0  0  0
    8.1894    2.5765    2.3554 H   0  0  0  0  0  0  0  0  0  0  0  0
    9.4115    3.7897    1.9315 H   0  0  0  0  0  0  0  0  0  0  0  0
    8.7205    3.7630    3.5692 H   0  0  0  0  0  0  0  0  0  0  0  0
  5  6  2  0  0  0  0
  5  7  1  0  0  0  0
  2  3  1  0  0  0  0
  2  4  1  0  0  0  0
  2  5  1  0  0  0  0
  1  2  1  0  0  0  0
 15 16  2  0  0  0  0
 15 17  1  0  0  0  0
 14 36  1  0  0  0  0
 11 12  1  0  0  0  0
 11 13  1  0  0  0  0
 11 14  1  0  0  0  0
  9 10  1  0  0  0  0
  9 11  1  0  0  0  0
  9 15  1  0  0  0  0
  7  8  1  0  0  0  0
  7  9  1  0  0  0  0
 19 20  1  0  0  0  0
 19 21  1  0  0  0  0
 19 22  1  0  0  0  0
 17 18  1  0  0  0  0
 17 19  1  0  0  0  0
 27 28  2  0  0  0  0
 27 29  1  0  0  0  0
 24 25  1  0  0  0  0
 24 26  1  0  0  0  0
 24 27  1  0  0  0  0
 23 24  1  0  0  0  0
 37 38  2  0  0  0  0
 37 39  1  0  0  0  0
 33 34  1  0  0  0  0
 33 35  1  0  0  0  0
 33 36  1  0  0  0  0
 31 32  1  0  0  0  0
 31 33  1  0  0  0  0
 31 37  1  0  0  0  0
 29 30  1  0  0  0  0
 29 31  1  0  0  0  0
 41 42  1  0  0  0  0
 41 43  1  0  0  0  0
 41 44  1  0  0  0  0
 39 40  1  0  0  0  0
 39 41  1  0  0  0  0
M  END
$$$$
default_name
  -OEChem-01062215323D

 44 43  0     1  0  0  0  0  0999 V2000
    2.4488   -3.0448    2.0990 H   0  0  0  0  0  0  0  0  0  0  0  0
    2.2788   -2.0018    2.3640 C   0  0  0  0  0  0  0  0  0  0  0  0
    2.9228   -1.7258    3.1960 H   0  0  0  0  0  0  0  0  0  0  0  0
    1.2358   -1.8618    2.6430 H   0  0  0  0  0  0  0  0  0  0  0  0
    2.6018   -1.1318    1.1730 C   0  0  0  0  0  0  0  0  0  0  0  0
    3.0048   -1.6348    0.1320 O   0  0  0  0  0  0  0  0  0  0  0  0
    2.4088    0.1752    1.3190 N   0  0  0  0  0  0  0  0  0  0  0  0
    2.0708    0.5242    2.2050 H   0  0  0  0  0  0  0  0  0  0  0  0
    2.6638    1.1782    0.2840 C   0  0  1  0  0  0  0  0  0  0  0  0
    2.1436    2.0955    0.5647 H   0  0  0  0  0  0  0  0  0  0  0  0
    4.1703    1.4843    0.2191 C   0  0  0  0  0  0  0  0  0  0  0  0
    4.3647    2.1057   -0.6559 H   0  0  0  0  0  0  0  0  0  0  0  0
    4.6945    0.5440    0.0506 H   0  0  0  0  0  0  0  0  0  0  0  0
    4.9421    2.2668    1.6665 S   0  0  0  0  0  0  0  0  0  0  0  0
    2.1095    0.7220   -1.0787 C   0  0  0  0  0  0  0  0  0  0  0  0
    2.8689    0.3156   -1.9581 O   0  0  0  0  0  0  0  0  0  0  0  0
    0.7823    0.7833   -1.2504 N   0  0  0  0  0  0  0  0  0  0  0  0
    0.2191    1.1235   -0.4877 H   0  0  0  0  0  0  0  0  0  0  0  0
    0.1049    0.3895   -2.4841 C   0  0  0  0  0  0  0  0  0  0  0  0
    0.4357    1.0295   -3.3049 H   0  0  0  0  0  0  0  0  0  0  0  0
    0.3555   -0.6442   -2.7294 H   0  0  0  0  0  0  0  0  0  0  0  0
   -0.9759    0.4806   -2.3690 H   0  0  0  0  0  0  0  0  0  0  0  0
    5.5783    9.2102   -2.4816 H   0  0  0  0  0  0  0  0  0  0  0  0
    6.0628    8.2409   -2.3738 C   0  0  0  0  0  0  0  0  0  0  0  0
    7.1430    8.3608   -2.4397 H   0  0  0  0  0  0  0  0  0  0  0  0
    5.7170    7.5705   -3.1584 H   0  0  0  0  0  0  0  0  0  0  0  0
    5.7045    7.6608   -1.0257 C   0  0  0  0  0  0  0  0  0  0  0  0
    4.9657    8.2725   -0.2662 O   0  0  0  0  0  0  0  0  0  0  0  0
    6.2249    6.4717   -0.7341 N   0  0  0  0  0  0  0  0  0  0  0  0
    6.8355    6.0291   -1.4054 H   0  0  0  0  0  0  0  0  0  0  0  0
    5.9904    5.7472    0.5151 C   0  0  1  0  0  0  0  0  0  0  0  0
    5.9431    6.4628    1.3379 H   0  0  0  0  0  0  0  0  0  0  0  0
    4.6303    5.0435    0.4087 C   0  0  0  0  0  0  0  0  0  0  0  0
    3.8782    5.8099    0.2157 H   0  0  0  0  0  0  0  0  0  0  0  0
    4.6430    4.3805   -0.4567 H   0  0  0  0  0  0  0  0  0  0  0  0
    4.0628    4.1003    1.8493 S   0  0  0  0  0  0  0  0  0  0  0  0
    7.1453    4.7695    0.7955 C   0  0  0  0  0  0  0  0  0  0  0  0
    7.7593    4.2584   -0.1422 O   0  0  0  0  0  0  0  0  0  0  0  0
    7.4436    4.5185    2.0767 N   0  0  0  0  0  0  0  0  0  0  0  0
    6.8721    4.9505    2.7854 H   0  0  0  0  0  0  0  0  0  0  0  0
    8.5035    3.6099    2.5119 C   0  0  0  0  0  0  0  0  0  0  0  0
    8.1894    2.5765    2.3554 H   0  0  0  0  0  0  0  0  0  0  0  0
    9.4115    3.7897    1.9315 H   0  0  0  0  0  0  0  0  0  0  0  0
    8.7205    3.7630    3.5692 H   0  0  0  0  0  0  0  0  0  0  0  0
  5  6  2  0  0  0  0
  5  7  1  0  0  0  0
  2  3  1  0  0  0  0
  2  4  1  0  0  0  0
  2  5  1  0  0  0  0
  1  2  1  0  0  0  0
 15 16  2  0  0  0  0
 15 17  1  0  0  0  0
 14 36  1  0  0  0  0
 11 12  1  0  0  0  0
 11 13  1  0  0  0  0
 11 14  1  0  0  0  0
  9 10  1  0  0  0  0
  9 11  1  0  0  0  0
  9 15  1  0  0  0  0
  7  8  1  0  0  0  0
  7  9  1  0  0  0  0
 19 20  1  0  0  0  0
 19 21  1  0  0  0  0
 19 22  1  0  0  0  0
 17 18  1  0  0  0  0
 17 19  1  0  0  0  0
 27 28  2  0  0  0  0
 27 29  1  0  0  0  0
 24 25  1  0  0  0  0
 24 26  1  0  0  0  0
 24 27  1  0  0  0  0
 23 24  1  0  0  0  0
 37 38  2  0  0  0  0
 37 39  1  0  0  0  0
 33 34  1  0  0  0  0
 33 35  1  0  0  0  0
 33 36  1  0  0  0  0
 31 32  1  0  0  0  0
 31 33  1  0  0  0  0
 31 37  1  0  0  0  0
 29 30  1  0  0  0  0
 29 31  1  0  0  0  0
 41 42  1  0  0  0  0
 41 43  1  0  0  0  0
 41 44  1  0  0  0  0
 39 40  1  0  0  0  0
 39 41  1  0  0  0  0
M  END
$$$$
default_name
  -OEChem-01062215323D

 44 43  0     1  0  0  0  0  0999 V2000
    2.4488   -3.0448    2.0990 H   0  0  0  0  0  0  0  0  0  0  0  0
    2.2788   -2.0018    2.3640 C   0  0  0  0  0  0  0  0  0  0  0  0
    2.9228   -1.7258    3.1960 H   0  0  0  0  0  0  0  0  0  0  0  0
    1.2358   -1.8618    2.6430 H   0  0  0  0  0  0  0  0  0  0  0  0
    2.6018   -1.1318    1.1730 C   0  0  0  0  0  0  0  0  0  0  0  0
    3.0048   -1.6348    0.1320 O   0  0  0  0  0  0  0  0  0  0  0  0
    2.4088    0.1752    1.3190 N   0  0  0  0  0  0  0  0  0  0  0  0
    2.0708    0.5242    2.2050 H   0  0  0  0  0  0  0  0  0  0  0  0
    2.6638    1.1782    0.2840 C   0  0  1  0  0  0  0  0  0  0  0  0
    2.1436    2.0955    0.5647 H   0  0  0  0  0  0  0  0  0  0  0  0
    4.1703    1.4843    0.2191 C   0  0  0  0  0  0  0  0  0  0  0  0
    4.3647    2.1057   -0.6559 H   0  0  0  0  0  0  0  0  0  0  0  0
    4.6945    0.5440    0.0506 H   0  0  0  0  0  0  0  0  0  0  0  0
    4.9421    2.2668    1.6665 S   0  0  0  0  0  0  0  0  0  0  0  0
    2.1095    0.7220   -1.0787 C   0  0  0  0  0  0  0  0  0  0  0  0
    2.8097    0.0673   -1.8509 O   0  0  0  0  0  0  0  0  0  0  0  0
    0.8472    1.0630   -1.3705 N   0  0  0  0  0  0  0  0  0  0  0  0
    0.3297    1.5974   -0.6913 H   0  0  0  0  0  0  0  0  0  0  0  0
    0.1795    0.7081   -2.6211 C   0  0  0  0  0  0  0  0  0  0  0  0
    0.7034    1.1699   -3.4608 H   0  0  0  0  0  0  0  0  0  0  0  0
    0.1983   -0.3749   -2.7556 H   0  0  0  0  0  0  0  0  0  0  0  0
   -0.8556    1.0517   -2.6091 H   0  0  0  0  0  0  0  0  0  0  0  0
    5.5783    9.2102   -2.4816 H   0  0  0  0  0  0  0  0  0  0  0  0
    6.0628    8.2409   -2.3738 C   0  0  0  0  0  0  0  0  0  0  0  0
    7.1430    8.3608   -2.4397 H   0  0  0  0  0  0  0  0  0  0  0  0
    5.7170    7.5705   -3.1584 H   0  0  0  0  0  0  0  0  0  0  0  0
    5.7045    7.6608   -1.0257 C   0  0  0  0  0  0  0  0  0  0  0  0
    4.9657    8.2725   -0.2662 O   0  0  0  0  0  0  0  0  0  0  0  0
    6.2249    6.4717   -0.7341 N   0  0  0  0  0  0  0  0  0  0  0  0
    6.8355    6.0291   -1.4054 H   0  0  0  0  0  0  0  0  0  0  0  0
    5.9904    5.7472    0.5151 C   0  0  1  0  0  0  0  0  0  0  0  0
    5.9431    6.4628    1.3379 H   0  0  0  0  0  0  0  0  0  0  0  0
    4.6303    5.0435    0.4087 C   0  0  0  0  0  0  0  0  0  0  0  0
    3.8782    5.8099    0.2157 H   0  0  0  0  0  0  0  0  0  0  0  0
    4.6430    4.3805   -0.4567 H   0  0  0  0  0  0  0  0  0  0  0  0
    4.0628    4.1003    1.8493 S   0  0  0  0  0  0  0  0  0  0  0  0
    7.1453    4.7695    0.7955 C   0  0  0  0  0  0  0  0  0  0  0  0
    7.7593    4.2584   -0.1422 O   0  0  0  0  0  0  0  0  0  0  0  0
    7.4436    4.5185    2.0767 N   0  0  0  0  0  0  0  0  0  0  0  0
    6.8721    4.9505    2.7854 H   0  0  0  0  0  0  0  0  0  0  0  0
    8.5035    3.6099    2.5119 C   0  0  0  0  0  0  0  0  0  0  0  0
    8.1894    2.5765    2.3554 H   0  0  0  0  0  0  0  0  0  0  0  0
    9.4115    3.7897    1.9315 H   0  0  0  0  0  0  0  0  0  0  0  0
    8.7205    3.7630    3.5692 H   0  0  0  0  0  0  0  0  0  0  0  0
  5  6  2  0  0  0  0
  5  7  1  0  0  0  0
  2  3  1  0  0  0  0
  2  4  1  0  0  0  0
  2  5  1  0  0  0  0
  1  2  1  0  0  0  0
 15 16  2  0  0  0  0
 15 17  1  0  0  0  0
 14 36  1  0  0  0  0
 11 12  1  0  0  0  0
 11 13  1  0  0  0  0
 11 14  1  0  0  0  0
  9 10  1  0  0  0  0
  9 11  1  0  0  0  0
  9 15  1  0  0  0  0
  7  8  1  0  0  0  0
  7  9  1  0  0  0  0
 19 20  1  0  0  0  0
 19 21  1  0  0  0  0
 19 22  1  0  0  0  0
 17 18  1  0  0  0  0
 17 19  1  0  0  0  0
 27 28  2  0  0  0  0
 27 29  1  0  0  0  0
 24 25  1  0  0  0  0
 24 26  1  0  0  0  0
 24 27  1  0  0  0  0
 23 24  1  0  0  0  0
 37 38  2  0  0  0  0
 37 39  1  0  0  0  0
 33 34  1  0  0  0  0
 33 35  1  0  0  0  0
 33 36  1  0  0  0  0
 31 32  1  0  0  0  0
 31 33  1  0  0  0  0
 31 37  1  0  0  0  0
 29 30  1  0  0  0  0
 29 31  1  0  0  0  0
 41 42  1  0  0  0  0
 41 43  1  0  0  0  0
 41 44  1  0  0  0  0
 39 40  1  0  0  0  0
 39 41  1  0  0  0  0
M  END
$$$$
default_name
  -OEChem-01062215323D

 44 43  0     1  0  0  0  0  0999 V2000
    2.4488   -3.0448    2.0990 H   0  0  0  0  0  0  0  0  0  0  0  0
    2.2788   -2.0018    2.3640 C   0  0  0  0  0  0  0  0  0  0  0  0
    2.9228   -1.7258    3.1960 H   0  0  0  0  0  0  0  0  0  0  0  0
    1.2358   -1.8618    2.6430 H   0  0  0  0  0  0  0  0  0  0  0  0
    2.6018   -1.1318    1.1730 C   0  0  0  0  0  0  0  0  0  0  0  0
    3.0048   -1.6348    0.1320 O   0  0  0  0  0  0  0  0  0  0  0  0
    2.4088    0.1752    1.3190 N   0  0  0  0  0  0  0  0  0  0  0  0
    2.0708    0.5242    2.2050 H   0  0  0  0  0  0  0  0  0  0  0  0
    2.6638    1.1782    0.2840 C   0  0  1  0  0  0  0  0  0  0  0  0
    2.1436    2.0955    0.5647 H   0  0  0  0  0  0  0  0  0  0  0  0
    4.1703    1.4843    0.2191 C   0  0  0  0  0  0  0  0  0  0  0  0
    4.3647    2.1057   -0.6559 H   0  0  0  0  0  0  0  0  0  0  0  0
    4.6945    0.5440    0.0506 H   0  0  0  0  0  0  0  0  0  0  0  0
    4.9421    2.2668    1.6665 S   0  0  0  0  0  0  0  0  0  0  0  0
    2.1095    0.7220   -1.0787 C   0  0  0  0  0  0  0  0  0  0  0  0
    2.6875   -0.1489   -1.7288 O   0  0  0  0  0  0  0  0  0  0  0  0
    0.9832    1.3071   -1.5075 N   0  0  0  0  0  0  0  0  0  0  0  0
    0.5606    2.0108   -0.9237 H   0  0  0  0  0  0  0  0  0  0  0  0
    0.3351    0.9861   -2.7774 C   0  0  0  0  0  0  0  0  0  0  0  0
    1.0060    1.2297   -3.6039 H   0  0  0  0  0  0  0  0  0  0  0  0
    0.1102   -0.0813   -2.8180 H   0  0  0  0  0  0  0  0  0  0  0  0
   -0.5903    1.5535   -2.8850 H   0  0  0  0  0  0  0  0  0  0  0  0
    5.5783    9.2102   -2.4816 H   0  0  0  0  0  0  0  0  0  0  0  0
    6.0628    8.2409   -2.3738 C   0  0  0  0  0  0  0  0  0  0  0  0
    7.1430    8.3608   -2.4397 H   0  0  0  0  0  0  0  0  0  0  0  0
    5.7170    7.5705   -3.1584 H   0  0  0  0  0  0  0  0  0  0  0  0
    5.7045    7.6608   -1.0257 C   0  0  0  0  0  0  0  0  0  0  0  0
    4.9657    8.2725   -0.2662 O   0  0  0  0  0  0  0  0  0  0  0  0
    6.2249    6.4717   -0.7341 N   0  0  0  0  0  0  0  0  0  0  0  0
    6.8355    6.0291   -1.4054 H   0  0  0  0  0  0  0  0  0  0  0  0
    5.9904    5.7472    0.5151 C   0  0  1  0  0  0  0  0  0  0  0  0
    5.9431    6.4628    1.3379 H   0  0  0  0  0  0  0  0  0  0  0  0
    4.6303    5.0435    0.4087 C   0  0  0  0  0  0  0  0  0  0  0  0
    3.8782    5.8099    0.2157 H   0  0  0  0  0  0  0  0  0  0  0  0
    4.6430    4.3805   -0.4567 H   0  0  0  0  0  0  0  0  0  0  0  0
    4.0628    4.1003    1.8493 S   0  0  0  0  0  0  0  0  0  0  0  0
    7.1453    4.7695    0.7955 C   0  0  0  0  0  0  0  0  0  0  0  0
    7.7593    4.2584   -0.1422 O   0  0  0  0  0  0  0  0  0  0  0  0
    7.4436    4.5185    2.0767 N   0  0  0  0  0  0  0  0  0  0  0  0
    6.8721    4.9505    2.7854 H   0  0  0  0  0  0  0  0  0  0  0  0
    8.5035    3.6099    2.5119 C   0  0  0  0  0  0  0  0  0  0  0  0
    8.1894    2.5765    2.3554 H   0  0  0  0  0  0  0  0  0  0  0  0
    9.4115    3.7897    1.9315 H   0  0  0  0  0  0  0  0  0  0  0  0
    8.7205    3.7630    3.5692 H   0  0  0  0  0  0  0  0  0  0  0  0
  5  6  2  0  0  0  0
  5  7  1  0  0  0  0
  2  3  1  0  0  0  0
  2  4  1  0  0  0  0
  2  5  1  0  0  0  0
  1  2  1  0  0  0  0
 15 16  2  0  0  0  0
 15 17  1  0  0  0  0
 14 36  1  0  0  0  0
 11 12  1  0  0  0  0
 11 13  1  0  0  0  0
 11 14  1  0  0  0  0
  9 10  1  0  0  0  0
  9 11  1  0  0  0  0
  9 15  1  0  0  0  0
  7  8  1  0  0  0  0
  7  9  1  0  0  0  0
 19 20  1  0  0  0  0
 19 21  1  0  0  0  0
 19 22  1  0  0  0  0
 17 18  1  0  0  0  0
 17 19  1  0  0  0  0
 27 28  2  0  0  0  0
 27 29  1  0  0  0  0
 24 25  1  0  0  0  0
 24 26  1  0  0  0  0
 24 27  1  0  0  0  0
 23 24  1  0  0  0  0
 37 38  2  0  0  0  0
 37 39  1  0  0  0  0
 33 34  1  0  0  0  0
 33 35  1  0  0  0  0
 33 36  1  0  0  0  0
 31 32  1  0  0  0  0
 31 33  1  0  0  0  0
 31 37  1  0  0  0  0
 29 30  1  0  0  0  0
 29 31  1  0  0  0  0
 41 42  1  0  0  0  0
 41 43  1  0  0  0  0
 41 44  1  0  0  0  0
 39 40  1  0  0  0  0
 39 41  1  0  0  0  0
M  END
$$$$
default_name
  -OEChem-01062215323D

 44 43  0     1  0  0  0  0  0999 V2000
    2.4488   -3.0448    2.0990 H   0  0  0  0  0  0  0  0  0  0  0  0
    2.2788   -2.0018    2.3640 C   0  0  0  0  0  0  0  0  0  0  0  0
    2.9228   -1.7258    3.1960 H   0  0  0  0  0  0  0  0  0  0  0  0
    1.2358   -1.8618    2.6430 H   0  0  0  0  0  0  0  0  0  0  0  0
    2.6018   -1.1318    1.1730 C   0  0  0  0  0  0  0  0  0  0  0  0
    3.0048   -1.6348    0.1320 O   0  0  0  0  0  0  0  0  0  0  0  0
    2.4088    0.1752    1.3190 N   0  0  0  0  0  0  0  0  0  0  0  0
    2.0708    0.5242    2.2050 H   0  0  0  0  0  0  0  0  0  0  0  0
    2.6638    1.1782    0.2840 C   0  0  1  0  0  0  0  0  0  0  0  0
    2.1436    2.0955    0.5647 H   0  0  0  0  0  0  0  0  0  0  0  0
    4.1703    1.4843    0.2191 C   0  0  0  0  0  0  0  0  0  0  0  0
    4.3647    2.1057   -0.6559 H   0  0  0  0  0  0  0  0  0  0  0  0
    4.6945    0.5440    0.0506 H   0  0  0  0  0  0  0  0  0  0  0  0
    4.9421    2.2668    1.6665 S   0  0  0  0  0  0  0  0  0  0  0  0
    2.1095    0.7220   -1.0787 C   0  0  0  0  0  0  0  0  0  0  0  0
    2.5105   -0.3185   -1.6001 O   0  0  0  0  0  0  0  0  0  0  0  0
    1.1809    1.4990   -1.6522 N   0  0  0  0  0  0  0  0  0  0  0  0
    0.8962    2.3357   -1.1689 H   0  0  0  0  0  0  0  0  0  0  0  0
    0.5609    1.2044   -2.9424 C   0  0  0  0  0  0  0  0  0  0  0  0
    1.3231    1.2049   -3.7245 H   0  0  0  0  0  0  0  0  0  0  0  0
    0.0971    0.2167   -2.9125 H   0  0  0  0  0  0  0  0  0  0  0  0
   -0.1979    1.9517   -3.1779 H   0  0  0  0  0  0  0  0  0  0  0  0
    5.5783    9.2102   -2.4816 H   0  0  0  0  0  0  0  0  0  0  0  0
    6.0628    8.2409   -2.3738 C   0  0  0  0  0  0  0  0  0  0  0  0
    7.1430    8.3608   -2.4397 H   0  0  0  0  0  0  0  0  0  0  0  0
    5.7170    7.5705   -3.1584 H   0  0  0  0  0  0  0  0  0  0  0  0
    5.7045    7.6608   -1.0257 C   0  0  0  0  0  0  0  0  0  0  0  0
    4.9657    8.2725   -0.2662 O   0  0  0  0  0  0  0  0  0  0  0  0
    6.2249    6.4717   -0.7341 N   0  0  0  0  0  0  0  0  0  0  0  0
    6.8355    6.0291   -1.4054 H   0  0  0  0  0  0  0  0  0  0  0  0
    5.9904    5.7472    0.5151 C   0  0  1  0  0  0  0  0  0  0  0  0
    5.9431    6.4628    1.3379 H   0  0  0  0  0  0  0  0  0  0  0  0
    4.6303    5.0435    0.4087 C   0  0  0  0  0  0  0  0  0  0  0  0
    3.8782    5.8099    0.2157 H   0  0  0  0  0  0  0  0  0  0  0  0
    4.6430    4.3805   -0.4567 H   0  0  0  0  0  0  0  0  0  0  0  0
    4.0628    4.1003    1.8493 S   0  0  0  0  0  0  0  0  0  0  0  0
    7.1453    4.7695    0.7955 C   0  0  0  0  0  0  0  0  0  0  0  0
    7.7593    4.2584   -0.1422 O   0  0  0  0  0  0  0  0  0  0  0  0
    7.4436    4.5185    2.0767 N   0  0  0  0  0  0  0  0  0  0  0  0
    6.8721    4.9505    2.7854 H   0  0  0  0  0  0  0  0  0  0  0  0
    8.5035    3.6099    2.5119 C   0  0  0  0  0  0  0  0  0  0  0  0
    8.1894    2.5765    2.3554 H   0  0  0  0  0  0  0  0  0  0  0  0
    9.4115    3.7897    1.9315 H   0  0  0  0  0  0  0  0  0  0  0  0
    8.7205    3.7630    3.5692 H   0  0  0  0  0  0  0  0  0  0  0  0
  5  6  2  0  0  0  0
  5  7  1  0  0  0  0
  2  3  1  0  0  0  0
  2  4  1  0  0  0  0
  2  5  1  0  0  0  0
  1  2  1  0  0  0  0
 15 16  2  0  0  0  0
 15 17  1  0  0  0  0
 14 36  1  0  0  0  0
 11 12  1  0  0  0  0
 11 13  1  0  0  0  0
 11 14  1  0  0  0  0
  9 10  1  0  0  0  0
  9 11  1  0  0  0  0
  9 15  1  0  0  0  0
  7  8  1  0  0  0  0
  7  9  1  0  0  0  0
 19 20  1  0  0  0  0
 19 21  1  0  0  0  0
 19 22  1  0  0  0  0
 17 18  1  0  0  0  0
 17 19  1  0  0  0  0
 27 28  2  0  0  0  0
 27 29  1  0  0  0  0
 24 25  1  0  0  0  0
 24 26  1  0  0  0  0
 24 27  1  0  0  0  0
 23 24  1  0  0  0  0
 37 38  2  0  0  0  0
 37 39  1  0  0  0  0
 33 34  1  0  0  0  0
 33 35  1  0  0  0  0
 33 36  1  0  0  0  0
 31 32  1  0  0  0  0
 31 33  1  0  0  0  0
 31 37  1  0  0  0  0
 29 30  1  0  0  0  0
 29 31  1  0  0  0  0
 41 42  1  0  0  0  0
 41 43  1  0  0  0  0
 41 44  1  0  0  0  0
 39 40  1  0  0  0  0
 39 41  1  0  0  0  0
M  END
$$$$
default_name
  -OEChem-01062215323D

 44 43  0     1  0  0  0  0  0999 V2000
    2.4488   -3.0448    2.0990 H   0  0  0  0  0  0  0  0  0  0  0  0
    2.2788   -2.0018    2.3640 C   0  0  0  0  0  0  0  0  0  0  0  0
    2.9228   -1.7258    3.1960 H   0  0  0  0  0  0  0  0  0  0  0  0
    1.2358   -1.8618    2.6430 H   0  0  0  0  0  0  0  0  0  0  0  0
    2.6018   -1.1318    1.1730 C   0  0  0  0  0  0  0  0  0  0  0  0
    3.0048   -1.6348    0.1320 O   0  0  0  0  0  0  0  0  0  0  0  0
    2.4088    0.1752    1.3190 N   0  0  0  0  0  0  0  0  0  0  0  0
    2.0708    0.5242    2.2050 H   0  0  0  0  0  0  0  0  0  0  0  0
    2.6638    1.1782    0.2840 C   0  0  1  0  0  0  0  0  0  0  0  0
    2.1436    2.0955    0.5647 H   0  0  0  0  0  0  0  0  0  0  0  0
    4.1703    1.4843    0.2191 C   0  0  0  0  0  0  0  0  0  0  0  0
    4.3647    2.1057   -0.6559 H   0  0  0  0  0  0  0  0  0  0  0  0
    4.6945    0.5440    0.0506 H   0  0  0  0  0  0  0  0  0  0  0  0
    4.9421    2.2668    1.6665 S   0  0  0  0  0  0  0  0  0  0  0  0
    2.1095    0.7220   -1.0787 C   0  0  0  0  0  0  0  0  0  0  0  0
    2.2909   -0.4297   -1.4735 O   0  0  0  0  0  0  0  0  0  0  0  0
    1.4269    1.6256   -1.7946 N   0  0  0  0  0  0  0  0  0  0  0  0
    1.3134    2.5497   -1.4103 H   0  0  0  0  0  0  0  0  0  0  0  0
    0.8417    1.3481   -3.1047 C   0  0  0  0  0  0  0  0  0  0  0  0
    1.6328    1.0970   -3.8144 H   0  0  0  0  0  0  0  0  0  0  0  0
    0.1599    0.4987   -3.0325 H   0  0  0  0  0  0  0  0  0  0  0  0
    0.2947    2.2192   -3.4678 H   0  0  0  0  0  0  0  0  0  0  0  0
    5.5783    9.2102   -2.4816 H   0  0  0  0  0  0  0  0  0  0  0  0
    6.0628    8.2409   -2.3738 C   0  0  0  0  0  0  0  0  0  0  0  0
    7.1430    8.3608   -2.4397 H   0  0  0  0  0  0  0  0  0  0  0  0
    5.7170    7.5705   -3.1584 H   0  0  0  0  0  0  0  0  0  0  0  0
    5.7045    7.6608   -1.0257 C   0  0  0  0  0  0  0  0  0  0  0  0
    4.9657    8.2725   -0.2662 O   0  0  0  0  0  0  0  0  0  0  0  0
    6.2249    6.4717   -0.7341 N   0  0  0  0  0  0  0  0  0  0  0  0
    6.8355    6.0291   -1.4054 H   0  0  0  0  0  0  0  0  0  0  0  0
    5.9904    5.7472    0.5151 C   0  0  1  0  0  0  0  0  0  0  0  0
    5.9431    6.4628    1.3379 H   0  0  0  0  0  0  0  0  0  0  0  0
    4.6303    5.0435    0.4087 C   0  0  0  0  0  0  0  0  0  0  0  0
    3.8782    5.8099    0.2157 H   0  0  0  0  0  0  0  0  0  0  0  0
    4.6430    4.3805   -0.4567 H   0  0  0  0  0  0  0  0  0  0  0  0
    4.0628    4.1003    1.8493 S   0  0  0  0  0  0  0  0  0  0  0  0
    7.1453    4.7695    0.7955 C   0  0  0  0  0  0  0  0  0  0  0  0
    7.7593    4.2584   -0.1422 O   0  0  0  0  0  0  0  0  0  0  0  0
    7.4436    4.5185    2.0767 N   0  0  0  0  0  0  0  0  0  0  0  0
    6.8721    4.9505    2.7854 H   0  0  0  0  0  0  0  0  0  0  0  0
    8.5035    3.6099    2.5119 C   0  0  0  0  0  0  0  0  0  0  0  0
    8.1894    2.5765    2.3554 H   0  0  0  0  0  0  0  0  0  0  0  0
    9.4115    3.7897    1.9315 H   0  0  0  0  0  0  0  0  0  0  0  0
    8.7205    3.7630    3.5692 H   0  0  0  0  0  0  0  0  0  0  0  0
  5  6  2  0  0  0  0
  5  7  1  0  0  0  0
  2  3  1  0  0  0  0
  2  4  1  0  0  0  0
  2  5  1  0  0  0  0
  1  2  1  0  0  0  0
 15 16  2  0  0  0  0
 15 17  1  0  0  0  0
 14 36  1  0  0  0  0
 11 12  1  0  0  0  0
 11 13  1  0  0  0  0
 11 14  1  0  0  0  0
  9 10  1  0  0  0  0
  9 11  1  0  0  0  0
  9 15  1  0  0  0  0
  7  8  1  0  0  0  0
  7  9  1  0  0  0  0
 19 20  1  0  0  0  0
 19 21  1  0  0  0  0
 19 22  1  0  0  0  0
 17 18  1  0  0  0  0
 17 19  1  0  0  0  0
 27 28  2  0  0  0  0
 27 29  1  0  0  0  0
 24 25  1  0  0  0  0
 24 26  1  0  0  0  0
 24 27  1  0  0  0  0
 23 24  1  0  0  0  0
 37 38  2  0  0  0  0
 37 39  1  0  0  0  0
 33 34  1  0  0  0  0
 33 35  1  0  0  0  0
 33 36  1  0  0  0  0
 31 32  1  0  0  0  0
 31 33  1  0  0  0  0
 31 37  1  0  0  0  0
 29 30  1  0  0  0  0
 29 31  1  0  0  0  0
 41 42  1  0  0  0  0
 41 43  1  0  0  0  0
 41 44  1  0  0  0  0
 39 40  1  0  0  0  0
 39 41  1  0  0  0  0
M  END
$$$$
default_name
  -OEChem-01062215323D

 44 43  0     1  0  0  0  0  0999 V2000
    2.4488   -3.0448    2.0990 H   0  0  0  0  0  0  0  0  0  0  0  0
    2.2788   -2.0018    2.3640 C   0  0  0  0  0  0  0  0  0  0  0  0
    2.9228   -1.7258    3.1960 H   0  0  0  0  0  0  0  0  0  0  0  0
    1.2358   -1.8618    2.6430 H   0  0  0  0  0  0  0  0  0  0  0  0
    2.6018   -1.1318    1.1730 C   0  0  0  0  0  0  0  0  0  0  0  0
    3.0048   -1.6348    0.1320 O   0  0  0  0  0  0  0  0  0  0  0  0
    2.4088    0.1752    1.3190 N   0  0  0  0  0  0  0  0  0  0  0  0
    2.0708    0.5242    2.2050 H   0  0  0  0  0  0  0  0  0  0  0  0
    2.6638    1.1782    0.2840 C   0  0  1  0  0  0  0  0  0  0  0  0
    2.1436    2.0955    0.5647 H   0  0  0  0  0  0  0  0  0  0  0  0
    4.1703    1.4843    0.2191 C   0  0  0  0  0  0  0  0  0  0  0  0
    4.3647    2.1057   -0.6559 H   0  0  0  0  0  0  0  0  0  0  0  0
    4.6945    0.5440    0.0506 H   0  0  0  0  0  0  0  0  0  0  0  0
    4.9421    2.2668    1.6665 S   0  0  0  0  0  0  0  0  0  0  0  0
    2.1095    0.7220   -1.0787 C   0  0  0  0  0  0  0  0  0  0  0  0
    2.0436   -0.4751   -1.3577 O   0  0  0  0  0  0  0  0  0  0  0  0
    1.7045    1.6782   -1.9251 N   0  0  0  0  0  0  0  0  0  0  0  0
    1.7840    2.6385   -1.6314 H   0  0  0  0  0  0  0  0  0  0  0  0
    1.1583    1.4076   -3.2534 C   0  0  0  0  0  0  0  0  0  0  0  0
    1.9143    0.9136   -3.8675 H   0  0  0  0  0  0  0  0  0  0  0  0
    0.2944    0.7456   -3.1698 H   0  0  0  0  0  0  0  0  0  0  0  0
    0.8541    2.3377   -3.7350 H   0  0  0  0  0  0  0  0  0  0  0  0
    5.5783    9.2102   -2.4816 H   0  0  0  0  0  0  0  0  0  0  0  0
    6.0628    8.2409   -2.3738 C   0  0  0  0  0  0  0  0  0  0  0  0
    7.1430    8.3608   -2.4397 H   0  0  0  0  0  0  0  0  0  0  0  0
    5.7170    7.5705   -3.1584 H   0  0  0  0  0  0  0  0  0  0  0  0
    5.7045    7.6608   -1.0257 C   0  0  0  0  0  0  0  0  0  0  0  0
    4.9657    8.2725   -0.2662 O   0  0  0  0  0  0  0  0  0  0  0  0
    6.2249    6.4717   -0.7341 N   0  0  0  0  0  0  0  0  0  0  0  0
    6.8355    6.0291   -1.4054 H   0  0  0  0  0  0  0  0  0  0  0  0
    5.9904    5.7472    0.5151 C   0  0  1  0  0  0  0  0  0  0  0  0
    5.9431    6.4628    1.3379 H   0  0  0  0  0  0  0  0  0  0  0  0
    4.6303    5.0435    0.4087 C   0  0  0  0  0  0  0  0  0  0  0  0
    3.8782    5.8099    0.2157 H   0  0  0  0  0  0  0  0  0  0  0  0
    4.6430    4.3805   -0.4567 H   0  0  0  0  0  0  0  0  0  0  0  0
    4.0628    4.1003    1.8493 S   0  0  0  0  0  0  0  0  0  0  0  0
    7.1453    4.7695    0.7955 C   0  0  0  0  0  0  0  0  0  0  0  0
    7.7593    4.2584   -0.1422 O   0  0  0  0  0  0  0  0  0  0  0  0
    7.4436    4.5185    2.0767 N   0  0  0  0  0  0  0  0  0  0  0  0
    6.8721    4.9505    2.7854 H   0  0  0  0  0  0  0  0  0  0  0  0
    8.5035    3.6099    2.5119 C   0  0  0  0  0  0  0  0  0  0  0  0
    8.1894    2.5765    2.3554 H   0  0  0  0  0  0  0  0  0  0  0  0
    9.4115    3.7897    1.9315 H   0  0  0  0  0  0  0  0  0  0  0  0
    8.7205    3.7630    3.5692 H   0  0  0  0  0  0  0  0  0  0  0  0
  5  6  2  0  0  0  0
  5  7  1  0  0  0  0
  2  3  1  0  0  0  0
  2  4  1  0  0  0  0
  2  5  1  0  0  0  0
  1  2  1  0  0  0  0
 15 16  2  0  0  0  0
 15 17  1  0  0  0  0
 14 36  1  0  0  0  0
 11 12  1  0  0  0  0
 11 13  1  0  0  0  0
 11 14  1  0  0  0  0
  9 10  1  0  0  0  0
  9 11  1  0  0  0  0
  9 15  1  0  0  0  0
  7  8  1  0  0  0  0
  7  9  1  0  0  0  0
 19 20  1  0  0  0  0
 19 21  1  0  0  0  0
 19 22  1  0  0  0  0
 17 18  1  0  0  0  0
 17 19  1  0  0  0  0
 27 28  2  0  0  0  0
 27 29  1  0  0  0  0
 24 25  1  0  0  0  0
 24 26  1  0  0  0  0
 24 27  1  0  0  0  0
 23 24  1  0  0  0  0
 37 38  2  0  0  0  0
 37 39  1  0  0  0  0
 33 34  1  0  0  0  0
 33 35  1  0  0  0  0
 33 36  1  0  0  0  0
 31 32  1  0  0  0  0
 31 33  1  0  0  0  0
 31 37  1  0  0  0  0
 29 30  1  0  0  0  0
 29 31  1  0  0  0  0
 41 42  1  0  0  0  0
 41 43  1  0  0  0  0
 41 44  1  0  0  0  0
 39 40  1  0  0  0  0
 39 41  1  0  0  0  0
M  END
$$$$
default_name
  -OEChem-01062215323D

 44 43  0     1  0  0  0  0  0999 V2000
    2.4488   -3.0448    2.0990 H   0  0  0  0  0  0  0  0  0  0  0  0
    2.2788   -2.0018    2.3640 C   0  0  0  0  0  0  0  0  0  0  0  0
    2.9228   -1.7258    3.1960 H   0  0  0  0  0  0  0  0  0  0  0  0
    1.2358   -1.8618    2.6430 H   0  0  0  0  0  0  0  0  0  0  0  0
    2.6018   -1.1318    1.1730 C   0  0  0  0  0  0  0  0  0  0  0  0
    3.0048   -1.6348    0.1320 O   0  0  0  0  0  0  0  0  0  0  0  0
    2.4088    0.1752    1.3190 N   0  0  0  0  0  0  0  0  0  0  0  0
    2.0708    0.5242    2.2050 H   0  0  0  0  0  0  0  0  0  0  0  0
    2.6638    1.1782    0.2840 C   0  0  1  0  0  0  0  0  0  0  0  0
    2.1436    2.0955    0.5647 H   0  0  0  0  0  0  0  0  0  0  0  0
    4.1703    1.4843    0.2191 C   0  0  0  0  0  0  0  0  0  0  0  0
    4.3647    2.1057   -0.6559 H   0  0  0  0  0  0  0  0  0  0  0  0
    4.6945    0.5440    0.0506 H   0  0  0  0  0  0  0  0  0  0  0  0
    4.9421    2.2668    1.6665 S   0  0  0  0  0  0  0  0  0  0  0  0
    2.1095    0.7220   -1.0787 C   0  0  0  0  0  0  0  0  0  0  0  0
    1.7854   -0.4515   -1.2606 O   0  0  0  0  0  0  0  0  0  0  0  0
    1.9946    1.6534   -2.0348 N   0  0  0  0  0  0  0  0  0  0  0  0
    2.2759    2.5958   -1.8172 H   0  0  0  0  0  0  0  0  0  0  0  0
    1.4891    1.3787   -3.3783 C   0  0  0  0  0  0  0  0  0  0  0  0
    2.1481    0.6670   -3.8800 H   0  0  0  0  0  0  0  0  0  0  0  0
    0.4914    0.9405   -3.3151 H   0  0  0  0  0  0  0  0  0  0  0  0
    1.4420    2.2993   -3.9613 H   0  0  0  0  0  0  0  0  0  0  0  0
    5.5783    9.2102   -2.4816 H   0  0  0  0  0  0  0  0  0  0  0  0
    6.0628    8.2409   -2.3738 C   0  0  0  0  0  0  0  0  0  0  0  0
    7.1430    8.3608   -2.4397 H   0  0  0  0  0  0  0  0  0  0  0  0
    5.7170    7.5705   -3.1584 H   0  0  0  0  0  0  0  0  0  0  0  0
    5.7045    7.6608   -1.0257 C   0  0  0  0  0  0  0  0  0  0  0  0
    4.9657    8.2725   -0.2662 O   0  0  0  0  0  0  0  0  0  0  0  0
    6.2249    6.4717   -0.7341 N   0  0  0  0  0  0  0  0  0  0  0  0
    6.8355    6.0291   -1.4054 H   0  0  0  0  0  0  0  0  0  0  0  0
    5.9904    5.7472    0.5151 C   0  0  1  0  0  0  0  0  0  0  0  0
    5.9431    6.4628    1.3379 H   0  0  0  0  0  0  0  0  0  0  0  0
    4.6303    5.0435    0.4087 C   0  0  0  0  0  0  0  0  0  0  0  0
    3.8782    5.8099    0.2157 H   0  0  0  0  0  0  0  0  0  0  0  0
    4.6430    4.3805   -0.4567 H   0  0  0  0  0  0  0  0  0  0  0  0
    4.0628    4.1003    1.8493 S   0  0  0  0  0  0  0  0  0  0  0  0
    7.1453    4.7695    0.7955 C   0  0  0  0  0  0  0  0  0  0  0  0
    7.7593    4.2584   -0.1422 O   0  0  0  0  0  0  0  0  0  0  0  0
    7.4436    4.5185    2.0767 N   0  0  0  0  0  0  0  0  0  0  0  0
    6.8721    4.9505    2.7854 H   0  0  0  0  0  0  0  0  0  0  0  0
    8.5035    3.6099    2.5119 C   0  0  0  0  0  0  0  0  0  0  0  0
    8.1894    2.5765    2.3554 H   0  0  0  0  0  0  0  0  0  0  0  0
    9.4115    3.7897    1.9315 H   0  0  0  0  0  0  0  0  0  0  0  0
    8.7205    3.7630    3.5692 H   0  0  0  0  0  0  0  0  0  0  0  0
  5  6  2  0  0  0  0
  5  7  1  0  0  0  0
  2  3  1  0  0  0  0
  2  4  1  0  0  0  0
  2  5  1  0  0  0  0
  1  2  1  0  0  0  0
 15 16  2  0  0  0  0
 15 17  1  0  0  0  0
 14 36  1  0  0  0  0
 11 12  1  0  0  0  0
 11 13  1  0  0  0  0
 11 14  1  0  0  0  0
  9 10  1  0  0  0  0
  9 11  1  0  0  0  0
  9 15  1  0  0  0  0
  7  8  1  0  0  0  0
  7  9  1  0  0  0  0
 19 20  1  0  0  0  0
 19 21  1  0  0  0  0
 19 22  1  0  0  0  0
 17 18  1  0  0  0  0
 17 19  1  0  0  0  0
 27 28  2  0  0  0  0
 27 29  1  0  0  0  0
 24 25  1  0  0  0  0
 24 26  1  0  0  0  0
 24 27  1  0  0  0  0
 23 24  1  0  0  0  0
 37 38  2  0  0  0  0
 37 39  1  0  0  0  0
 33 34  1  0  0  0  0
 33 35  1  0  0  0  0
 33 36  1  0  0  0  0
 31 32  1  0  0  0  0
 31 33  1  0  0  0  0
 31 37  1  0  0  0  0
 29 30  1  0  0  0  0
 29 31  1  0  0  0  0
 41 42  1  0  0  0  0
 41 43  1  0  0  0  0
 41 44  1  0  0  0  0
 39 40  1  0  0  0  0
 39 41  1  0  0  0  0
M  END
$$$$
default_name
  -OEChem-01062215323D

 44 43  0     1  0  0  0  0  0999 V2000
    2.4488   -3.0448    2.0990 H   0  0  0  0  0  0  0  0  0  0  0  0
    2.2788   -2.0018    2.3640 C   0  0  0  0  0  0  0  0  0  0  0  0
    2.9228   -1.7258    3.1960 H   0  0  0  0  0  0  0  0  0  0  0  0
    1.2358   -1.8618    2.6430 H   0  0  0  0  0  0  0  0  0  0  0  0
    2.6018   -1.1318    1.1730 C   0  0  0  0  0  0  0  0  0  0  0  0
    3.0048   -1.6348    0.1320 O   0  0  0  0  0  0  0  0  0  0  0  0
    2.4088    0.1752    1.3190 N   0  0  0  0  0  0  0  0  0  0  0  0
    2.0708    0.5242    2.2050 H   0  0  0  0  0  0  0  0  0  0  0  0
    2.6638    1.1782    0.2840 C   0  0  1  0  0  0  0  0  0  0  0  0
    2.3810    2.1547    0.6806 H   0  0  0  0  0  0  0  0  0  0  0  0
    4.1666    1.2132   -0.0445 C   0  0  0  0  0  0  0  0  0  0  0  0
    4.3193    1.8425   -0.9221 H   0  0  0  0  0  0  0  0  0  0  0  0
    4.4683    0.2064   -0.3323 H   0  0  0  0  0  0  0  0  0  0  0  0
    5.3099    1.7542    1.2604 S   0  0  0  0  0  0  0  0  0  0  0  0
    1.8065    0.9134   -0.9679 C   0  0  0  0  0  0  0  0  0  0  0  0
    1.0285   -0.0398   -1.0026 O   0  0  0  0  0  0  0  0  0  0  0  0
    1.9448    1.7629   -1.9945 N   0  0  0  0  0  0  0  0  0  0  0  0
    2.5979    2.5237   -1.8978 H   0  0  0  0  0  0  0  0  0  0  0  0
    1.2055    1.6456   -3.2497 C   0  0  0  0  0  0  0  0  0  0  0  0
    1.4634    0.7051   -3.7412 H   0  0  0  0  0  0  0  0  0  0  0  0
    0.1327    1.6473   -3.0482 H   0  0  0  0  0  0  0  0  0  0  0  0
    1.4488    2.4772   -3.9123 H   0  0  0  0  0  0  0  0  0  0  0  0
    6.5058    8.7139   -2.7341 H   0  0  0  0  0  0  0  0  0  0  0  0
    6.8116    7.6687   -2.7438 C   0  0  0  0  0  0  0  0  0  0  0  0
    7.8672    7.5972   -3.0013 H   0  0  0  0  0  0  0  0  0  0  0  0
    6.2159    7.1206   -3.4714 H   0  0  0  0  0  0  0  0  0  0  0  0
    6.5901    7.0802   -1.3702 C   0  0  0  0  0  0  0  0  0  0  0  0
    6.1216    7.7663   -0.4720 O   0  0  0  0  0  0  0  0  0  0  0  0
    6.9213    5.8015   -1.2120 N   0  0  0  0  0  0  0  0  0  0  0  0
    7.3127    5.2990   -1.9954 H   0  0  0  0  0  0  0  0  0  0  0  0
    6.7754    5.0551    0.0378 C   0  0  1  0  0  0  0  0  0  0  0  0
    7.0059    5.7156    0.8756 H   0  0  0  0  0  0  0  0  0  0  0  0
    5.3100    4.6140    0.1600 C   0  0  0  0  0  0  0  0  0  0  0  0
    4.6928    5.5131    0.1288 H   0  0  0  0  0  0  0  0  0  0  0  0
    5.0485    4.0141   -0.7119 H   0  0  0  0  0  0  0  0  0  0  0  0
    4.8343    3.7007    1.6521 S   0  0  0  0  0  0  0  0  0  0  0  0
    7.7578    3.8711    0.0757 C   0  0  0  0  0  0  0  0  0  0  0  0
    8.0934    3.3172   -0.9720 O   0  0  0  0  0  0  0  0  0  0  0  0
    8.2211    3.4924    1.2738 N   0  0  0  0  0  0  0  0  0  0  0  0
    7.8720    3.9751    2.0866 H   0  0  0  0  0  0  0  0  0  0  0  0
    9.1513    2.3836    1.4832 C   0  0  0  0  0  0  0  0  0  0  0  0
    8.6272    1.4348    1.3569 H   0  0  0  0  0  0  0  0  0  0  0  0
    9.9625    2.4335    0.7530 H   0  0  0  0  0  0  0  0  0  0  0  0
    9.5729    2.4300    2.4874 H   0  0  0  0  0  0  0  0  0  0  0  0
  5  6  2  0  0  0  0
  5  7  1  0  0  0  0
  2  3  1  0  0  0  0
  2  4  1  0  0  0  0
  2  5  1  0  0  0  0
  1  2  1  0  0  0  0
 15 16  2  0  0  0  0
 15 17  1  0  0  0  0
 14 36  1  0  0  0  0
 11 12  1  0  0  0  0
 11 13  1  0  0  0  0
 11 14  1  0  0  0  0
  9 10  1  0  0  0  0
  9 11  1  0  0  0  0
  9 15  1  0  0  0  0
  7  8  1  0  0  0  0
  7  9  1  0  0  0  0
 19 20  1  0  0  0  0
 19 21  1  0  0  0  0
 19 22  1  0  0  0  0
 17 18  1  0  0  0  0
 17 19  1  0  0  0  0
 27 28  2  0  0  0  0
 27 29  1  0  0  0  0
 24 25  1  0  0  0  0
 24 26  1  0  0  0  0
 24 27  1  0  0  0  0
 23 24  1  0  0  0  0
 37 38  2  0  0  0  0
 37 39  1  0  0  0  0
 33 34  1  0  0  0  0
 33 35  1  0  0  0  0
 33 36  1  0  0  0  0
 31 32  1  0  0  0  0
 31 33  1  0  0  0  0
 31 37  1  0  0  0  0
 29 30  1  0  0  0  0
 29 31  1  0  0  0  0
 41 42  1  0  0  0  0
 41 43  1  0  0  0  0
 41 44  1  0  0  0  0
 39 40  1  0  0  0  0
 39 41  1  0  0  0  0
M  END
$$$$
default_name
  -OEChem-01062215323D

 44 43  0     1  0  0  0  0  0999 V2000
    2.4488   -3.0448    2.0990 H   0  0  0  0  0  0  0  0  0  0  0  0
    2.2788   -2.0018    2.3640 C   0  0  0  0  0  0  0  0  0  0  0  0
    2.9228   -1.7258    3.1960 H   0  0  0  0  0  0  0  0  0  0  0  0
    1.2358   -1.8618    2.6430 H   0  0  0  0  0  0  0  0  0  0  0  0
    2.6018   -1.1318    1.1730 C   0  0  0  0  0  0  0  0  0  0  0  0
    3.0048   -1.6348    0.1320 O   0  0  0  0  0  0  0  0  0  0  0  0
    2.4088    0.1752    1.3190 N   0  0  0  0  0  0  0  0  0  0  0  0
    2.0708    0.5242    2.2050 H   0  0  0  0  0  0  0  0  0  0  0  0
    2.6638    1.1782    0.2840 C   0  0  1  0  0  0  0  0  0  0  0  0
    2.3810    2.1547    0.6806 H   0  0  0  0  0  0  0  0  0  0  0  0
    4.1666    1.2132   -0.0445 C   0  0  0  0  0  0  0  0  0  0  0  0
    4.3193    1.8425   -0.9221 H   0  0  0  0  0  0  0  0  0  0  0  0
    4.4683    0.2064   -0.3323 H   0  0  0  0  0  0  0  0  0  0  0  0
    5.3099    1.7542    1.2604 S   0  0  0  0  0  0  0  0  0  0  0  0
    1.8065    0.9134   -0.9679 C   0  0  0  0  0  0  0  0  0  0  0  0
    0.8441    0.1477   -0.9160 O   0  0  0  0  0  0  0  0  0  0  0  0
    2.1529    1.5534   -2.0927 N   0  0  0  0  0  0  0  0  0  0  0  0
    2.9504    2.1682   -2.0640 H   0  0  0  0  0  0  0  0  0  0  0  0
    1.4424    1.4063   -3.3613 C   0  0  0  0  0  0  0  0  0  0  0  0
    1.5077    0.3703   -3.7006 H   0  0  0  0  0  0  0  0  0  0  0  0
    0.3894    1.6601   -3.2266 H   0  0  0  0  0  0  0  0  0  0  0  0
    1.8770    2.0614   -4.1175 H   0  0  0  0  0  0  0  0  0  0  0  0
    6.5058    8.7139   -2.7341 H   0  0  0  0  0  0  0  0  0  0  0  0
    6.8116    7.6687   -2.7438 C   0  0  0  0  0  0  0  0  0  0  0  0
    7.8672    7.5972   -3.0013 H   0  0  0  0  0  0  0  0  0  0  0  0
    6.2159    7.1206   -3.4714 H   0  0  0  0  0  0  0  0  0  0  0  0
    6.5901    7.0802   -1.3702 C   0  0  0  0  0  0  0  0  0  0  0  0
    6.1216    7.7663   -0.4720 O   0  0  0  0  0  0  0  0  0  0  0  0
    6.9213    5.8015   -1.2120 N   0  0  0  0  0  0  0  0  0  0  0  0
    7.3127    5.2990   -1.9954 H   0  0  0  0  0  0  0  0  0  0  0  0
    6.7754    5.0551    0.0378 C   0  0  1  0  0  0  0  0  0  0  0  0
    7.0059    5.7156    0.8756 H   0  0  0  0  0  0  0  0  0  0  0  0
    5.3100    4.6140    0.1600 C   0  0  0  0  0  0  0  0  0  0  0  0
    4.6928    5.5131    0.1288 H   0  0  0  0  0  0  0  0  0  0  0  0
    5.0485    4.0141   -0.7119 H   0  0  0  0  0  0  0  0  0  0  0  0
    4.8343    3.7007    1.6521 S   0  0  0  0  0  0  0  0  0  0  0  0
    7.7578    3.8711    0.0757 C   0  0  0  0  0  0  0  0  0  0  0  0
    8.0934    3.3172   -0.9720 O   0  0  0  0  0  0  0  0  0  0  0  0
    8.2211    3.4924    1.2738 N   0  0  0  0  0  0  0  0  0  0  0  0
    7.8720    3.9751    2.0866 H   0  0  0  0  0  0  0  0  0  0  0  0
    9.1513    2.3836    1.4832 C   0  0  0  0  0  0  0  0  0  0  0  0
    8.6272    1.4348    1.3569 H   0  0  0  0  0  0  0  0  0  0  0  0
    9.9625    2.4335    0.7530 H   0  0  0  0  0  0  0  0  0  0  0  0
    9.5729    2.4300    2.4874 H   0  0  0  0  0  0  0  0  0  0  0  0
  5  6  2  0  0  0  0
  5  7  1  0  0  0  0
  2  3  1  0  0  0  0
  2  4  1  0  0  0  0
  2  5  1  0  0  0  0
  1  2  1  0  0  0  0
 15 16  2  0  0  0  0
 15 17  1  0  0  0  0
 14 36  1  0  0  0  0
 11 12  1  0  0  0  0
 11 13  1  0  0  0  0
 11 14  1  0  0  0  0
  9 10  1  0  0  0  0
  9 11  1  0  0  0  0
  9 15  1  0  0  0  0
  7  8  1  0  0  0  0
  7  9  1  0  0  0  0
 19 20  1  0  0  0  0
 19 21  1  0  0  0  0
 19 22  1  0  0  0  0
 17 18  1  0  0  0  0
 17 19  1  0  0  0  0
 27 28  2  0  0  0  0
 27 29  1  0  0  0  0
 24 25  1  0  0  0  0
 24 26  1  0  0  0  0
 24 27  1  0  0  0  0
 23 24  1  0  0  0  0
 37 38  2  0  0  0  0
 37 39  1  0  0  0  0
 33 34  1  0  0  0  0
 33 35  1  0  0  0  0
 33 36  1  0  0  0  0
 31 32  1  0  0  0  0
 31 33  1  0  0  0  0
 31 37  1  0  0  0  0
 29 30  1  0  0  0  0
 29 31  1  0  0  0  0
 41 42  1  0  0  0  0
 41 43  1  0  0  0  0
 41 44  1  0  0  0  0
 39 40  1  0  0  0  0
 39 41  1  0  0  0  0
M  END
$$$$
default_name
  -OEChem-01062215323D

 44 43  0     1  0  0  0  0  0999 V2000
    2.4488   -3.0448    2.0990 H   0  0  0  0  0  0  0  0  0  0  0  0
    2.2788   -2.0018    2.3640 C   0  0  0  0  0  0  0  0  0  0  0  0
    2.9228   -1.7258    3.1960 H   0  0  0  0  0  0  0  0  0  0  0  0
    1.2358   -1.8618    2.6430 H   0  0  0  0  0  0  0  0  0  0  0  0
    2.6018   -1.1318    1.1730 C   0  0  0  0  0  0  0  0  0  0  0  0
    3.0048   -1.6348    0.1320 O   0  0  0  0  0  0  0  0  0  0  0  0
    2.4088    0.1752    1.3190 N   0  0  0  0  0  0  0  0  0  0  0  0
    2.0708    0.5242    2.2050 H   0  0  0  0  0  0  0  0  0  0  0  0
    2.6638    1.1782    0.2840 C   0  0  1  0  0  0  0  0  0  0  0  0
    2.3810    2.1547    0.6806 H   0  0  0  0  0  0  0  0  0  0  0  0
    4.1666    1.2132   -0.0445 C   0  0  0  0  0  0  0  0  0  0  0  0
    4.3193    1.8425   -0.9221 H   0  0  0  0  0  0  0  0  0  0  0  0
    4.4683    0.2064   -0.3323 H   0  0  0  0  0  0  0  0  0  0  0  0
    5.3099    1.7542    1.2604 S   0  0  0  0  0  0  0  0  0  0  0  0
    1.8065    0.9134   -0.9679 C   0  0  0  0  0  0  0  0  0  0  0  0
    0.7017    0.3800   -0.8676 O   0  0  0  0  0  0  0  0  0  0  0  0
    2.3142    1.2931   -2.1481 N   0  0  0  0  0  0  0  0  0  0  0  0
    3.2234    1.7267   -2.1576 H   0  0  0  0  0  0  0  0  0  0  0  0
    1.6259    1.1092   -3.4241 C   0  0  0  0  0  0  0  0  0  0  0  0
    1.4782    0.0435   -3.6113 H   0  0  0  0  0  0  0  0  0  0  0  0
    0.6479    1.5928   -3.3894 H   0  0  0  0  0  0  0  0  0  0  0  0
    2.2122    1.5401   -4.2368 H   0  0  0  0  0  0  0  0  0  0  0  0
    6.5058    8.7139   -2.7341 H   0  0  0  0  0  0  0  0  0  0  0  0
    6.8116    7.6687   -2.7438 C   0  0  0  0  0  0  0  0  0  0  0  0
    7.8672    7.5972   -3.0013 H   0  0  0  0  0  0  0  0  0  0  0  0
    6.2159    7.1206   -3.4714 H   0  0  0  0  0  0  0  0  0  0  0  0
    6.5901    7.0802   -1.3702 C   0  0  0  0  0  0  0  0  0  0  0  0
    6.1216    7.7663   -0.4720 O   0  0  0  0  0  0  0  0  0  0  0  0
    6.9213    5.8015   -1.2120 N   0  0  0  0  0  0  0  0  0  0  0  0
    7.3127    5.2990   -1.9954 H   0  0  0  0  0  0  0  0  0  0  0  0
    6.7754    5.0551    0.0378 C   0  0  1  0  0  0  0  0  0  0  0  0
    7.0059    5.7156    0.8756 H   0  0  0  0  0  0  0  0  0  0  0  0
    5.3100    4.6140    0.1600 C   0  0  0  0  0  0  0  0  0  0  0  0
    4.6928    5.5131    0.1288 H   0  0  0  0  0  0  0  0  0  0  0  0
    5.0485    4.0141   -0.7119 H   0  0  0  0  0  0  0  0  0  0  0  0
    4.8343    3.7007    1.6521 S   0  0  0  0  0  0  0  0  0  0  0  0
    7.7578    3.8711    0.0757 C   0  0  0  0  0  0  0  0  0  0  0  0
    8.0934    3.3172   -0.9720 O   0  0  0  0  0  0  0  0  0  0  0  0
    8.2211    3.4924    1.2738 N   0  0  0  0  0  0  0  0  0  0  0  0
    7.8720    3.9751    2.0866 H   0  0  0  0  0  0  0  0  0  0  0  0
    9.1513    2.3836    1.4832 C   0  0  0  0  0  0  0  0  0  0  0  0
    8.6272    1.4348    1.3569 H   0  0  0  0  0  0  0  0  0  0  0  0
    9.9625    2.4335    0.7530 H   0  0  0  0  0  0  0  0  0  0  0  0
    9.5729    2.4300    2.4874 H   0  0  0  0  0  0  0  0  0  0  0  0
  5  6  2  0  0  0  0
  5  7  1  0  0  0  0
  2  3  1  0  0  0  0
  2  4  1  0  0  0  0
  2  5  1  0  0  0  0
  1  2  1  0  0  0  0
 15 16  2  0  0  0  0
 15 17  1  0  0  0  0
 14 36  1  0  0  0  0
 11 12  1  0  0  0  0
 11 13  1  0  0  0  0
 11 14  1  0  0  0  0
  9 10  1  0  0  0  0
  9 11  1  0  0  0  0
  9 15  1  0  0  0  0
  7  8  1  0  0  0  0
  7  9  1  0  0  0  0
 19 20  1  0  0  0  0
 19 21  1  0  0  0  0
 19 22  1  0  0  0  0
 17 18  1  0  0  0  0
 17 19  1  0  0  0  0
 27 28  2  0  0  0  0
 27 29  1  0  0  0  0
 24 25  1  0  0  0  0
 24 26  1  0  0  0  0
 24 27  1  0  0  0  0
 23 24  1  0  0  0  0
 37 38  2  0  0  0  0
 37 39  1  0  0  0  0
 33 34  1  0  0  0  0
 33 35  1  0  0  0  0
 33 36  1  0  0  0  0
 31 32  1  0  0  0  0
 31 33  1  0  0  0  0
 31 37  1  0  0  0  0
 29 30  1  0  0  0  0
 29 31  1  0  0  0  0
 41 42  1  0  0  0  0
 41 43  1  0  0  0  0
 41 44  1  0  0  0  0
 39 40  1  0  0  0  0
 39 41  1  0  0  0  0
M  END
$$$$
default_name
  -OEChem-01062215323D

 44 43  0     1  0  0  0  0  0999 V2000
    2.4488   -3.0448    2.0990 H   0  0  0  0  0  0  0  0  0  0  0  0
    2.2788   -2.0018    2.3640 C   0  0  0  0  0  0  0  0  0  0  0  0
    2.9228   -1.7258    3.1960 H   0  0  0  0  0  0  0  0  0  0  0  0
    1.2358   -1.8618    2.6430 H   0  0  0  0  0  0  0  0  0  0  0  0
    2.6018   -1.1318    1.1730 C   0  0  0  0  0  0  0  0  0  0  0  0
    3.0048   -1.6348    0.1320 O   0  0  0  0  0  0  0  0  0  0  0  0
    2.4088    0.1752    1.3190 N   0  0  0  0  0  0  0  0  0  0  0  0
    2.0708    0.5242    2.2050 H   0  0  0  0  0  0  0  0  0  0  0  0
    2.6638    1.1782    0.2840 C   0  0  1  0  0  0  0  0  0  0  0  0
    2.3810    2.1547    0.6806 H   0  0  0  0  0  0  0  0  0  0  0  0
    4.1666    1.2132   -0.0445 C   0  0  0  0  0  0  0  0  0  0  0  0
    4.3193    1.8425   -0.9221 H   0  0  0  0  0  0  0  0  0  0  0  0
    4.4683    0.2064   -0.3323 H   0  0  0  0  0  0  0  0  0  0  0  0
    5.3099    1.7542    1.2604 S   0  0  0  0  0  0  0  0  0  0  0  0
    1.8065    0.9134   -0.9679 C   0  0  0  0  0  0  0  0  0  0  0  0
    0.6108    0.6414   -0.8607 O   0  0  0  0  0  0  0  0  0  0  0  0
    2.4177    0.9998   -2.1570 N   0  0  0  0  0  0  0  0  0  0  0  0
    3.3984    1.2293   -2.1722 H   0  0  0  0  0  0  0  0  0  0  0  0
    1.7434    0.7746   -3.4338 C   0  0  0  0  0  0  0  0  0  0  0  0
    1.3769   -0.2531   -3.4792 H   0  0  0  0  0  0  0  0  0  0  0  0
    0.8907    1.4499   -3.5255 H   0  0  0  0  0  0  0  0  0  0  0  0
    2.4316    0.9489   -4.2620 H   0  0  0  0  0  0  0  0  0  0  0  0
    6.5058    8.7139   -2.7341 H   0  0  0  0  0  0  0  0  0  0  0  0
    6.8116    7.6687   -2.7438 C   0  0  0  0  0  0  0  0  0  0  0  0
    7.8672    7.5972   -3.0013 H   0  0  0  0  0  0  0  0  0  0  0  0
    6.2159    7.1206   -3.4714 H   0  0  0  0  0  0  0  0  0  0  0  0
    6.5901    7.0802   -1.3702 C   0  0  0  0  0  0  0  0  0  0  0  0
    6.1216    7.7663   -0.4720 O   0  0  0  0  0  0  0  0  0  0  0  0
    6.9213    5.8015   -1.2120 N   0  0  0  0  0  0  0  0  0  0  0  0
    7.3127    5.2990   -1.9954 H   0  0  0  0  0  0  0  0  0  0  0  0
    6.7754    5.0551    0.0378 C   0  0  1  0  0  0  0  0  0  0  0  0
    7.0059    5.7156    0.8756 H   0  0  0  0  0  0  0  0  0  0  0  0
    5.3100    4.6140    0.1600 C   0  0  0  0  0  0  0  0  0  0  0  0
    4.6928    5.5131    0.1288 H   0  0  0  0  0  0  0  0  0  0  0  0
    5.0485    4.0141   -0.7119 H   0  0  0  0  0  0  0  0  0  0  0  0
    4.8343    3.7007    1.6521 S   0  0  0  0  0  0  0  0  0  0  0  0
    7.7578    3.8711    0.0757 C   0  0  0  0  0  0  0  0  0  0  0  0
    8.0934    3.3172   -0.9720 O   0  0  0  0  0  0  0  0  0  0  0  0
    8.2211    3.4924    1.2738 N   0  0  0  0  0  0  0  0  0  0  0  0
    7.8720    3.9751    2.0866 H   0  0  0  0  0  0  0  0  0  0  0  0
    9.1513    2.3836    1.4832 C   0  0  0  0  0  0  0  0  0  0  0  0
    8.6272    1.4348    1.3569 H   0  0  0  0  0  0  0  0  0  0  0  0
    9.9625    2.4335    0.7530 H   0  0  0  0  0  0  0  0  0  0  0  0
    9.5729    2.4300    2.4874 H   0  0  0  0  0  0  0  0  0  0  0  0
  5  6  2  0  0  0  0
  5  7  1  0  0  0  0
  2  3  1  0  0  0  0
  2  4  1  0  0  0  0
  2  5  1  0  0  0  0
  1  2  1  0  0  0  0
 15 16  2  0  0  0  0
 15 17  1  0  0  0  0
 14 36  1  0  0  0  0
 11 12  1  0  0  0  0
 11 13  1  0  0  0  0
 11 14  1  0  0  0  0
  9 10  1  0  0  0  0
  9 11  1  0  0  0  0
  9 15  1  0  0  0  0
  7  8  1  0  0  0  0
  7  9  1  0  0  0  0
 19 20  1  0  0  0  0
 19 21  1  0  0  0  0
 19 22  1  0  0  0  0
 17 18  1  0  0  0  0
 17 19  1  0  0  0  0
 27 28  2  0  0  0  0
 27 29  1  0  0  0  0
 24 25  1  0  0  0  0
 24 26  1  0  0  0  0
 24 27  1  0  0  0  0
 23 24  1  0  0  0  0
 37 38  2  0  0  0  0
 37 39  1  0  0  0  0
 33 34  1  0  0  0  0
 33 35  1  0  0  0  0
 33 36  1  0  0  0  0
 31 32  1  0  0  0  0
 31 33  1  0  0  0  0
 31 37  1  0  0  0  0
 29 30  1  0  0  0  0
 29 31  1  0  0  0  0
 41 42  1  0  0  0  0
 41 43  1  0  0  0  0
 41 44  1  0  0  0  0
 39 40  1  0  0  0  0
 39 41  1  0  0  0  0
M  END
$$$$
default_name
  -OEChem-01062215323D

 44 43  0     1  0  0  0  0  0999 V2000
    2.4488   -3.0448    2.0990 H   0  0  0  0  0  0  0  0  0  0  0  0
    2.2788   -2.0018    2.3640 C   0  0  0  0  0  0  0  0  0  0  0  0
    2.9228   -1.7258    3.1960 H   0  0  0  0  0  0  0  0  0  0  0  0
    1.2358   -1.8618    2.6430 H   0  0  0  0  0  0  0  0  0  0  0  0
    2.6018   -1.1318    1.1730 C   0  0  0  0  0  0  0  0  0  0  0  0
    3.0048   -1.6348    0.1320 O   0  0  0  0  0  0  0  0  0  0  0  0
    2.4088    0.1752    1.3190 N   0  0  0  0  0  0  0  0  0  0  0  0
    2.0708    0.5242    2.2050 H   0  0  0  0  0  0  0  0  0  0  0  0
    2.6638    1.1782    0.2840 C   0  0  1  0  0  0  0  0  0  0  0  0
    2.3810    2.1547    0.6806 H   0  0  0  0  0  0  0  0  0  0  0  0
    4.1666    1.2132   -0.0445 C   0  0  0  0  0  0  0  0  0  0  0  0
    4.3193    1.8425   -0.9221 H   0  0  0  0  0  0  0  0  0  0  0  0
    4.4683    0.2064   -0.3323 H   0  0  0  0  0  0  0  0  0  0  0  0
    5.3099    1.7542    1.2604 S   0  0  0  0  0  0  0  0  0  0  0  0
    1.8065    0.9134   -0.9679 C   0  0  0  0  0  0  0  0  0  0  0  0
    0.5777    0.9140   -0.8957 O   0  0  0  0  0  0  0  0  0  0  0  0
    2.4564    0.6934   -2.1186 N   0  0  0  0  0  0  0  0  0  0  0  0
    3.4635    0.7099   -2.1069 H   0  0  0  0  0  0  0  0  0  0  0  0
    1.7870    0.4253   -3.3898 C   0  0  0  0  0  0  0  0  0  0  0  0
    1.2109   -0.4993   -3.3134 H   0  0  0  0  0  0  0  0  0  0  0  0
    1.1013    1.2412   -3.6255 H   0  0  0  0  0  0  0  0  0  0  0  0
    2.5203    0.3281   -4.1914 H   0  0  0  0  0  0  0  0  0  0  0  0
    6.5058    8.7139   -2.7341 H   0  0  0  0  0  0  0  0  0  0  0  0
    6.8116    7.6687   -2.7438 C   0  0  0  0  0  0  0  0  0  0  0  0
    7.8672    7.5972   -3.0013 H   0  0  0  0  0  0  0  0  0  0  0  0
    6.2159    7.1206   -3.4714 H   0  0  0  0  0  0  0  0  0  0  0  0
    6.5901    7.0802   -1.3702 C   0  0  0  0  0  0  0  0  0  0  0  0
    6.1216    7.7663   -0.4720 O   0  0  0  0  0  0  0  0  0  0  0  0
    6.9213    5.8015   -1.2120 N   0  0  0  0  0  0  0  0  0  0  0  0
    7.3127    5.2990   -1.9954 H   0  0  0  0  0  0  0  0  0  0  0  0
    6.7754    5.0551    0.0378 C   0  0  1  0  0  0  0  0  0  0  0  0
    7.0059    5.7156    0.8756 H   0  0  0  0  0  0  0  0  0  0  0  0
    5.3100    4.6140    0.1600 C   0  0  0  0  0  0  0  0  0  0  0  0
    4.6928    5.5131    0.1288 H   0  0  0  0  0  0  0  0  0  0  0  0
    5.0485    4.0141   -0.7119 H   0  0  0  0  0  0  0  0  0  0  0  0
    4.8343    3.7007    1.6521 S   0  0  0  0  0  0  0  0  0  0  0  0
    7.7578    3.8711    0.0757 C   0  0  0  0  0  0  0  0  0  0  0  0
    8.0934    3.3172   -0.9720 O   0  0  0  0  0  0  0  0  0  0  0  0
    8.2211    3.4924    1.2738 N   0  0  0  0  0  0  0  0  0  0  0  0
    7.8720    3.9751    2.0866 H   0  0  0  0  0  0  0  0  0  0  0  0
    9.1513    2.3836    1.4832 C   0  0  0  0  0  0  0  0  0  0  0  0
    8.6272    1.4348    1.3569 H   0  0  0  0  0  0  0  0  0  0  0  0
    9.9625    2.4335    0.7530 H   0  0  0  0  0  0  0  0  0  0  0  0
    9.5729    2.4300    2.4874 H   0  0  0  0  0  0  0  0  0  0  0  0
  5  6  2  0  0  0  0
  5  7  1  0  0  0  0
  2  3  1  0  0  0  0
  2  4  1  0  0  0  0
  2  5  1  0  0  0  0
  1  2  1  0  0  0  0
 15 16  2  0  0  0  0
 15 17  1  0  0  0  0
 14 36  1  0  0  0  0
 11 12  1  0  0  0  0
 11 13  1  0  0  0  0
 11 14  1  0  0  0  0
  9 10  1  0  0  0  0
  9 11  1  0  0  0  0
  9 15  1  0  0  0  0
  7  8  1  0  0  0  0
  7  9  1  0  0  0  0
 19 20  1  0  0  0  0
 19 21  1  0  0  0  0
 19 22  1  0  0  0  0
 17 18  1  0  0  0  0
 17 19  1  0  0  0  0
 27 28  2  0  0  0  0
 27 29  1  0  0  0  0
 24 25  1  0  0  0  0
 24 26  1  0  0  0  0
 24 27  1  0  0  0  0
 23 24  1  0  0  0  0
 37 38  2  0  0  0  0
 37 39  1  0  0  0  0
 33 34  1  0  0  0  0
 33 35  1  0  0  0  0
 33 36  1  0  0  0  0
 31 32  1  0  0  0  0
 31 33  1  0  0  0  0
 31 37  1  0  0  0  0
 29 30  1  0  0  0  0
 29 31  1  0  0  0  0
 41 42  1  0  0  0  0
 41 43  1  0  0  0  0
 41 44  1  0  0  0  0
 39 40  1  0  0  0  0
 39 41  1  0  0  0  0
M  END
$$$$
default_name
  -OEChem-01062215323D

 44 43  0     1  0  0  0  0  0999 V2000
    2.4488   -3.0448    2.0990 H   0  0  0  0  0  0  0  0  0  0  0  0
    2.2788   -2.0018    2.3640 C   0  0  0  0  0  0  0  0  0  0  0  0
    2.9228   -1.7258    3.1960 H   0  0  0  0  0  0  0  0  0  0  0  0
    1.2358   -1.8618    2.6430 H   0  0  0  0  0  0  0  0  0  0  0  0
    2.6018   -1.1318    1.1730 C   0  0  0  0  0  0  0  0  0  0  0  0
    3.0048   -1.6348    0.1320 O   0  0  0  0  0  0  0  0  0  0  0  0
    2.4088    0.1752    1.3190 N   0  0  0  0  0  0  0  0  0  0  0  0
    2.0708    0.5242    2.2050 H   0  0  0  0  0  0  0  0  0  0  0  0
    2.6638    1.1782    0.2840 C   0  0  1  0  0  0  0  0  0  0  0  0
    2.3810    2.1547    0.6806 H   0  0  0  0  0  0  0  0  0  0  0  0
    4.1666    1.2132   -0.0445 C   0  0  0  0  0  0  0  0  0  0  0  0
    4.3193    1.8425   -0.9221 H   0  0  0  0  0  0  0  0  0  0  0  0
    4.4683    0.2064   -0.3323 H   0  0  0  0  0  0  0  0  0  0  0  0
    5.3099    1.7542    1.2604 S   0  0  0  0  0  0  0  0  0  0  0  0
    1.8065    0.9134   -0.9679 C   0  0  0  0  0  0  0  0  0  0  0  0
    0.6047    1.1792   -0.9702 O   0  0  0  0  0  0  0  0  0  0  0  0
    2.4276    0.3948   -2.0357 N   0  0  0  0  0  0  0  0  0  0  0  0
    3.4142    0.2040   -1.9661 H   0  0  0  0  0  0  0  0  0  0  0  0
    1.7536    0.0851   -3.2950 C   0  0  0  0  0  0  0  0  0  0  0  0
    0.9913   -0.6783   -3.1252 H   0  0  0  0  0  0  0  0  0  0  0  0
    1.2652    0.9809   -3.6827 H   0  0  0  0  0  0  0  0  0  0  0  0
    2.4722   -0.2801   -4.0298 H   0  0  0  0  0  0  0  0  0  0  0  0
    6.5058    8.7139   -2.7341 H   0  0  0  0  0  0  0  0  0  0  0  0
    6.8116    7.6687   -2.7438 C   0  0  0  0  0  0  0  0  0  0  0  0
    7.8672    7.5972   -3.0013 H   0  0  0  0  0  0  0  0  0  0  0  0
    6.2159    7.1206   -3.4714 H   0  0  0  0  0  0  0  0  0  0  0  0
    6.5901    7.0802   -1.3702 C   0  0  0  0  0  0  0  0  0  0  0  0
    6.1216    7.7663   -0.4720 O   0  0  0  0  0  0  0  0  0  0  0  0
    6.9213    5.8015   -1.2120 N   0  0  0  0  0  0  0  0  0  0  0  0
    7.3127    5.2990   -1.9954 H   0  0  0  0  0  0  0  0  0  0  0  0
    6.7754    5.0551    0.0378 C   0  0  1  0  0  0  0  0  0  0  0  0
    7.0059    5.7156    0.8756 H   0  0  0  0  0  0  0  0  0  0  0  0
    5.3100    4.6140    0.1600 C   0  0  0  0  0  0  0  0  0  0  0  0
    4.6928    5.5131    0.1288 H   0  0  0  0  0  0  0  0  0  0  0  0
    5.0485    4.0141   -0.7119 H   0  0  0  0  0  0  0  0  0  0  0  0
    4.8343    3.7007    1.6521 S   0  0  0  0  0  0  0  0  0  0  0  0
    7.7578    3.8711    0.0757 C   0  0  0  0  0  0  0  0  0  0  0  0
    8.0934    3.3172   -0.9720 O   0  0  0  0  0  0  0  0  0  0  0  0
    8.2211    3.4924    1.2738 N   0  0  0  0  0  0  0  0  0  0  0  0
    7.8720    3.9751    2.0866 H   0  0  0  0  0  0  0  0  0  0  0  0
    9.1513    2.3836    1.4832 C   0  0  0  0  0  0  0  0  0  0  0  0
    8.6272    1.4348    1.3569 H   0  0  0  0  0  0  0  0  0  0  0  0
    9.9625    2.4335    0.7530 H   0  0  0  0  0  0  0  0  0  0  0  0
    9.5729    2.4300    2.4874 H   0  0  0  0  0  0  0  0  0  0  0  0
  5  6  2  0  0  0  0
  5  7  1  0  0  0  0
  2  3  1  0  0  0  0
  2  4  1  0  0  0  0
  2  5  1  0  0  0  0
  1  2  1  0  0  0  0
 15 16  2  0  0  0  0
 15 17  1  0  0  0  0
 14 36  1  0  0  0  0
 11 12  1  0  0  0  0
 11 13  1  0  0  0  0
 11 14  1  0  0  0  0
  9 10  1  0  0  0  0
  9 11  1  0  0  0  0
  9 15  1  0  0  0  0
  7  8  1  0  0  0  0
  7  9  1  0  0  0  0
 19 20  1  0  0  0  0
 19 21  1  0  0  0  0
 19 22  1  0  0  0  0
 17 18  1  0  0  0  0
 17 19  1  0  0  0  0
 27 28  2  0  0  0  0
 27 29  1  0  0  0  0
 24 25  1  0  0  0  0
 24 26  1  0  0  0  0
 24 27  1  0  0  0  0
 23 24  1  0  0  0  0
 37 38  2  0  0  0  0
 37 39  1  0  0  0  0
 33 34  1  0  0  0  0
 33 35  1  0  0  0  0
 33 36  1  0  0  0  0
 31 32  1  0  0  0  0
 31 33  1  0  0  0  0
 31 37  1  0  0  0  0
 29 30  1  0  0  0  0
 29 31  1  0  0  0  0
 41 42  1  0  0  0  0
 41 43  1  0  0  0  0
 41 44  1  0  0  0  0
 39 40  1  0  0  0  0
 39 41  1  0  0  0  0
M  END
$$$$
default_name
  -OEChem-01062215323D

 44 43  0     1  0  0  0  0  0999 V2000
    2.4488   -3.0448    2.0990 H   0  0  0  0  0  0  0  0  0  0  0  0
    2.2788   -2.0018    2.3640 C   0  0  0  0  0  0  0  0  0  0  0  0
    2.9228   -1.7258    3.1960 H   0  0  0  0  0  0  0  0  0  0  0  0
    1.2358   -1.8618    2.6430 H   0  0  0  0  0  0  0  0  0  0  0  0
    2.6018   -1.1318    1.1730 C   0  0  0  0  0  0  0  0  0  0  0  0
    3.0048   -1.6348    0.1320 O   0  0  0  0  0  0  0  0  0  0  0  0
    2.4088    0.1752    1.3190 N   0  0  0  0  0  0  0  0  0  0  0  0
    2.0708    0.5242    2.2050 H   0  0  0  0  0  0  0  0  0  0  0  0
    2.6638    1.1782    0.2840 C   0  0  1  0  0  0  0  0  0  0  0  0
    2.3810    2.1547    0.6806 H   0  0  0  0  0  0  0  0  0  0  0  0
    4.1666    1.2132   -0.0445 C   0  0  0  0  0  0  0  0  0  0  0  0
    4.3193    1.8425   -0.9221 H   0  0  0  0  0  0  0  0  0  0  0  0
    4.4683    0.2064   -0.3323 H   0  0  0  0  0  0  0  0  0  0  0  0
    5.3099    1.7542    1.2604 S   0  0  0  0  0  0  0  0  0  0  0  0
    1.8065    0.9134   -0.9679 C   0  0  0  0  0  0  0  0  0  0  0  0
    0.6898    1.4190   -1.0792 O   0  0  0  0  0  0  0  0  0  0  0  0
    2.3332    0.1244   -1.9139 N   0  0  0  0  0  0  0  0  0  0  0  0
    3.2539   -0.2541   -1.7594 H   0  0  0  0  0  0  0  0  0  0  0  0
    1.6456   -0.2229   -3.1558 C   0  0  0  0  0  0  0  0  0  0  0  0
    0.7332   -0.7779   -2.9274 H   0  0  0  0  0  0  0  0  0  0  0  0
    1.3713    0.6868   -3.6932 H   0  0  0  0  0  0  0  0  0  0  0  0
    2.2906   -0.8342   -3.7883 H   0  0  0  0  0  0  0  0  0  0  0  0
    6.5058    8.7139   -2.7341 H   0  0  0  0  0  0  0  0  0  0  0  0
    6.8116    7.6687   -2.7438 C   0  0  0  0  0  0  0  0  0  0  0  0
    7.8672    7.5972   -3.0013 H   0  0  0  0  0  0  0  0  0  0  0  0
    6.2159    7.1206   -3.4714 H   0  0  0  0  0  0  0  0  0  0  0  0
    6.5901    7.0802   -1.3702 C   0  0  0  0  0  0  0  0  0  0  0  0
    6.1216    7.7663   -0.4720 O   0  0  0  0  0  0  0  0  0  0  0  0
    6.9213    5.8015   -1.2120 N   0  0  0  0  0  0  0  0  0  0  0  0
    7.3127    5.2990   -1.9954 H   0  0  0  0  0  0  0  0  0  0  0  0
    6.7754    5.0551    0.0378 C   0  0  1  0  0  0  0  0  0  0  0  0
    7.0059    5.7156    0.8756 H   0  0  0  0  0  0  0  0  0  0  0  0
    5.3100    4.6140    0.1600 C   0  0  0  0  0  0  0  0  0  0  0  0
    4.6928    5.5131    0.1288 H   0  0  0  0  0  0  0  0  0  0  0  0
    5.0485    4.0141   -0.7119 H   0  0  0  0  0  0  0  0  0  0  0  0
    4.8343    3.7007    1.6521 S   0  0  0  0  0  0  0  0  0  0  0  0
    7.7578    3.8711    0.0757 C   0  0  0  0  0  0  0  0  0  0  0  0
    8.0934    3.3172   -0.9720 O   0  0  0  0  0  0  0  0  0  0  0  0
    8.2211    3.4924    1.2738 N   0  0  0  0  0  0  0  0  0  0  0  0
    7.8720    3.9751    2.0866 H   0  0  0  0  0  0  0  0  0  0  0  0
    9.1513    2.3836    1.4832 C   0  0  0  0  0  0  0  0  0  0  0  0
    8.6272    1.4348    1.3569 H   0  0  0  0  0  0  0  0  0  0  0  0
    9.9625    2.4335    0.7530 H   0  0  0  0  0  0  0  0  0  0  0  0
    9.5729    2.4300    2.4874 H   0  0  0  0  0  0  0  0  0  0  0  0
  5  6  2  0  0  0  0
  5  7  1  0  0  0  0
  2  3  1  0  0  0  0
  2  4  1  0  0  0  0
  2  5  1  0  0  0  0
  1  2  1  0  0  0  0
 15 16  2  0  0  0  0
 15 17  1  0  0  0  0
 14 36  1  0  0  0  0
 11 12  1  0  0  0  0
 11 13  1  0  0  0  0
 11 14  1  0  0  0  0
  9 10  1  0  0  0  0
  9 11  1  0  0  0  0
  9 15  1  0  0  0  0
  7  8  1  0  0  0  0
  7  9  1  0  0  0  0
 19 20  1  0  0  0  0
 19 21  1  0  0  0  0
 19 22  1  0  0  0  0
 17 18  1  0  0  0  0
 17 19  1  0  0  0  0
 27 28  2  0  0  0  0
 27 29  1  0  0  0  0
 24 25  1  0  0  0  0
 24 26  1  0  0  0  0
 24 27  1  0  0  0  0
 23 24  1  0  0  0  0
 37 38  2  0  0  0  0
 37 39  1  0  0  0  0
 33 34  1  0  0  0  0
 33 35  1  0  0  0  0
 33 36  1  0  0  0  0
 31 32  1  0  0  0  0
 31 33  1  0  0  0  0
 31 37  1  0  0  0  0
 29 30  1  0  0  0  0
 29 31  1  0  0  0  0
 41 42  1  0  0  0  0
 41 43  1  0  0  0  0
 41 44  1  0  0  0  0
 39 40  1  0  0  0  0
 39 41  1  0  0  0  0
M  END
$$$$
default_name
  -OEChem-01062215323D

 44 43  0     1  0  0  0  0  0999 V2000
    2.4488   -3.0448    2.0990 H   0  0  0  0  0  0  0  0  0  0  0  0
    2.2788   -2.0018    2.3640 C   0  0  0  0  0  0  0  0  0  0  0  0
    2.9228   -1.7258    3.1960 H   0  0  0  0  0  0  0  0  0  0  0  0
    1.2358   -1.8618    2.6430 H   0  0  0  0  0  0  0  0  0  0  0  0
    2.6018   -1.1318    1.1730 C   0  0  0  0  0  0  0  0  0  0  0  0
    3.0048   -1.6348    0.1320 O   0  0  0  0  0  0  0  0  0  0  0  0
    2.4088    0.1752    1.3190 N   0  0  0  0  0  0  0  0  0  0  0  0
    2.0708    0.5242    2.2050 H   0  0  0  0  0  0  0  0  0  0  0  0
    2.6638    1.1782    0.2840 C   0  0  1  0  0  0  0  0  0  0  0  0
    2.3810    2.1547    0.6806 H   0  0  0  0  0  0  0  0  0  0  0  0
    4.1666    1.2132   -0.0445 C   0  0  0  0  0  0  0  0  0  0  0  0
    4.3193    1.8425   -0.9221 H   0  0  0  0  0  0  0  0  0  0  0  0
    4.4683    0.2064   -0.3323 H   0  0  0  0  0  0  0  0  0  0  0  0
    5.3099    1.7542    1.2604 S   0  0  0  0  0  0  0  0  0  0  0  0
    1.8065    0.9134   -0.9679 C   0  0  0  0  0  0  0  0  0  0  0  0
    0.8273    1.6170   -1.2153 O   0  0  0  0  0  0  0  0  0  0  0  0
    2.1798   -0.0994   -1.7615 N   0  0  0  0  0  0  0  0  0  0  0  0
    2.9934   -0.6330   -1.5009 H   0  0  0  0  0  0  0  0  0  0  0  0
    1.4703   -0.4776   -2.9819 C   0  0  0  0  0  0  0  0  0  0  0  0
    0.4542   -0.7913   -2.7335 H   0  0  0  0  0  0  0  0  0  0  0  0
    1.4124    0.3788   -3.6562 H   0  0  0  0  0  0  0  0  0  0  0  0
    1.9879   -1.2964   -3.4832 H   0  0  0  0  0  0  0  0  0  0  0  0
    6.5058    8.7139   -2.7341 H   0  0  0  0  0  0  0  0  0  0  0  0
    6.8116    7.6687   -2.7438 C   0  0  0  0  0  0  0  0  0  0  0  0
    7.8672    7.5972   -3.0013 H   0  0  0  0  0  0  0  0  0  0  0  0
    6.2159    7.1206   -3.4714 H   0  0  0  0  0  0  0  0  0  0  0  0
    6.5901    7.0802   -1.3702 C   0  0  0  0  0  0  0  0  0  0  0  0
    6.1216    7.7663   -0.4720 O   0  0  0  0  0  0  0  0  0  0  0  0
    6.9213    5.8015   -1.2120 N   0  0  0  0  0  0  0  0  0  0  0  0
    7.3127    5.2990   -1.9954 H   0  0  0  0  0  0  0  0  0  0  0  0
    6.7754    5.0551    0.0378 C   0  0  1  0  0  0  0  0  0  0  0  0
    7.0059    5.7156    0.8756 H   0  0  0  0  0  0  0  0  0  0  0  0
    5.3100    4.6140    0.1600 C   0  0  0  0  0  0  0  0  0  0  0  0
    4.6928    5.5131    0.1288 H   0  0  0  0  0  0  0  0  0  0  0  0
    5.0485    4.0141   -0.7119 H   0  0  0  0  0  0  0  0  0  0  0  0
    4.8343    3.7007    1.6521 S   0  0  0  0  0  0  0  0  0  0  0  0
    7.7578    3.8711    0.0757 C   0  0  0  0  0  0  0  0  0  0  0  0
    8.0934    3.3172   -0.9720 O   0  0  0  0  0  0  0  0  0  0  0  0
    8.2211    3.4924    1.2738 N   0  0  0  0  0  0  0  0  0  0  0  0
    7.8720    3.9751    2.0866 H   0  0  0  0  0  0  0  0  0  0  0  0
    9.1513    2.3836    1.4832 C   0  0  0  0  0  0  0  0  0  0  0  0
    8.6272    1.4348    1.3569 H   0  0  0  0  0  0  0  0  0  0  0  0
    9.9625    2.4335    0.7530 H   0  0  0  0  0  0  0  0  0  0  0  0
    9.5729    2.4300    2.4874 H   0  0  0  0  0  0  0  0  0  0  0  0
  5  6  2  0  0  0  0
  5  7  1  0  0  0  0
  2  3  1  0  0  0  0
  2  4  1  0  0  0  0
  2  5  1  0  0  0  0
  1  2  1  0  0  0  0
 15 16  2  0  0  0  0
 15 17  1  0  0  0  0
 14 36  1  0  0  0  0
 11 12  1  0  0  0  0
 11 13  1  0  0  0  0
 11 14  1  0  0  0  0
  9 10  1  0  0  0  0
  9 11  1  0  0  0  0
  9 15  1  0  0  0  0
  7  8  1  0  0  0  0
  7  9  1  0  0  0  0
 19 20  1  0  0  0  0
 19 21  1  0  0  0  0
 19 22  1  0  0  0  0
 17 18  1  0  0  0  0
 17 19  1  0  0  0  0
 27 28  2  0  0  0  0
 27 29  1  0  0  0  0
 24 25  1  0  0  0  0
 24 26  1  0  0  0  0
 24 27  1  0  0  0  0
 23 24  1  0  0  0  0
 37 38  2  0  0  0  0
 37 39  1  0  0  0  0
 33 34  1  0  0  0  0
 33 35  1  0  0  0  0
 33 36  1  0  0  0  0
 31 32  1  0  0  0  0
 31 33  1  0  0  0  0
 31 37  1  0  0  0  0
 29 30  1  0  0  0  0
 29 31  1  0  0  0  0
 41 42  1  0  0  0  0
 41 43  1  0  0  0  0
 41 44  1  0  0  0  0
 39 40  1  0  0  0  0
 39 41  1  0  0  0  0
M  END
$$$$
default_name
  -OEChem-01062215323D

 44 43  0     1  0  0  0  0  0999 V2000
    2.4488   -3.0448    2.0990 H   0  0  0  0  0  0  0  0  0  0  0  0
    2.2788   -2.0018    2.3640 C   0  0  0  0  0  0  0  0  0  0  0  0
    2.9228   -1.7258    3.1960 H   0  0  0  0  0  0  0  0  0  0  0  0
    1.2358   -1.8618    2.6430 H   0  0  0  0  0  0  0  0  0  0  0  0
    2.6018   -1.1318    1.1730 C   0  0  0  0  0  0  0  0  0  0  0  0
    3.0048   -1.6348    0.1320 O   0  0  0  0  0  0  0  0  0  0  0  0
    2.4088    0.1752    1.3190 N   0  0  0  0  0  0  0  0  0  0  0  0
    2.0708    0.5242    2.2050 H   0  0  0  0  0  0  0  0  0  0  0  0
    2.6638    1.1782    0.2840 C   0  0  1  0  0  0  0  0  0  0  0  0
    2.3810    2.1547    0.6806 H   0  0  0  0  0  0  0  0  0  0  0  0
    4.1666    1.2132   -0.0445 C   0  0  0  0  0  0  0  0  0  0  0  0
    4.3193    1.8425   -0.9221 H   0  0  0  0  0  0  0  0  0  0  0  0
    4.4683    0.2064   -0.3323 H   0  0  0  0  0  0  0  0  0  0  0  0
    5.3099    1.7542    1.2604 S   0  0  0  0  0  0  0  0  0  0  0  0
    1.8065    0.9134   -0.9679 C   0  0  0  0  0  0  0  0  0  0  0  0
    1.0078    1.7597   -1.3691 O   0  0  0  0  0  0  0  0  0  0  0  0
    1.9778   -0.2613   -1.5889 N   0  0  0  0  0  0  0  0  0  0  0  0
    2.6507   -0.9070   -1.2083 H   0  0  0  0  0  0  0  0  0  0  0  0
    1.2396   -0.6617   -2.7850 C   0  0  0  0  0  0  0  0  0  0  0  0
    0.1731   -0.7176   -2.5566 H   0  0  0  0  0  0  0  0  0  0  0  0
    1.3857    0.0781   -3.5742 H   0  0  0  0  0  0  0  0  0  0  0  0
    1.5848   -1.6352   -3.1355 H   0  0  0  0  0  0  0  0  0  0  0  0
    6.5058    8.7139   -2.7341 H   0  0  0  0  0  0  0  0  0  0  0  0
    6.8116    7.6687   -2.7438 C   0  0  0  0  0  0  0  0  0  0  0  0
    7.8672    7.5972   -3.0013 H   0  0  0  0  0  0  0  0  0  0  0  0
    6.2159    7.1206   -3.4714 H   0  0  0  0  0  0  0  0  0  0  0  0
    6.5901    7.0802   -1.3702 C   0  0  0  0  0  0  0  0  0  0  0  0
    6.1216    7.7663   -0.4720 O   0  0  0  0  0  0  0  0  0  0  0  0
    6.9213    5.8015   -1.2120 N   0  0  0  0  0  0  0  0  0  0  0  0
    7.3127    5.2990   -1.9954 H   0  0  0  0  0  0  0  0  0  0  0  0
    6.7754    5.0551    0.0378 C   0  0  1  0  0  0  0  0  0  0  0  0
    7.0059    5.7156    0.8756 H   0  0  0  0  0  0  0  0  0  0  0  0
    5.3100    4.6140    0.1600 C   0  0  0  0  0  0  0  0  0  0  0  0
    4.6928    5.5131    0.1288 H   0  0  0  0  0  0  0  0  0  0  0  0
    5.0485    4.0141   -0.7119 H   0  0  0  0  0  0  0  0  0  0  0  0
    4.8343    3.7007    1.6521 S   0  0  0  0  0  0  0  0  0  0  0  0
    7.7578    3.8711    0.0757 C   0  0  0  0  0  0  0  0  0  0  0  0
    8.0934    3.3172   -0.9720 O   0  0  0  0  0  0  0  0  0  0  0  0
    8.2211    3.4924    1.2738 N   0  0  0  0  0  0  0  0  0  0  0  0
    7.8720    3.9751    2.0866 H   0  0  0  0  0  0  0  0  0  0  0  0
    9.1513    2.3836    1.4832 C   0  0  0  0  0  0  0  0  0  0  0  0
    8.6272    1.4348    1.3569 H   0  0  0  0  0  0  0  0  0  0  0  0
    9.9625    2.4335    0.7530 H   0  0  0  0  0  0  0  0  0  0  0  0
    9.5729    2.4300    2.4874 H   0  0  0  0  0  0  0  0  0  0  0  0
  5  6  2  0  0  0  0
  5  7  1  0  0  0  0
  2  3  1  0  0  0  0
  2  4  1  0  0  0  0
  2  5  1  0  0  0  0
  1  2  1  0  0  0  0
 15 16  2  0  0  0  0
 15 17  1  0  0  0  0
 14 36  1  0  0  0  0
 11 12  1  0  0  0  0
 11 13  1  0  0  0  0
 11 14  1  0  0  0  0
  9 10  1  0  0  0  0
  9 11  1  0  0  0  0
  9 15  1  0  0  0  0
  7  8  1  0  0  0  0
  7  9  1  0  0  0  0
 19 20  1  0  0  0  0
 19 21  1  0  0  0  0
 19 22  1  0  0  0  0
 17 18  1  0  0  0  0
 17 19  1  0  0  0  0
 27 28  2  0  0  0  0
 27 29  1  0  0  0  0
 24 25  1  0  0  0  0
 24 26  1  0  0  0  0
 24 27  1  0  0  0  0
 23 24  1  0  0  0  0
 37 38  2  0  0  0  0
 37 39  1  0  0  0  0
 33 34  1  0  0  0  0
 33 35  1  0  0  0  0
 33 36  1  0  0  0  0
 31 32  1  0  0  0  0
 31 33  1  0  0  0  0
 31 37  1  0  0  0  0
 29 30  1  0  0  0  0
 29 31  1  0  0  0  0
 41 42  1  0  0  0  0
 41 43  1  0  0  0  0
 41 44  1  0  0  0  0
 39 40  1  0  0  0  0
 39 41  1  0  0  0  0
M  END
$$$$
default_name
  -OEChem-01062215323D

 44 43  0     1  0  0  0  0  0999 V2000
    2.4488   -3.0448    2.0990 H   0  0  0  0  0  0  0  0  0  0  0  0
    2.2788   -2.0018    2.3640 C   0  0  0  0  0  0  0  0  0  0  0  0
    2.9228   -1.7258    3.1960 H   0  0  0  0  0  0  0  0  0  0  0  0
    1.2358   -1.8618    2.6430 H   0  0  0  0  0  0  0  0  0  0  0  0
    2.6018   -1.1318    1.1730 C   0  0  0  0  0  0  0  0  0  0  0  0
    3.0048   -1.6348    0.1320 O   0  0  0  0  0  0  0  0  0  0  0  0
    2.4088    0.1752    1.3190 N   0  0  0  0  0  0  0  0  0  0  0  0
    2.0708    0.5242    2.2050 H   0  0  0  0  0  0  0  0  0  0  0  0
    2.6638    1.1782    0.2840 C   0  0  1  0  0  0  0  0  0  0  0  0
    2.3810    2.1547    0.6806 H   0  0  0  0  0  0  0  0  0  0  0  0
    4.1666    1.2132   -0.0445 C   0  0  0  0  0  0  0  0  0  0  0  0
    4.3193    1.8425   -0.9221 H   0  0  0  0  0  0  0  0  0  0  0  0
    4.4683    0.2064   -0.3323 H   0  0  0  0  0  0  0  0  0  0  0  0
    5.3099    1.7542    1.2604 S   0  0  0  0  0  0  0  0  0  0  0  0
    1.8065    0.9134   -0.9679 C   0  0  0  0  0  0  0  0  0  0  0  0
    1.2191    1.8374   -1.5302 O   0  0  0  0  0  0  0  0  0  0  0  0
    1.7409   -0.3503   -1.4079 N   0  0  0  0  0  0  0  0  0  0  0  0
    2.2489   -1.0574   -0.9013 H   0  0  0  0  0  0  0  0  0  0  0  0
    0.9693   -0.7626   -2.5786 C   0  0  0  0  0  0  0  0  0  0  0  0
   -0.0907   -0.5618   -2.4089 H   0  0  0  0  0  0  0  0  0  0  0  0
    1.2929   -0.1950   -3.4530 H   0  0  0  0  0  0  0  0  0  0  0  0
    1.1086   -1.8276   -2.7687 H   0  0  0  0  0  0  0  0  0  0  0  0
    6.5058    8.7139   -2.7341 H   0  0  0  0  0  0  0  0  0  0  0  0
    6.8116    7.6687   -2.7438 C   0  0  0  0  0  0  0  0  0  0  0  0
    7.8672    7.5972   -3.0013 H   0  0  0  0  0  0  0  0  0  0  0  0
    6.2159    7.1206   -3.4714 H   0  0  0  0  0  0  0  0  0  0  0  0
    6.5901    7.0802   -1.3702 C   0  0  0  0  0  0  0  0  0  0  0  0
    6.1216    7.7663   -0.4720 O   0  0  0  0  0  0  0  0  0  0  0  0
    6.9213    5.8015   -1.2120 N   0  0  0  0  0  0  0  0  0  0  0  0
    7.3127    5.2990   -1.9954 H   0  0  0  0  0  0  0  0  0  0  0  0
    6.7754    5.0551    0.0378 C   0  0  1  0  0  0  0  0  0  0  0  0
    7.0059    5.7156    0.8756 H   0  0  0  0  0  0  0  0  0  0  0  0
    5.3100    4.6140    0.1600 C   0  0  0  0  0  0  0  0  0  0  0  0
    4.6928    5.5131    0.1288 H   0  0  0  0  0  0  0  0  0  0  0  0
    5.0485    4.0141   -0.7119 H   0  0  0  0  0  0  0  0  0  0  0  0
    4.8343    3.7007    1.6521 S   0  0  0  0  0  0  0  0  0  0  0  0
    7.7578    3.8711    0.0757 C   0  0  0  0  0  0  0  0  0  0  0  0
    8.0934    3.3172   -0.9720 O   0  0  0  0  0  0  0  0  0  0  0  0
    8.2211    3.4924    1.2738 N   0  0  0  0  0  0  0  0  0  0  0  0
    7.8720    3.9751    2.0866 H   0  0  0  0  0  0  0  0  0  0  0  0
    9.1513    2.3836    1.4832 C   0  0  0  0  0  0  0  0  0  0  0  0
    8.6272    1.4348    1.3569 H   0  0  0  0  0  0  0  0  0  0  0  0
    9.9625    2.4335    0.7530 H   0  0  0  0  0  0  0  0  0  0  0  0
    9.5729    2.4300    2.4874 H   0  0  0  0  0  0  0  0  0  0  0  0
  5  6  2  0  0  0  0
  5  7  1  0  0  0  0
  2  3  1  0  0  0  0
  2  4  1  0  0  0  0
  2  5  1  0  0  0  0
  1  2  1  0  0  0  0
 15 16  2  0  0  0  0
 15 17  1  0  0  0  0
 14 36  1  0  0  0  0
 11 12  1  0  0  0  0
 11 13  1  0  0  0  0
 11 14  1  0  0  0  0
  9 10  1  0  0  0  0
  9 11  1  0  0  0  0
  9 15  1  0  0  0  0
  7  8  1  0  0  0  0
  7  9  1  0  0  0  0
 19 20  1  0  0  0  0
 19 21  1  0  0  0  0
 19 22  1  0  0  0  0
 17 18  1  0  0  0  0
 17 19  1  0  0  0  0
 27 28  2  0  0  0  0
 27 29  1  0  0  0  0
 24 25  1  0  0  0  0
 24 26  1  0  0  0  0
 24 27  1  0  0  0  0
 23 24  1  0  0  0  0
 37 38  2  0  0  0  0
 37 39  1  0  0  0  0
 33 34  1  0  0  0  0
 33 35  1  0  0  0  0
 33 36  1  0  0  0  0
 31 32  1  0  0  0  0
 31 33  1  0  0  0  0
 31 37  1  0  0  0  0
 29 30  1  0  0  0  0
 29 31  1  0  0  0  0
 41 42  1  0  0  0  0
 41 43  1  0  0  0  0
 41 44  1  0  0  0  0
 39 40  1  0  0  0  0
 39 41  1  0  0  0  0
M  END
$$$$
default_name
  -OEChem-01062215323D

 44 43  0     1  0  0  0  0  0999 V2000
    2.4488   -3.0448    2.0990 H   0  0  0  0  0  0  0  0  0  0  0  0
    2.2788   -2.0018    2.3640 C   0  0  0  0  0  0  0  0  0  0  0  0
    2.9228   -1.7258    3.1960 H   0  0  0  0  0  0  0  0  0  0  0  0
    1.2358   -1.8618    2.6430 H   0  0  0  0  0  0  0  0  0  0  0  0
    2.6018   -1.1318    1.1730 C   0  0  0  0  0  0  0  0  0  0  0  0
    3.0048   -1.6348    0.1320 O   0  0  0  0  0  0  0  0  0  0  0  0
    2.4088    0.1752    1.3190 N   0  0  0  0  0  0  0  0  0  0  0  0
    2.0708    0.5242    2.2050 H   0  0  0  0  0  0  0  0  0  0  0  0
    2.6638    1.1782    0.2840 C   0  0  1  0  0  0  0  0  0  0  0  0
    2.3810    2.1547    0.6806 H   0  0  0  0  0  0  0  0  0  0  0  0
    4.1666    1.2132   -0.0445 C   0  0  0  0  0  0  0  0  0  0  0  0
    4.3193    1.8425   -0.9221 H   0  0  0  0  0  0  0  0  0  0  0  0
    4.4683    0.2064   -0.3323 H   0  0  0  0  0  0  0  0  0  0  0  0
    5.3099    1.7542    1.2604 S   0  0  0  0  0  0  0  0  0  0  0  0
    1.8065    0.9134   -0.9679 C   0  0  0  0  0  0  0  0  0  0  0  0
    1.4467    1.8449   -1.6876 O   0  0  0  0  0  0  0  0  0  0  0  0
    1.4852   -0.3604   -1.2307 N   0  0  0  0  0  0  0  0  0  0  0  0
    1.8156   -1.0740   -0.6011 H   0  0  0  0  0  0  0  0  0  0  0  0
    0.6778   -0.7735   -2.3766 C   0  0  0  0  0  0  0  0  0  0  0  0
   -0.3193   -0.3345   -2.3005 H   0  0  0  0  0  0  0  0  0  0  0  0
    1.1405   -0.4218   -3.3006 H   0  0  0  0  0  0  0  0  0  0  0  0
    0.5918   -1.8604   -2.4079 H   0  0  0  0  0  0  0  0  0  0  0  0
    6.5058    8.7139   -2.7341 H   0  0  0  0  0  0  0  0  0  0  0  0
    6.8116    7.6687   -2.7438 C   0  0  0  0  0  0  0  0  0  0  0  0
    7.8672    7.5972   -3.0013 H   0  0  0  0  0  0  0  0  0  0  0  0
    6.2159    7.1206   -3.4714 H   0  0  0  0  0  0  0  0  0  0  0  0
    6.5901    7.0802   -1.3702 C   0  0  0  0  0  0  0  0  0  0  0  0
    6.1216    7.7663   -0.4720 O   0  0  0  0  0  0  0  0  0  0  0  0
    6.9213    5.8015   -1.2120 N   0  0  0  0  0  0  0  0  0  0  0  0
    7.3127    5.2990   -1.9954 H   0  0  0  0  0  0  0  0  0  0  0  0
    6.7754    5.0551    0.0378 C   0  0  1  0  0  0  0  0  0  0  0  0
    7.0059    5.7156    0.8756 H   0  0  0  0  0  0  0  0  0  0  0  0
    5.3100    4.6140    0.1600 C   0  0  0  0  0  0  0  0  0  0  0  0
    4.6928    5.5131    0.1288 H   0  0  0  0  0  0  0  0  0  0  0  0
    5.0485    4.0141   -0.7119 H   0  0  0  0  0  0  0  0  0  0  0  0
    4.8343    3.7007    1.6521 S   0  0  0  0  0  0  0  0  0  0  0  0
    7.7578    3.8711    0.0757 C   0  0  0  0  0  0  0  0  0  0  0  0
    8.0934    3.3172   -0.9720 O   0  0  0  0  0  0  0  0  0  0  0  0
    8.2211    3.4924    1.2738 N   0  0  0  0  0  0  0  0  0  0  0  0
    7.8720    3.9751    2.0866 H   0  0  0  0  0  0  0  0  0  0  0  0
    9.1513    2.3836    1.4832 C   0  0  0  0  0  0  0  0  0  0  0  0
    8.6272    1.4348    1.3569 H   0  0  0  0  0  0  0  0  0  0  0  0
    9.9625    2.4335    0.7530 H   0  0  0  0  0  0  0  0  0  0  0  0
    9.5729    2.4300    2.4874 H   0  0  0  0  0  0  0  0  0  0  0  0
  5  6  2  0  0  0  0
  5  7  1  0  0  0  0
  2  3  1  0  0  0  0
  2  4  1  0  0  0  0
  2  5  1  0  0  0  0
  1  2  1  0  0  0  0
 15 16  2  0  0  0  0
 15 17  1  0  0  0  0
 14 36  1  0  0  0  0
 11 12  1  0  0  0  0
 11 13  1  0  0  0  0
 11 14  1  0  0  0  0
  9 10  1  0  0  0  0
  9 11  1  0  0  0  0
  9 15  1  0  0  0  0
  7  8  1  0  0  0  0
  7  9  1  0  0  0  0
 19 20  1  0  0  0  0
 19 21  1  0  0  0  0
 19 22  1  0  0  0  0
 17 18  1  0  0  0  0
 17 19  1  0  0  0  0
 27 28  2  0  0  0  0
 27 29  1  0  0  0  0
 24 25  1  0  0  0  0
 24 26  1  0  0  0  0
 24 27  1  0  0  0  0
 23 24  1  0  0  0  0
 37 38  2  0  0  0  0
 37 39  1  0  0  0  0
 33 34  1  0  0  0  0
 33 35  1  0  0  0  0
 33 36  1  0  0  0  0
 31 32  1  0  0  0  0
 31 33  1  0  0  0  0
 31 37  1  0  0  0  0
 29 30  1  0  0  0  0
 29 31  1  0  0  0  0
 41 42  1  0  0  0  0
 41 43  1  0  0  0  0
 41 44  1  0  0  0  0
 39 40  1  0  0  0  0
 39 41  1  0  0  0  0
M  END
$$$$
default_name
  -OEChem-01062215323D

 44 43  0     1  0  0  0  0  0999 V2000
    2.4488   -3.0448    2.0990 H   0  0  0  0  0  0  0  0  0  0  0  0
    2.2788   -2.0018    2.3640 C   0  0  0  0  0  0  0  0  0  0  0  0
    2.9228   -1.7258    3.1960 H   0  0  0  0  0  0  0  0  0  0  0  0
    1.2358   -1.8618    2.6430 H   0  0  0  0  0  0  0  0  0  0  0  0
    2.6018   -1.1318    1.1730 C   0  0  0  0  0  0  0  0  0  0  0  0
    3.0048   -1.6348    0.1320 O   0  0  0  0  0  0  0  0  0  0  0  0
    2.4088    0.1752    1.3190 N   0  0  0  0  0  0  0  0  0  0  0  0
    2.0708    0.5242    2.2050 H   0  0  0  0  0  0  0  0  0  0  0  0
    2.6638    1.1782    0.2840 C   0  0  1  0  0  0  0  0  0  0  0  0
    2.3810    2.1547    0.6806 H   0  0  0  0  0  0  0  0  0  0  0  0
    4.1666    1.2132   -0.0445 C   0  0  0  0  0  0  0  0  0  0  0  0
    4.3193    1.8425   -0.9221 H   0  0  0  0  0  0  0  0  0  0  0  0
    4.4683    0.2064   -0.3323 H   0  0  0  0  0  0  0  0  0  0  0  0
    5.3099    1.7542    1.2604 S   0  0  0  0  0  0  0  0  0  0  0  0
    1.8065    0.9134   -0.9679 C   0  0  0  0  0  0  0  0  0  0  0  0
    1.6751    1.7815   -1.8306 O   0  0  0  0  0  0  0  0  0  0  0  0
    1.2283   -0.2909   -1.0694 N   0  0  0  0  0  0  0  0  0  0  0  0
    1.3801   -0.9556   -0.3279 H   0  0  0  0  0  0  0  0  0  0  0  0
    0.3850   -0.6936   -2.1930 C   0  0  0  0  0  0  0  0  0  0  0  0
   -0.4971   -0.0513   -2.2386 H   0  0  0  0  0  0  0  0  0  0  0  0
    0.9388   -0.5869   -3.1275 H   0  0  0  0  0  0  0  0  0  0  0  0
    0.0697   -1.7314   -2.0776 H   0  0  0  0  0  0  0  0  0  0  0  0
    6.5058    8.7139   -2.7341 H   0  0  0  0  0  0  0  0  0  0  0  0
    6.8116    7.6687   -2.7438 C   0  0  0  0  0  0  0  0  0  0  0  0
    7.8672    7.5972   -3.0013 H   0  0  0  0  0  0  0  0  0  0  0  0
    6.2159    7.1206   -3.4714 H   0  0  0  0  0  0  0  0  0  0  0  0
    6.5901    7.0802   -1.3702 C   0  0  0  0  0  0  0  0  0  0  0  0
    6.1216    7.7663   -0.4720 O   0  0  0  0  0  0  0  0  0  0  0  0
    6.9213    5.8015   -1.2120 N   0  0  0  0  0  0  0  0  0  0  0  0
    7.3127    5.2990   -1.9954 H   0  0  0  0  0  0  0  0  0  0  0  0
    6.7754    5.0551    0.0378 C   0  0  1  0  0  0  0  0  0  0  0  0
    7.0059    5.7156    0.8756 H   0  0  0  0  0  0  0  0  0  0  0  0
    5.3100    4.6140    0.1600 C   0  0  0  0  0  0  0  0  0  0  0  0
    4.6928    5.5131    0.1288 H   0  0  0  0  0  0  0  0  0  0  0  0
    5.0485    4.0141   -0.7119 H   0  0  0  0  0  0  0  0  0  0  0  0
    4.8343    3.7007    1.6521 S   0  0  0  0  0  0  0  0  0  0  0  0
    7.7578    3.8711    0.0757 C   0  0  0  0  0  0  0  0  0  0  0  0
    8.0934    3.3172   -0.9720 O   0  0  0  0  0  0  0  0  0  0  0  0
    8.2211    3.4924    1.2738 N   0  0  0  0  0  0  0  0  0  0  0  0
    7.8720    3.9751    2.0866 H   0  0  0  0  0  0  0  0  0  0  0  0
    9.1513    2.3836    1.4832 C   0  0  0  0  0  0  0  0  0  0  0  0
    8.6272    1.4348    1.3569 H   0  0  0  0  0  0  0  0  0  0  0  0
    9.9625    2.4335    0.7530 H   0  0  0  0  0  0  0  0  0  0  0  0
    9.5729    2.4300    2.4874 H   0  0  0  0  0  0  0  0  0  0  0  0
  5  6  2  0  0  0  0
  5  7  1  0  0  0  0
  2  3  1  0  0  0  0
  2  4  1  0  0  0  0
  2  5  1  0  0  0  0
  1  2  1  0  0  0  0
 15 16  2  0  0  0  0
 15 17  1  0  0  0  0
 14 36  1  0  0  0  0
 11 12  1  0  0  0  0
 11 13  1  0  0  0  0
 11 14  1  0  0  0  0
  9 10  1  0  0  0  0
  9 11  1  0  0  0  0
  9 15  1  0  0  0  0
  7  8  1  0  0  0  0
  7  9  1  0  0  0  0
 19 20  1  0  0  0  0
 19 21  1  0  0  0  0
 19 22  1  0  0  0  0
 17 18  1  0  0  0  0
 17 19  1  0  0  0  0
 27 28  2  0  0  0  0
 27 29  1  0  0  0  0
 24 25  1  0  0  0  0
 24 26  1  0  0  0  0
 24 27  1  0  0  0  0
 23 24  1  0  0  0  0
 37 38  2  0  0  0  0
 37 39  1  0  0  0  0
 33 34  1  0  0  0  0
 33 35  1  0  0  0  0
 33 36  1  0  0  0  0
 31 32  1  0  0  0  0
 31 33  1  0  0  0  0
 31 37  1  0  0  0  0
 29 30  1  0  0  0  0
 29 31  1  0  0  0  0
 41 42  1  0  0  0  0
 41 43  1  0  0  0  0
 41 44  1  0  0  0  0
 39 40  1  0  0  0  0
 39 41  1  0  0  0  0
M  END
$$$$
default_name
  -OEChem-01062215323D

 44 43  0     1  0  0  0  0  0999 V2000
    2.4488   -3.0448    2.0990 H   0  0  0  0  0  0  0  0  0  0  0  0
    2.2788   -2.0018    2.3640 C   0  0  0  0  0  0  0  0  0  0  0  0
    2.9228   -1.7258    3.1960 H   0  0  0  0  0  0  0  0  0  0  0  0
    1.2358   -1.8618    2.6430 H   0  0  0  0  0  0  0  0  0  0  0  0
    2.6018   -1.1318    1.1730 C   0  0  0  0  0  0  0  0  0  0  0  0
    3.0048   -1.6348    0.1320 O   0  0  0  0  0  0  0  0  0  0  0  0
    2.4088    0.1752    1.3190 N   0  0  0  0  0  0  0  0  0  0  0  0
    2.0708    0.5242    2.2050 H   0  0  0  0  0  0  0  0  0  0  0  0
    2.6638    1.1782    0.2840 C   0  0  1  0  0  0  0  0  0  0  0  0
    2.3810    2.1547    0.6806 H   0  0  0  0  0  0  0  0  0  0  0  0
    4.1666    1.2132   -0.0445 C   0  0  0  0  0  0  0  0  0  0  0  0
    4.3193    1.8425   -0.9221 H   0  0  0  0  0  0  0  0  0  0  0  0
    4.4683    0.2064   -0.3323 H   0  0  0  0  0  0  0  0  0  0  0  0
    5.3099    1.7542    1.2604 S   0  0  0  0  0  0  0  0  0  0  0  0
    1.8065    0.9134   -0.9679 C   0  0  0  0  0  0  0  0  0  0  0  0
    1.8887    1.6516   -1.9494 O   0  0  0  0  0  0  0  0  0  0  0  0
    0.9876   -0.1464   -0.9352 N   0  0  0  0  0  0  0  0  0  0  0  0
    0.9723   -0.7102   -0.1005 H   0  0  0  0  0  0  0  0  0  0  0  0
    0.1107   -0.5284   -2.0402 C   0  0  0  0  0  0  0  0  0  0  0  0
   -0.6121    0.2686   -2.2275 H   0  0  0  0  0  0  0  0  0  0  0  0
    0.7015   -0.6790   -2.9456 H   0  0  0  0  0  0  0  0  0  0  0  0
   -0.4222   -1.4494   -1.8004 H   0  0  0  0  0  0  0  0  0  0  0  0
    6.5058    8.7139   -2.7341 H   0  0  0  0  0  0  0  0  0  0  0  0
    6.8116    7.6687   -2.7438 C   0  0  0  0  0  0  0  0  0  0  0  0
    7.8672    7.5972   -3.0013 H   0  0  0  0  0  0  0  0  0  0  0  0
    6.2159    7.1206   -3.4714 H   0  0  0  0  0  0  0  0  0  0  0  0
    6.5901    7.0802   -1.3702 C   0  0  0  0  0  0  0  0  0  0  0  0
    6.1216    7.7663   -0.4720 O   0  0  0  0  0  0  0  0  0  0  0  0
    6.9213    5.8015   -1.2120 N   0  0  0  0  0  0  0  0  0  0  0  0
    7.3127    5.2990   -1.9954 H   0  0  0  0  0  0  0  0  0  0  0  0
    6.7754    5.0551    0.0378 C   0  0  1  0  0  0  0  0  0  0  0  0
    7.0059    5.7156    0.8756 H   0  0  0  0  0  0  0  0  0  0  0  0
    5.3100    4.6140    0.1600 C   0  0  0  0  0  0  0  0  0  0  0  0
    4.6928    5.5131    0.1288 H   0  0  0  0  0  0  0  0  0  0  0  0
    5.0485    4.0141   -0.7119 H   0  0  0  0  0  0  0  0  0  0  0  0
    4.8343    3.7007    1.6521 S   0  0  0  0  0  0  0  0  0  0  0  0
    7.7578    3.8711    0.0757 C   0  0  0  0  0  0  0  0  0  0  0  0
    8.0934    3.3172   -0.9720 O   0  0  0  0  0  0  0  0  0  0  0  0
    8.2211    3.4924    1.2738 N   0  0  0  0  0  0  0  0  0  0  0  0
    7.8720    3.9751    2.0866 H   0  0  0  0  0  0  0  0  0  0  0  0
    9.1513    2.3836    1.4832 C   0  0  0  0  0  0  0  0  0  0  0  0
    8.6272    1.4348    1.3569 H   0  0  0  0  0  0  0  0  0  0  0  0
    9.9625    2.4335    0.7530 H   0  0  0  0  0  0  0  0  0  0  0  0
    9.5729    2.4300    2.4874 H   0  0  0  0  0  0  0  0  0  0  0  0
  5  6  2  0  0  0  0
  5  7  1  0  0  0  0
  2  3  1  0  0  0  0
  2  4  1  0  0  0  0
  2  5  1  0  0  0  0
  1  2  1  0  0  0  0
 15 16  2  0  0  0  0
 15 17  1  0  0  0  0
 14 36  1  0  0  0  0
 11 12  1  0  0  0  0
 11 13  1  0  0  0  0
 11 14  1  0  0  0  0
  9 10  1  0  0  0  0
  9 11  1  0  0  0  0
  9 15  1  0  0  0  0
  7  8  1  0  0  0  0
  7  9  1  0  0  0  0
 19 20  1  0  0  0  0
 19 21  1  0  0  0  0
 19 22  1  0  0  0  0
 17 18  1  0  0  0  0
 17 19  1  0  0  0  0
 27 28  2  0  0  0  0
 27 29  1  0  0  0  0
 24 25  1  0  0  0  0
 24 26  1  0  0  0  0
 24 27  1  0  0  0  0
 23 24  1  0  0  0  0
 37 38  2  0  0  0  0
 37 39  1  0  0  0  0
 33 34  1  0  0  0  0
 33 35  1  0  0  0  0
 33 36  1  0  0  0  0
 31 32  1  0  0  0  0
 31 33  1  0  0  0  0
 31 37  1  0  0  0  0
 29 30  1  0  0  0  0
 29 31  1  0  0  0  0
 41 42  1  0  0  0  0
 41 43  1  0  0  0  0
 41 44  1  0  0  0  0
 39 40  1  0  0  0  0
 39 41  1  0  0  0  0
M  END
$$$$
default_name
  -OEChem-01062215323D

 44 43  0     1  0  0  0  0  0999 V2000
    2.4488   -3.0448    2.0990 H   0  0  0  0  0  0  0  0  0  0  0  0
    2.2788   -2.0018    2.3640 C   0  0  0  0  0  0  0  0  0  0  0  0
    2.9228   -1.7258    3.1960 H   0  0  0  0  0  0  0  0  0  0  0  0
    1.2358   -1.8618    2.6430 H   0  0  0  0  0  0  0  0  0  0  0  0
    2.6018   -1.1318    1.1730 C   0  0  0  0  0  0  0  0  0  0  0  0
    3.0048   -1.6348    0.1320 O   0  0  0  0  0  0  0  0  0  0  0  0
    2.4088    0.1752    1.3190 N   0  0  0  0  0  0  0  0  0  0  0  0
    2.0708    0.5242    2.2050 H   0  0  0  0  0  0  0  0  0  0  0  0
    2.6638    1.1782    0.2840 C   0  0  1  0  0  0  0  0  0  0  0  0
    2.3810    2.1547    0.6806 H   0  0  0  0  0  0  0  0  0  0  0  0
    4.1666    1.2132   -0.0445 C   0  0  0  0  0  0  0  0  0  0  0  0
    4.3193    1.8425   -0.9221 H   0  0  0  0  0  0  0  0  0  0  0  0
    4.4683    0.2064   -0.3323 H   0  0  0  0  0  0  0  0  0  0  0  0
    5.3099    1.7542    1.2604 S   0  0  0  0  0  0  0  0  0  0  0  0
    1.8065    0.9134   -0.9679 C   0  0  0  0  0  0  0  0  0  0  0  0
    2.0730    1.4641   -2.0360 O   0  0  0  0  0  0  0  0  0  0  0  0
    0.7795    0.0631   -0.8370 N   0  0  0  0  0  0  0  0  0  0  0  0
    0.6198   -0.3547    0.0656 H   0  0  0  0  0  0  0  0  0  0  0  0
   -0.1262   -0.2891   -1.9285 C   0  0  0  0  0  0  0  0  0  0  0  0
   -0.6563    0.6033   -2.2680 H   0  0  0  0  0  0  0  0  0  0  0  0
    0.4448   -0.6918   -2.7671 H   0  0  0  0  0  0  0  0  0  0  0  0
   -0.8503   -1.0336   -1.5952 H   0  0  0  0  0  0  0  0  0  0  0  0
    6.5058    8.7139   -2.7341 H   0  0  0  0  0  0  0  0  0  0  0  0
    6.8116    7.6687   -2.7438 C   0  0  0  0  0  0  0  0  0  0  0  0
    7.8672    7.5972   -3.0013 H   0  0  0  0  0  0  0  0  0  0  0  0
    6.2159    7.1206   -3.4714 H   0  0  0  0  0  0  0  0  0  0  0  0
    6.5901    7.0802   -1.3702 C   0  0  0  0  0  0  0  0  0  0  0  0
    6.1216    7.7663   -0.4720 O   0  0  0  0  0  0  0  0  0  0  0  0
    6.9213    5.8015   -1.2120 N   0  0  0  0  0  0  0  0  0  0  0  0
    7.3127    5.2990   -1.9954 H   0  0  0  0  0  0  0  0  0  0  0  0
    6.7754    5.0551    0.0378 C   0  0  1  0  0  0  0  0  0  0  0  0
    7.0059    5.7156    0.8756 H   0  0  0  0  0  0  0  0  0  0  0  0
    5.3100    4.6140    0.1600 C   0  0  0  0  0  0  0  0  0  0  0  0
    4.6928    5.5131    0.1288 H   0  0  0  0  0  0  0  0  0  0  0  0
    5.0485    4.0141   -0.7119 H   0  0  0  0  0  0  0  0  0  0  0  0
    4.8343    3.7007    1.6521 S   0  0  0  0  0  0  0  0  0  0  0  0
    7.7578    3.8711    0.0757 C   0  0  0  0  0  0  0  0  0  0  0  0
    8.0934    3.3172   -0.9720 O   0  0  0  0  0  0  0  0  0  0  0  0
    8.2211    3.4924    1.2738 N   0  0  0  0  0  0  0  0  0  0  0  0
    7.8720    3.9751    2.0866 H   0  0  0  0  0  0  0  0  0  0  0  0
    9.1513    2.3836    1.4832 C   0  0  0  0  0  0  0  0  0  0  0  0
    8.6272    1.4348    1.3569 H   0  0  0  0  0  0  0  0  0  0  0  0
    9.9625    2.4335    0.7530 H   0  0  0  0  0  0  0  0  0  0  0  0
    9.5729    2.4300    2.4874 H   0  0  0  0  0  0  0  0  0  0  0  0
  5  6  2  0  0  0  0
  5  7  1  0  0  0  0
  2  3  1  0  0  0  0
  2  4  1  0  0  0  0
  2  5  1  0  0  0  0
  1  2  1  0  0  0  0
 15 16  2  0  0  0  0
 15 17  1  0  0  0  0
 14 36  1  0  0  0  0
 11 12  1  0  0  0  0
 11 13  1  0  0  0  0
 11 14  1  0  0  0  0
  9 10  1  0  0  0  0
  9 11  1  0  0  0  0
  9 15  1  0  0  0  0
  7  8  1  0  0  0  0
  7  9  1  0  0  0  0
 19 20  1  0  0  0  0
 19 21  1  0  0  0  0
 19 22  1  0  0  0  0
 17 18  1  0  0  0  0
 17 19  1  0  0  0  0
 27 28  2  0  0  0  0
 27 29  1  0  0  0  0
 24 25  1  0  0  0  0
 24 26  1  0  0  0  0
 24 27  1  0  0  0  0
 23 24  1  0  0  0  0
 37 38  2  0  0  0  0
 37 39  1  0  0  0  0
 33 34  1  0  0  0  0
 33 35  1  0  0  0  0
 33 36  1  0  0  0  0
 31 32  1  0  0  0  0
 31 33  1  0  0  0  0
 31 37  1  0  0  0  0
 29 30  1  0  0  0  0
 29 31  1  0  0  0  0
 41 42  1  0  0  0  0
 41 43  1  0  0  0  0
 41 44  1  0  0  0  0
 39 40  1  0  0  0  0
 39 41  1  0  0  0  0
M  END
$$$$
default_name
  -OEChem-01062215323D

 44 43  0     1  0  0  0  0  0999 V2000
    2.4488   -3.0448    2.0990 H   0  0  0  0  0  0  0  0  0  0  0  0
    2.2788   -2.0018    2.3640 C   0  0  0  0  0  0  0  0  0  0  0  0
    2.9228   -1.7258    3.1960 H   0  0  0  0  0  0  0  0  0  0  0  0
    1.2358   -1.8618    2.6430 H   0  0  0  0  0  0  0  0  0  0  0  0
    2.6018   -1.1318    1.1730 C   0  0  0  0  0  0  0  0  0  0  0  0
    3.0048   -1.6348    0.1320 O   0  0  0  0  0  0  0  0  0  0  0  0
    2.4088    0.1752    1.3190 N   0  0  0  0  0  0  0  0  0  0  0  0
    2.0708    0.5242    2.2050 H   0  0  0  0  0  0  0  0  0  0  0  0
    2.6638    1.1782    0.2840 C   0  0  1  0  0  0  0  0  0  0  0  0
    2.3810    2.1547    0.6806 H   0  0  0  0  0  0  0  0  0  0  0  0
    4.1666    1.2132   -0.0445 C   0  0  0  0  0  0  0  0  0  0  0  0
    4.3193    1.8425   -0.9221 H   0  0  0  0  0  0  0  0  0  0  0  0
    4.4683    0.2064   -0.3323 H   0  0  0  0  0  0  0  0  0  0  0  0
    5.3099    1.7542    1.2604 S   0  0  0  0  0  0  0  0  0  0  0  0
    1.8065    0.9134   -0.9679 C   0  0  0  0  0  0  0  0  0  0  0  0
    2.2155    1.2318   -2.0844 O   0  0  0  0  0  0  0  0  0  0  0  0
    0.6182    0.3234   -0.7816 N   0  0  0  0  0  0  0  0  0  0  0  0
    0.3468    0.0869    0.1592 H   0  0  0  0  0  0  0  0  0  0  0  0
   -0.3097    0.0080   -1.8657 C   0  0  0  0  0  0  0  0  0  0  0  0
   -0.6268    0.9302   -2.3574 H   0  0  0  0  0  0  0  0  0  0  0  0
    0.1863   -0.6244   -2.6043 H   0  0  0  0  0  0  0  0  0  0  0  0
   -1.1855   -0.5123   -1.4759 H   0  0  0  0  0  0  0  0  0  0  0  0
    6.5058    8.7139   -2.7341 H   0  0  0  0  0  0  0  0  0  0  0  0
    6.8116    7.6687   -2.7438 C   0  0  0  0  0  0  0  0  0  0  0  0
    7.8672    7.5972   -3.0013 H   0  0  0  0  0  0  0  0  0  0  0  0
    6.2159    7.1206   -3.4714 H   0  0  0  0  0  0  0  0  0  0  0  0
    6.5901    7.0802   -1.3702 C   0  0  0  0  0  0  0  0  0  0  0  0
    6.1216    7.7663   -0.4720 O   0  0  0  0  0  0  0  0  0  0  0  0
    6.9213    5.8015   -1.2120 N   0  0  0  0  0  0  0  0  0  0  0  0
    7.3127    5.2990   -1.9954 H   0  0  0  0  0  0  0  0  0  0  0  0
    6.7754    5.0551    0.0378 C   0  0  1  0  0  0  0  0  0  0  0  0
    7.0059    5.7156    0.8756 H   0  0  0  0  0  0  0  0  0  0  0  0
    5.3100    4.6140    0.1600 C   0  0  0  0  0  0  0  0  0  0  0  0
    4.6928    5.5131    0.1288 H   0  0  0  0  0  0  0  0  0  0  0  0
    5.0485    4.0141   -0.7119 H   0  0  0  0  0  0  0  0  0  0  0  0
    4.8343    3.7007    1.6521 S   0  0  0  0  0  0  0  0  0  0  0  0
    7.7578    3.8711    0.0757 C   0  0  0  0  0  0  0  0  0  0  0  0
    8.0934    3.3172   -0.9720 O   0  0  0  0  0  0  0  0  0  0  0  0
    8.2211    3.4924    1.2738 N   0  0  0  0  0  0  0  0  0  0  0  0
    7.8720    3.9751    2.0866 H   0  0  0  0  0  0  0  0  0  0  0  0
    9.1513    2.3836    1.4832 C   0  0  0  0  0  0  0  0  0  0  0  0
    8.6272    1.4348    1.3569 H   0  0  0  0  0  0  0  0  0  0  0  0
    9.9625    2.4335    0.7530 H   0  0  0  0  0  0  0  0  0  0  0  0
    9.5729    2.4300    2.4874 H   0  0  0  0  0  0  0  0  0  0  0  0
  5  6  2  0  0  0  0
  5  7  1  0  0  0  0
  2  3  1  0  0  0  0
  2  4  1  0  0  0  0
  2  5  1  0  0  0  0
  1  2  1  0  0  0  0
 15 16  2  0  0  0  0
 15 17  1  0  0  0  0
 14 36  1  0  0  0  0
 11 12  1  0  0  0  0
 11 13  1  0  0  0  0
 11 14  1  0  0  0  0
  9 10  1  0  0  0  0
  9 11  1  0  0  0  0
  9 15  1  0  0  0  0
  7  8  1  0  0  0  0
  7  9  1  0  0  0  0
 19 20  1  0  0  0  0
 19 21  1  0  0  0  0
 19 22  1  0  0  0  0
 17 18  1  0  0  0  0
 17 19  1  0  0  0  0
 27 28  2  0  0  0  0
 27 29  1  0  0  0  0
 24 25  1  0  0  0  0
 24 26  1  0  0  0  0
 24 27  1  0  0  0  0
 23 24  1  0  0  0  0
 37 38  2  0  0  0  0
 37 39  1  0  0  0  0
 33 34  1  0  0  0  0
 33 35  1  0  0  0  0
 33 36  1  0  0  0  0
 31 32  1  0  0  0  0
 31 33  1  0  0  0  0
 31 37  1  0  0  0  0
 29 30  1  0  0  0  0
 29 31  1  0  0  0  0
 41 42  1  0  0  0  0
 41 43  1  0  0  0  0
 41 44  1  0  0  0  0
 39 40  1  0  0  0  0
 39 41  1  0  0  0  0
M  END
$$$$
default_name
  -OEChem-01062215323D

 44 43  0     1  0  0  0  0  0999 V2000
    2.4488   -3.0448    2.0990 H   0  0  0  0  0  0  0  0  0  0  0  0
    2.2788   -2.0018    2.3640 C   0  0  0  0  0  0  0  0  0  0  0  0
    2.9228   -1.7258    3.1960 H   0  0  0  0  0  0  0  0  0  0  0  0
    1.2358   -1.8618    2.6430 H   0  0  0  0  0  0  0  0  0  0  0  0
    2.6018   -1.1318    1.1730 C   0  0  0  0  0  0  0  0  0  0  0  0
    3.0048   -1.6348    0.1320 O   0  0  0  0  0  0  0  0  0  0  0  0
    2.4088    0.1752    1.3190 N   0  0  0  0  0  0  0  0  0  0  0  0
    2.0708    0.5242    2.2050 H   0  0  0  0  0  0  0  0  0  0  0  0
    2.6638    1.1782    0.2840 C   0  0  1  0  0  0  0  0  0  0  0  0
    2.3810    2.1547    0.6806 H   0  0  0  0  0  0  0  0  0  0  0  0
    4.1666    1.2132   -0.0445 C   0  0  0  0  0  0  0  0  0  0  0  0
    4.3193    1.8425   -0.9221 H   0  0  0  0  0  0  0  0  0  0  0  0
    4.4683    0.2064   -0.3323 H   0  0  0  0  0  0  0  0  0  0  0  0
    5.3099    1.7542    1.2604 S   0  0  0  0  0  0  0  0  0  0  0  0
    1.8065    0.9134   -0.9679 C   0  0  0  0  0  0  0  0  0  0  0  0
    2.3063    0.9704   -2.0913 O   0  0  0  0  0  0  0  0  0  0  0  0
    0.5147    0.6167   -0.7728 N   0  0  0  0  0  0  0  0  0  0  0  0
    0.1718    0.5842    0.1738 H   0  0  0  0  0  0  0  0  0  0  0  0
   -0.4272    0.3426   -1.8560 C   0  0  0  0  0  0  0  0  0  0  0  0
   -0.5256    1.2268   -2.4894 H   0  0  0  0  0  0  0  0  0  0  0  0
   -0.0565   -0.4815   -2.4682 H   0  0  0  0  0  0  0  0  0  0  0  0
   -1.4049    0.0789   -1.4507 H   0  0  0  0  0  0  0  0  0  0  0  0
    6.5058    8.7139   -2.7341 H   0  0  0  0  0  0  0  0  0  0  0  0
    6.8116    7.6687   -2.7438 C   0  0  0  0  0  0  0  0  0  0  0  0
    7.8672    7.5972   -3.0013 H   0  0  0  0  0  0  0  0  0  0  0  0
    6.2159    7.1206   -3.4714 H   0  0  0  0  0  0  0  0  0  0  0  0
    6.5901    7.0802   -1.3702 C   0  0  0  0  0  0  0  0  0  0  0  0
    6.1216    7.7663   -0.4720 O   0  0  0  0  0  0  0  0  0  0  0  0
    6.9213    5.8015   -1.2120 N   0  0  0  0  0  0  0  0  0  0  0  0
    7.3127    5.2990   -1.9954 H   0  0  0  0  0  0  0  0  0  0  0  0
    6.7754    5.0551    0.0378 C   0  0  1  0  0  0  0  0  0  0  0  0
    7.0059    5.7156    0.8756 H   0  0  0  0  0  0  0  0  0  0  0  0
    5.3100    4.6140    0.1600 C   0  0  0  0  0  0  0  0  0  0  0  0
    4.6928    5.5131    0.1288 H   0  0  0  0  0  0  0  0  0  0  0  0
    5.0485    4.0141   -0.7119 H   0  0  0  0  0  0  0  0  0  0  0  0
    4.8343    3.7007    1.6521 S   0  0  0  0  0  0  0  0  0  0  0  0
    7.7578    3.8711    0.0757 C   0  0  0  0  0  0  0  0  0  0  0  0
    8.0934    3.3172   -0.9720 O   0  0  0  0  0  0  0  0  0  0  0  0
    8.2211    3.4924    1.2738 N   0  0  0  0  0  0  0  0  0  0  0  0
    7.8720    3.9751    2.0866 H   0  0  0  0  0  0  0  0  0  0  0  0
    9.1513    2.3836    1.4832 C   0  0  0  0  0  0  0  0  0  0  0  0
    8.6272    1.4348    1.3569 H   0  0  0  0  0  0  0  0  0  0  0  0
    9.9625    2.4335    0.7530 H   0  0  0  0  0  0  0  0  0  0  0  0
    9.5729    2.4300    2.4874 H   0  0  0  0  0  0  0  0  0  0  0  0
  5  6  2  0  0  0  0
  5  7  1  0  0  0  0
  2  3  1  0  0  0  0
  2  4  1  0  0  0  0
  2  5  1  0  0  0  0
  1  2  1  0  0  0  0
 15 16  2  0  0  0  0
 15 17  1  0  0  0  0
 14 36  1  0  0  0  0
 11 12  1  0  0  0  0
 11 13  1  0  0  0  0
 11 14  1  0  0  0  0
  9 10  1  0  0  0  0
  9 11  1  0  0  0  0
  9 15  1  0  0  0  0
  7  8  1  0  0  0  0
  7  9  1  0  0  0  0
 19 20  1  0  0  0  0
 19 21  1  0  0  0  0
 19 22  1  0  0  0  0
 17 18  1  0  0  0  0
 17 19  1  0  0  0  0
 27 28  2  0  0  0  0
 27 29  1  0  0  0  0
 24 25  1  0  0  0  0
 24 26  1  0  0  0  0
 24 27  1  0  0  0  0
 23 24  1  0  0  0  0
 37 38  2  0  0  0  0
 37 39  1  0  0  0  0
 33 34  1  0  0  0  0
 33 35  1  0  0  0  0
 33 36  1  0  0  0  0
 31 32  1  0  0  0  0
 31 33  1  0  0  0  0
 31 37  1  0  0  0  0
 29 30  1  0  0  0  0
 29 31  1  0  0  0  0
 41 42  1  0  0  0  0
 41 43  1  0  0  0  0
 41 44  1  0  0  0  0
 39 40  1  0  0  0  0
 39 41  1  0  0  0  0
M  END
$$$$
default_name
  -OEChem-01062215323D

 44 43  0     1  0  0  0  0  0999 V2000
    2.4488   -3.0448    2.0990 H   0  0  0  0  0  0  0  0  0  0  0  0
    2.2788   -2.0018    2.3640 C   0  0  0  0  0  0  0  0  0  0  0  0
    2.9228   -1.7258    3.1960 H   0  0  0  0  0  0  0  0  0  0  0  0
    1.2358   -1.8618    2.6430 H   0  0  0  0  0  0  0  0  0  0  0  0
    2.6018   -1.1318    1.1730 C   0  0  0  0  0  0  0  0  0  0  0  0
    3.0048   -1.6348    0.1320 O   0  0  0  0  0  0  0  0  0  0  0  0
    2.4088    0.1752    1.3190 N   0  0  0  0  0  0  0  0  0  0  0  0
    2.0708    0.5242    2.2050 H   0  0  0  0  0  0  0  0  0  0  0  0
    2.6638    1.1782    0.2840 C   0  0  1  0  0  0  0  0  0  0  0  0
    2.3810    2.1547    0.6806 H   0  0  0  0  0  0  0  0  0  0  0  0
    4.1666    1.2132   -0.0445 C   0  0  0  0  0  0  0  0  0  0  0  0
    4.3193    1.8425   -0.9221 H   0  0  0  0  0  0  0  0  0  0  0  0
    4.4683    0.2064   -0.3323 H   0  0  0  0  0  0  0  0  0  0  0  0
    5.3099    1.7542    1.2604 S   0  0  0  0  0  0  0  0  0  0  0  0
    1.8065    0.9134   -0.9679 C   0  0  0  0  0  0  0  0  0  0  0  0
    2.3394    0.6978   -2.0563 O   0  0  0  0  0  0  0  0  0  0  0  0
    0.4760    0.9231   -0.8111 N   0  0  0  0  0  0  0  0  0  0  0  0
    0.1067    1.1036    0.1085 H   0  0  0  0  0  0  0  0  0  0  0  0
   -0.4708    0.6920   -1.9001 C   0  0  0  0  0  0  0  0  0  0  0  0
   -0.3595    1.4730   -2.6552 H   0  0  0  0  0  0  0  0  0  0  0  0
   -0.2671   -0.2728   -2.3682 H   0  0  0  0  0  0  0  0  0  0  0  0
   -1.4936    0.6998   -1.5213 H   0  0  0  0  0  0  0  0  0  0  0  0
    6.5058    8.7139   -2.7341 H   0  0  0  0  0  0  0  0  0  0  0  0
    6.8116    7.6687   -2.7438 C   0  0  0  0  0  0  0  0  0  0  0  0
    7.8672    7.5972   -3.0013 H   0  0  0  0  0  0  0  0  0  0  0  0
    6.2159    7.1206   -3.4714 H   0  0  0  0  0  0  0  0  0  0  0  0
    6.5901    7.0802   -1.3702 C   0  0  0  0  0  0  0  0  0  0  0  0
    6.1216    7.7663   -0.4720 O   0  0  0  0  0  0  0  0  0  0  0  0
    6.9213    5.8015   -1.2120 N   0  0  0  0  0  0  0  0  0  0  0  0
    7.3127    5.2990   -1.9954 H   0  0  0  0  0  0  0  0  0  0  0  0
    6.7754    5.0551    0.0378 C   0  0  1  0  0  0  0  0  0  0  0  0
    7.0059    5.7156    0.8756 H   0  0  0  0  0  0  0  0  0  0  0  0
    5.3100    4.6140    0.1600 C   0  0  0  0  0  0  0  0  0  0  0  0
    4.6928    5.5131    0.1288 H   0  0  0  0  0  0  0  0  0  0  0  0
    5.0485    4.0141   -0.7119 H   0  0  0  0  0  0  0  0  0  0  0  0
    4.8343    3.7007    1.6521 S   0  0  0  0  0  0  0  0  0  0  0  0
    7.7578    3.8711    0.0757 C   0  0  0  0  0  0  0  0  0  0  0  0
    8.0934    3.3172   -0.9720 O   0  0  0  0  0  0  0  0  0  0  0  0
    8.2211    3.4924    1.2738 N   0  0  0  0  0  0  0  0  0  0  0  0
    7.8720    3.9751    2.0866 H   0  0  0  0  0  0  0  0  0  0  0  0
    9.1513    2.3836    1.4832 C   0  0  0  0  0  0  0  0  0  0  0  0
    8.6272    1.4348    1.3569 H   0  0  0  0  0  0  0  0  0  0  0  0
    9.9625    2.4335    0.7530 H   0  0  0  0  0  0  0  0  0  0  0  0
    9.5729    2.4300    2.4874 H   0  0  0  0  0  0  0  0  0  0  0  0
  5  6  2  0  0  0  0
  5  7  1  0  0  0  0
  2  3  1  0  0  0  0
  2  4  1  0  0  0  0
  2  5  1  0  0  0  0
  1  2  1  0  0  0  0
 15 16  2  0  0  0  0
 15 17  1  0  0  0  0
 14 36  1  0  0  0  0
 11 12  1  0  0  0  0
 11 13  1  0  0  0  0
 11 14  1  0  0  0  0
  9 10  1  0  0  0  0
  9 11  1  0  0  0  0
  9 15  1  0  0  0  0
  7  8  1  0  0  0  0
  7  9  1  0  0  0  0
 19 20  1  0  0  0  0
 19 21  1  0  0  0  0
 19 22  1  0  0  0  0
 17 18  1  0  0  0  0
 17 19  1  0  0  0  0
 27 28  2  0  0  0  0
 27 29  1  0  0  0  0
 24 25  1  0  0  0  0
 24 26  1  0  0  0  0
 24 27  1  0  0  0  0
 23 24  1  0  0  0  0
 37 38  2  0  0  0  0
 37 39  1  0  0  0  0
 33 34  1  0  0  0  0
 33 35  1  0  0  0  0
 33 36  1  0  0  0  0
 31 32  1  0  0  0  0
 31 33  1  0  0  0  0
 31 37  1  0  0  0  0
 29 30  1  0  0  0  0
 29 31  1  0  0  0  0
 41 42  1  0  0  0  0
 41 43  1  0  0  0  0
 41 44  1  0  0  0  0
 39 40  1  0  0  0  0
 39 41  1  0  0  0  0
M  END
$$$$
default_name
  -OEChem-01062215323D

 44 43  0     1  0  0  0  0  0999 V2000
    2.4488   -3.0448    2.0990 H   0  0  0  0  0  0  0  0  0  0  0  0
    2.2788   -2.0018    2.3640 C   0  0  0  0  0  0  0  0  0  0  0  0
    2.9228   -1.7258    3.1960 H   0  0  0  0  0  0  0  0  0  0  0  0
    1.2358   -1.8618    2.6430 H   0  0  0  0  0  0  0  0  0  0  0  0
    2.6018   -1.1318    1.1730 C   0  0  0  0  0  0  0  0  0  0  0  0
    3.0048   -1.6348    0.1320 O   0  0  0  0  0  0  0  0  0  0  0  0
    2.4088    0.1752    1.3190 N   0  0  0  0  0  0  0  0  0  0  0  0
    2.0708    0.5242    2.2050 H   0  0  0  0  0  0  0  0  0  0  0  0
    2.6638    1.1782    0.2840 C   0  0  1  0  0  0  0  0  0  0  0  0
    2.3810    2.1547    0.6806 H   0  0  0  0  0  0  0  0  0  0  0  0
    4.1666    1.2132   -0.0445 C   0  0  0  0  0  0  0  0  0  0  0  0
    4.3193    1.8425   -0.9221 H   0  0  0  0  0  0  0  0  0  0  0  0
    4.4683    0.2064   -0.3323 H   0  0  0  0  0  0  0  0  0  0  0  0
    5.3099    1.7542    1.2604 S   0  0  0  0  0  0  0  0  0  0  0  0
    1.8065    0.9134   -0.9679 C   0  0  0  0  0  0  0  0  0  0  0  0
    2.3125    0.4326   -1.9818 O   0  0  0  0  0  0  0  0  0  0  0  0
    0.5049    1.2217   -0.8940 N   0  0  0  0  0  0  0  0  0  0  0  0
    0.1560    1.6095   -0.0323 H   0  0  0  0  0  0  0  0  0  0  0  0
   -0.4374    1.0322   -1.9949 C   0  0  0  0  0  0  0  0  0  0  0  0
   -0.1400    1.6520   -2.8434 H   0  0  0  0  0  0  0  0  0  0  0  0
   -0.4310   -0.0126   -2.3110 H   0  0  0  0  0  0  0  0  0  0  0  0
   -1.4455    1.3079   -1.6829 H   0  0  0  0  0  0  0  0  0  0  0  0
    6.5058    8.7139   -2.7341 H   0  0  0  0  0  0  0  0  0  0  0  0
    6.8116    7.6687   -2.7438 C   0  0  0  0  0  0  0  0  0  0  0  0
    7.8672    7.5972   -3.0013 H   0  0  0  0  0  0  0  0  0  0  0  0
    6.2159    7.1206   -3.4714 H   0  0  0  0  0  0  0  0  0  0  0  0
    6.5901    7.0802   -1.3702 C   0  0  0  0  0  0  0  0  0  0  0  0
    6.1216    7.7663   -0.4720 O   0  0  0  0  0  0  0  0  0  0  0  0
    6.9213    5.8015   -1.2120 N   0  0  0  0  0  0  0  0  0  0  0  0
    7.3127    5.2990   -1.9954 H   0  0  0  0  0  0  0  0  0  0  0  0
    6.7754    5.0551    0.0378 C   0  0  1  0  0  0  0  0  0  0  0  0
    7.0059    5.7156    0.8756 H   0  0  0  0  0  0  0  0  0  0  0  0
    5.3100    4.6140    0.1600 C   0  0  0  0  0  0  0  0  0  0  0  0
    4.6928    5.5131    0.1288 H   0  0  0  0  0  0  0  0  0  0  0  0
    5.0485    4.0141   -0.7119 H   0  0  0  0  0  0  0  0  0  0  0  0
    4.8343    3.7007    1.6521 S   0  0  0  0  0  0  0  0  0  0  0  0
    7.7578    3.8711    0.0757 C   0  0  0  0  0  0  0  0  0  0  0  0
    8.0934    3.3172   -0.9720 O   0  0  0  0  0  0  0  0  0  0  0  0
    8.2211    3.4924    1.2738 N   0  0  0  0  0  0  0  0  0  0  0  0
    7.8720    3.9751    2.0866 H   0  0  0  0  0  0  0  0  0  0  0  0
    9.1513    2.3836    1.4832 C   0  0  0  0  0  0  0  0  0  0  0  0
    8.6272    1.4348    1.3569 H   0  0  0  0  0  0  0  0  0  0  0  0
    9.9625    2.4335    0.7530 H   0  0  0  0  0  0  0  0  0  0  0  0
    9.5729    2.4300    2.4874 H   0  0  0  0  0  0  0  0  0  0  0  0
  5  6  2  0  0  0  0
  5  7  1  0  0  0  0
  2  3  1  0  0  0  0
  2  4  1  0  0  0  0
  2  5  1  0  0  0  0
  1  2  1  0  0  0  0
 15 16  2  0  0  0  0
 15 17  1  0  0  0  0
 14 36  1  0  0  0  0
 11 12  1  0  0  0  0
 11 13  1  0  0  0  0
 11 14  1  0  0  0  0
  9 10  1  0  0  0  0
  9 11  1  0  0  0  0
  9 15  1  0  0  0  0
  7  8  1  0  0  0  0
  7  9  1  0  0  0  0
 19 20  1  0  0  0  0
 19 21  1  0  0  0  0
 19 22  1  0  0  0  0
 17 18  1  0  0  0  0
 17 19  1  0  0  0  0
 27 28  2  0  0  0  0
 27 29  1  0  0  0  0
 24 25  1  0  0  0  0
 24 26  1  0  0  0  0
 24 27  1  0  0  0  0
 23 24  1  0  0  0  0
 37 38  2  0  0  0  0
 37 39  1  0  0  0  0
 33 34  1  0  0  0  0
 33 35  1  0  0  0  0
 33 36  1  0  0  0  0
 31 32  1  0  0  0  0
 31 33  1  0  0  0  0
 31 37  1  0  0  0  0
 29 30  1  0  0  0  0
 29 31  1  0  0  0  0
 41 42  1  0  0  0  0
 41 43  1  0  0  0  0
 41 44  1  0  0  0  0
 39 40  1  0  0  0  0
 39 41  1  0  0  0  0
M  END
$$$$
default_name
  -OEChem-01062215323D

 44 43  0     1  0  0  0  0  0999 V2000
    2.4488   -3.0448    2.0990 H   0  0  0  0  0  0  0  0  0  0  0  0
    2.2788   -2.0018    2.3640 C   0  0  0  0  0  0  0  0  0  0  0  0
    2.9228   -1.7258    3.1960 H   0  0  0  0  0  0  0  0  0  0  0  0
    1.2358   -1.8618    2.6430 H   0  0  0  0  0  0  0  0  0  0  0  0
    2.6018   -1.1318    1.1730 C   0  0  0  0  0  0  0  0  0  0  0  0
    3.0048   -1.6348    0.1320 O   0  0  0  0  0  0  0  0  0  0  0  0
    2.4088    0.1752    1.3190 N   0  0  0  0  0  0  0  0  0  0  0  0
    2.0708    0.5242    2.2050 H   0  0  0  0  0  0  0  0  0  0  0  0
    2.6638    1.1782    0.2840 C   0  0  1  0  0  0  0  0  0  0  0  0
    2.3810    2.1547    0.6806 H   0  0  0  0  0  0  0  0  0  0  0  0
    4.1666    1.2132   -0.0445 C   0  0  0  0  0  0  0  0  0  0  0  0
    4.3193    1.8425   -0.9221 H   0  0  0  0  0  0  0  0  0  0  0  0
    4.4683    0.2064   -0.3323 H   0  0  0  0  0  0  0  0  0  0  0  0
    5.3099    1.7542    1.2604 S   0  0  0  0  0  0  0  0  0  0  0  0
    1.8065    0.9134   -0.9679 C   0  0  0  0  0  0  0  0  0  0  0  0
    2.2274    0.1928   -1.8728 O   0  0  0  0  0  0  0  0  0  0  0  0
    0.5992    1.4921   -1.0158 N   0  0  0  0  0  0  0  0  0  0  0  0
    0.3163    2.0676   -0.2389 H   0  0  0  0  0  0  0  0  0  0  0  0
   -0.3294    1.3402   -2.1340 C   0  0  0  0  0  0  0  0  0  0  0  0
    0.1182    1.7516   -3.0413 H   0  0  0  0  0  0  0  0  0  0  0  0
   -0.5371    0.2816   -2.3006 H   0  0  0  0  0  0  0  0  0  0  0  0
   -1.2640    1.8620   -1.9244 H   0  0  0  0  0  0  0  0  0  0  0  0
    6.5058    8.7139   -2.7341 H   0  0  0  0  0  0  0  0  0  0  0  0
    6.8116    7.6687   -2.7438 C   0  0  0  0  0  0  0  0  0  0  0  0
    7.8672    7.5972   -3.0013 H   0  0  0  0  0  0  0  0  0  0  0  0
    6.2159    7.1206   -3.4714 H   0  0  0  0  0  0  0  0  0  0  0  0
    6.5901    7.0802   -1.3702 C   0  0  0  0  0  0  0  0  0  0  0  0
    6.1216    7.7663   -0.4720 O   0  0  0  0  0  0  0  0  0  0  0  0
    6.9213    5.8015   -1.2120 N   0  0  0  0  0  0  0  0  0  0  0  0
    7.3127    5.2990   -1.9954 H   0  0  0  0  0  0  0  0  0  0  0  0
    6.7754    5.0551    0.0378 C   0  0  1  0  0  0  0  0  0  0  0  0
    7.0059    5.7156    0.8756 H   0  0  0  0  0  0  0  0  0  0  0  0
    5.3100    4.6140    0.1600 C   0  0  0  0  0  0  0  0  0  0  0  0
    4.6928    5.5131    0.1288 H   0  0  0  0  0  0  0  0  0  0  0  0
    5.0485    4.0141   -0.7119 H   0  0  0  0  0  0  0  0  0  0  0  0
    4.8343    3.7007    1.6521 S   0  0  0  0  0  0  0  0  0  0  0  0
    7.7578    3.8711    0.0757 C   0  0  0  0  0  0  0  0  0  0  0  0
    8.0934    3.3172   -0.9720 O   0  0  0  0  0  0  0  0  0  0  0  0
    8.2211    3.4924    1.2738 N   0  0  0  0  0  0  0  0  0  0  0  0
    7.8720    3.9751    2.0866 H   0  0  0  0  0  0  0  0  0  0  0  0
    9.1513    2.3836    1.4832 C   0  0  0  0  0  0  0  0  0  0  0  0
    8.6272    1.4348    1.3569 H   0  0  0  0  0  0  0  0  0  0  0  0
    9.9625    2.4335    0.7530 H   0  0  0  0  0  0  0  0  0  0  0  0
    9.5729    2.4300    2.4874 H   0  0  0  0  0  0  0  0  0  0  0  0
  5  6  2  0  0  0  0
  5  7  1  0  0  0  0
  2  3  1  0  0  0  0
  2  4  1  0  0  0  0
  2  5  1  0  0  0  0
  1  2  1  0  0  0  0
 15 16  2  0  0  0  0
 15 17  1  0  0  0  0
 14 36  1  0  0  0  0
 11 12  1  0  0  0  0
 11 13  1  0  0  0  0
 11 14  1  0  0  0  0
  9 10  1  0  0  0  0
  9 11  1  0  0  0  0
  9 15  1  0  0  0  0
  7  8  1  0  0  0  0
  7  9  1  0  0  0  0
 19 20  1  0  0  0  0
 19 21  1  0  0  0  0
 19 22  1  0  0  0  0
 17 18  1  0  0  0  0
 17 19  1  0  0  0  0
 27 28  2  0  0  0  0
 27 29  1  0  0  0  0
 24 25  1  0  0  0  0
 24 26  1  0  0  0  0
 24 27  1  0  0  0  0
 23 24  1  0  0  0  0
 37 38  2  0  0  0  0
 37 39  1  0  0  0  0
 33 34  1  0  0  0  0
 33 35  1  0  0  0  0
 33 36  1  0  0  0  0
 31 32  1  0  0  0  0
 31 33  1  0  0  0  0
 31 37  1  0  0  0  0
 29 30  1  0  0  0  0
 29 31  1  0  0  0  0
 41 42  1  0  0  0  0
 41 43  1  0  0  0  0
 41 44  1  0  0  0  0
 39 40  1  0  0  0  0
 39 41  1  0  0  0  0
M  END
$$$$
default_name
  -OEChem-01062215323D

 44 43  0     1  0  0  0  0  0999 V2000
    2.4488   -3.0448    2.0990 H   0  0  0  0  0  0  0  0  0  0  0  0
    2.2788   -2.0018    2.3640 C   0  0  0  0  0  0  0  0  0  0  0  0
    2.9228   -1.7258    3.1960 H   0  0  0  0  0  0  0  0  0  0  0  0
    1.2358   -1.8618    2.6430 H   0  0  0  0  0  0  0  0  0  0  0  0
    2.6018   -1.1318    1.1730 C   0  0  0  0  0  0  0  0  0  0  0  0
    3.0048   -1.6348    0.1320 O   0  0  0  0  0  0  0  0  0  0  0  0
    2.4088    0.1752    1.3190 N   0  0  0  0  0  0  0  0  0  0  0  0
    2.0708    0.5242    2.2050 H   0  0  0  0  0  0  0  0  0  0  0  0
    2.6638    1.1782    0.2840 C   0  0  1  0  0  0  0  0  0  0  0  0
    2.3810    2.1547    0.6806 H   0  0  0  0  0  0  0  0  0  0  0  0
    4.1666    1.2132   -0.0445 C   0  0  0  0  0  0  0  0  0  0  0  0
    4.3193    1.8425   -0.9221 H   0  0  0  0  0  0  0  0  0  0  0  0
    4.4683    0.2064   -0.3323 H   0  0  0  0  0  0  0  0  0  0  0  0
    5.3099    1.7542    1.2604 S   0  0  0  0  0  0  0  0  0  0  0  0
    1.8065    0.9134   -0.9679 C   0  0  0  0  0  0  0  0  0  0  0  0
    2.0899   -0.0052   -1.7367 O   0  0  0  0  0  0  0  0  0  0  0  0
    0.7526    1.7159   -1.1682 N   0  0  0  0  0  0  0  0  0  0  0  0
    0.5768    2.4465   -0.4974 H   0  0  0  0  0  0  0  0  0  0  0  0
   -0.1541    1.5949   -2.3080 C   0  0  0  0  0  0  0  0  0  0  0  0
    0.3972    1.7650   -3.2352 H   0  0  0  0  0  0  0  0  0  0  0  0
   -0.5782    0.5895   -2.3376 H   0  0  0  0  0  0  0  0  0  0  0  0
   -0.9613    2.3242   -2.2295 H   0  0  0  0  0  0  0  0  0  0  0  0
    6.5058    8.7139   -2.7341 H   0  0  0  0  0  0  0  0  0  0  0  0
    6.8116    7.6687   -2.7438 C   0  0  0  0  0  0  0  0  0  0  0  0
    7.8672    7.5972   -3.0013 H   0  0  0  0  0  0  0  0  0  0  0  0
    6.2159    7.1206   -3.4714 H   0  0  0  0  0  0  0  0  0  0  0  0
    6.5901    7.0802   -1.3702 C   0  0  0  0  0  0  0  0  0  0  0  0
    6.1216    7.7663   -0.4720 O   0  0  0  0  0  0  0  0  0  0  0  0
    6.9213    5.8015   -1.2120 N   0  0  0  0  0  0  0  0  0  0  0  0
    7.3127    5.2990   -1.9954 H   0  0  0  0  0  0  0  0  0  0  0  0
    6.7754    5.0551    0.0378 C   0  0  1  0  0  0  0  0  0  0  0  0
    7.0059    5.7156    0.8756 H   0  0  0  0  0  0  0  0  0  0  0  0
    5.3100    4.6140    0.1600 C   0  0  0  0  0  0  0  0  0  0  0  0
    4.6928    5.5131    0.1288 H   0  0  0  0  0  0  0  0  0  0  0  0
    5.0485    4.0141   -0.7119 H   0  0  0  0  0  0  0  0  0  0  0  0
    4.8343    3.7007    1.6521 S   0  0  0  0  0  0  0  0  0  0  0  0
    7.7578    3.8711    0.0757 C   0  0  0  0  0  0  0  0  0  0  0  0
    8.0934    3.3172   -0.9720 O   0  0  0  0  0  0  0  0  0  0  0  0
    8.2211    3.4924    1.2738 N   0  0  0  0  0  0  0  0  0  0  0  0
    7.8720    3.9751    2.0866 H   0  0  0  0  0  0  0  0  0  0  0  0
    9.1513    2.3836    1.4832 C   0  0  0  0  0  0  0  0  0  0  0  0
    8.6272    1.4348    1.3569 H   0  0  0  0  0  0  0  0  0  0  0  0
    9.9625    2.4335    0.7530 H   0  0  0  0  0  0  0  0  0  0  0  0
    9.5729    2.4300    2.4874 H   0  0  0  0  0  0  0  0  0  0  0  0
  5  6  2  0  0  0  0
  5  7  1  0  0  0  0
  2  3  1  0  0  0  0
  2  4  1  0  0  0  0
  2  5  1  0  0  0  0
  1  2  1  0  0  0  0
 15 16  2  0  0  0  0
 15 17  1  0  0  0  0
 14 36  1  0  0  0  0
 11 12  1  0  0  0  0
 11 13  1  0  0  0  0
 11 14  1  0  0  0  0
  9 10  1  0  0  0  0
  9 11  1  0  0  0  0
  9 15  1  0  0  0  0
  7  8  1  0  0  0  0
  7  9  1  0  0  0  0
 19 20  1  0  0  0  0
 19 21  1  0  0  0  0
 19 22  1  0  0  0  0
 17 18  1  0  0  0  0
 17 19  1  0  0  0  0
 27 28  2  0  0  0  0
 27 29  1  0  0  0  0
 24 25  1  0  0  0  0
 24 26  1  0  0  0  0
 24 27  1  0  0  0  0
 23 24  1  0  0  0  0
 37 38  2  0  0  0  0
 37 39  1  0  0  0  0
 33 34  1  0  0  0  0
 33 35  1  0  0  0  0
 33 36  1  0  0  0  0
 31 32  1  0  0  0  0
 31 33  1  0  0  0  0
 31 37  1  0  0  0  0
 29 30  1  0  0  0  0
 29 31  1  0  0  0  0
 41 42  1  0  0  0  0
 41 43  1  0  0  0  0
 41 44  1  0  0  0  0
 39 40  1  0  0  0  0
 39 41  1  0  0  0  0
M  END
$$$$
default_name
  -OEChem-01062215323D

 44 43  0     1  0  0  0  0  0999 V2000
    2.4488   -3.0448    2.0990 H   0  0  0  0  0  0  0  0  0  0  0  0
    2.2788   -2.0018    2.3640 C   0  0  0  0  0  0  0  0  0  0  0  0
    2.9228   -1.7258    3.1960 H   0  0  0  0  0  0  0  0  0  0  0  0
    1.2358   -1.8618    2.6430 H   0  0  0  0  0  0  0  0  0  0  0  0
    2.6018   -1.1318    1.1730 C   0  0  0  0  0  0  0  0  0  0  0  0
    3.0048   -1.6348    0.1320 O   0  0  0  0  0  0  0  0  0  0  0  0
    2.4088    0.1752    1.3190 N   0  0  0  0  0  0  0  0  0  0  0  0
    2.0708    0.5242    2.2050 H   0  0  0  0  0  0  0  0  0  0  0  0
    2.6638    1.1782    0.2840 C   0  0  1  0  0  0  0  0  0  0  0  0
    2.3810    2.1547    0.6806 H   0  0  0  0  0  0  0  0  0  0  0  0
    4.1666    1.2132   -0.0445 C   0  0  0  0  0  0  0  0  0  0  0  0
    4.3193    1.8425   -0.9221 H   0  0  0  0  0  0  0  0  0  0  0  0
    4.4683    0.2064   -0.3323 H   0  0  0  0  0  0  0  0  0  0  0  0
    5.3099    1.7542    1.2604 S   0  0  0  0  0  0  0  0  0  0  0  0
    1.8065    0.9134   -0.9679 C   0  0  0  0  0  0  0  0  0  0  0  0
    1.9093   -0.1479   -1.5829 O   0  0  0  0  0  0  0  0  0  0  0  0
    0.9547    1.8778   -1.3408 N   0  0  0  0  0  0  0  0  0  0  0  0
    0.9195    2.7206   -0.7901 H   0  0  0  0  0  0  0  0  0  0  0  0
    0.0766    1.7790   -2.5049 C   0  0  0  0  0  0  0  0  0  0  0  0
    0.6782    1.6913   -3.4120 H   0  0  0  0  0  0  0  0  0  0  0  0
   -0.5515    0.8903   -2.4195 H   0  0  0  0  0  0  0  0  0  0  0  0
   -0.5581    2.6630   -2.5773 H   0  0  0  0  0  0  0  0  0  0  0  0
    6.5058    8.7139   -2.7341 H   0  0  0  0  0  0  0  0  0  0  0  0
    6.8116    7.6687   -2.7438 C   0  0  0  0  0  0  0  0  0  0  0  0
    7.8672    7.5972   -3.0013 H   0  0  0  0  0  0  0  0  0  0  0  0
    6.2159    7.1206   -3.4714 H   0  0  0  0  0  0  0  0  0  0  0  0
    6.5901    7.0802   -1.3702 C   0  0  0  0  0  0  0  0  0  0  0  0
    6.1216    7.7663   -0.4720 O   0  0  0  0  0  0  0  0  0  0  0  0
    6.9213    5.8015   -1.2120 N   0  0  0  0  0  0  0  0  0  0  0  0
    7.3127    5.2990   -1.9954 H   0  0  0  0  0  0  0  0  0  0  0  0
    6.7754    5.0551    0.0378 C   0  0  1  0  0  0  0  0  0  0  0  0
    7.0059    5.7156    0.8756 H   0  0  0  0  0  0  0  0  0  0  0  0
    5.3100    4.6140    0.1600 C   0  0  0  0  0  0  0  0  0  0  0  0
    4.6928    5.5131    0.1288 H   0  0  0  0  0  0  0  0  0  0  0  0
    5.0485    4.0141   -0.7119 H   0  0  0  0  0  0  0  0  0  0  0  0
    4.8343    3.7007    1.6521 S   0  0  0  0  0  0  0  0  0  0  0  0
    7.7578    3.8711    0.0757 C   0  0  0  0  0  0  0  0  0  0  0  0
    8.0934    3.3172   -0.9720 O   0  0  0  0  0  0  0  0  0  0  0  0
    8.2211    3.4924    1.2738 N   0  0  0  0  0  0  0  0  0  0  0  0
    7.8720    3.9751    2.0866 H   0  0  0  0  0  0  0  0  0  0  0  0
    9.1513    2.3836    1.4832 C   0  0  0  0  0  0  0  0  0  0  0  0
    8.6272    1.4348    1.3569 H   0  0  0  0  0  0  0  0  0  0  0  0
    9.9625    2.4335    0.7530 H   0  0  0  0  0  0  0  0  0  0  0  0
    9.5729    2.4300    2.4874 H   0  0  0  0  0  0  0  0  0  0  0  0
  5  6  2  0  0  0  0
  5  7  1  0  0  0  0
  2  3  1  0  0  0  0
  2  4  1  0  0  0  0
  2  5  1  0  0  0  0
  1  2  1  0  0  0  0
 15 16  2  0  0  0  0
 15 17  1  0  0  0  0
 14 36  1  0  0  0  0
 11 12  1  0  0  0  0
 11 13  1  0  0  0  0
 11 14  1  0  0  0  0
  9 10  1  0  0  0  0
  9 11  1  0  0  0  0
  9 15  1  0  0  0  0
  7  8  1  0  0  0  0
  7  9  1  0  0  0  0
 19 20  1  0  0  0  0
 19 21  1  0  0  0  0
 19 22  1  0  0  0  0
 17 18  1  0  0  0  0
 17 19  1  0  0  0  0
 27 28  2  0  0  0  0
 27 29  1  0  0  0  0
 24 25  1  0  0  0  0
 24 26  1  0  0  0  0
 24 27  1  0  0  0  0
 23 24  1  0  0  0  0
 37 38  2  0  0  0  0
 37 39  1  0  0  0  0
 33 34  1  0  0  0  0
 33 35  1  0  0  0  0
 33 36  1  0  0  0  0
 31 32  1  0  0  0  0
 31 33  1  0  0  0  0
 31 37  1  0  0  0  0
 29 30  1  0  0  0  0
 29 31  1  0  0  0  0
 41 42  1  0  0  0  0
 41 43  1  0  0  0  0
 41 44  1  0  0  0  0
 39 40  1  0  0  0  0
 39 41  1  0  0  0  0
M  END
$$$$
default_name
  -OEChem-01062215323D

 44 43  0     1  0  0  0  0  0999 V2000
    2.4488   -3.0448    2.0990 H   0  0  0  0  0  0  0  0  0  0  0  0
    2.2788   -2.0018    2.3640 C   0  0  0  0  0  0  0  0  0  0  0  0
    2.9228   -1.7258    3.1960 H   0  0  0  0  0  0  0  0  0  0  0  0
    1.2358   -1.8618    2.6430 H   0  0  0  0  0  0  0  0  0  0  0  0
    2.6018   -1.1318    1.1730 C   0  0  0  0  0  0  0  0  0  0  0  0
    3.0048   -1.6348    0.1320 O   0  0  0  0  0  0  0  0  0  0  0  0
    2.4088    0.1752    1.3190 N   0  0  0  0  0  0  0  0  0  0  0  0
    2.0708    0.5242    2.2050 H   0  0  0  0  0  0  0  0  0  0  0  0
    2.6638    1.1782    0.2840 C   0  0  1  0  0  0  0  0  0  0  0  0
    2.3810    2.1547    0.6806 H   0  0  0  0  0  0  0  0  0  0  0  0
    4.1666    1.2132   -0.0445 C   0  0  0  0  0  0  0  0  0  0  0  0
    4.3193    1.8425   -0.9221 H   0  0  0  0  0  0  0  0  0  0  0  0
    4.4683    0.2064   -0.3323 H   0  0  0  0  0  0  0  0  0  0  0  0
    5.3099    1.7542    1.2604 S   0  0  0  0  0  0  0  0  0  0  0  0
    1.8065    0.9134   -0.9679 C   0  0  0  0  0  0  0  0  0  0  0  0
    1.6981   -0.2257   -1.4218 O   0  0  0  0  0  0  0  0  0  0  0  0
    1.1916    1.9669   -1.5219 N   0  0  0  0  0  0  0  0  0  0  0  0
    1.3213    2.8710   -1.0971 H   0  0  0  0  0  0  0  0  0  0  0  0
    0.3469    1.8799   -2.7113 C   0  0  0  0  0  0  0  0  0  0  0  0
    0.9420    1.5355   -3.5597 H   0  0  0  0  0  0  0  0  0  0  0  0
   -0.4587    1.1634   -2.5408 H   0  0  0  0  0  0  0  0  0  0  0  0
   -0.0819    2.8554   -2.9440 H   0  0  0  0  0  0  0  0  0  0  0  0
    6.5058    8.7139   -2.7341 H   0  0  0  0  0  0  0  0  0  0  0  0
    6.8116    7.6687   -2.7438 C   0  0  0  0  0  0  0  0  0  0  0  0
    7.8672    7.5972   -3.0013 H   0  0  0  0  0  0  0  0  0  0  0  0
    6.2159    7.1206   -3.4714 H   0  0  0  0  0  0  0  0  0  0  0  0
    6.5901    7.0802   -1.3702 C   0  0  0  0  0  0  0  0  0  0  0  0
    6.1216    7.7663   -0.4720 O   0  0  0  0  0  0  0  0  0  0  0  0
    6.9213    5.8015   -1.2120 N   0  0  0  0  0  0  0  0  0  0  0  0
    7.3127    5.2990   -1.9954 H   0  0  0  0  0  0  0  0  0  0  0  0
    6.7754    5.0551    0.0378 C   0  0  1  0  0  0  0  0  0  0  0  0
    7.0059    5.7156    0.8756 H   0  0  0  0  0  0  0  0  0  0  0  0
    5.3100    4.6140    0.1600 C   0  0  0  0  0  0  0  0  0  0  0  0
    4.6928    5.5131    0.1288 H   0  0  0  0  0  0  0  0  0  0  0  0
    5.0485    4.0141   -0.7119 H   0  0  0  0  0  0  0  0  0  0  0  0
    4.8343    3.7007    1.6521 S   0  0  0  0  0  0  0  0  0  0  0  0
    7.7578    3.8711    0.0757 C   0  0  0  0  0  0  0  0  0  0  0  0
    8.0934    3.3172   -0.9720 O   0  0  0  0  0  0  0  0  0  0  0  0
    8.2211    3.4924    1.2738 N   0  0  0  0  0  0  0  0  0  0  0  0
    7.8720    3.9751    2.0866 H   0  0  0  0  0  0  0  0  0  0  0  0
    9.1513    2.3836    1.4832 C   0  0  0  0  0  0  0  0  0  0  0  0
    8.6272    1.4348    1.3569 H   0  0  0  0  0  0  0  0  0  0  0  0
    9.9625    2.4335    0.7530 H   0  0  0  0  0  0  0  0  0  0  0  0
    9.5729    2.4300    2.4874 H   0  0  0  0  0  0  0  0  0  0  0  0
  5  6  2  0  0  0  0
  5  7  1  0  0  0  0
  2  3  1  0  0  0  0
  2  4  1  0  0  0  0
  2  5  1  0  0  0  0
  1  2  1  0  0  0  0
 15 16  2  0  0  0  0
 15 17  1  0  0  0  0
 14 36  1  0  0  0  0
 11 12  1  0  0  0  0
 11 13  1  0  0  0  0
 11 14  1  0  0  0  0
  9 10  1  0  0  0  0
  9 11  1  0  0  0  0
  9 15  1  0  0  0  0
  7  8  1  0  0  0  0
  7  9  1  0  0  0  0
 19 20  1  0  0  0  0
 19 21  1  0  0  0  0
 19 22  1  0  0  0  0
 17 18  1  0  0  0  0
 17 19  1  0  0  0  0
 27 28  2  0  0  0  0
 27 29  1  0  0  0  0
 24 25  1  0  0  0  0
 24 26  1  0  0  0  0
 24 27  1  0  0  0  0
 23 24  1  0  0  0  0
 37 38  2  0  0  0  0
 37 39  1  0  0  0  0
 33 34  1  0  0  0  0
 33 35  1  0  0  0  0
 33 36  1  0  0  0  0
 31 32  1  0  0  0  0
 31 33  1  0  0  0  0
 31 37  1  0  0  0  0
 29 30  1  0  0  0  0
 29 31  1  0  0  0  0
 41 42  1  0  0  0  0
 41 43  1  0  0  0  0
 41 44  1  0  0  0  0
 39 40  1  0  0  0  0
 39 41  1  0  0  0  0
M  END
$$$$
default_name
  -OEChem-01062215323D

 44 43  0     1  0  0  0  0  0999 V2000
    2.4488   -3.0448    2.0990 H   0  0  0  0  0  0  0  0  0  0  0  0
    2.2788   -2.0018    2.3640 C   0  0  0  0  0  0  0  0  0  0  0  0
    2.9228   -1.7258    3.1960 H   0  0  0  0  0  0  0  0  0  0  0  0
    1.2358   -1.8618    2.6430 H   0  0  0  0  0  0  0  0  0  0  0  0
    2.6018   -1.1318    1.1730 C   0  0  0  0  0  0  0  0  0  0  0  0
    3.0048   -1.6348    0.1320 O   0  0  0  0  0  0  0  0  0  0  0  0
    2.4088    0.1752    1.3190 N   0  0  0  0  0  0  0  0  0  0  0  0
    2.0708    0.5242    2.2050 H   0  0  0  0  0  0  0  0  0  0  0  0
    2.6638    1.1782    0.2840 C   0  0  1  0  0  0  0  0  0  0  0  0
    2.3810    2.1547    0.6806 H   0  0  0  0  0  0  0  0  0  0  0  0
    4.1666    1.2132   -0.0445 C   0  0  0  0  0  0  0  0  0  0  0  0
    4.3193    1.8425   -0.9221 H   0  0  0  0  0  0  0  0  0  0  0  0
    4.4683    0.2064   -0.3323 H   0  0  0  0  0  0  0  0  0  0  0  0
    5.3099    1.7542    1.2604 S   0  0  0  0  0  0  0  0  0  0  0  0
    1.8065    0.9134   -0.9679 C   0  0  0  0  0  0  0  0  0  0  0  0
    1.4705   -0.2331   -1.2644 O   0  0  0  0  0  0  0  0  0  0  0  0
    1.4472    1.9769   -1.6990 N   0  0  0  0  0  0  0  0  0  0  0  0
    1.7546    2.8875   -1.3973 H   0  0  0  0  0  0  0  0  0  0  0  0
    0.6384    1.8908   -2.9132 C   0  0  0  0  0  0  0  0  0  0  0  0
    1.1706    1.3082   -3.6682 H   0  0  0  0  0  0  0  0  0  0  0  0
   -0.3063    1.3902   -2.6931 H   0  0  0  0  0  0  0  0  0  0  0  0
    0.4349    2.8882   -3.3049 H   0  0  0  0  0  0  0  0  0  0  0  0
    6.5058    8.7139   -2.7341 H   0  0  0  0  0  0  0  0  0  0  0  0
    6.8116    7.6687   -2.7438 C   0  0  0  0  0  0  0  0  0  0  0  0
    7.8672    7.5972   -3.0013 H   0  0  0  0  0  0  0  0  0  0  0  0
    6.2159    7.1206   -3.4714 H   0  0  0  0  0  0  0  0  0  0  0  0
    6.5901    7.0802   -1.3702 C   0  0  0  0  0  0  0  0  0  0  0  0
    6.1216    7.7663   -0.4720 O   0  0  0  0  0  0  0  0  0  0  0  0
    6.9213    5.8015   -1.2120 N   0  0  0  0  0  0  0  0  0  0  0  0
    7.3127    5.2990   -1.9954 H   0  0  0  0  0  0  0  0  0  0  0  0
    6.7754    5.0551    0.0378 C   0  0  1  0  0  0  0  0  0  0  0  0
    7.0059    5.7156    0.8756 H   0  0  0  0  0  0  0  0  0  0  0  0
    5.3100    4.6140    0.1600 C   0  0  0  0  0  0  0  0  0  0  0  0
    4.6928    5.5131    0.1288 H   0  0  0  0  0  0  0  0  0  0  0  0
    5.0485    4.0141   -0.7119 H   0  0  0  0  0  0  0  0  0  0  0  0
    4.8343    3.7007    1.6521 S   0  0  0  0  0  0  0  0  0  0  0  0
    7.7578    3.8711    0.0757 C   0  0  0  0  0  0  0  0  0  0  0  0
    8.0934    3.3172   -0.9720 O   0  0  0  0  0  0  0  0  0  0  0  0
    8.2211    3.4924    1.2738 N   0  0  0  0  0  0  0  0  0  0  0  0
    7.8720    3.9751    2.0866 H   0  0  0  0  0  0  0  0  0  0  0  0
    9.1513    2.3836    1.4832 C   0  0  0  0  0  0  0  0  0  0  0  0
    8.6272    1.4348    1.3569 H   0  0  0  0  0  0  0  0  0  0  0  0
    9.9625    2.4335    0.7530 H   0  0  0  0  0  0  0  0  0  0  0  0
    9.5729    2.4300    2.4874 H   0  0  0  0  0  0  0  0  0  0  0  0
  5  6  2  0  0  0  0
  5  7  1  0  0  0  0
  2  3  1  0  0  0  0
  2  4  1  0  0  0  0
  2  5  1  0  0  0  0
  1  2  1  0  0  0  0
 15 16  2  0  0  0  0
 15 17  1  0  0  0  0
 14 36  1  0  0  0  0
 11 12  1  0  0  0  0
 11 13  1  0  0  0  0
 11 14  1  0  0  0  0
  9 10  1  0  0  0  0
  9 11  1  0  0  0  0
  9 15  1  0  0  0  0
  7  8  1  0  0  0  0
  7  9  1  0  0  0  0
 19 20  1  0  0  0  0
 19 21  1  0  0  0  0
 19 22  1  0  0  0  0
 17 18  1  0  0  0  0
 17 19  1  0  0  0  0
 27 28  2  0  0  0  0
 27 29  1  0  0  0  0
 24 25  1  0  0  0  0
 24 26  1  0  0  0  0
 24 27  1  0  0  0  0
 23 24  1  0  0  0  0
 37 38  2  0  0  0  0
 37 39  1  0  0  0  0
 33 34  1  0  0  0  0
 33 35  1  0  0  0  0
 33 36  1  0  0  0  0
 31 32  1  0  0  0  0
 31 33  1  0  0  0  0
 31 37  1  0  0  0  0
 29 30  1  0  0  0  0
 29 31  1  0  0  0  0
 41 42  1  0  0  0  0
 41 43  1  0  0  0  0
 41 44  1  0  0  0  0
 39 40  1  0  0  0  0
 39 41  1  0  0  0  0
M  END
$$$$
default_name
  -OEChem-01062215323D

 44 43  0     1  0  0  0  0  0999 V2000
    2.4488   -3.0448    2.0990 H   0  0  0  0  0  0  0  0  0  0  0  0
    2.2788   -2.0018    2.3640 C   0  0  0  0  0  0  0  0  0  0  0  0
    2.9228   -1.7258    3.1960 H   0  0  0  0  0  0  0  0  0  0  0  0
    1.2358   -1.8618    2.6430 H   0  0  0  0  0  0  0  0  0  0  0  0
    2.6018   -1.1318    1.1730 C   0  0  0  0  0  0  0  0  0  0  0  0
    3.0048   -1.6348    0.1320 O   0  0  0  0  0  0  0  0  0  0  0  0
    2.4088    0.1752    1.3190 N   0  0  0  0  0  0  0  0  0  0  0  0
    2.0708    0.5242    2.2050 H   0  0  0  0  0  0  0  0  0  0  0  0
    2.6638    1.1782    0.2840 C   0  0  1  0  0  0  0  0  0  0  0  0
    2.3810    2.1547    0.6806 H   0  0  0  0  0  0  0  0  0  0  0  0
    4.1666    1.2132   -0.0445 C   0  0  0  0  0  0  0  0  0  0  0  0
    4.3193    1.8425   -0.9221 H   0  0  0  0  0  0  0  0  0  0  0  0
    4.4683    0.2064   -0.3323 H   0  0  0  0  0  0  0  0  0  0  0  0
    5.3099    1.7542    1.2604 S   0  0  0  0  0  0  0  0  0  0  0  0
    1.8065    0.9134   -0.9679 C   0  0  0  0  0  0  0  0  0  0  0  0
    1.2421   -0.1697   -1.1214 O   0  0  0  0  0  0  0  0  0  0  0  0
    1.7041    1.9074   -1.8603 N   0  0  0  0  0  0  0  0  0  0  0  0
    2.1901    2.7691   -1.6705 H   0  0  0  0  0  0  0  0  0  0  0  0
    0.9313    1.8109   -3.0969 C   0  0  0  0  0  0  0  0  0  0  0  0
    1.3485    1.0250   -3.7301 H   0  0  0  0  0  0  0  0  0  0  0  0
   -0.1046    1.5553   -2.8662 H   0  0  0  0  0  0  0  0  0  0  0  0
    0.9570    2.7592   -3.6351 H   0  0  0  0  0  0  0  0  0  0  0  0
    6.5058    8.7139   -2.7341 H   0  0  0  0  0  0  0  0  0  0  0  0
    6.8116    7.6687   -2.7438 C   0  0  0  0  0  0  0  0  0  0  0  0
    7.8672    7.5972   -3.0013 H   0  0  0  0  0  0  0  0  0  0  0  0
    6.2159    7.1206   -3.4714 H   0  0  0  0  0  0  0  0  0  0  0  0
    6.5901    7.0802   -1.3702 C   0  0  0  0  0  0  0  0  0  0  0  0
    6.1216    7.7663   -0.4720 O   0  0  0  0  0  0  0  0  0  0  0  0
    6.9213    5.8015   -1.2120 N   0  0  0  0  0  0  0  0  0  0  0  0
    7.3127    5.2990   -1.9954 H   0  0  0  0  0  0  0  0  0  0  0  0
    6.7754    5.0551    0.0378 C   0  0  1  0  0  0  0  0  0  0  0  0
    7.0059    5.7156    0.8756 H   0  0  0  0  0  0  0  0  0  0  0  0
    5.3100    4.6140    0.1600 C   0  0  0  0  0  0  0  0  0  0  0  0
    4.6928    5.5131    0.1288 H   0  0  0  0  0  0  0  0  0  0  0  0
    5.0485    4.0141   -0.7119 H   0  0  0  0  0  0  0  0  0  0  0  0
    4.8343    3.7007    1.6521 S   0  0  0  0  0  0  0  0  0  0  0  0
    7.7578    3.8711    0.0757 C   0  0  0  0  0  0  0  0  0  0  0  0
    8.0934    3.3172   -0.9720 O   0  0  0  0  0  0  0  0  0  0  0  0
    8.2211    3.4924    1.2738 N   0  0  0  0  0  0  0  0  0  0  0  0
    7.8720    3.9751    2.0866 H   0  0  0  0  0  0  0  0  0  0  0  0
    9.1513    2.3836    1.4832 C   0  0  0  0  0  0  0  0  0  0  0  0
    8.6272    1.4348    1.3569 H   0  0  0  0  0  0  0  0  0  0  0  0
    9.9625    2.4335    0.7530 H   0  0  0  0  0  0  0  0  0  0  0  0
    9.5729    2.4300    2.4874 H   0  0  0  0  0  0  0  0  0  0  0  0
  5  6  2  0  0  0  0
  5  7  1  0  0  0  0
  2  3  1  0  0  0  0
  2  4  1  0  0  0  0
  2  5  1  0  0  0  0
  1  2  1  0  0  0  0
 15 16  2  0  0  0  0
 15 17  1  0  0  0  0
 14 36  1  0  0  0  0
 11 12  1  0  0  0  0
 11 13  1  0  0  0  0
 11 14  1  0  0  0  0
  9 10  1  0  0  0  0
  9 11  1  0  0  0  0
  9 15  1  0  0  0  0
  7  8  1  0  0  0  0
  7  9  1  0  0  0  0
 19 20  1  0  0  0  0
 19 21  1  0  0  0  0
 19 22  1  0  0  0  0
 17 18  1  0  0  0  0
 17 19  1  0  0  0  0
 27 28  2  0  0  0  0
 27 29  1  0  0  0  0
 24 25  1  0  0  0  0
 24 26  1  0  0  0  0
 24 27  1  0  0  0  0
 23 24  1  0  0  0  0
 37 38  2  0  0  0  0
 37 39  1  0  0  0  0
 33 34  1  0  0  0  0
 33 35  1  0  0  0  0
 33 36  1  0  0  0  0
 31 32  1  0  0  0  0
 31 33  1  0  0  0  0
 31 37  1  0  0  0  0
 29 30  1  0  0  0  0
 29 31  1  0  0  0  0
 41 42  1  0  0  0  0
 41 43  1  0  0  0  0
 41 44  1  0  0  0  0
 39 40  1  0  0  0  0
 39 41  1  0  0  0  0
M  END
$$$$
default_name
  -OEChem-01062215323D

 44 43  0     1  0  0  0  0  0999 V2000
    2.4488   -3.0448    2.0990 H   0  0  0  0  0  0  0  0  0  0  0  0
    2.2788   -2.0018    2.3640 C   0  0  0  0  0  0  0  0  0  0  0  0
    2.9228   -1.7258    3.1960 H   0  0  0  0  0  0  0  0  0  0  0  0
    1.2358   -1.8618    2.6430 H   0  0  0  0  0  0  0  0  0  0  0  0
    2.6018   -1.1318    1.1730 C   0  0  0  0  0  0  0  0  0  0  0  0
    3.0048   -1.6348    0.1320 O   0  0  0  0  0  0  0  0  0  0  0  0
    2.4088    0.1752    1.3190 N   0  0  0  0  0  0  0  0  0  0  0  0
    2.0708    0.5242    2.2050 H   0  0  0  0  0  0  0  0  0  0  0  0
    2.6638    1.1782    0.2840 C   0  0  1  0  0  0  0  0  0  0  0  0
    2.6417    2.1632    0.7531 H   0  0  0  0  0  0  0  0  0  0  0  0
    4.0666    0.9638   -0.3108 C   0  0  0  0  0  0  0  0  0  0  0  0
    4.1800    1.6085   -1.1832 H   0  0  0  0  0  0  0  0  0  0  0  0
    4.1202   -0.0610   -0.6772 H   0  0  0  0  0  0  0  0  0  0  0  0
    5.4994    1.2101    0.7798 S   0  0  0  0  0  0  0  0  0  0  0  0
    1.5685    1.1487   -0.7985 C   0  0  0  0  0  0  0  0  0  0  0  0
    0.6318    0.3541   -0.7186 O   0  0  0  0  0  0  0  0  0  0  0  0
    1.6834    2.0214   -1.8085 N   0  0  0  0  0  0  0  0  0  0  0  0
    2.4740    2.6456   -1.8103 H   0  0  0  0  0  0  0  0  0  0  0  0
    0.7292    2.1158   -2.9114 C   0  0  0  0  0  0  0  0  0  0  0  0
    0.7176    1.1764   -3.4682 H   0  0  0  0  0  0  0  0  0  0  0  0
   -0.2729    2.2971   -2.5184 H   0  0  0  0  0  0  0  0  0  0  0  0
    1.0054    2.9296   -3.5831 H   0  0  0  0  0  0  0  0  0  0  0  0
    7.2661    8.0761   -3.1648 H   0  0  0  0  0  0  0  0  0  0  0  0
    7.3646    6.9957   -3.2598 C   0  0  0  0  0  0  0  0  0  0  0  0
    8.3273    6.7524   -3.7066 H   0  0  0  0  0  0  0  0  0  0  0  0
    6.5600    6.6089   -3.8825 H   0  0  0  0  0  0  0  0  0  0  0  0
    7.2781    6.3728   -1.8862 C   0  0  0  0  0  0  0  0  0  0  0  0
    7.1090    7.0750   -0.8986 O   0  0  0  0  0  0  0  0  0  0  0  0
    7.3865    5.0482   -1.8274 N   0  0  0  0  0  0  0  0  0  0  0  0
    7.5353    4.5330   -2.6828 H   0  0  0  0  0  0  0  0  0  0  0  0
    7.3222    4.2644   -0.5937 C   0  0  1  0  0  0  0  0  0  0  0  0
    7.8138    4.8201    0.2068 H   0  0  0  0  0  0  0  0  0  0  0  0
    5.8440    4.0860   -0.2202 C   0  0  0  0  0  0  0  0  0  0  0  0
    5.4099    5.0812   -0.1131 H   0  0  0  0  0  0  0  0  0  0  0  0
    5.3278    3.5975   -1.0468 H   0  0  0  0  0  0  0  0  0  0  0  0
    5.4715    3.1824    1.3068 S   0  0  0  0  0  0  0  0  0  0  0  0
    8.0572    2.9237   -0.7686 C   0  0  0  0  0  0  0  0  0  0  0  0
    8.0967    2.3842   -1.8753 O   0  0  0  0  0  0  0  0  0  0  0  0
    8.6418    2.3951    0.3141 N   0  0  0  0  0  0  0  0  0  0  0  0
    8.5354    2.8815    1.1902 H   0  0  0  0  0  0  0  0  0  0  0  0
    9.3701    1.1270    0.3194 C   0  0  0  0  0  0  0  0  0  0  0  0
    8.6639    0.2969    0.2632 H   0  0  0  0  0  0  0  0  0  0  0  0
   10.0374    1.0758   -0.5443 H   0  0  0  0  0  0  0  0  0  0  0  0
    9.9604    1.0353    1.2313 H   0  0  0  0  0  0  0  0  0  0  0  0
  5  6  2  0  0  0  0
  5  7  1  0  0  0  0
  2  3  1  0  0  0  0
  2  4  1  0  0  0  0
  2  5  1  0  0  0  0
  1  2  1  0  0  0  0
 15 16  2  0  0  0  0
 15 17  1  0  0  0  0
 14 36  1  0  0  0  0
 11 12  1  0  0  0  0
 11 13  1  0  0  0  0
 11 14  1  0  0  0  0
  9 10  1  0  0  0  0
  9 11  1  0  0  0  0
  9 15  1  0  0  0  0
  7  8  1  0  0  0  0
  7  9  1  0  0  0  0
 19 20  1  0  0  0  0
 19 21  1  0  0  0  0
 19 22  1  0  0  0  0
 17 18  1  0  0  0  0
 17 19  1  0  0  0  0
 27 28  2  0  0  0  0
 27 29  1  0  0  0  0
 24 25  1  0  0  0  0
 24 26  1  0  0  0  0
 24 27  1  0  0  0  0
 23 24  1  0  0  0  0
 37 38  2  0  0  0  0
 37 39  1  0  0  0  0
 33 34  1  0  0  0  0
 33 35  1  0  0  0  0
 33 36  1  0  0  0  0
 31 32  1  0  0  0  0
 31 33  1  0  0  0  0
 31 37  1  0  0  0  0
 29 30  1  0  0  0  0
 29 31  1  0  0  0  0
 41 42  1  0  0  0  0
 41 43  1  0  0  0  0
 41 44  1  0  0  0  0
 39 40  1  0  0  0  0
 39 41  1  0  0  0  0
M  END
$$$$
default_name
  -OEChem-01062215323D

 44 43  0     1  0  0  0  0  0999 V2000
    2.4488   -3.0448    2.0990 H   0  0  0  0  0  0  0  0  0  0  0  0
    2.2788   -2.0018    2.3640 C   0  0  0  0  0  0  0  0  0  0  0  0
    2.9228   -1.7258    3.1960 H   0  0  0  0  0  0  0  0  0  0  0  0
    1.2358   -1.8618    2.6430 H   0  0  0  0  0  0  0  0  0  0  0  0
    2.6018   -1.1318    1.1730 C   0  0  0  0  0  0  0  0  0  0  0  0
    3.0048   -1.6348    0.1320 O   0  0  0  0  0  0  0  0  0  0  0  0
    2.4088    0.1752    1.3190 N   0  0  0  0  0  0  0  0  0  0  0  0
    2.0708    0.5242    2.2050 H   0  0  0  0  0  0  0  0  0  0  0  0
    2.6638    1.1782    0.2840 C   0  0  1  0  0  0  0  0  0  0  0  0
    2.6417    2.1632    0.7531 H   0  0  0  0  0  0  0  0  0  0  0  0
    4.0666    0.9638   -0.3108 C   0  0  0  0  0  0  0  0  0  0  0  0
    4.1800    1.6085   -1.1832 H   0  0  0  0  0  0  0  0  0  0  0  0
    4.1202   -0.0610   -0.6772 H   0  0  0  0  0  0  0  0  0  0  0  0
    5.4994    1.2101    0.7798 S   0  0  0  0  0  0  0  0  0  0  0  0
    1.5685    1.1487   -0.7985 C   0  0  0  0  0  0  0  0  0  0  0  0
    0.5037    0.5659   -0.5946 O   0  0  0  0  0  0  0  0  0  0  0  0
    1.8285    1.7845   -1.9488 N   0  0  0  0  0  0  0  0  0  0  0  0
    2.7195    2.2436   -2.0477 H   0  0  0  0  0  0  0  0  0  0  0  0
    0.8942    1.8453   -3.0710 C   0  0  0  0  0  0  0  0  0  0  0  0
    0.7047    0.8373   -3.4459 H   0  0  0  0  0  0  0  0  0  0  0  0
   -0.0532    2.2747   -2.7401 H   0  0  0  0  0  0  0  0  0  0  0  0
    1.3060    2.4574   -3.8744 H   0  0  0  0  0  0  0  0  0  0  0  0
    7.2661    8.0761   -3.1648 H   0  0  0  0  0  0  0  0  0  0  0  0
    7.3646    6.9957   -3.2598 C   0  0  0  0  0  0  0  0  0  0  0  0
    8.3273    6.7524   -3.7066 H   0  0  0  0  0  0  0  0  0  0  0  0
    6.5600    6.6089   -3.8825 H   0  0  0  0  0  0  0  0  0  0  0  0
    7.2781    6.3728   -1.8862 C   0  0  0  0  0  0  0  0  0  0  0  0
    7.1090    7.0750   -0.8986 O   0  0  0  0  0  0  0  0  0  0  0  0
    7.3865    5.0482   -1.8274 N   0  0  0  0  0  0  0  0  0  0  0  0
    7.5353    4.5330   -2.6828 H   0  0  0  0  0  0  0  0  0  0  0  0
    7.3222    4.2644   -0.5937 C   0  0  1  0  0  0  0  0  0  0  0  0
    7.8138    4.8201    0.2068 H   0  0  0  0  0  0  0  0  0  0  0  0
    5.8440    4.0860   -0.2202 C   0  0  0  0  0  0  0  0  0  0  0  0
    5.4099    5.0812   -0.1131 H   0  0  0  0  0  0  0  0  0  0  0  0
    5.3278    3.5975   -1.0468 H   0  0  0  0  0  0  0  0  0  0  0  0
    5.4715    3.1824    1.3068 S   0  0  0  0  0  0  0  0  0  0  0  0
    8.0572    2.9237   -0.7686 C   0  0  0  0  0  0  0  0  0  0  0  0
    8.0967    2.3842   -1.8753 O   0  0  0  0  0  0  0  0  0  0  0  0
    8.6418    2.3951    0.3141 N   0  0  0  0  0  0  0  0  0  0  0  0
    8.5354    2.8815    1.1902 H   0  0  0  0  0  0  0  0  0  0  0  0
    9.3701    1.1270    0.3194 C   0  0  0  0  0  0  0  0  0  0  0  0
    8.6639    0.2969    0.2632 H   0  0  0  0  0  0  0  0  0  0  0  0
   10.0374    1.0758   -0.5443 H   0  0  0  0  0  0  0  0  0  0  0  0
    9.9604    1.0353    1.2313 H   0  0  0  0  0  0  0  0  0  0  0  0
  5  6  2  0  0  0  0
  5  7  1  0  0  0  0
  2  3  1  0  0  0  0
  2  4  1  0  0  0  0
  2  5  1  0  0  0  0
  1  2  1  0  0  0  0
 15 16  2  0  0  0  0
 15 17  1  0  0  0  0
 14 36  1  0  0  0  0
 11 12  1  0  0  0  0
 11 13  1  0  0  0  0
 11 14  1  0  0  0  0
  9 10  1  0  0  0  0
  9 11  1  0  0  0  0
  9 15  1  0  0  0  0
  7  8  1  0  0  0  0
  7  9  1  0  0  0  0
 19 20  1  0  0  0  0
 19 21  1  0  0  0  0
 19 22  1  0  0  0  0
 17 18  1  0  0  0  0
 17 19  1  0  0  0  0
 27 28  2  0  0  0  0
 27 29  1  0  0  0  0
 24 25  1  0  0  0  0
 24 26  1  0  0  0  0
 24 27  1  0  0  0  0
 23 24  1  0  0  0  0
 37 38  2  0  0  0  0
 37 39  1  0  0  0  0
 33 34  1  0  0  0  0
 33 35  1  0  0  0  0
 33 36  1  0  0  0  0
 31 32  1  0  0  0  0
 31 33  1  0  0  0  0
 31 37  1  0  0  0  0
 29 30  1  0  0  0  0
 29 31  1  0  0  0  0
 41 42  1  0  0  0  0
 41 43  1  0  0  0  0
 41 44  1  0  0  0  0
 39 40  1  0  0  0  0
 39 41  1  0  0  0  0
M  END
$$$$
default_name
  -OEChem-01062215323D

 44 43  0     1  0  0  0  0  0999 V2000
    2.4488   -3.0448    2.0990 H   0  0  0  0  0  0  0  0  0  0  0  0
    2.2788   -2.0018    2.3640 C   0  0  0  0  0  0  0  0  0  0  0  0
    2.9228   -1.7258    3.1960 H   0  0  0  0  0  0  0  0  0  0  0  0
    1.2358   -1.8618    2.6430 H   0  0  0  0  0  0  0  0  0  0  0  0
    2.6018   -1.1318    1.1730 C   0  0  0  0  0  0  0  0  0  0  0  0
    3.0048   -1.6348    0.1320 O   0  0  0  0  0  0  0  0  0  0  0  0
    2.4088    0.1752    1.3190 N   0  0  0  0  0  0  0  0  0  0  0  0
    2.0708    0.5242    2.2050 H   0  0  0  0  0  0  0  0  0  0  0  0
    2.6638    1.1782    0.2840 C   0  0  1  0  0  0  0  0  0  0  0  0
    2.6417    2.1632    0.7531 H   0  0  0  0  0  0  0  0  0  0  0  0
    4.0666    0.9638   -0.3108 C   0  0  0  0  0  0  0  0  0  0  0  0
    4.1800    1.6085   -1.1832 H   0  0  0  0  0  0  0  0  0  0  0  0
    4.1202   -0.0610   -0.6772 H   0  0  0  0  0  0  0  0  0  0  0  0
    5.4994    1.2101    0.7798 S   0  0  0  0  0  0  0  0  0  0  0  0
    1.5685    1.1487   -0.7985 C   0  0  0  0  0  0  0  0  0  0  0  0
    0.4178    0.8165   -0.5146 O   0  0  0  0  0  0  0  0  0  0  0  0
    1.9261    1.5034   -2.0399 N   0  0  0  0  0  0  0  0  0  0  0  0
    2.8848    1.7670   -2.2019 H   0  0  0  0  0  0  0  0  0  0  0  0
    1.0052    1.5247   -3.1745 C   0  0  0  0  0  0  0  0  0  0  0  0
    0.6305    0.5162   -3.3621 H   0  0  0  0  0  0  0  0  0  0  0  0
    0.1560    2.1724   -2.9490 H   0  0  0  0  0  0  0  0  0  0  0  0
    1.5120    1.8929   -4.0674 H   0  0  0  0  0  0  0  0  0  0  0  0
    7.2661    8.0761   -3.1648 H   0  0  0  0  0  0  0  0  0  0  0  0
    7.3646    6.9957   -3.2598 C   0  0  0  0  0  0  0  0  0  0  0  0
    8.3273    6.7524   -3.7066 H   0  0  0  0  0  0  0  0  0  0  0  0
    6.5600    6.6089   -3.8825 H   0  0  0  0  0  0  0  0  0  0  0  0
    7.2781    6.3728   -1.8862 C   0  0  0  0  0  0  0  0  0  0  0  0
    7.1090    7.0750   -0.8986 O   0  0  0  0  0  0  0  0  0  0  0  0
    7.3865    5.0482   -1.8274 N   0  0  0  0  0  0  0  0  0  0  0  0
    7.5353    4.5330   -2.6828 H   0  0  0  0  0  0  0  0  0  0  0  0
    7.3222    4.2644   -0.5937 C   0  0  1  0  0  0  0  0  0  0  0  0
    7.8138    4.8201    0.2068 H   0  0  0  0  0  0  0  0  0  0  0  0
    5.8440    4.0860   -0.2202 C   0  0  0  0  0  0  0  0  0  0  0  0
    5.4099    5.0812   -0.1131 H   0  0  0  0  0  0  0  0  0  0  0  0
    5.3278    3.5975   -1.0468 H   0  0  0  0  0  0  0  0  0  0  0  0
    5.4715    3.1824    1.3068 S   0  0  0  0  0  0  0  0  0  0  0  0
    8.0572    2.9237   -0.7686 C   0  0  0  0  0  0  0  0  0  0  0  0
    8.0967    2.3842   -1.8753 O   0  0  0  0  0  0  0  0  0  0  0  0
    8.6418    2.3951    0.3141 N   0  0  0  0  0  0  0  0  0  0  0  0
    8.5354    2.8815    1.1902 H   0  0  0  0  0  0  0  0  0  0  0  0
    9.3701    1.1270    0.3194 C   0  0  0  0  0  0  0  0  0  0  0  0
    8.6639    0.2969    0.2632 H   0  0  0  0  0  0  0  0  0  0  0  0
   10.0374    1.0758   -0.5443 H   0  0  0  0  0  0  0  0  0  0  0  0
    9.9604    1.0353    1.2313 H   0  0  0  0  0  0  0  0  0  0  0  0
  5  6  2  0  0  0  0
  5  7  1  0  0  0  0
  2  3  1  0  0  0  0
  2  4  1  0  0  0  0
  2  5  1  0  0  0  0
  1  2  1  0  0  0  0
 15 16  2  0  0  0  0
 15 17  1  0  0  0  0
 14 36  1  0  0  0  0
 11 12  1  0  0  0  0
 11 13  1  0  0  0  0
 11 14  1  0  0  0  0
  9 10  1  0  0  0  0
  9 11  1  0  0  0  0
  9 15  1  0  0  0  0
  7  8  1  0  0  0  0
  7  9  1  0  0  0  0
 19 20  1  0  0  0  0
 19 21  1  0  0  0  0
 19 22  1  0  0  0  0
 17 18  1  0  0  0  0
 17 19  1  0  0  0  0
 27 28  2  0  0  0  0
 27 29  1  0  0  0  0
 24 25  1  0  0  0  0
 24 26  1  0  0  0  0
 24 27  1  0  0  0  0
 23 24  1  0  0  0  0
 37 38  2  0  0  0  0
 37 39  1  0  0  0  0
 33 34  1  0  0  0  0
 33 35  1  0  0  0  0
 33 36  1  0  0  0  0
 31 32  1  0  0  0  0
 31 33  1  0  0  0  0
 31 37  1  0  0  0  0
 29 30  1  0  0  0  0
 29 31  1  0  0  0  0
 41 42  1  0  0  0  0
 41 43  1  0  0  0  0
 41 44  1  0  0  0  0
 39 40  1  0  0  0  0
 39 41  1  0  0  0  0
M  END
$$$$
default_name
  -OEChem-01062215323D

 44 43  0     1  0  0  0  0  0999 V2000
    2.4488   -3.0448    2.0990 H   0  0  0  0  0  0  0  0  0  0  0  0
    2.2788   -2.0018    2.3640 C   0  0  0  0  0  0  0  0  0  0  0  0
    2.9228   -1.7258    3.1960 H   0  0  0  0  0  0  0  0  0  0  0  0
    1.2358   -1.8618    2.6430 H   0  0  0  0  0  0  0  0  0  0  0  0
    2.6018   -1.1318    1.1730 C   0  0  0  0  0  0  0  0  0  0  0  0
    3.0048   -1.6348    0.1320 O   0  0  0  0  0  0  0  0  0  0  0  0
    2.4088    0.1752    1.3190 N   0  0  0  0  0  0  0  0  0  0  0  0
    2.0708    0.5242    2.2050 H   0  0  0  0  0  0  0  0  0  0  0  0
    2.6638    1.1782    0.2840 C   0  0  1  0  0  0  0  0  0  0  0  0
    2.6417    2.1632    0.7531 H   0  0  0  0  0  0  0  0  0  0  0  0
    4.0666    0.9638   -0.3108 C   0  0  0  0  0  0  0  0  0  0  0  0
    4.1800    1.6085   -1.1832 H   0  0  0  0  0  0  0  0  0  0  0  0
    4.1202   -0.0610   -0.6772 H   0  0  0  0  0  0  0  0  0  0  0  0
    5.4994    1.2101    0.7798 S   0  0  0  0  0  0  0  0  0  0  0  0
    1.5685    1.1487   -0.7985 C   0  0  0  0  0  0  0  0  0  0  0  0
    0.3800    1.0890   -0.4838 O   0  0  0  0  0  0  0  0  0  0  0  0
    1.9698    1.1974   -2.0758 N   0  0  0  0  0  0  0  0  0  0  0  0
    2.9584    1.2482   -2.2623 H   0  0  0  0  0  0  0  0  0  0  0  0
    1.0545    1.1757   -3.2149 C   0  0  0  0  0  0  0  0  0  0  0  0
    0.5000    0.2349   -3.2224 H   0  0  0  0  0  0  0  0  0  0  0  0
    0.3405    1.9970   -3.1309 H   0  0  0  0  0  0  0  0  0  0  0  0
    1.6092    1.2747   -4.1489 H   0  0  0  0  0  0  0  0  0  0  0  0
    7.2661    8.0761   -3.1648 H   0  0  0  0  0  0  0  0  0  0  0  0
    7.3646    6.9957   -3.2598 C   0  0  0  0  0  0  0  0  0  0  0  0
    8.3273    6.7524   -3.7066 H   0  0  0  0  0  0  0  0  0  0  0  0
    6.5600    6.6089   -3.8825 H   0  0  0  0  0  0  0  0  0  0  0  0
    7.2781    6.3728   -1.8862 C   0  0  0  0  0  0  0  0  0  0  0  0
    7.1090    7.0750   -0.8986 O   0  0  0  0  0  0  0  0  0  0  0  0
    7.3865    5.0482   -1.8274 N   0  0  0  0  0  0  0  0  0  0  0  0
    7.5353    4.5330   -2.6828 H   0  0  0  0  0  0  0  0  0  0  0  0
    7.3222    4.2644   -0.5937 C   0  0  1  0  0  0  0  0  0  0  0  0
    7.8138    4.8201    0.2068 H   0  0  0  0  0  0  0  0  0  0  0  0
    5.8440    4.0860   -0.2202 C   0  0  0  0  0  0  0  0  0  0  0  0
    5.4099    5.0812   -0.1131 H   0  0  0  0  0  0  0  0  0  0  0  0
    5.3278    3.5975   -1.0468 H   0  0  0  0  0  0  0  0  0  0  0  0
    5.4715    3.1824    1.3068 S   0  0  0  0  0  0  0  0  0  0  0  0
    8.0572    2.9237   -0.7686 C   0  0  0  0  0  0  0  0  0  0  0  0
    8.0967    2.3842   -1.8753 O   0  0  0  0  0  0  0  0  0  0  0  0
    8.6418    2.3951    0.3141 N   0  0  0  0  0  0  0  0  0  0  0  0
    8.5354    2.8815    1.1902 H   0  0  0  0  0  0  0  0  0  0  0  0
    9.3701    1.1270    0.3194 C   0  0  0  0  0  0  0  0  0  0  0  0
    8.6639    0.2969    0.2632 H   0  0  0  0  0  0  0  0  0  0  0  0
   10.0374    1.0758   -0.5443 H   0  0  0  0  0  0  0  0  0  0  0  0
    9.9604    1.0353    1.2313 H   0  0  0  0  0  0  0  0  0  0  0  0
  5  6  2  0  0  0  0
  5  7  1  0  0  0  0
  2  3  1  0  0  0  0
  2  4  1  0  0  0  0
  2  5  1  0  0  0  0
  1  2  1  0  0  0  0
 15 16  2  0  0  0  0
 15 17  1  0  0  0  0
 14 36  1  0  0  0  0
 11 12  1  0  0  0  0
 11 13  1  0  0  0  0
 11 14  1  0  0  0  0
  9 10  1  0  0  0  0
  9 11  1  0  0  0  0
  9 15  1  0  0  0  0
  7  8  1  0  0  0  0
  7  9  1  0  0  0  0
 19 20  1  0  0  0  0
 19 21  1  0  0  0  0
 19 22  1  0  0  0  0
 17 18  1  0  0  0  0
 17 19  1  0  0  0  0
 27 28  2  0  0  0  0
 27 29  1  0  0  0  0
 24 25  1  0  0  0  0
 24 26  1  0  0  0  0
 24 27  1  0  0  0  0
 23 24  1  0  0  0  0
 37 38  2  0  0  0  0
 37 39  1  0  0  0  0
 33 34  1  0  0  0  0
 33 35  1  0  0  0  0
 33 36  1  0  0  0  0
 31 32  1  0  0  0  0
 31 33  1  0  0  0  0
 31 37  1  0  0  0  0
 29 30  1  0  0  0  0
 29 31  1  0  0  0  0
 41 42  1  0  0  0  0
 41 43  1  0  0  0  0
 41 44  1  0  0  0  0
 39 40  1  0  0  0  0
 39 41  1  0  0  0  0
M  END
$$$$
default_name
  -OEChem-01062215323D

 44 43  0     1  0  0  0  0  0999 V2000
    2.4488   -3.0448    2.0990 H   0  0  0  0  0  0  0  0  0  0  0  0
    2.2788   -2.0018    2.3640 C   0  0  0  0  0  0  0  0  0  0  0  0
    2.9228   -1.7258    3.1960 H   0  0  0  0  0  0  0  0  0  0  0  0
    1.2358   -1.8618    2.6430 H   0  0  0  0  0  0  0  0  0  0  0  0
    2.6018   -1.1318    1.1730 C   0  0  0  0  0  0  0  0  0  0  0  0
    3.0048   -1.6348    0.1320 O   0  0  0  0  0  0  0  0  0  0  0  0
    2.4088    0.1752    1.3190 N   0  0  0  0  0  0  0  0  0  0  0  0
    2.0708    0.5242    2.2050 H   0  0  0  0  0  0  0  0  0  0  0  0
    2.6638    1.1782    0.2840 C   0  0  1  0  0  0  0  0  0  0  0  0
    2.6417    2.1632    0.7531 H   0  0  0  0  0  0  0  0  0  0  0  0
    4.0666    0.9638   -0.3108 C   0  0  0  0  0  0  0  0  0  0  0  0
    4.1800    1.6085   -1.1832 H   0  0  0  0  0  0  0  0  0  0  0  0
    4.1202   -0.0610   -0.6772 H   0  0  0  0  0  0  0  0  0  0  0  0
    5.4994    1.2101    0.7798 S   0  0  0  0  0  0  0  0  0  0  0  0
    1.5685    1.1487   -0.7985 C   0  0  0  0  0  0  0  0  0  0  0  0
    0.3930    1.3648   -0.5044 O   0  0  0  0  0  0  0  0  0  0  0  0
    1.9565    0.8873   -2.0539 N   0  0  0  0  0  0  0  0  0  0  0  0
    2.9355    0.7226   -2.2248 H   0  0  0  0  0  0  0  0  0  0  0  0
    1.0389    0.8221   -3.1895 C   0  0  0  0  0  0  0  0  0  0  0  0
    0.3221    0.0126   -3.0363 H   0  0  0  0  0  0  0  0  0  0  0  0
    0.4877    1.7605   -3.2734 H   0  0  0  0  0  0  0  0  0  0  0  0
    1.5910    0.6448   -4.1134 H   0  0  0  0  0  0  0  0  0  0  0  0
    7.2661    8.0761   -3.1648 H   0  0  0  0  0  0  0  0  0  0  0  0
    7.3646    6.9957   -3.2598 C   0  0  0  0  0  0  0  0  0  0  0  0
    8.3273    6.7524   -3.7066 H   0  0  0  0  0  0  0  0  0  0  0  0
    6.5600    6.6089   -3.8825 H   0  0  0  0  0  0  0  0  0  0  0  0
    7.2781    6.3728   -1.8862 C   0  0  0  0  0  0  0  0  0  0  0  0
    7.1090    7.0750   -0.8986 O   0  0  0  0  0  0  0  0  0  0  0  0
    7.3865    5.0482   -1.8274 N   0  0  0  0  0  0  0  0  0  0  0  0
    7.5353    4.5330   -2.6828 H   0  0  0  0  0  0  0  0  0  0  0  0
    7.3222    4.2644   -0.5937 C   0  0  1  0  0  0  0  0  0  0  0  0
    7.8138    4.8201    0.2068 H   0  0  0  0  0  0  0  0  0  0  0  0
    5.8440    4.0860   -0.2202 C   0  0  0  0  0  0  0  0  0  0  0  0
    5.4099    5.0812   -0.1131 H   0  0  0  0  0  0  0  0  0  0  0  0
    5.3278    3.5975   -1.0468 H   0  0  0  0  0  0  0  0  0  0  0  0
    5.4715    3.1824    1.3068 S   0  0  0  0  0  0  0  0  0  0  0  0
    8.0572    2.9237   -0.7686 C   0  0  0  0  0  0  0  0  0  0  0  0
    8.0967    2.3842   -1.8753 O   0  0  0  0  0  0  0  0  0  0  0  0
    8.6418    2.3951    0.3141 N   0  0  0  0  0  0  0  0  0  0  0  0
    8.5354    2.8815    1.1902 H   0  0  0  0  0  0  0  0  0  0  0  0
    9.3701    1.1270    0.3194 C   0  0  0  0  0  0  0  0  0  0  0  0
    8.6639    0.2969    0.2632 H   0  0  0  0  0  0  0  0  0  0  0  0
   10.0374    1.0758   -0.5443 H   0  0  0  0  0  0  0  0  0  0  0  0
    9.9604    1.0353    1.2313 H   0  0  0  0  0  0  0  0  0  0  0  0
  5  6  2  0  0  0  0
  5  7  1  0  0  0  0
  2  3  1  0  0  0  0
  2  4  1  0  0  0  0
  2  5  1  0  0  0  0
  1  2  1  0  0  0  0
 15 16  2  0  0  0  0
 15 17  1  0  0  0  0
 14 36  1  0  0  0  0
 11 12  1  0  0  0  0
 11 13  1  0  0  0  0
 11 14  1  0  0  0  0
  9 10  1  0  0  0  0
  9 11  1  0  0  0  0
  9 15  1  0  0  0  0
  7  8  1  0  0  0  0
  7  9  1  0  0  0  0
 19 20  1  0  0  0  0
 19 21  1  0  0  0  0
 19 22  1  0  0  0  0
 17 18  1  0  0  0  0
 17 19  1  0  0  0  0
 27 28  2  0  0  0  0
 27 29  1  0  0  0  0
 24 25  1  0  0  0  0
 24 26  1  0  0  0  0
 24 27  1  0  0  0  0
 23 24  1  0  0  0  0
 37 38  2  0  0  0  0
 37 39  1  0  0  0  0
 33 34  1  0  0  0  0
 33 35  1  0  0  0  0
 33 36  1  0  0  0  0
 31 32  1  0  0  0  0
 31 33  1  0  0  0  0
 31 37  1  0  0  0  0
 29 30  1  0  0  0  0
 29 31  1  0  0  0  0
 41 42  1  0  0  0  0
 41 43  1  0  0  0  0
 41 44  1  0  0  0  0
 39 40  1  0  0  0  0
 39 41  1  0  0  0  0
M  END
$$$$
default_name
  -OEChem-01062215323D

 44 43  0     1  0  0  0  0  0999 V2000
    2.4488   -3.0448    2.0990 H   0  0  0  0  0  0  0  0  0  0  0  0
    2.2788   -2.0018    2.3640 C   0  0  0  0  0  0  0  0  0  0  0  0
    2.9228   -1.7258    3.1960 H   0  0  0  0  0  0  0  0  0  0  0  0
    1.2358   -1.8618    2.6430 H   0  0  0  0  0  0  0  0  0  0  0  0
    2.6018   -1.1318    1.1730 C   0  0  0  0  0  0  0  0  0  0  0  0
    3.0048   -1.6348    0.1320 O   0  0  0  0  0  0  0  0  0  0  0  0
    2.4088    0.1752    1.3190 N   0  0  0  0  0  0  0  0  0  0  0  0
    2.0708    0.5242    2.2050 H   0  0  0  0  0  0  0  0  0  0  0  0
    2.6638    1.1782    0.2840 C   0  0  1  0  0  0  0  0  0  0  0  0
    2.6417    2.1632    0.7531 H   0  0  0  0  0  0  0  0  0  0  0  0
    4.0666    0.9638   -0.3108 C   0  0  0  0  0  0  0  0  0  0  0  0
    4.1800    1.6085   -1.1832 H   0  0  0  0  0  0  0  0  0  0  0  0
    4.1202   -0.0610   -0.6772 H   0  0  0  0  0  0  0  0  0  0  0  0
    5.4994    1.2101    0.7798 S   0  0  0  0  0  0  0  0  0  0  0  0
    1.5685    1.1487   -0.7985 C   0  0  0  0  0  0  0  0  0  0  0  0
    0.4557    1.6250   -0.5750 O   0  0  0  0  0  0  0  0  0  0  0  0
    1.8871    0.5941   -1.9757 N   0  0  0  0  0  0  0  0  0  0  0  0
    2.8175    0.2259   -2.0919 H   0  0  0  0  0  0  0  0  0  0  0  0
    0.9594    0.4882   -3.1000 C   0  0  0  0  0  0  0  0  0  0  0  0
    0.1089   -0.1354   -2.8166 H   0  0  0  0  0  0  0  0  0  0  0  0
    0.5876    1.4791   -3.3669 H   0  0  0  0  0  0  0  0  0  0  0  0
    1.4587    0.0463   -3.9632 H   0  0  0  0  0  0  0  0  0  0  0  0
    7.2661    8.0761   -3.1648 H   0  0  0  0  0  0  0  0  0  0  0  0
    7.3646    6.9957   -3.2598 C   0  0  0  0  0  0  0  0  0  0  0  0
    8.3273    6.7524   -3.7066 H   0  0  0  0  0  0  0  0  0  0  0  0
    6.5600    6.6089   -3.8825 H   0  0  0  0  0  0  0  0  0  0  0  0
    7.2781    6.3728   -1.8862 C   0  0  0  0  0  0  0  0  0  0  0  0
    7.1090    7.0750   -0.8986 O   0  0  0  0  0  0  0  0  0  0  0  0
    7.3865    5.0482   -1.8274 N   0  0  0  0  0  0  0  0  0  0  0  0
    7.5353    4.5330   -2.6828 H   0  0  0  0  0  0  0  0  0  0  0  0
    7.3222    4.2644   -0.5937 C   0  0  1  0  0  0  0  0  0  0  0  0
    7.8138    4.8201    0.2068 H   0  0  0  0  0  0  0  0  0  0  0  0
    5.8440    4.0860   -0.2202 C   0  0  0  0  0  0  0  0  0  0  0  0
    5.4099    5.0812   -0.1131 H   0  0  0  0  0  0  0  0  0  0  0  0
    5.3278    3.5975   -1.0468 H   0  0  0  0  0  0  0  0  0  0  0  0
    5.4715    3.1824    1.3068 S   0  0  0  0  0  0  0  0  0  0  0  0
    8.0572    2.9237   -0.7686 C   0  0  0  0  0  0  0  0  0  0  0  0
    8.0967    2.3842   -1.8753 O   0  0  0  0  0  0  0  0  0  0  0  0
    8.6418    2.3951    0.3141 N   0  0  0  0  0  0  0  0  0  0  0  0
    8.5354    2.8815    1.1902 H   0  0  0  0  0  0  0  0  0  0  0  0
    9.3701    1.1270    0.3194 C   0  0  0  0  0  0  0  0  0  0  0  0
    8.6639    0.2969    0.2632 H   0  0  0  0  0  0  0  0  0  0  0  0
   10.0374    1.0758   -0.5443 H   0  0  0  0  0  0  0  0  0  0  0  0
    9.9604    1.0353    1.2313 H   0  0  0  0  0  0  0  0  0  0  0  0
  5  6  2  0  0  0  0
  5  7  1  0  0  0  0
  2  3  1  0  0  0  0
  2  4  1  0  0  0  0
  2  5  1  0  0  0  0
  1  2  1  0  0  0  0
 15 16  2  0  0  0  0
 15 17  1  0  0  0  0
 14 36  1  0  0  0  0
 11 12  1  0  0  0  0
 11 13  1  0  0  0  0
 11 14  1  0  0  0  0
  9 10  1  0  0  0  0
  9 11  1  0  0  0  0
  9 15  1  0  0  0  0
  7  8  1  0  0  0  0
  7  9  1  0  0  0  0
 19 20  1  0  0  0  0
 19 21  1  0  0  0  0
 19 22  1  0  0  0  0
 17 18  1  0  0  0  0
 17 19  1  0  0  0  0
 27 28  2  0  0  0  0
 27 29  1  0  0  0  0
 24 25  1  0  0  0  0
 24 26  1  0  0  0  0
 24 27  1  0  0  0  0
 23 24  1  0  0  0  0
 37 38  2  0  0  0  0
 37 39  1  0  0  0  0
 33 34  1  0  0  0  0
 33 35  1  0  0  0  0
 33 36  1  0  0  0  0
 31 32  1  0  0  0  0
 31 33  1  0  0  0  0
 31 37  1  0  0  0  0
 29 30  1  0  0  0  0
 29 31  1  0  0  0  0
 41 42  1  0  0  0  0
 41 43  1  0  0  0  0
 41 44  1  0  0  0  0
 39 40  1  0  0  0  0
 39 41  1  0  0  0  0
M  END
$$$$
default_name
  -OEChem-01062215323D

 44 43  0     1  0  0  0  0  0999 V2000
    2.4488   -3.0448    2.0990 H   0  0  0  0  0  0  0  0  0  0  0  0
    2.2788   -2.0018    2.3640 C   0  0  0  0  0  0  0  0  0  0  0  0
    2.9228   -1.7258    3.1960 H   0  0  0  0  0  0  0  0  0  0  0  0
    1.2358   -1.8618    2.6430 H   0  0  0  0  0  0  0  0  0  0  0  0
    2.6018   -1.1318    1.1730 C   0  0  0  0  0  0  0  0  0  0  0  0
    3.0048   -1.6348    0.1320 O   0  0  0  0  0  0  0  0  0  0  0  0
    2.4088    0.1752    1.3190 N   0  0  0  0  0  0  0  0  0  0  0  0
    2.0708    0.5242    2.2050 H   0  0  0  0  0  0  0  0  0  0  0  0
    2.6638    1.1782    0.2840 C   0  0  1  0  0  0  0  0  0  0  0  0
    2.6417    2.1632    0.7531 H   0  0  0  0  0  0  0  0  0  0  0  0
    4.0666    0.9638   -0.3108 C   0  0  0  0  0  0  0  0  0  0  0  0
    4.1800    1.6085   -1.1832 H   0  0  0  0  0  0  0  0  0  0  0  0
    4.1202   -0.0610   -0.6772 H   0  0  0  0  0  0  0  0  0  0  0  0
    5.4994    1.2101    0.7798 S   0  0  0  0  0  0  0  0  0  0  0  0
    1.5685    1.1487   -0.7985 C   0  0  0  0  0  0  0  0  0  0  0  0
    0.5640    1.8519   -0.6907 O   0  0  0  0  0  0  0  0  0  0  0  0
    1.7664    0.3380   -1.8466 N   0  0  0  0  0  0  0  0  0  0  0  0
    2.6126   -0.2079   -1.8727 H   0  0  0  0  0  0  0  0  0  0  0  0
    0.8215    0.1965   -2.9524 C   0  0  0  0  0  0  0  0  0  0  0  0
   -0.1250   -0.1992   -2.5781 H   0  0  0  0  0  0  0  0  0  0  0  0
    0.6334    1.1720   -3.4048 H   0  0  0  0  0  0  0  0  0  0  0  0
    1.2213   -0.4802   -3.7087 H   0  0  0  0  0  0  0  0  0  0  0  0
    7.2661    8.0761   -3.1648 H   0  0  0  0  0  0  0  0  0  0  0  0
    7.3646    6.9957   -3.2598 C   0  0  0  0  0  0  0  0  0  0  0  0
    8.3273    6.7524   -3.7066 H   0  0  0  0  0  0  0  0  0  0  0  0
    6.5600    6.6089   -3.8825 H   0  0  0  0  0  0  0  0  0  0  0  0
    7.2781    6.3728   -1.8862 C   0  0  0  0  0  0  0  0  0  0  0  0
    7.1090    7.0750   -0.8986 O   0  0  0  0  0  0  0  0  0  0  0  0
    7.3865    5.0482   -1.8274 N   0  0  0  0  0  0  0  0  0  0  0  0
    7.5353    4.5330   -2.6828 H   0  0  0  0  0  0  0  0  0  0  0  0
    7.3222    4.2644   -0.5937 C   0  0  1  0  0  0  0  0  0  0  0  0
    7.8138    4.8201    0.2068 H   0  0  0  0  0  0  0  0  0  0  0  0
    5.8440    4.0860   -0.2202 C   0  0  0  0  0  0  0  0  0  0  0  0
    5.4099    5.0812   -0.1131 H   0  0  0  0  0  0  0  0  0  0  0  0
    5.3278    3.5975   -1.0468 H   0  0  0  0  0  0  0  0  0  0  0  0
    5.4715    3.1824    1.3068 S   0  0  0  0  0  0  0  0  0  0  0  0
    8.0572    2.9237   -0.7686 C   0  0  0  0  0  0  0  0  0  0  0  0
    8.0967    2.3842   -1.8753 O   0  0  0  0  0  0  0  0  0  0  0  0
    8.6418    2.3951    0.3141 N   0  0  0  0  0  0  0  0  0  0  0  0
    8.5354    2.8815    1.1902 H   0  0  0  0  0  0  0  0  0  0  0  0
    9.3701    1.1270    0.3194 C   0  0  0  0  0  0  0  0  0  0  0  0
    8.6639    0.2969    0.2632 H   0  0  0  0  0  0  0  0  0  0  0  0
   10.0374    1.0758   -0.5443 H   0  0  0  0  0  0  0  0  0  0  0  0
    9.9604    1.0353    1.2313 H   0  0  0  0  0  0  0  0  0  0  0  0
  5  6  2  0  0  0  0
  5  7  1  0  0  0  0
  2  3  1  0  0  0  0
  2  4  1  0  0  0  0
  2  5  1  0  0  0  0
  1  2  1  0  0  0  0
 15 16  2  0  0  0  0
 15 17  1  0  0  0  0
 14 36  1  0  0  0  0
 11 12  1  0  0  0  0
 11 13  1  0  0  0  0
 11 14  1  0  0  0  0
  9 10  1  0  0  0  0
  9 11  1  0  0  0  0
  9 15  1  0  0  0  0
  7  8  1  0  0  0  0
  7  9  1  0  0  0  0
 19 20  1  0  0  0  0
 19 21  1  0  0  0  0
 19 22  1  0  0  0  0
 17 18  1  0  0  0  0
 17 19  1  0  0  0  0
 27 28  2  0  0  0  0
 27 29  1  0  0  0  0
 24 25  1  0  0  0  0
 24 26  1  0  0  0  0
 24 27  1  0  0  0  0
 23 24  1  0  0  0  0
 37 38  2  0  0  0  0
 37 39  1  0  0  0  0
 33 34  1  0  0  0  0
 33 35  1  0  0  0  0
 33 36  1  0  0  0  0
 31 32  1  0  0  0  0
 31 33  1  0  0  0  0
 31 37  1  0  0  0  0
 29 30  1  0  0  0  0
 29 31  1  0  0  0  0
 41 42  1  0  0  0  0
 41 43  1  0  0  0  0
 41 44  1  0  0  0  0
 39 40  1  0  0  0  0
 39 41  1  0  0  0  0
M  END
$$$$
default_name
  -OEChem-01062215323D

 44 43  0     1  0  0  0  0  0999 V2000
    2.4488   -3.0448    2.0990 H   0  0  0  0  0  0  0  0  0  0  0  0
    2.2788   -2.0018    2.3640 C   0  0  0  0  0  0  0  0  0  0  0  0
    2.9228   -1.7258    3.1960 H   0  0  0  0  0  0  0  0  0  0  0  0
    1.2358   -1.8618    2.6430 H   0  0  0  0  0  0  0  0  0  0  0  0
    2.6018   -1.1318    1.1730 C   0  0  0  0  0  0  0  0  0  0  0  0
    3.0048   -1.6348    0.1320 O   0  0  0  0  0  0  0  0  0  0  0  0
    2.4088    0.1752    1.3190 N   0  0  0  0  0  0  0  0  0  0  0  0
    2.0708    0.5242    2.2050 H   0  0  0  0  0  0  0  0  0  0  0  0
    2.6638    1.1782    0.2840 C   0  0  1  0  0  0  0  0  0  0  0  0
    2.6417    2.1632    0.7531 H   0  0  0  0  0  0  0  0  0  0  0  0
    4.0666    0.9638   -0.3108 C   0  0  0  0  0  0  0  0  0  0  0  0
    4.1800    1.6085   -1.1832 H   0  0  0  0  0  0  0  0  0  0  0  0
    4.1202   -0.0610   -0.6772 H   0  0  0  0  0  0  0  0  0  0  0  0
    5.4994    1.2101    0.7798 S   0  0  0  0  0  0  0  0  0  0  0  0
    1.5685    1.1487   -0.7985 C   0  0  0  0  0  0  0  0  0  0  0  0
    0.7105    2.0301   -0.8438 O   0  0  0  0  0  0  0  0  0  0  0  0
    1.6026    0.1363   -1.6753 N   0  0  0  0  0  0  0  0  0  0  0  0
    2.3346   -0.5493   -1.5822 H   0  0  0  0  0  0  0  0  0  0  0  0
    0.6344   -0.0329   -2.7569 C   0  0  0  0  0  0  0  0  0  0  0  0
   -0.3638   -0.1744   -2.3372 H   0  0  0  0  0  0  0  0  0  0  0  0
    0.6219    0.8600   -3.3847 H   0  0  0  0  0  0  0  0  0  0  0  0
    0.8950   -0.8986   -3.3671 H   0  0  0  0  0  0  0  0  0  0  0  0
    7.2661    8.0761   -3.1648 H   0  0  0  0  0  0  0  0  0  0  0  0
    7.3646    6.9957   -3.2598 C   0  0  0  0  0  0  0  0  0  0  0  0
    8.3273    6.7524   -3.7066 H   0  0  0  0  0  0  0  0  0  0  0  0
    6.5600    6.6089   -3.8825 H   0  0  0  0  0  0  0  0  0  0  0  0
    7.2781    6.3728   -1.8862 C   0  0  0  0  0  0  0  0  0  0  0  0
    7.1090    7.0750   -0.8986 O   0  0  0  0  0  0  0  0  0  0  0  0
    7.3865    5.0482   -1.8274 N   0  0  0  0  0  0  0  0  0  0  0  0
    7.5353    4.5330   -2.6828 H   0  0  0  0  0  0  0  0  0  0  0  0
    7.3222    4.2644   -0.5937 C   0  0  1  0  0  0  0  0  0  0  0  0
    7.8138    4.8201    0.2068 H   0  0  0  0  0  0  0  0  0  0  0  0
    5.8440    4.0860   -0.2202 C   0  0  0  0  0  0  0  0  0  0  0  0
    5.4099    5.0812   -0.1131 H   0  0  0  0  0  0  0  0  0  0  0  0
    5.3278    3.5975   -1.0468 H   0  0  0  0  0  0  0  0  0  0  0  0
    5.4715    3.1824    1.3068 S   0  0  0  0  0  0  0  0  0  0  0  0
    8.0572    2.9237   -0.7686 C   0  0  0  0  0  0  0  0  0  0  0  0
    8.0967    2.3842   -1.8753 O   0  0  0  0  0  0  0  0  0  0  0  0
    8.6418    2.3951    0.3141 N   0  0  0  0  0  0  0  0  0  0  0  0
    8.5354    2.8815    1.1902 H   0  0  0  0  0  0  0  0  0  0  0  0
    9.3701    1.1270    0.3194 C   0  0  0  0  0  0  0  0  0  0  0  0
    8.6639    0.2969    0.2632 H   0  0  0  0  0  0  0  0  0  0  0  0
   10.0374    1.0758   -0.5443 H   0  0  0  0  0  0  0  0  0  0  0  0
    9.9604    1.0353    1.2313 H   0  0  0  0  0  0  0  0  0  0  0  0
  5  6  2  0  0  0  0
  5  7  1  0  0  0  0
  2  3  1  0  0  0  0
  2  4  1  0  0  0  0
  2  5  1  0  0  0  0
  1  2  1  0  0  0  0
 15 16  2  0  0  0  0
 15 17  1  0  0  0  0
 14 36  1  0  0  0  0
 11 12  1  0  0  0  0
 11 13  1  0  0  0  0
 11 14  1  0  0  0  0
  9 10  1  0  0  0  0
  9 11  1  0  0  0  0
  9 15  1  0  0  0  0
  7  8  1  0  0  0  0
  7  9  1  0  0  0  0
 19 20  1  0  0  0  0
 19 21  1  0  0  0  0
 19 22  1  0  0  0  0
 17 18  1  0  0  0  0
 17 19  1  0  0  0  0
 27 28  2  0  0  0  0
 27 29  1  0  0  0  0
 24 25  1  0  0  0  0
 24 26  1  0  0  0  0
 24 27  1  0  0  0  0
 23 24  1  0  0  0  0
 37 38  2  0  0  0  0
 37 39  1  0  0  0  0
 33 34  1  0  0  0  0
 33 35  1  0  0  0  0
 33 36  1  0  0  0  0
 31 32  1  0  0  0  0
 31 33  1  0  0  0  0
 31 37  1  0  0  0  0
 29 30  1  0  0  0  0
 29 31  1  0  0  0  0
 41 42  1  0  0  0  0
 41 43  1  0  0  0  0
 41 44  1  0  0  0  0
 39 40  1  0  0  0  0
 39 41  1  0  0  0  0
M  END
$$$$
default_name
  -OEChem-01062215323D

 44 43  0     1  0  0  0  0  0999 V2000
    2.4488   -3.0448    2.0990 H   0  0  0  0  0  0  0  0  0  0  0  0
    2.2788   -2.0018    2.3640 C   0  0  0  0  0  0  0  0  0  0  0  0
    2.9228   -1.7258    3.1960 H   0  0  0  0  0  0  0  0  0  0  0  0
    1.2358   -1.8618    2.6430 H   0  0  0  0  0  0  0  0  0  0  0  0
    2.6018   -1.1318    1.1730 C   0  0  0  0  0  0  0  0  0  0  0  0
    3.0048   -1.6348    0.1320 O   0  0  0  0  0  0  0  0  0  0  0  0
    2.4088    0.1752    1.3190 N   0  0  0  0  0  0  0  0  0  0  0  0
    2.0708    0.5242    2.2050 H   0  0  0  0  0  0  0  0  0  0  0  0
    2.6638    1.1782    0.2840 C   0  0  1  0  0  0  0  0  0  0  0  0
    2.6417    2.1632    0.7531 H   0  0  0  0  0  0  0  0  0  0  0  0
    4.0666    0.9638   -0.3108 C   0  0  0  0  0  0  0  0  0  0  0  0
    4.1800    1.6085   -1.1832 H   0  0  0  0  0  0  0  0  0  0  0  0
    4.1202   -0.0610   -0.6772 H   0  0  0  0  0  0  0  0  0  0  0  0
    5.4994    1.2101    0.7798 S   0  0  0  0  0  0  0  0  0  0  0  0
    1.5685    1.1487   -0.7985 C   0  0  0  0  0  0  0  0  0  0  0  0
    0.8851    2.1474   -1.0237 O   0  0  0  0  0  0  0  0  0  0  0  0
    1.4068    0.0029   -1.4736 N   0  0  0  0  0  0  0  0  0  0  0  0
    2.0026   -0.7751   -1.2401 H   0  0  0  0  0  0  0  0  0  0  0  0
    0.4110   -0.1845   -2.5267 C   0  0  0  0  0  0  0  0  0  0  0  0
   -0.5911   -0.0626   -2.1102 H   0  0  0  0  0  0  0  0  0  0  0  0
    0.5540    0.5644   -3.3079 H   0  0  0  0  0  0  0  0  0  0  0  0
    0.5019   -1.1806   -2.9617 H   0  0  0  0  0  0  0  0  0  0  0  0
    7.2661    8.0761   -3.1648 H   0  0  0  0  0  0  0  0  0  0  0  0
    7.3646    6.9957   -3.2598 C   0  0  0  0  0  0  0  0  0  0  0  0
    8.3273    6.7524   -3.7066 H   0  0  0  0  0  0  0  0  0  0  0  0
    6.5600    6.6089   -3.8825 H   0  0  0  0  0  0  0  0  0  0  0  0
    7.2781    6.3728   -1.8862 C   0  0  0  0  0  0  0  0  0  0  0  0
    7.1090    7.0750   -0.8986 O   0  0  0  0  0  0  0  0  0  0  0  0
    7.3865    5.0482   -1.8274 N   0  0  0  0  0  0  0  0  0  0  0  0
    7.5353    4.5330   -2.6828 H   0  0  0  0  0  0  0  0  0  0  0  0
    7.3222    4.2644   -0.5937 C   0  0  1  0  0  0  0  0  0  0  0  0
    7.8138    4.8201    0.2068 H   0  0  0  0  0  0  0  0  0  0  0  0
    5.8440    4.0860   -0.2202 C   0  0  0  0  0  0  0  0  0  0  0  0
    5.4099    5.0812   -0.1131 H   0  0  0  0  0  0  0  0  0  0  0  0
    5.3278    3.5975   -1.0468 H   0  0  0  0  0  0  0  0  0  0  0  0
    5.4715    3.1824    1.3068 S   0  0  0  0  0  0  0  0  0  0  0  0
    8.0572    2.9237   -0.7686 C   0  0  0  0  0  0  0  0  0  0  0  0
    8.0967    2.3842   -1.8753 O   0  0  0  0  0  0  0  0  0  0  0  0
    8.6418    2.3951    0.3141 N   0  0  0  0  0  0  0  0  0  0  0  0
    8.5354    2.8815    1.1902 H   0  0  0  0  0  0  0  0  0  0  0  0
    9.3701    1.1270    0.3194 C   0  0  0  0  0  0  0  0  0  0  0  0
    8.6639    0.2969    0.2632 H   0  0  0  0  0  0  0  0  0  0  0  0
   10.0374    1.0758   -0.5443 H   0  0  0  0  0  0  0  0  0  0  0  0
    9.9604    1.0353    1.2313 H   0  0  0  0  0  0  0  0  0  0  0  0
  5  6  2  0  0  0  0
  5  7  1  0  0  0  0
  2  3  1  0  0  0  0
  2  4  1  0  0  0  0
  2  5  1  0  0  0  0
  1  2  1  0  0  0  0
 15 16  2  0  0  0  0
 15 17  1  0  0  0  0
 14 36  1  0  0  0  0
 11 12  1  0  0  0  0
 11 13  1  0  0  0  0
 11 14  1  0  0  0  0
  9 10  1  0  0  0  0
  9 11  1  0  0  0  0
  9 15  1  0  0  0  0
  7  8  1  0  0  0  0
  7  9  1  0  0  0  0
 19 20  1  0  0  0  0
 19 21  1  0  0  0  0
 19 22  1  0  0  0  0
 17 18  1  0  0  0  0
 17 19  1  0  0  0  0
 27 28  2  0  0  0  0
 27 29  1  0  0  0  0
 24 25  1  0  0  0  0
 24 26  1  0  0  0  0
 24 27  1  0  0  0  0
 23 24  1  0  0  0  0
 37 38  2  0  0  0  0
 37 39  1  0  0  0  0
 33 34  1  0  0  0  0
 33 35  1  0  0  0  0
 33 36  1  0  0  0  0
 31 32  1  0  0  0  0
 31 33  1  0  0  0  0
 31 37  1  0  0  0  0
 29 30  1  0  0  0  0
 29 31  1  0  0  0  0
 41 42  1  0  0  0  0
 41 43  1  0  0  0  0
 41 44  1  0  0  0  0
 39 40  1  0  0  0  0
 39 41  1  0  0  0  0
M  END
$$$$
default_name
  -OEChem-01062215323D

 44 43  0     1  0  0  0  0  0999 V2000
    2.4488   -3.0448    2.0990 H   0  0  0  0  0  0  0  0  0  0  0  0
    2.2788   -2.0018    2.3640 C   0  0  0  0  0  0  0  0  0  0  0  0
    2.9228   -1.7258    3.1960 H   0  0  0  0  0  0  0  0  0  0  0  0
    1.2358   -1.8618    2.6430 H   0  0  0  0  0  0  0  0  0  0  0  0
    2.6018   -1.1318    1.1730 C   0  0  0  0  0  0  0  0  0  0  0  0
    3.0048   -1.6348    0.1320 O   0  0  0  0  0  0  0  0  0  0  0  0
    2.4088    0.1752    1.3190 N   0  0  0  0  0  0  0  0  0  0  0  0
    2.0708    0.5242    2.2050 H   0  0  0  0  0  0  0  0  0  0  0  0
    2.6638    1.1782    0.2840 C   0  0  1  0  0  0  0  0  0  0  0  0
    2.6417    2.1632    0.7531 H   0  0  0  0  0  0  0  0  0  0  0  0
    4.0666    0.9638   -0.3108 C   0  0  0  0  0  0  0  0  0  0  0  0
    4.1800    1.6085   -1.1832 H   0  0  0  0  0  0  0  0  0  0  0  0
    4.1202   -0.0610   -0.6772 H   0  0  0  0  0  0  0  0  0  0  0  0
    5.4994    1.2101    0.7798 S   0  0  0  0  0  0  0  0  0  0  0  0
    1.5685    1.1487   -0.7985 C   0  0  0  0  0  0  0  0  0  0  0  0
    1.0760    2.1958   -1.2182 O   0  0  0  0  0  0  0  0  0  0  0  0
    1.1924   -0.0533   -1.2552 N   0  0  0  0  0  0  0  0  0  0  0  0
    1.6391   -0.8698   -0.8697 H   0  0  0  0  0  0  0  0  0  0  0  0
    0.1665   -0.2480   -2.2776 C   0  0  0  0  0  0  0  0  0  0  0  0
   -0.7915    0.1285   -1.9127 H   0  0  0  0  0  0  0  0  0  0  0  0
    0.4342    0.3053   -3.1797 H   0  0  0  0  0  0  0  0  0  0  0  0
    0.0690   -1.3069   -2.5202 H   0  0  0  0  0  0  0  0  0  0  0  0
    7.2661    8.0761   -3.1648 H   0  0  0  0  0  0  0  0  0  0  0  0
    7.3646    6.9957   -3.2598 C   0  0  0  0  0  0  0  0  0  0  0  0
    8.3273    6.7524   -3.7066 H   0  0  0  0  0  0  0  0  0  0  0  0
    6.5600    6.6089   -3.8825 H   0  0  0  0  0  0  0  0  0  0  0  0
    7.2781    6.3728   -1.8862 C   0  0  0  0  0  0  0  0  0  0  0  0
    7.1090    7.0750   -0.8986 O   0  0  0  0  0  0  0  0  0  0  0  0
    7.3865    5.0482   -1.8274 N   0  0  0  0  0  0  0  0  0  0  0  0
    7.5353    4.5330   -2.6828 H   0  0  0  0  0  0  0  0  0  0  0  0
    7.3222    4.2644   -0.5937 C   0  0  1  0  0  0  0  0  0  0  0  0
    7.8138    4.8201    0.2068 H   0  0  0  0  0  0  0  0  0  0  0  0
    5.8440    4.0860   -0.2202 C   0  0  0  0  0  0  0  0  0  0  0  0
    5.4099    5.0812   -0.1131 H   0  0  0  0  0  0  0  0  0  0  0  0
    5.3278    3.5975   -1.0468 H   0  0  0  0  0  0  0  0  0  0  0  0
    5.4715    3.1824    1.3068 S   0  0  0  0  0  0  0  0  0  0  0  0
    8.0572    2.9237   -0.7686 C   0  0  0  0  0  0  0  0  0  0  0  0
    8.0967    2.3842   -1.8753 O   0  0  0  0  0  0  0  0  0  0  0  0
    8.6418    2.3951    0.3141 N   0  0  0  0  0  0  0  0  0  0  0  0
    8.5354    2.8815    1.1902 H   0  0  0  0  0  0  0  0  0  0  0  0
    9.3701    1.1270    0.3194 C   0  0  0  0  0  0  0  0  0  0  0  0
    8.6639    0.2969    0.2632 H   0  0  0  0  0  0  0  0  0  0  0  0
   10.0374    1.0758   -0.5443 H   0  0  0  0  0  0  0  0  0  0  0  0
    9.9604    1.0353    1.2313 H   0  0  0  0  0  0  0  0  0  0  0  0
  5  6  2  0  0  0  0
  5  7  1  0  0  0  0
  2  3  1  0  0  0  0
  2  4  1  0  0  0  0
  2  5  1  0  0  0  0
  1  2  1  0  0  0  0
 15 16  2  0  0  0  0
 15 17  1  0  0  0  0
 14 36  1  0  0  0  0
 11 12  1  0  0  0  0
 11 13  1  0  0  0  0
 11 14  1  0  0  0  0
  9 10  1  0  0  0  0
  9 11  1  0  0  0  0
  9 15  1  0  0  0  0
  7  8  1  0  0  0  0
  7  9  1  0  0  0  0
 19 20  1  0  0  0  0
 19 21  1  0  0  0  0
 19 22  1  0  0  0  0
 17 18  1  0  0  0  0
 17 19  1  0  0  0  0
 27 28  2  0  0  0  0
 27 29  1  0  0  0  0
 24 25  1  0  0  0  0
 24 26  1  0  0  0  0
 24 27  1  0  0  0  0
 23 24  1  0  0  0  0
 37 38  2  0  0  0  0
 37 39  1  0  0  0  0
 33 34  1  0  0  0  0
 33 35  1  0  0  0  0
 33 36  1  0  0  0  0
 31 32  1  0  0  0  0
 31 33  1  0  0  0  0
 31 37  1  0  0  0  0
 29 30  1  0  0  0  0
 29 31  1  0  0  0  0
 41 42  1  0  0  0  0
 41 43  1  0  0  0  0
 41 44  1  0  0  0  0
 39 40  1  0  0  0  0
 39 41  1  0  0  0  0
M  END
$$$$
default_name
  -OEChem-01062215323D

 44 43  0     1  0  0  0  0  0999 V2000
    2.4488   -3.0448    2.0990 H   0  0  0  0  0  0  0  0  0  0  0  0
    2.2788   -2.0018    2.3640 C   0  0  0  0  0  0  0  0  0  0  0  0
    2.9228   -1.7258    3.1960 H   0  0  0  0  0  0  0  0  0  0  0  0
    1.2358   -1.8618    2.6430 H   0  0  0  0  0  0  0  0  0  0  0  0
    2.6018   -1.1318    1.1730 C   0  0  0  0  0  0  0  0  0  0  0  0
    3.0048   -1.6348    0.1320 O   0  0  0  0  0  0  0  0  0  0  0  0
    2.4088    0.1752    1.3190 N   0  0  0  0  0  0  0  0  0  0  0  0
    2.0708    0.5242    2.2050 H   0  0  0  0  0  0  0  0  0  0  0  0
    2.6638    1.1782    0.2840 C   0  0  1  0  0  0  0  0  0  0  0  0
    2.6417    2.1632    0.7531 H   0  0  0  0  0  0  0  0  0  0  0  0
    4.0666    0.9638   -0.3108 C   0  0  0  0  0  0  0  0  0  0  0  0
    4.1800    1.6085   -1.1832 H   0  0  0  0  0  0  0  0  0  0  0  0
    4.1202   -0.0610   -0.6772 H   0  0  0  0  0  0  0  0  0  0  0  0
    5.4994    1.2101    0.7798 S   0  0  0  0  0  0  0  0  0  0  0  0
    1.5685    1.1487   -0.7985 C   0  0  0  0  0  0  0  0  0  0  0  0
    1.2702    2.1721   -1.4140 O   0  0  0  0  0  0  0  0  0  0  0  0
    0.9740   -0.0284   -1.0349 N   0  0  0  0  0  0  0  0  0  0  0  0
    1.2690   -0.8270   -0.4963 H   0  0  0  0  0  0  0  0  0  0  0  0
   -0.0824   -0.2189   -2.0265 C   0  0  0  0  0  0  0  0  0  0  0  0
   -0.9512    0.3858   -1.7581 H   0  0  0  0  0  0  0  0  0  0  0  0
    0.2708    0.1005   -3.0087 H   0  0  0  0  0  0  0  0  0  0  0  0
   -0.3743   -1.2689   -2.0727 H   0  0  0  0  0  0  0  0  0  0  0  0
    7.2661    8.0761   -3.1648 H   0  0  0  0  0  0  0  0  0  0  0  0
    7.3646    6.9957   -3.2598 C   0  0  0  0  0  0  0  0  0  0  0  0
    8.3273    6.7524   -3.7066 H   0  0  0  0  0  0  0  0  0  0  0  0
    6.5600    6.6089   -3.8825 H   0  0  0  0  0  0  0  0  0  0  0  0
    7.2781    6.3728   -1.8862 C   0  0  0  0  0  0  0  0  0  0  0  0
    7.1090    7.0750   -0.8986 O   0  0  0  0  0  0  0  0  0  0  0  0
    7.3865    5.0482   -1.8274 N   0  0  0  0  0  0  0  0  0  0  0  0
    7.5353    4.5330   -2.6828 H   0  0  0  0  0  0  0  0  0  0  0  0
    7.3222    4.2644   -0.5937 C   0  0  1  0  0  0  0  0  0  0  0  0
    7.8138    4.8201    0.2068 H   0  0  0  0  0  0  0  0  0  0  0  0
    5.8440    4.0860   -0.2202 C   0  0  0  0  0  0  0  0  0  0  0  0
    5.4099    5.0812   -0.1131 H   0  0  0  0  0  0  0  0  0  0  0  0
    5.3278    3.5975   -1.0468 H   0  0  0  0  0  0  0  0  0  0  0  0
    5.4715    3.1824    1.3068 S   0  0  0  0  0  0  0  0  0  0  0  0
    8.0572    2.9237   -0.7686 C   0  0  0  0  0  0  0  0  0  0  0  0
    8.0967    2.3842   -1.8753 O   0  0  0  0  0  0  0  0  0  0  0  0
    8.6418    2.3951    0.3141 N   0  0  0  0  0  0  0  0  0  0  0  0
    8.5354    2.8815    1.1902 H   0  0  0  0  0  0  0  0  0  0  0  0
    9.3701    1.1270    0.3194 C   0  0  0  0  0  0  0  0  0  0  0  0
    8.6639    0.2969    0.2632 H   0  0  0  0  0  0  0  0  0  0  0  0
   10.0374    1.0758   -0.5443 H   0  0  0  0  0  0  0  0  0  0  0  0
    9.9604    1.0353    1.2313 H   0  0  0  0  0  0  0  0  0  0  0  0
  5  6  2  0  0  0  0
  5  7  1  0  0  0  0
  2  3  1  0  0  0  0
  2  4  1  0  0  0  0
  2  5  1  0  0  0  0
  1  2  1  0  0  0  0
 15 16  2  0  0  0  0
 15 17  1  0  0  0  0
 14 36  1  0  0  0  0
 11 12  1  0  0  0  0
 11 13  1  0  0  0  0
 11 14  1  0  0  0  0
  9 10  1  0  0  0  0
  9 11  1  0  0  0  0
  9 15  1  0  0  0  0
  7  8  1  0  0  0  0
  7  9  1  0  0  0  0
 19 20  1  0  0  0  0
 19 21  1  0  0  0  0
 19 22  1  0  0  0  0
 17 18  1  0  0  0  0
 17 19  1  0  0  0  0
 27 28  2  0  0  0  0
 27 29  1  0  0  0  0
 24 25  1  0  0  0  0
 24 26  1  0  0  0  0
 24 27  1  0  0  0  0
 23 24  1  0  0  0  0
 37 38  2  0  0  0  0
 37 39  1  0  0  0  0
 33 34  1  0  0  0  0
 33 35  1  0  0  0  0
 33 36  1  0  0  0  0
 31 32  1  0  0  0  0
 31 33  1  0  0  0  0
 31 37  1  0  0  0  0
 29 30  1  0  0  0  0
 29 31  1  0  0  0  0
 41 42  1  0  0  0  0
 41 43  1  0  0  0  0
 41 44  1  0  0  0  0
 39 40  1  0  0  0  0
 39 41  1  0  0  0  0
M  END
$$$$
default_name
  -OEChem-01062215323D

 44 43  0     1  0  0  0  0  0999 V2000
    2.4488   -3.0448    2.0990 H   0  0  0  0  0  0  0  0  0  0  0  0
    2.2788   -2.0018    2.3640 C   0  0  0  0  0  0  0  0  0  0  0  0
    2.9228   -1.7258    3.1960 H   0  0  0  0  0  0  0  0  0  0  0  0
    1.2358   -1.8618    2.6430 H   0  0  0  0  0  0  0  0  0  0  0  0
    2.6018   -1.1318    1.1730 C   0  0  0  0  0  0  0  0  0  0  0  0
    3.0048   -1.6348    0.1320 O   0  0  0  0  0  0  0  0  0  0  0  0
    2.4088    0.1752    1.3190 N   0  0  0  0  0  0  0  0  0  0  0  0
    2.0708    0.5242    2.2050 H   0  0  0  0  0  0  0  0  0  0  0  0
    2.6638    1.1782    0.2840 C   0  0  1  0  0  0  0  0  0  0  0  0
    2.6417    2.1632    0.7531 H   0  0  0  0  0  0  0  0  0  0  0  0
    4.0666    0.9638   -0.3108 C   0  0  0  0  0  0  0  0  0  0  0  0
    4.1800    1.6085   -1.1832 H   0  0  0  0  0  0  0  0  0  0  0  0
    4.1202   -0.0610   -0.6772 H   0  0  0  0  0  0  0  0  0  0  0  0
    5.4994    1.2101    0.7798 S   0  0  0  0  0  0  0  0  0  0  0  0
    1.5685    1.1487   -0.7985 C   0  0  0  0  0  0  0  0  0  0  0  0
    1.4544    2.0778   -1.5978 O   0  0  0  0  0  0  0  0  0  0  0  0
    0.7665    0.0759   -0.8277 N   0  0  0  0  0  0  0  0  0  0  0  0
    0.9174   -0.6496   -0.1454 H   0  0  0  0  0  0  0  0  0  0  0  0
   -0.3189   -0.0994   -1.7906 C   0  0  0  0  0  0  0  0  0  0  0  0
   -1.0595    0.6919   -1.6569 H   0  0  0  0  0  0  0  0  0  0  0  0
    0.0748   -0.0361   -2.8067 H   0  0  0  0  0  0  0  0  0  0  0  0
   -0.7979   -1.0691   -1.6496 H   0  0  0  0  0  0  0  0  0  0  0  0
    7.2661    8.0761   -3.1648 H   0  0  0  0  0  0  0  0  0  0  0  0
    7.3646    6.9957   -3.2598 C   0  0  0  0  0  0  0  0  0  0  0  0
    8.3273    6.7524   -3.7066 H   0  0  0  0  0  0  0  0  0  0  0  0
    6.5600    6.6089   -3.8825 H   0  0  0  0  0  0  0  0  0  0  0  0
    7.2781    6.3728   -1.8862 C   0  0  0  0  0  0  0  0  0  0  0  0
    7.1090    7.0750   -0.8986 O   0  0  0  0  0  0  0  0  0  0  0  0
    7.3865    5.0482   -1.8274 N   0  0  0  0  0  0  0  0  0  0  0  0
    7.5353    4.5330   -2.6828 H   0  0  0  0  0  0  0  0  0  0  0  0
    7.3222    4.2644   -0.5937 C   0  0  1  0  0  0  0  0  0  0  0  0
    7.8138    4.8201    0.2068 H   0  0  0  0  0  0  0  0  0  0  0  0
    5.8440    4.0860   -0.2202 C   0  0  0  0  0  0  0  0  0  0  0  0
    5.4099    5.0812   -0.1131 H   0  0  0  0  0  0  0  0  0  0  0  0
    5.3278    3.5975   -1.0468 H   0  0  0  0  0  0  0  0  0  0  0  0
    5.4715    3.1824    1.3068 S   0  0  0  0  0  0  0  0  0  0  0  0
    8.0572    2.9237   -0.7686 C   0  0  0  0  0  0  0  0  0  0  0  0
    8.0967    2.3842   -1.8753 O   0  0  0  0  0  0  0  0  0  0  0  0
    8.6418    2.3951    0.3141 N   0  0  0  0  0  0  0  0  0  0  0  0
    8.5354    2.8815    1.1902 H   0  0  0  0  0  0  0  0  0  0  0  0
    9.3701    1.1270    0.3194 C   0  0  0  0  0  0  0  0  0  0  0  0
    8.6639    0.2969    0.2632 H   0  0  0  0  0  0  0  0  0  0  0  0
   10.0374    1.0758   -0.5443 H   0  0  0  0  0  0  0  0  0  0  0  0
    9.9604    1.0353    1.2313 H   0  0  0  0  0  0  0  0  0  0  0  0
  5  6  2  0  0  0  0
  5  7  1  0  0  0  0
  2  3  1  0  0  0  0
  2  4  1  0  0  0  0
  2  5  1  0  0  0  0
  1  2  1  0  0  0  0
 15 16  2  0  0  0  0
 15 17  1  0  0  0  0
 14 36  1  0  0  0  0
 11 12  1  0  0  0  0
 11 13  1  0  0  0  0
 11 14  1  0  0  0  0
  9 10  1  0  0  0  0
  9 11  1  0  0  0  0
  9 15  1  0  0  0  0
  7  8  1  0  0  0  0
  7  9  1  0  0  0  0
 19 20  1  0  0  0  0
 19 21  1  0  0  0  0
 19 22  1  0  0  0  0
 17 18  1  0  0  0  0
 17 19  1  0  0  0  0
 27 28  2  0  0  0  0
 27 29  1  0  0  0  0
 24 25  1  0  0  0  0
 24 26  1  0  0  0  0
 24 27  1  0  0  0  0
 23 24  1  0  0  0  0
 37 38  2  0  0  0  0
 37 39  1  0  0  0  0
 33 34  1  0  0  0  0
 33 35  1  0  0  0  0
 33 36  1  0  0  0  0
 31 32  1  0  0  0  0
 31 33  1  0  0  0  0
 31 37  1  0  0  0  0
 29 30  1  0  0  0  0
 29 31  1  0  0  0  0
 41 42  1  0  0  0  0
 41 43  1  0  0  0  0
 41 44  1  0  0  0  0
 39 40  1  0  0  0  0
 39 41  1  0  0  0  0
M  END
$$$$
default_name
  -OEChem-01062215323D

 44 43  0     1  0  0  0  0  0999 V2000
    2.4488   -3.0448    2.0990 H   0  0  0  0  0  0  0  0  0  0  0  0
    2.2788   -2.0018    2.3640 C   0  0  0  0  0  0  0  0  0  0  0  0
    2.9228   -1.7258    3.1960 H   0  0  0  0  0  0  0  0  0  0  0  0
    1.2358   -1.8618    2.6430 H   0  0  0  0  0  0  0  0  0  0  0  0
    2.6018   -1.1318    1.1730 C   0  0  0  0  0  0  0  0  0  0  0  0
    3.0048   -1.6348    0.1320 O   0  0  0  0  0  0  0  0  0  0  0  0
    2.4088    0.1752    1.3190 N   0  0  0  0  0  0  0  0  0  0  0  0
    2.0708    0.5242    2.2050 H   0  0  0  0  0  0  0  0  0  0  0  0
    2.6638    1.1782    0.2840 C   0  0  1  0  0  0  0  0  0  0  0  0
    2.6417    2.1632    0.7531 H   0  0  0  0  0  0  0  0  0  0  0  0
    4.0666    0.9638   -0.3108 C   0  0  0  0  0  0  0  0  0  0  0  0
    4.1800    1.6085   -1.1832 H   0  0  0  0  0  0  0  0  0  0  0  0
    4.1202   -0.0610   -0.6772 H   0  0  0  0  0  0  0  0  0  0  0  0
    5.4994    1.2101    0.7798 S   0  0  0  0  0  0  0  0  0  0  0  0
    1.5685    1.1487   -0.7985 C   0  0  0  0  0  0  0  0  0  0  0  0
    1.6161    1.9194   -1.7571 O   0  0  0  0  0  0  0  0  0  0  0  0
    0.5841    0.2526   -0.6479 N   0  0  0  0  0  0  0  0  0  0  0  0
    0.6083   -0.3497    0.1591 H   0  0  0  0  0  0  0  0  0  0  0  0
   -0.5266    0.1025   -1.5858 C   0  0  0  0  0  0  0  0  0  0  0  0
   -1.1089    1.0259   -1.6160 H   0  0  0  0  0  0  0  0  0  0  0  0
   -0.1404   -0.0953   -2.5874 H   0  0  0  0  0  0  0  0  0  0  0  0
   -1.1727   -0.7212   -1.2797 H   0  0  0  0  0  0  0  0  0  0  0  0
    7.2661    8.0761   -3.1648 H   0  0  0  0  0  0  0  0  0  0  0  0
    7.3646    6.9957   -3.2598 C   0  0  0  0  0  0  0  0  0  0  0  0
    8.3273    6.7524   -3.7066 H   0  0  0  0  0  0  0  0  0  0  0  0
    6.5600    6.6089   -3.8825 H   0  0  0  0  0  0  0  0  0  0  0  0
    7.2781    6.3728   -1.8862 C   0  0  0  0  0  0  0  0  0  0  0  0
    7.1090    7.0750   -0.8986 O   0  0  0  0  0  0  0  0  0  0  0  0
    7.3865    5.0482   -1.8274 N   0  0  0  0  0  0  0  0  0  0  0  0
    7.5353    4.5330   -2.6828 H   0  0  0  0  0  0  0  0  0  0  0  0
    7.3222    4.2644   -0.5937 C   0  0  1  0  0  0  0  0  0  0  0  0
    7.8138    4.8201    0.2068 H   0  0  0  0  0  0  0  0  0  0  0  0
    5.8440    4.0860   -0.2202 C   0  0  0  0  0  0  0  0  0  0  0  0
    5.4099    5.0812   -0.1131 H   0  0  0  0  0  0  0  0  0  0  0  0
    5.3278    3.5975   -1.0468 H   0  0  0  0  0  0  0  0  0  0  0  0
    5.4715    3.1824    1.3068 S   0  0  0  0  0  0  0  0  0  0  0  0
    8.0572    2.9237   -0.7686 C   0  0  0  0  0  0  0  0  0  0  0  0
    8.0967    2.3842   -1.8753 O   0  0  0  0  0  0  0  0  0  0  0  0
    8.6418    2.3951    0.3141 N   0  0  0  0  0  0  0  0  0  0  0  0
    8.5354    2.8815    1.1902 H   0  0  0  0  0  0  0  0  0  0  0  0
    9.3701    1.1270    0.3194 C   0  0  0  0  0  0  0  0  0  0  0  0
    8.6639    0.2969    0.2632 H   0  0  0  0  0  0  0  0  0  0  0  0
   10.0374    1.0758   -0.5443 H   0  0  0  0  0  0  0  0  0  0  0  0
    9.9604    1.0353    1.2313 H   0  0  0  0  0  0  0  0  0  0  0  0
  5  6  2  0  0  0  0
  5  7  1  0  0  0  0
  2  3  1  0  0  0  0
  2  4  1  0  0  0  0
  2  5  1  0  0  0  0
  1  2  1  0  0  0  0
 15 16  2  0  0  0  0
 15 17  1  0  0  0  0
 14 36  1  0  0  0  0
 11 12  1  0  0  0  0
 11 13  1  0  0  0  0
 11 14  1  0  0  0  0
  9 10  1  0  0  0  0
  9 11  1  0  0  0  0
  9 15  1  0  0  0  0
  7  8  1  0  0  0  0
  7  9  1  0  0  0  0
 19 20  1  0  0  0  0
 19 21  1  0  0  0  0
 19 22  1  0  0  0  0
 17 18  1  0  0  0  0
 17 19  1  0  0  0  0
 27 28  2  0  0  0  0
 27 29  1  0  0  0  0
 24 25  1  0  0  0  0
 24 26  1  0  0  0  0
 24 27  1  0  0  0  0
 23 24  1  0  0  0  0
 37 38  2  0  0  0  0
 37 39  1  0  0  0  0
 33 34  1  0  0  0  0
 33 35  1  0  0  0  0
 33 36  1  0  0  0  0
 31 32  1  0  0  0  0
 31 33  1  0  0  0  0
 31 37  1  0  0  0  0
 29 30  1  0  0  0  0
 29 31  1  0  0  0  0
 41 42  1  0  0  0  0
 41 43  1  0  0  0  0
 41 44  1  0  0  0  0
 39 40  1  0  0  0  0
 39 41  1  0  0  0  0
M  END
$$$$
default_name
  -OEChem-01062215323D

 44 43  0     1  0  0  0  0  0999 V2000
    2.4488   -3.0448    2.0990 H   0  0  0  0  0  0  0  0  0  0  0  0
    2.2788   -2.0018    2.3640 C   0  0  0  0  0  0  0  0  0  0  0  0
    2.9228   -1.7258    3.1960 H   0  0  0  0  0  0  0  0  0  0  0  0
    1.2358   -1.8618    2.6430 H   0  0  0  0  0  0  0  0  0  0  0  0
    2.6018   -1.1318    1.1730 C   0  0  0  0  0  0  0  0  0  0  0  0
    3.0048   -1.6348    0.1320 O   0  0  0  0  0  0  0  0  0  0  0  0
    2.4088    0.1752    1.3190 N   0  0  0  0  0  0  0  0  0  0  0  0
    2.0708    0.5242    2.2050 H   0  0  0  0  0  0  0  0  0  0  0  0
    2.6638    1.1782    0.2840 C   0  0  1  0  0  0  0  0  0  0  0  0
    2.6417    2.1632    0.7531 H   0  0  0  0  0  0  0  0  0  0  0  0
    4.0666    0.9638   -0.3108 C   0  0  0  0  0  0  0  0  0  0  0  0
    4.1800    1.6085   -1.1832 H   0  0  0  0  0  0  0  0  0  0  0  0
    4.1202   -0.0610   -0.6772 H   0  0  0  0  0  0  0  0  0  0  0  0
    5.4994    1.2101    0.7798 S   0  0  0  0  0  0  0  0  0  0  0  0
    1.5685    1.1487   -0.7985 C   0  0  0  0  0  0  0  0  0  0  0  0
    1.7443    1.7076   -1.8811 O   0  0  0  0  0  0  0  0  0  0  0  0
    0.4390    0.4895   -0.5076 N   0  0  0  0  0  0  0  0  0  0  0  0
    0.3628    0.0523    0.3966 H   0  0  0  0  0  0  0  0  0  0  0  0
   -0.6916    0.3730   -1.4262 C   0  0  0  0  0  0  0  0  0  0  0  0
   -1.0961    1.3651   -1.6382 H   0  0  0  0  0  0  0  0  0  0  0  0
   -0.3600   -0.0729   -2.3657 H   0  0  0  0  0  0  0  0  0  0  0  0
   -1.4734   -0.2490   -0.9884 H   0  0  0  0  0  0  0  0  0  0  0  0
    7.2661    8.0761   -3.1648 H   0  0  0  0  0  0  0  0  0  0  0  0
    7.3646    6.9957   -3.2598 C   0  0  0  0  0  0  0  0  0  0  0  0
    8.3273    6.7524   -3.7066 H   0  0  0  0  0  0  0  0  0  0  0  0
    6.5600    6.6089   -3.8825 H   0  0  0  0  0  0  0  0  0  0  0  0
    7.2781    6.3728   -1.8862 C   0  0  0  0  0  0  0  0  0  0  0  0
    7.1090    7.0750   -0.8986 O   0  0  0  0  0  0  0  0  0  0  0  0
    7.3865    5.0482   -1.8274 N   0  0  0  0  0  0  0  0  0  0  0  0
    7.5353    4.5330   -2.6828 H   0  0  0  0  0  0  0  0  0  0  0  0
    7.3222    4.2644   -0.5937 C   0  0  1  0  0  0  0  0  0  0  0  0
    7.8138    4.8201    0.2068 H   0  0  0  0  0  0  0  0  0  0  0  0
    5.8440    4.0860   -0.2202 C   0  0  0  0  0  0  0  0  0  0  0  0
    5.4099    5.0812   -0.1131 H   0  0  0  0  0  0  0  0  0  0  0  0
    5.3278    3.5975   -1.0468 H   0  0  0  0  0  0  0  0  0  0  0  0
    5.4715    3.1824    1.3068 S   0  0  0  0  0  0  0  0  0  0  0  0
    8.0572    2.9237   -0.7686 C   0  0  0  0  0  0  0  0  0  0  0  0
    8.0967    2.3842   -1.8753 O   0  0  0  0  0  0  0  0  0  0  0  0
    8.6418    2.3951    0.3141 N   0  0  0  0  0  0  0  0  0  0  0  0
    8.5354    2.8815    1.1902 H   0  0  0  0  0  0  0  0  0  0  0  0
    9.3701    1.1270    0.3194 C   0  0  0  0  0  0  0  0  0  0  0  0
    8.6639    0.2969    0.2632 H   0  0  0  0  0  0  0  0  0  0  0  0
   10.0374    1.0758   -0.5443 H   0  0  0  0  0  0  0  0  0  0  0  0
    9.9604    1.0353    1.2313 H   0  0  0  0  0  0  0  0  0  0  0  0
  5  6  2  0  0  0  0
  5  7  1  0  0  0  0
  2  3  1  0  0  0  0
  2  4  1  0  0  0  0
  2  5  1  0  0  0  0
  1  2  1  0  0  0  0
 15 16  2  0  0  0  0
 15 17  1  0  0  0  0
 14 36  1  0  0  0  0
 11 12  1  0  0  0  0
 11 13  1  0  0  0  0
 11 14  1  0  0  0  0
  9 10  1  0  0  0  0
  9 11  1  0  0  0  0
  9 15  1  0  0  0  0
  7  8  1  0  0  0  0
  7  9  1  0  0  0  0
 19 20  1  0  0  0  0
 19 21  1  0  0  0  0
 19 22  1  0  0  0  0
 17 18  1  0  0  0  0
 17 19  1  0  0  0  0
 27 28  2  0  0  0  0
 27 29  1  0  0  0  0
 24 25  1  0  0  0  0
 24 26  1  0  0  0  0
 24 27  1  0  0  0  0
 23 24  1  0  0  0  0
 37 38  2  0  0  0  0
 37 39  1  0  0  0  0
 33 34  1  0  0  0  0
 33 35  1  0  0  0  0
 33 36  1  0  0  0  0
 31 32  1  0  0  0  0
 31 33  1  0  0  0  0
 31 37  1  0  0  0  0
 29 30  1  0  0  0  0
 29 31  1  0  0  0  0
 41 42  1  0  0  0  0
 41 43  1  0  0  0  0
 41 44  1  0  0  0  0
 39 40  1  0  0  0  0
 39 41  1  0  0  0  0
M  END
$$$$
default_name
  -OEChem-01062215323D

 44 43  0     1  0  0  0  0  0999 V2000
    2.4488   -3.0448    2.0990 H   0  0  0  0  0  0  0  0  0  0  0  0
    2.2788   -2.0018    2.3640 C   0  0  0  0  0  0  0  0  0  0  0  0
    2.9228   -1.7258    3.1960 H   0  0  0  0  0  0  0  0  0  0  0  0
    1.2358   -1.8618    2.6430 H   0  0  0  0  0  0  0  0  0  0  0  0
    2.6018   -1.1318    1.1730 C   0  0  0  0  0  0  0  0  0  0  0  0
    3.0048   -1.6348    0.1320 O   0  0  0  0  0  0  0  0  0  0  0  0
    2.4088    0.1752    1.3190 N   0  0  0  0  0  0  0  0  0  0  0  0
    2.0708    0.5242    2.2050 H   0  0  0  0  0  0  0  0  0  0  0  0
    2.6638    1.1782    0.2840 C   0  0  1  0  0  0  0  0  0  0  0  0
    2.6417    2.1632    0.7531 H   0  0  0  0  0  0  0  0  0  0  0  0
    4.0666    0.9638   -0.3108 C   0  0  0  0  0  0  0  0  0  0  0  0
    4.1800    1.6085   -1.1832 H   0  0  0  0  0  0  0  0  0  0  0  0
    4.1202   -0.0610   -0.6772 H   0  0  0  0  0  0  0  0  0  0  0  0
    5.4994    1.2101    0.7798 S   0  0  0  0  0  0  0  0  0  0  0  0
    1.5685    1.1487   -0.7985 C   0  0  0  0  0  0  0  0  0  0  0  0
    1.8302    1.4569   -1.9611 O   0  0  0  0  0  0  0  0  0  0  0  0
    0.3414    0.7706   -0.4165 N   0  0  0  0  0  0  0  0  0  0  0  0
    0.1976    0.5289    0.5508 H   0  0  0  0  0  0  0  0  0  0  0  0
   -0.8026    0.6937   -1.3227 C   0  0  0  0  0  0  0  0  0  0  0  0
   -1.0219    1.6862   -1.7220 H   0  0  0  0  0  0  0  0  0  0  0  0
   -0.5692    0.0294   -2.1568 H   0  0  0  0  0  0  0  0  0  0  0  0
   -1.6793    0.3155   -0.7954 H   0  0  0  0  0  0  0  0  0  0  0  0
    7.2661    8.0761   -3.1648 H   0  0  0  0  0  0  0  0  0  0  0  0
    7.3646    6.9957   -3.2598 C   0  0  0  0  0  0  0  0  0  0  0  0
    8.3273    6.7524   -3.7066 H   0  0  0  0  0  0  0  0  0  0  0  0
    6.5600    6.6089   -3.8825 H   0  0  0  0  0  0  0  0  0  0  0  0
    7.2781    6.3728   -1.8862 C   0  0  0  0  0  0  0  0  0  0  0  0
    7.1090    7.0750   -0.8986 O   0  0  0  0  0  0  0  0  0  0  0  0
    7.3865    5.0482   -1.8274 N   0  0  0  0  0  0  0  0  0  0  0  0
    7.5353    4.5330   -2.6828 H   0  0  0  0  0  0  0  0  0  0  0  0
    7.3222    4.2644   -0.5937 C   0  0  1  0  0  0  0  0  0  0  0  0
    7.8138    4.8201    0.2068 H   0  0  0  0  0  0  0  0  0  0  0  0
    5.8440    4.0860   -0.2202 C   0  0  0  0  0  0  0  0  0  0  0  0
    5.4099    5.0812   -0.1131 H   0  0  0  0  0  0  0  0  0  0  0  0
    5.3278    3.5975   -1.0468 H   0  0  0  0  0  0  0  0  0  0  0  0
    5.4715    3.1824    1.3068 S   0  0  0  0  0  0  0  0  0  0  0  0
    8.0572    2.9237   -0.7686 C   0  0  0  0  0  0  0  0  0  0  0  0
    8.0967    2.3842   -1.8753 O   0  0  0  0  0  0  0  0  0  0  0  0
    8.6418    2.3951    0.3141 N   0  0  0  0  0  0  0  0  0  0  0  0
    8.5354    2.8815    1.1902 H   0  0  0  0  0  0  0  0  0  0  0  0
    9.3701    1.1270    0.3194 C   0  0  0  0  0  0  0  0  0  0  0  0
    8.6639    0.2969    0.2632 H   0  0  0  0  0  0  0  0  0  0  0  0
   10.0374    1.0758   -0.5443 H   0  0  0  0  0  0  0  0  0  0  0  0
    9.9604    1.0353    1.2313 H   0  0  0  0  0  0  0  0  0  0  0  0
  5  6  2  0  0  0  0
  5  7  1  0  0  0  0
  2  3  1  0  0  0  0
  2  4  1  0  0  0  0
  2  5  1  0  0  0  0
  1  2  1  0  0  0  0
 15 16  2  0  0  0  0
 15 17  1  0  0  0  0
 14 36  1  0  0  0  0
 11 12  1  0  0  0  0
 11 13  1  0  0  0  0
 11 14  1  0  0  0  0
  9 10  1  0  0  0  0
  9 11  1  0  0  0  0
  9 15  1  0  0  0  0
  7  8  1  0  0  0  0
  7  9  1  0  0  0  0
 19 20  1  0  0  0  0
 19 21  1  0  0  0  0
 19 22  1  0  0  0  0
 17 18  1  0  0  0  0
 17 19  1  0  0  0  0
 27 28  2  0  0  0  0
 27 29  1  0  0  0  0
 24 25  1  0  0  0  0
 24 26  1  0  0  0  0
 24 27  1  0  0  0  0
 23 24  1  0  0  0  0
 37 38  2  0  0  0  0
 37 39  1  0  0  0  0
 33 34  1  0  0  0  0
 33 35  1  0  0  0  0
 33 36  1  0  0  0  0
 31 32  1  0  0  0  0
 31 33  1  0  0  0  0
 31 37  1  0  0  0  0
 29 30  1  0  0  0  0
 29 31  1  0  0  0  0
 41 42  1  0  0  0  0
 41 43  1  0  0  0  0
 41 44  1  0  0  0  0
 39 40  1  0  0  0  0
 39 41  1  0  0  0  0
M  END
$$$$
default_name
  -OEChem-01062215323D

 44 43  0     1  0  0  0  0  0999 V2000
    2.4488   -3.0448    2.0990 H   0  0  0  0  0  0  0  0  0  0  0  0
    2.2788   -2.0018    2.3640 C   0  0  0  0  0  0  0  0  0  0  0  0
    2.9228   -1.7258    3.1960 H   0  0  0  0  0  0  0  0  0  0  0  0
    1.2358   -1.8618    2.6430 H   0  0  0  0  0  0  0  0  0  0  0  0
    2.6018   -1.1318    1.1730 C   0  0  0  0  0  0  0  0  0  0  0  0
    3.0048   -1.6348    0.1320 O   0  0  0  0  0  0  0  0  0  0  0  0
    2.4088    0.1752    1.3190 N   0  0  0  0  0  0  0  0  0  0  0  0
    2.0708    0.5242    2.2050 H   0  0  0  0  0  0  0  0  0  0  0  0
    2.6638    1.1782    0.2840 C   0  0  1  0  0  0  0  0  0  0  0  0
    2.6417    2.1632    0.7531 H   0  0  0  0  0  0  0  0  0  0  0  0
    4.0666    0.9638   -0.3108 C   0  0  0  0  0  0  0  0  0  0  0  0
    4.1800    1.6085   -1.1832 H   0  0  0  0  0  0  0  0  0  0  0  0
    4.1202   -0.0610   -0.6772 H   0  0  0  0  0  0  0  0  0  0  0  0
    5.4994    1.2101    0.7798 S   0  0  0  0  0  0  0  0  0  0  0  0
    1.5685    1.1487   -0.7985 C   0  0  0  0  0  0  0  0  0  0  0  0
    1.8680    1.1844   -1.9919 O   0  0  0  0  0  0  0  0  0  0  0  0
    0.2977    1.0766   -0.3806 N   0  0  0  0  0  0  0  0  0  0  0  0
    0.1239    1.0477    0.6112 H   0  0  0  0  0  0  0  0  0  0  0  0
   -0.8520    1.0427   -1.2822 C   0  0  0  0  0  0  0  0  0  0  0  0
   -0.8914    1.9675   -1.8617 H   0  0  0  0  0  0  0  0  0  0  0  0
   -0.7538    0.2048   -1.9749 H   0  0  0  0  0  0  0  0  0  0  0  0
   -1.7765    0.9338   -0.7139 H   0  0  0  0  0  0  0  0  0  0  0  0
    7.2661    8.0761   -3.1648 H   0  0  0  0  0  0  0  0  0  0  0  0
    7.3646    6.9957   -3.2598 C   0  0  0  0  0  0  0  0  0  0  0  0
    8.3273    6.7524   -3.7066 H   0  0  0  0  0  0  0  0  0  0  0  0
    6.5600    6.6089   -3.8825 H   0  0  0  0  0  0  0  0  0  0  0  0
    7.2781    6.3728   -1.8862 C   0  0  0  0  0  0  0  0  0  0  0  0
    7.1090    7.0750   -0.8986 O   0  0  0  0  0  0  0  0  0  0  0  0
    7.3865    5.0482   -1.8274 N   0  0  0  0  0  0  0  0  0  0  0  0
    7.5353    4.5330   -2.6828 H   0  0  0  0  0  0  0  0  0  0  0  0
    7.3222    4.2644   -0.5937 C   0  0  1  0  0  0  0  0  0  0  0  0
    7.8138    4.8201    0.2068 H   0  0  0  0  0  0  0  0  0  0  0  0
    5.8440    4.0860   -0.2202 C   0  0  0  0  0  0  0  0  0  0  0  0
    5.4099    5.0812   -0.1131 H   0  0  0  0  0  0  0  0  0  0  0  0
    5.3278    3.5975   -1.0468 H   0  0  0  0  0  0  0  0  0  0  0  0
    5.4715    3.1824    1.3068 S   0  0  0  0  0  0  0  0  0  0  0  0
    8.0572    2.9237   -0.7686 C   0  0  0  0  0  0  0  0  0  0  0  0
    8.0967    2.3842   -1.8753 O   0  0  0  0  0  0  0  0  0  0  0  0
    8.6418    2.3951    0.3141 N   0  0  0  0  0  0  0  0  0  0  0  0
    8.5354    2.8815    1.1902 H   0  0  0  0  0  0  0  0  0  0  0  0
    9.3701    1.1270    0.3194 C   0  0  0  0  0  0  0  0  0  0  0  0
    8.6639    0.2969    0.2632 H   0  0  0  0  0  0  0  0  0  0  0  0
   10.0374    1.0758   -0.5443 H   0  0  0  0  0  0  0  0  0  0  0  0
    9.9604    1.0353    1.2313 H   0  0  0  0  0  0  0  0  0  0  0  0
  5  6  2  0  0  0  0
  5  7  1  0  0  0  0
  2  3  1  0  0  0  0
  2  4  1  0  0  0  0
  2  5  1  0  0  0  0
  1  2  1  0  0  0  0
 15 16  2  0  0  0  0
 15 17  1  0  0  0  0
 14 36  1  0  0  0  0
 11 12  1  0  0  0  0
 11 13  1  0  0  0  0
 11 14  1  0  0  0  0
  9 10  1  0  0  0  0
  9 11  1  0  0  0  0
  9 15  1  0  0  0  0
  7  8  1  0  0  0  0
  7  9  1  0  0  0  0
 19 20  1  0  0  0  0
 19 21  1  0  0  0  0
 19 22  1  0  0  0  0
 17 18  1  0  0  0  0
 17 19  1  0  0  0  0
 27 28  2  0  0  0  0
 27 29  1  0  0  0  0
 24 25  1  0  0  0  0
 24 26  1  0  0  0  0
 24 27  1  0  0  0  0
 23 24  1  0  0  0  0
 37 38  2  0  0  0  0
 37 39  1  0  0  0  0
 33 34  1  0  0  0  0
 33 35  1  0  0  0  0
 33 36  1  0  0  0  0
 31 32  1  0  0  0  0
 31 33  1  0  0  0  0
 31 37  1  0  0  0  0
 29 30  1  0  0  0  0
 29 31  1  0  0  0  0
 41 42  1  0  0  0  0
 41 43  1  0  0  0  0
 41 44  1  0  0  0  0
 39 40  1  0  0  0  0
 39 41  1  0  0  0  0
M  END
$$$$
default_name
  -OEChem-01062215323D

 44 43  0     1  0  0  0  0  0999 V2000
    2.4488   -3.0448    2.0990 H   0  0  0  0  0  0  0  0  0  0  0  0
    2.2788   -2.0018    2.3640 C   0  0  0  0  0  0  0  0  0  0  0  0
    2.9228   -1.7258    3.1960 H   0  0  0  0  0  0  0  0  0  0  0  0
    1.2358   -1.8618    2.6430 H   0  0  0  0  0  0  0  0  0  0  0  0
    2.6018   -1.1318    1.1730 C   0  0  0  0  0  0  0  0  0  0  0  0
    3.0048   -1.6348    0.1320 O   0  0  0  0  0  0  0  0  0  0  0  0
    2.4088    0.1752    1.3190 N   0  0  0  0  0  0  0  0  0  0  0  0
    2.0708    0.5242    2.2050 H   0  0  0  0  0  0  0  0  0  0  0  0
    2.6638    1.1782    0.2840 C   0  0  1  0  0  0  0  0  0  0  0  0
    2.6417    2.1632    0.7531 H   0  0  0  0  0  0  0  0  0  0  0  0
    4.0666    0.9638   -0.3108 C   0  0  0  0  0  0  0  0  0  0  0  0
    4.1800    1.6085   -1.1832 H   0  0  0  0  0  0  0  0  0  0  0  0
    4.1202   -0.0610   -0.6772 H   0  0  0  0  0  0  0  0  0  0  0  0
    5.4994    1.2101    0.7798 S   0  0  0  0  0  0  0  0  0  0  0  0
    1.5685    1.1487   -0.7985 C   0  0  0  0  0  0  0  0  0  0  0  0
    1.8550    0.9087   -1.9713 O   0  0  0  0  0  0  0  0  0  0  0  0
    0.3110    1.3867   -0.4025 N   0  0  0  0  0  0  0  0  0  0  0  0
    0.1469    1.5734    0.5737 H   0  0  0  0  0  0  0  0  0  0  0  0
   -0.8364    1.3962   -1.3077 C   0  0  0  0  0  0  0  0  0  0  0  0
   -0.7134    2.1897   -2.0478 H   0  0  0  0  0  0  0  0  0  0  0  0
   -0.9010    0.4413   -1.8324 H   0  0  0  0  0  0  0  0  0  0  0  0
   -1.7584    1.5636   -0.7494 H   0  0  0  0  0  0  0  0  0  0  0  0
    7.2661    8.0761   -3.1648 H   0  0  0  0  0  0  0  0  0  0  0  0
    7.3646    6.9957   -3.2598 C   0  0  0  0  0  0  0  0  0  0  0  0
    8.3273    6.7524   -3.7066 H   0  0  0  0  0  0  0  0  0  0  0  0
    6.5600    6.6089   -3.8825 H   0  0  0  0  0  0  0  0  0  0  0  0
    7.2781    6.3728   -1.8862 C   0  0  0  0  0  0  0  0  0  0  0  0
    7.1090    7.0750   -0.8986 O   0  0  0  0  0  0  0  0  0  0  0  0
    7.3865    5.0482   -1.8274 N   0  0  0  0  0  0  0  0  0  0  0  0
    7.5353    4.5330   -2.6828 H   0  0  0  0  0  0  0  0  0  0  0  0
    7.3222    4.2644   -0.5937 C   0  0  1  0  0  0  0  0  0  0  0  0
    7.8138    4.8201    0.2068 H   0  0  0  0  0  0  0  0  0  0  0  0
    5.8440    4.0860   -0.2202 C   0  0  0  0  0  0  0  0  0  0  0  0
    5.4099    5.0812   -0.1131 H   0  0  0  0  0  0  0  0  0  0  0  0
    5.3278    3.5975   -1.0468 H   0  0  0  0  0  0  0  0  0  0  0  0
    5.4715    3.1824    1.3068 S   0  0  0  0  0  0  0  0  0  0  0  0
    8.0572    2.9237   -0.7686 C   0  0  0  0  0  0  0  0  0  0  0  0
    8.0967    2.3842   -1.8753 O   0  0  0  0  0  0  0  0  0  0  0  0
    8.6418    2.3951    0.3141 N   0  0  0  0  0  0  0  0  0  0  0  0
    8.5354    2.8815    1.1902 H   0  0  0  0  0  0  0  0  0  0  0  0
    9.3701    1.1270    0.3194 C   0  0  0  0  0  0  0  0  0  0  0  0
    8.6639    0.2969    0.2632 H   0  0  0  0  0  0  0  0  0  0  0  0
   10.0374    1.0758   -0.5443 H   0  0  0  0  0  0  0  0  0  0  0  0
    9.9604    1.0353    1.2313 H   0  0  0  0  0  0  0  0  0  0  0  0
  5  6  2  0  0  0  0
  5  7  1  0  0  0  0
  2  3  1  0  0  0  0
  2  4  1  0  0  0  0
  2  5  1  0  0  0  0
  1  2  1  0  0  0  0
 15 16  2  0  0  0  0
 15 17  1  0  0  0  0
 14 36  1  0  0  0  0
 11 12  1  0  0  0  0
 11 13  1  0  0  0  0
 11 14  1  0  0  0  0
  9 10  1  0  0  0  0
  9 11  1  0  0  0  0
  9 15  1  0  0  0  0
  7  8  1  0  0  0  0
  7  9  1  0  0  0  0
 19 20  1  0  0  0  0
 19 21  1  0  0  0  0
 19 22  1  0  0  0  0
 17 18  1  0  0  0  0
 17 19  1  0  0  0  0
 27 28  2  0  0  0  0
 27 29  1  0  0  0  0
 24 25  1  0  0  0  0
 24 26  1  0  0  0  0
 24 27  1  0  0  0  0
 23 24  1  0  0  0  0
 37 38  2  0  0  0  0
 37 39  1  0  0  0  0
 33 34  1  0  0  0  0
 33 35  1  0  0  0  0
 33 36  1  0  0  0  0
 31 32  1  0  0  0  0
 31 33  1  0  0  0  0
 31 37  1  0  0  0  0
 29 30  1  0  0  0  0
 29 31  1  0  0  0  0
 41 42  1  0  0  0  0
 41 43  1  0  0  0  0
 41 44  1  0  0  0  0
 39 40  1  0  0  0  0
 39 41  1  0  0  0  0
M  END
$$$$
default_name
  -OEChem-01062215323D

 44 43  0     1  0  0  0  0  0999 V2000
    2.4488   -3.0448    2.0990 H   0  0  0  0  0  0  0  0  0  0  0  0
    2.2788   -2.0018    2.3640 C   0  0  0  0  0  0  0  0  0  0  0  0
    2.9228   -1.7258    3.1960 H   0  0  0  0  0  0  0  0  0  0  0  0
    1.2358   -1.8618    2.6430 H   0  0  0  0  0  0  0  0  0  0  0  0
    2.6018   -1.1318    1.1730 C   0  0  0  0  0  0  0  0  0  0  0  0
    3.0048   -1.6348    0.1320 O   0  0  0  0  0  0  0  0  0  0  0  0
    2.4088    0.1752    1.3190 N   0  0  0  0  0  0  0  0  0  0  0  0
    2.0708    0.5242    2.2050 H   0  0  0  0  0  0  0  0  0  0  0  0
    2.6638    1.1782    0.2840 C   0  0  1  0  0  0  0  0  0  0  0  0
    2.6417    2.1632    0.7531 H   0  0  0  0  0  0  0  0  0  0  0  0
    4.0666    0.9638   -0.3108 C   0  0  0  0  0  0  0  0  0  0  0  0
    4.1800    1.6085   -1.1832 H   0  0  0  0  0  0  0  0  0  0  0  0
    4.1202   -0.0610   -0.6772 H   0  0  0  0  0  0  0  0  0  0  0  0
    5.4994    1.2101    0.7798 S   0  0  0  0  0  0  0  0  0  0  0  0
    1.5685    1.1487   -0.7985 C   0  0  0  0  0  0  0  0  0  0  0  0
    1.7923    0.6485   -1.9007 O   0  0  0  0  0  0  0  0  0  0  0  0
    0.3804    1.6798   -0.4807 N   0  0  0  0  0  0  0  0  0  0  0  0
    0.2648    2.0700    0.4408 H   0  0  0  0  0  0  0  0  0  0  0  0
   -0.7569    1.7302   -1.3972 C   0  0  0  0  0  0  0  0  0  0  0  0
   -0.5002    2.3378   -2.2676 H   0  0  0  0  0  0  0  0  0  0  0  0
   -1.0009    0.7226   -1.7390 H   0  0  0  0  0  0  0  0  0  0  0  0
   -1.6261    2.1621   -0.8996 H   0  0  0  0  0  0  0  0  0  0  0  0
    7.2661    8.0761   -3.1648 H   0  0  0  0  0  0  0  0  0  0  0  0
    7.3646    6.9957   -3.2598 C   0  0  0  0  0  0  0  0  0  0  0  0
    8.3273    6.7524   -3.7066 H   0  0  0  0  0  0  0  0  0  0  0  0
    6.5600    6.6089   -3.8825 H   0  0  0  0  0  0  0  0  0  0  0  0
    7.2781    6.3728   -1.8862 C   0  0  0  0  0  0  0  0  0  0  0  0
    7.1090    7.0750   -0.8986 O   0  0  0  0  0  0  0  0  0  0  0  0
    7.3865    5.0482   -1.8274 N   0  0  0  0  0  0  0  0  0  0  0  0
    7.5353    4.5330   -2.6828 H   0  0  0  0  0  0  0  0  0  0  0  0
    7.3222    4.2644   -0.5937 C   0  0  1  0  0  0  0  0  0  0  0  0
    7.8138    4.8201    0.2068 H   0  0  0  0  0  0  0  0  0  0  0  0
    5.8440    4.0860   -0.2202 C   0  0  0  0  0  0  0  0  0  0  0  0
    5.4099    5.0812   -0.1131 H   0  0  0  0  0  0  0  0  0  0  0  0
    5.3278    3.5975   -1.0468 H   0  0  0  0  0  0  0  0  0  0  0  0
    5.4715    3.1824    1.3068 S   0  0  0  0  0  0  0  0  0  0  0  0
    8.0572    2.9237   -0.7686 C   0  0  0  0  0  0  0  0  0  0  0  0
    8.0967    2.3842   -1.8753 O   0  0  0  0  0  0  0  0  0  0  0  0
    8.6418    2.3951    0.3141 N   0  0  0  0  0  0  0  0  0  0  0  0
    8.5354    2.8815    1.1902 H   0  0  0  0  0  0  0  0  0  0  0  0
    9.3701    1.1270    0.3194 C   0  0  0  0  0  0  0  0  0  0  0  0
    8.6639    0.2969    0.2632 H   0  0  0  0  0  0  0  0  0  0  0  0
   10.0374    1.0758   -0.5443 H   0  0  0  0  0  0  0  0  0  0  0  0
    9.9604    1.0353    1.2313 H   0  0  0  0  0  0  0  0  0  0  0  0
  5  6  2  0  0  0  0
  5  7  1  0  0  0  0
  2  3  1  0  0  0  0
  2  4  1  0  0  0  0
  2  5  1  0  0  0  0
  1  2  1  0  0  0  0
 15 16  2  0  0  0  0
 15 17  1  0  0  0  0
 14 36  1  0  0  0  0
 11 12  1  0  0  0  0
 11 13  1  0  0  0  0
 11 14  1  0  0  0  0
  9 10  1  0  0  0  0
  9 11  1  0  0  0  0
  9 15  1  0  0  0  0
  7  8  1  0  0  0  0
  7  9  1  0  0  0  0
 19 20  1  0  0  0  0
 19 21  1  0  0  0  0
 19 22  1  0  0  0  0
 17 18  1  0  0  0  0
 17 19  1  0  0  0  0
 27 28  2  0  0  0  0
 27 29  1  0  0  0  0
 24 25  1  0  0  0  0
 24 26  1  0  0  0  0
 24 27  1  0  0  0  0
 23 24  1  0  0  0  0
 37 38  2  0  0  0  0
 37 39  1  0  0  0  0
 33 34  1  0  0  0  0
 33 35  1  0  0  0  0
 33 36  1  0  0  0  0
 31 32  1  0  0  0  0
 31 33  1  0  0  0  0
 31 37  1  0  0  0  0
 29 30  1  0  0  0  0
 29 31  1  0  0  0  0
 41 42  1  0  0  0  0
 41 43  1  0  0  0  0
 41 44  1  0  0  0  0
 39 40  1  0  0  0  0
 39 41  1  0  0  0  0
M  END
$$$$
default_name
  -OEChem-01062215323D

 44 43  0     1  0  0  0  0  0999 V2000
    2.4488   -3.0448    2.0990 H   0  0  0  0  0  0  0  0  0  0  0  0
    2.2788   -2.0018    2.3640 C   0  0  0  0  0  0  0  0  0  0  0  0
    2.9228   -1.7258    3.1960 H   0  0  0  0  0  0  0  0  0  0  0  0
    1.2358   -1.8618    2.6430 H   0  0  0  0  0  0  0  0  0  0  0  0
    2.6018   -1.1318    1.1730 C   0  0  0  0  0  0  0  0  0  0  0  0
    3.0048   -1.6348    0.1320 O   0  0  0  0  0  0  0  0  0  0  0  0
    2.4088    0.1752    1.3190 N   0  0  0  0  0  0  0  0  0  0  0  0
    2.0708    0.5242    2.2050 H   0  0  0  0  0  0  0  0  0  0  0  0
    2.6638    1.1782    0.2840 C   0  0  1  0  0  0  0  0  0  0  0  0
    2.6417    2.1632    0.7531 H   0  0  0  0  0  0  0  0  0  0  0  0
    4.0666    0.9638   -0.3108 C   0  0  0  0  0  0  0  0  0  0  0  0
    4.1800    1.6085   -1.1832 H   0  0  0  0  0  0  0  0  0  0  0  0
    4.1202   -0.0610   -0.6772 H   0  0  0  0  0  0  0  0  0  0  0  0
    5.4994    1.2101    0.7798 S   0  0  0  0  0  0  0  0  0  0  0  0
    1.5685    1.1487   -0.7985 C   0  0  0  0  0  0  0  0  0  0  0  0
    1.6840    0.4216   -1.7850 O   0  0  0  0  0  0  0  0  0  0  0  0
    0.5011    1.9360   -0.6098 N   0  0  0  0  0  0  0  0  0  0  0  0
    0.4698    2.5038    0.2216 H   0  0  0  0  0  0  0  0  0  0  0  0
   -0.6189    2.0218   -1.5448 C   0  0  0  0  0  0  0  0  0  0  0  0
   -0.2663    2.4016   -2.5060 H   0  0  0  0  0  0  0  0  0  0  0  0
   -1.0466    1.0298   -1.7010 H   0  0  0  0  0  0  0  0  0  0  0  0
   -1.3887    2.6886   -1.1541 H   0  0  0  0  0  0  0  0  0  0  0  0
    7.2661    8.0761   -3.1648 H   0  0  0  0  0  0  0  0  0  0  0  0
    7.3646    6.9957   -3.2598 C   0  0  0  0  0  0  0  0  0  0  0  0
    8.3273    6.7524   -3.7066 H   0  0  0  0  0  0  0  0  0  0  0  0
    6.5600    6.6089   -3.8825 H   0  0  0  0  0  0  0  0  0  0  0  0
    7.2781    6.3728   -1.8862 C   0  0  0  0  0  0  0  0  0  0  0  0
    7.1090    7.0750   -0.8986 O   0  0  0  0  0  0  0  0  0  0  0  0
    7.3865    5.0482   -1.8274 N   0  0  0  0  0  0  0  0  0  0  0  0
    7.5353    4.5330   -2.6828 H   0  0  0  0  0  0  0  0  0  0  0  0
    7.3222    4.2644   -0.5937 C   0  0  1  0  0  0  0  0  0  0  0  0
    7.8138    4.8201    0.2068 H   0  0  0  0  0  0  0  0  0  0  0  0
    5.8440    4.0860   -0.2202 C   0  0  0  0  0  0  0  0  0  0  0  0
    5.4099    5.0812   -0.1131 H   0  0  0  0  0  0  0  0  0  0  0  0
    5.3278    3.5975   -1.0468 H   0  0  0  0  0  0  0  0  0  0  0  0
    5.4715    3.1824    1.3068 S   0  0  0  0  0  0  0  0  0  0  0  0
    8.0572    2.9237   -0.7686 C   0  0  0  0  0  0  0  0  0  0  0  0
    8.0967    2.3842   -1.8753 O   0  0  0  0  0  0  0  0  0  0  0  0
    8.6418    2.3951    0.3141 N   0  0  0  0  0  0  0  0  0  0  0  0
    8.5354    2.8815    1.1902 H   0  0  0  0  0  0  0  0  0  0  0  0
    9.3701    1.1270    0.3194 C   0  0  0  0  0  0  0  0  0  0  0  0
    8.6639    0.2969    0.2632 H   0  0  0  0  0  0  0  0  0  0  0  0
   10.0374    1.0758   -0.5443 H   0  0  0  0  0  0  0  0  0  0  0  0
    9.9604    1.0353    1.2313 H   0  0  0  0  0  0  0  0  0  0  0  0
  5  6  2  0  0  0  0
  5  7  1  0  0  0  0
  2  3  1  0  0  0  0
  2  4  1  0  0  0  0
  2  5  1  0  0  0  0
  1  2  1  0  0  0  0
 15 16  2  0  0  0  0
 15 17  1  0  0  0  0
 14 36  1  0  0  0  0
 11 12  1  0  0  0  0
 11 13  1  0  0  0  0
 11 14  1  0  0  0  0
  9 10  1  0  0  0  0
  9 11  1  0  0  0  0
  9 15  1  0  0  0  0
  7  8  1  0  0  0  0
  7  9  1  0  0  0  0
 19 20  1  0  0  0  0
 19 21  1  0  0  0  0
 19 22  1  0  0  0  0
 17 18  1  0  0  0  0
 17 19  1  0  0  0  0
 27 28  2  0  0  0  0
 27 29  1  0  0  0  0
 24 25  1  0  0  0  0
 24 26  1  0  0  0  0
 24 27  1  0  0  0  0
 23 24  1  0  0  0  0
 37 38  2  0  0  0  0
 37 39  1  0  0  0  0
 33 34  1  0  0  0  0
 33 35  1  0  0  0  0
 33 36  1  0  0  0  0
 31 32  1  0  0  0  0
 31 33  1  0  0  0  0
 31 37  1  0  0  0  0
 29 30  1  0  0  0  0
 29 31  1  0  0  0  0
 41 42  1  0  0  0  0
 41 43  1  0  0  0  0
 41 44  1  0  0  0  0
 39 40  1  0  0  0  0
 39 41  1  0  0  0  0
M  END
$$$$
default_name
  -OEChem-01062215323D

 44 43  0     1  0  0  0  0  0999 V2000
    2.4488   -3.0448    2.0990 H   0  0  0  0  0  0  0  0  0  0  0  0
    2.2788   -2.0018    2.3640 C   0  0  0  0  0  0  0  0  0  0  0  0
    2.9228   -1.7258    3.1960 H   0  0  0  0  0  0  0  0  0  0  0  0
    1.2358   -1.8618    2.6430 H   0  0  0  0  0  0  0  0  0  0  0  0
    2.6018   -1.1318    1.1730 C   0  0  0  0  0  0  0  0  0  0  0  0
    3.0048   -1.6348    0.1320 O   0  0  0  0  0  0  0  0  0  0  0  0
    2.4088    0.1752    1.3190 N   0  0  0  0  0  0  0  0  0  0  0  0
    2.0708    0.5242    2.2050 H   0  0  0  0  0  0  0  0  0  0  0  0
    2.6638    1.1782    0.2840 C   0  0  1  0  0  0  0  0  0  0  0  0
    2.6417    2.1632    0.7531 H   0  0  0  0  0  0  0  0  0  0  0  0
    4.0666    0.9638   -0.3108 C   0  0  0  0  0  0  0  0  0  0  0  0
    4.1800    1.6085   -1.1832 H   0  0  0  0  0  0  0  0  0  0  0  0
    4.1202   -0.0610   -0.6772 H   0  0  0  0  0  0  0  0  0  0  0  0
    5.4994    1.2101    0.7798 S   0  0  0  0  0  0  0  0  0  0  0  0
    1.5685    1.1487   -0.7985 C   0  0  0  0  0  0  0  0  0  0  0  0
    1.5375    0.2434   -1.6319 O   0  0  0  0  0  0  0  0  0  0  0  0
    0.6649    2.1376   -0.7811 N   0  0  0  0  0  0  0  0  0  0  0  0
    0.7477    2.8452   -0.0689 H   0  0  0  0  0  0  0  0  0  0  0  0
   -0.4318    2.2513   -1.7403 C   0  0  0  0  0  0  0  0  0  0  0  0
   -0.0275    2.3768   -2.7470 H   0  0  0  0  0  0  0  0  0  0  0  0
   -1.0352    1.3418   -1.7211 H   0  0  0  0  0  0  0  0  0  0  0  0
   -1.0623    3.1071   -1.4957 H   0  0  0  0  0  0  0  0  0  0  0  0
    7.2661    8.0761   -3.1648 H   0  0  0  0  0  0  0  0  0  0  0  0
    7.3646    6.9957   -3.2598 C   0  0  0  0  0  0  0  0  0  0  0  0
    8.3273    6.7524   -3.7066 H   0  0  0  0  0  0  0  0  0  0  0  0
    6.5600    6.6089   -3.8825 H   0  0  0  0  0  0  0  0  0  0  0  0
    7.2781    6.3728   -1.8862 C   0  0  0  0  0  0  0  0  0  0  0  0
    7.1090    7.0750   -0.8986 O   0  0  0  0  0  0  0  0  0  0  0  0
    7.3865    5.0482   -1.8274 N   0  0  0  0  0  0  0  0  0  0  0  0
    7.5353    4.5330   -2.6828 H   0  0  0  0  0  0  0  0  0  0  0  0
    7.3222    4.2644   -0.5937 C   0  0  1  0  0  0  0  0  0  0  0  0
    7.8138    4.8201    0.2068 H   0  0  0  0  0  0  0  0  0  0  0  0
    5.8440    4.0860   -0.2202 C   0  0  0  0  0  0  0  0  0  0  0  0
    5.4099    5.0812   -0.1131 H   0  0  0  0  0  0  0  0  0  0  0  0
    5.3278    3.5975   -1.0468 H   0  0  0  0  0  0  0  0  0  0  0  0
    5.4715    3.1824    1.3068 S   0  0  0  0  0  0  0  0  0  0  0  0
    8.0572    2.9237   -0.7686 C   0  0  0  0  0  0  0  0  0  0  0  0
    8.0967    2.3842   -1.8753 O   0  0  0  0  0  0  0  0  0  0  0  0
    8.6418    2.3951    0.3141 N   0  0  0  0  0  0  0  0  0  0  0  0
    8.5354    2.8815    1.1902 H   0  0  0  0  0  0  0  0  0  0  0  0
    9.3701    1.1270    0.3194 C   0  0  0  0  0  0  0  0  0  0  0  0
    8.6639    0.2969    0.2632 H   0  0  0  0  0  0  0  0  0  0  0  0
   10.0374    1.0758   -0.5443 H   0  0  0  0  0  0  0  0  0  0  0  0
    9.9604    1.0353    1.2313 H   0  0  0  0  0  0  0  0  0  0  0  0
  5  6  2  0  0  0  0
  5  7  1  0  0  0  0
  2  3  1  0  0  0  0
  2  4  1  0  0  0  0
  2  5  1  0  0  0  0
  1  2  1  0  0  0  0
 15 16  2  0  0  0  0
 15 17  1  0  0  0  0
 14 36  1  0  0  0  0
 11 12  1  0  0  0  0
 11 13  1  0  0  0  0
 11 14  1  0  0  0  0
  9 10  1  0  0  0  0
  9 11  1  0  0  0  0
  9 15  1  0  0  0  0
  7  8  1  0  0  0  0
  7  9  1  0  0  0  0
 19 20  1  0  0  0  0
 19 21  1  0  0  0  0
 19 22  1  0  0  0  0
 17 18  1  0  0  0  0
 17 19  1  0  0  0  0
 27 28  2  0  0  0  0
 27 29  1  0  0  0  0
 24 25  1  0  0  0  0
 24 26  1  0  0  0  0
 24 27  1  0  0  0  0
 23 24  1  0  0  0  0
 37 38  2  0  0  0  0
 37 39  1  0  0  0  0
 33 34  1  0  0  0  0
 33 35  1  0  0  0  0
 33 36  1  0  0  0  0
 31 32  1  0  0  0  0
 31 33  1  0  0  0  0
 31 37  1  0  0  0  0
 29 30  1  0  0  0  0
 29 31  1  0  0  0  0
 41 42  1  0  0  0  0
 41 43  1  0  0  0  0
 41 44  1  0  0  0  0
 39 40  1  0  0  0  0
 39 41  1  0  0  0  0
M  END
$$$$
default_name
  -OEChem-01062215323D

 44 43  0     1  0  0  0  0  0999 V2000
    2.4488   -3.0448    2.0990 H   0  0  0  0  0  0  0  0  0  0  0  0
    2.2788   -2.0018    2.3640 C   0  0  0  0  0  0  0  0  0  0  0  0
    2.9228   -1.7258    3.1960 H   0  0  0  0  0  0  0  0  0  0  0  0
    1.2358   -1.8618    2.6430 H   0  0  0  0  0  0  0  0  0  0  0  0
    2.6018   -1.1318    1.1730 C   0  0  0  0  0  0  0  0  0  0  0  0
    3.0048   -1.6348    0.1320 O   0  0  0  0  0  0  0  0  0  0  0  0
    2.4088    0.1752    1.3190 N   0  0  0  0  0  0  0  0  0  0  0  0
    2.0708    0.5242    2.2050 H   0  0  0  0  0  0  0  0  0  0  0  0
    2.6638    1.1782    0.2840 C   0  0  1  0  0  0  0  0  0  0  0  0
    2.6417    2.1632    0.7531 H   0  0  0  0  0  0  0  0  0  0  0  0
    4.0666    0.9638   -0.3108 C   0  0  0  0  0  0  0  0  0  0  0  0
    4.1800    1.6085   -1.1832 H   0  0  0  0  0  0  0  0  0  0  0  0
    4.1202   -0.0610   -0.6772 H   0  0  0  0  0  0  0  0  0  0  0  0
    5.4994    1.2101    0.7798 S   0  0  0  0  0  0  0  0  0  0  0  0
    1.5685    1.1487   -0.7985 C   0  0  0  0  0  0  0  0  0  0  0  0
    1.3629    0.1261   -1.4520 O   0  0  0  0  0  0  0  0  0  0  0  0
    0.8607    2.2711   -0.9828 N   0  0  0  0  0  0  0  0  0  0  0  0
    1.0797    3.0710   -0.4111 H   0  0  0  0  0  0  0  0  0  0  0  0
   -0.2084    2.4029   -1.9704 C   0  0  0  0  0  0  0  0  0  0  0  0
    0.1998    2.2650   -2.9739 H   0  0  0  0  0  0  0  0  0  0  0  0
   -0.9672    1.6374   -1.7979 H   0  0  0  0  0  0  0  0  0  0  0  0
   -0.6693    3.3890   -1.9011 H   0  0  0  0  0  0  0  0  0  0  0  0
    7.2661    8.0761   -3.1648 H   0  0  0  0  0  0  0  0  0  0  0  0
    7.3646    6.9957   -3.2598 C   0  0  0  0  0  0  0  0  0  0  0  0
    8.3273    6.7524   -3.7066 H   0  0  0  0  0  0  0  0  0  0  0  0
    6.5600    6.6089   -3.8825 H   0  0  0  0  0  0  0  0  0  0  0  0
    7.2781    6.3728   -1.8862 C   0  0  0  0  0  0  0  0  0  0  0  0
    7.1090    7.0750   -0.8986 O   0  0  0  0  0  0  0  0  0  0  0  0
    7.3865    5.0482   -1.8274 N   0  0  0  0  0  0  0  0  0  0  0  0
    7.5353    4.5330   -2.6828 H   0  0  0  0  0  0  0  0  0  0  0  0
    7.3222    4.2644   -0.5937 C   0  0  1  0  0  0  0  0  0  0  0  0
    7.8138    4.8201    0.2068 H   0  0  0  0  0  0  0  0  0  0  0  0
    5.8440    4.0860   -0.2202 C   0  0  0  0  0  0  0  0  0  0  0  0
    5.4099    5.0812   -0.1131 H   0  0  0  0  0  0  0  0  0  0  0  0
    5.3278    3.5975   -1.0468 H   0  0  0  0  0  0  0  0  0  0  0  0
    5.4715    3.1824    1.3068 S   0  0  0  0  0  0  0  0  0  0  0  0
    8.0572    2.9237   -0.7686 C   0  0  0  0  0  0  0  0  0  0  0  0
    8.0967    2.3842   -1.8753 O   0  0  0  0  0  0  0  0  0  0  0  0
    8.6418    2.3951    0.3141 N   0  0  0  0  0  0  0  0  0  0  0  0
    8.5354    2.8815    1.1902 H   0  0  0  0  0  0  0  0  0  0  0  0
    9.3701    1.1270    0.3194 C   0  0  0  0  0  0  0  0  0  0  0  0
    8.6639    0.2969    0.2632 H   0  0  0  0  0  0  0  0  0  0  0  0
   10.0374    1.0758   -0.5443 H   0  0  0  0  0  0  0  0  0  0  0  0
    9.9604    1.0353    1.2313 H   0  0  0  0  0  0  0  0  0  0  0  0
  5  6  2  0  0  0  0
  5  7  1  0  0  0  0
  2  3  1  0  0  0  0
  2  4  1  0  0  0  0
  2  5  1  0  0  0  0
  1  2  1  0  0  0  0
 15 16  2  0  0  0  0
 15 17  1  0  0  0  0
 14 36  1  0  0  0  0
 11 12  1  0  0  0  0
 11 13  1  0  0  0  0
 11 14  1  0  0  0  0
  9 10  1  0  0  0  0
  9 11  1  0  0  0  0
  9 15  1  0  0  0  0
  7  8  1  0  0  0  0
  7  9  1  0  0  0  0
 19 20  1  0  0  0  0
 19 21  1  0  0  0  0
 19 22  1  0  0  0  0
 17 18  1  0  0  0  0
 17 19  1  0  0  0  0
 27 28  2  0  0  0  0
 27 29  1  0  0  0  0
 24 25  1  0  0  0  0
 24 26  1  0  0  0  0
 24 27  1  0  0  0  0
 23 24  1  0  0  0  0
 37 38  2  0  0  0  0
 37 39  1  0  0  0  0
 33 34  1  0  0  0  0
 33 35  1  0  0  0  0
 33 36  1  0  0  0  0
 31 32  1  0  0  0  0
 31 33  1  0  0  0  0
 31 37  1  0  0  0  0
 29 30  1  0  0  0  0
 29 31  1  0  0  0  0
 41 42  1  0  0  0  0
 41 43  1  0  0  0  0
 41 44  1  0  0  0  0
 39 40  1  0  0  0  0
 39 41  1  0  0  0  0
M  END
$$$$
default_name
  -OEChem-01062215323D

 44 43  0     1  0  0  0  0  0999 V2000
    2.4488   -3.0448    2.0990 H   0  0  0  0  0  0  0  0  0  0  0  0
    2.2788   -2.0018    2.3640 C   0  0  0  0  0  0  0  0  0  0  0  0
    2.9228   -1.7258    3.1960 H   0  0  0  0  0  0  0  0  0  0  0  0
    1.2358   -1.8618    2.6430 H   0  0  0  0  0  0  0  0  0  0  0  0
    2.6018   -1.1318    1.1730 C   0  0  0  0  0  0  0  0  0  0  0  0
    3.0048   -1.6348    0.1320 O   0  0  0  0  0  0  0  0  0  0  0  0
    2.4088    0.1752    1.3190 N   0  0  0  0  0  0  0  0  0  0  0  0
    2.0708    0.5242    2.2050 H   0  0  0  0  0  0  0  0  0  0  0  0
    2.6638    1.1782    0.2840 C   0  0  1  0  0  0  0  0  0  0  0  0
    2.6417    2.1632    0.7531 H   0  0  0  0  0  0  0  0  0  0  0  0
    4.0666    0.9638   -0.3108 C   0  0  0  0  0  0  0  0  0  0  0  0
    4.1800    1.6085   -1.1832 H   0  0  0  0  0  0  0  0  0  0  0  0
    4.1202   -0.0610   -0.6772 H   0  0  0  0  0  0  0  0  0  0  0  0
    5.4994    1.2101    0.7798 S   0  0  0  0  0  0  0  0  0  0  0  0
    1.5685    1.1487   -0.7985 C   0  0  0  0  0  0  0  0  0  0  0  0
    1.1720    0.0776   -1.2575 O   0  0  0  0  0  0  0  0  0  0  0  0
    1.0751    2.3273   -1.2013 N   0  0  0  0  0  0  0  0  0  0  0  0
    1.4432    3.1657   -0.7814 H   0  0  0  0  0  0  0  0  0  0  0  0
    0.0361    2.4663   -2.2196 C   0  0  0  0  0  0  0  0  0  0  0  0
    0.4002    2.0739   -3.1714 H   0  0  0  0  0  0  0  0  0  0  0  0
   -0.8475    1.8965   -1.9262 H   0  0  0  0  0  0  0  0  0  0  0  0
   -0.2364    3.5153   -2.3426 H   0  0  0  0  0  0  0  0  0  0  0  0
    7.2661    8.0761   -3.1648 H   0  0  0  0  0  0  0  0  0  0  0  0
    7.3646    6.9957   -3.2598 C   0  0  0  0  0  0  0  0  0  0  0  0
    8.3273    6.7524   -3.7066 H   0  0  0  0  0  0  0  0  0  0  0  0
    6.5600    6.6089   -3.8825 H   0  0  0  0  0  0  0  0  0  0  0  0
    7.2781    6.3728   -1.8862 C   0  0  0  0  0  0  0  0  0  0  0  0
    7.1090    7.0750   -0.8986 O   0  0  0  0  0  0  0  0  0  0  0  0
    7.3865    5.0482   -1.8274 N   0  0  0  0  0  0  0  0  0  0  0  0
    7.5353    4.5330   -2.6828 H   0  0  0  0  0  0  0  0  0  0  0  0
    7.3222    4.2644   -0.5937 C   0  0  1  0  0  0  0  0  0  0  0  0
    7.8138    4.8201    0.2068 H   0  0  0  0  0  0  0  0  0  0  0  0
    5.8440    4.0860   -0.2202 C   0  0  0  0  0  0  0  0  0  0  0  0
    5.4099    5.0812   -0.1131 H   0  0  0  0  0  0  0  0  0  0  0  0
    5.3278    3.5975   -1.0468 H   0  0  0  0  0  0  0  0  0  0  0  0
    5.4715    3.1824    1.3068 S   0  0  0  0  0  0  0  0  0  0  0  0
    8.0572    2.9237   -0.7686 C   0  0  0  0  0  0  0  0  0  0  0  0
    8.0967    2.3842   -1.8753 O   0  0  0  0  0  0  0  0  0  0  0  0
    8.6418    2.3951    0.3141 N   0  0  0  0  0  0  0  0  0  0  0  0
    8.5354    2.8815    1.1902 H   0  0  0  0  0  0  0  0  0  0  0  0
    9.3701    1.1270    0.3194 C   0  0  0  0  0  0  0  0  0  0  0  0
    8.6639    0.2969    0.2632 H   0  0  0  0  0  0  0  0  0  0  0  0
   10.0374    1.0758   -0.5443 H   0  0  0  0  0  0  0  0  0  0  0  0
    9.9604    1.0353    1.2313 H   0  0  0  0  0  0  0  0  0  0  0  0
  5  6  2  0  0  0  0
  5  7  1  0  0  0  0
  2  3  1  0  0  0  0
  2  4  1  0  0  0  0
  2  5  1  0  0  0  0
  1  2  1  0  0  0  0
 15 16  2  0  0  0  0
 15 17  1  0  0  0  0
 14 36  1  0  0  0  0
 11 12  1  0  0  0  0
 11 13  1  0  0  0  0
 11 14  1  0  0  0  0
  9 10  1  0  0  0  0
  9 11  1  0  0  0  0
  9 15  1  0  0  0  0
  7  8  1  0  0  0  0
  7  9  1  0  0  0  0
 19 20  1  0  0  0  0
 19 21  1  0  0  0  0
 19 22  1  0  0  0  0
 17 18  1  0  0  0  0
 17 19  1  0  0  0  0
 27 28  2  0  0  0  0
 27 29  1  0  0  0  0
 24 25  1  0  0  0  0
 24 26  1  0  0  0  0
 24 27  1  0  0  0  0
 23 24  1  0  0  0  0
 37 38  2  0  0  0  0
 37 39  1  0  0  0  0
 33 34  1  0  0  0  0
 33 35  1  0  0  0  0
 33 36  1  0  0  0  0
 31 32  1  0  0  0  0
 31 33  1  0  0  0  0
 31 37  1  0  0  0  0
 29 30  1  0  0  0  0
 29 31  1  0  0  0  0
 41 42  1  0  0  0  0
 41 43  1  0  0  0  0
 41 44  1  0  0  0  0
 39 40  1  0  0  0  0
 39 41  1  0  0  0  0
M  END
$$$$
default_name
  -OEChem-01062215323D

 44 43  0     1  0  0  0  0  0999 V2000
    2.4488   -3.0448    2.0990 H   0  0  0  0  0  0  0  0  0  0  0  0
    2.2788   -2.0018    2.3640 C   0  0  0  0  0  0  0  0  0  0  0  0
    2.9228   -1.7258    3.1960 H   0  0  0  0  0  0  0  0  0  0  0  0
    1.2358   -1.8618    2.6430 H   0  0  0  0  0  0  0  0  0  0  0  0
    2.6018   -1.1318    1.1730 C   0  0  0  0  0  0  0  0  0  0  0  0
    3.0048   -1.6348    0.1320 O   0  0  0  0  0  0  0  0  0  0  0  0
    2.4088    0.1752    1.3190 N   0  0  0  0  0  0  0  0  0  0  0  0
    2.0708    0.5242    2.2050 H   0  0  0  0  0  0  0  0  0  0  0  0
    2.6638    1.1782    0.2840 C   0  0  1  0  0  0  0  0  0  0  0  0
    2.6417    2.1632    0.7531 H   0  0  0  0  0  0  0  0  0  0  0  0
    4.0666    0.9638   -0.3108 C   0  0  0  0  0  0  0  0  0  0  0  0
    4.1800    1.6085   -1.1832 H   0  0  0  0  0  0  0  0  0  0  0  0
    4.1202   -0.0610   -0.6772 H   0  0  0  0  0  0  0  0  0  0  0  0
    5.4994    1.2101    0.7798 S   0  0  0  0  0  0  0  0  0  0  0  0
    1.5685    1.1487   -0.7985 C   0  0  0  0  0  0  0  0  0  0  0  0
    0.9778    0.1014   -1.0617 O   0  0  0  0  0  0  0  0  0  0  0  0
    1.2935    2.3024   -1.4215 N   0  0  0  0  0  0  0  0  0  0  0  0
    1.8133    3.1229   -1.1548 H   0  0  0  0  0  0  0  0  0  0  0  0
    0.2850    2.4373   -2.4707 C   0  0  0  0  0  0  0  0  0  0  0  0
    0.5599    1.8166   -3.3261 H   0  0  0  0  0  0  0  0  0  0  0  0
   -0.6840    2.1013   -2.0971 H   0  0  0  0  0  0  0  0  0  0  0  0
    0.2070    3.4773   -2.7902 H   0  0  0  0  0  0  0  0  0  0  0  0
    7.2661    8.0761   -3.1648 H   0  0  0  0  0  0  0  0  0  0  0  0
    7.3646    6.9957   -3.2598 C   0  0  0  0  0  0  0  0  0  0  0  0
    8.3273    6.7524   -3.7066 H   0  0  0  0  0  0  0  0  0  0  0  0
    6.5600    6.6089   -3.8825 H   0  0  0  0  0  0  0  0  0  0  0  0
    7.2781    6.3728   -1.8862 C   0  0  0  0  0  0  0  0  0  0  0  0
    7.1090    7.0750   -0.8986 O   0  0  0  0  0  0  0  0  0  0  0  0
    7.3865    5.0482   -1.8274 N   0  0  0  0  0  0  0  0  0  0  0  0
    7.5353    4.5330   -2.6828 H   0  0  0  0  0  0  0  0  0  0  0  0
    7.3222    4.2644   -0.5937 C   0  0  1  0  0  0  0  0  0  0  0  0
    7.8138    4.8201    0.2068 H   0  0  0  0  0  0  0  0  0  0  0  0
    5.8440    4.0860   -0.2202 C   0  0  0  0  0  0  0  0  0  0  0  0
    5.4099    5.0812   -0.1131 H   0  0  0  0  0  0  0  0  0  0  0  0
    5.3278    3.5975   -1.0468 H   0  0  0  0  0  0  0  0  0  0  0  0
    5.4715    3.1824    1.3068 S   0  0  0  0  0  0  0  0  0  0  0  0
    8.0572    2.9237   -0.7686 C   0  0  0  0  0  0  0  0  0  0  0  0
    8.0967    2.3842   -1.8753 O   0  0  0  0  0  0  0  0  0  0  0  0
    8.6418    2.3951    0.3141 N   0  0  0  0  0  0  0  0  0  0  0  0
    8.5354    2.8815    1.1902 H   0  0  0  0  0  0  0  0  0  0  0  0
    9.3701    1.1270    0.3194 C   0  0  0  0  0  0  0  0  0  0  0  0
    8.6639    0.2969    0.2632 H   0  0  0  0  0  0  0  0  0  0  0  0
   10.0374    1.0758   -0.5443 H   0  0  0  0  0  0  0  0  0  0  0  0
    9.9604    1.0353    1.2313 H   0  0  0  0  0  0  0  0  0  0  0  0
  5  6  2  0  0  0  0
  5  7  1  0  0  0  0
  2  3  1  0  0  0  0
  2  4  1  0  0  0  0
  2  5  1  0  0  0  0
  1  2  1  0  0  0  0
 15 16  2  0  0  0  0
 15 17  1  0  0  0  0
 14 36  1  0  0  0  0
 11 12  1  0  0  0  0
 11 13  1  0  0  0  0
 11 14  1  0  0  0  0
  9 10  1  0  0  0  0
  9 11  1  0  0  0  0
  9 15  1  0  0  0  0
  7  8  1  0  0  0  0
  7  9  1  0  0  0  0
 19 20  1  0  0  0  0
 19 21  1  0  0  0  0
 19 22  1  0  0  0  0
 17 18  1  0  0  0  0
 17 19  1  0  0  0  0
 27 28  2  0  0  0  0
 27 29  1  0  0  0  0
 24 25  1  0  0  0  0
 24 26  1  0  0  0  0
 24 27  1  0  0  0  0
 23 24  1  0  0  0  0
 37 38  2  0  0  0  0
 37 39  1  0  0  0  0
 33 34  1  0  0  0  0
 33 35  1  0  0  0  0
 33 36  1  0  0  0  0
 31 32  1  0  0  0  0
 31 33  1  0  0  0  0
 31 37  1  0  0  0  0
 29 30  1  0  0  0  0
 29 31  1  0  0  0  0
 41 42  1  0  0  0  0
 41 43  1  0  0  0  0
 41 44  1  0  0  0  0
 39 40  1  0  0  0  0
 39 41  1  0  0  0  0
M  END
$$$$
default_name
  -OEChem-01062215323D

 44 43  0     1  0  0  0  0  0999 V2000
    2.4488   -3.0448    2.0990 H   0  0  0  0  0  0  0  0  0  0  0  0
    2.2788   -2.0018    2.3640 C   0  0  0  0  0  0  0  0  0  0  0  0
    2.9228   -1.7258    3.1960 H   0  0  0  0  0  0  0  0  0  0  0  0
    1.2358   -1.8618    2.6430 H   0  0  0  0  0  0  0  0  0  0  0  0
    2.6018   -1.1318    1.1730 C   0  0  0  0  0  0  0  0  0  0  0  0
    3.0048   -1.6348    0.1320 O   0  0  0  0  0  0  0  0  0  0  0  0
    2.4088    0.1752    1.3190 N   0  0  0  0  0  0  0  0  0  0  0  0
    2.0708    0.5242    2.2050 H   0  0  0  0  0  0  0  0  0  0  0  0
    2.6638    1.1782    0.2840 C   0  0  1  0  0  0  0  0  0  0  0  0
    2.6417    2.1632    0.7531 H   0  0  0  0  0  0  0  0  0  0  0  0
    4.0666    0.9638   -0.3108 C   0  0  0  0  0  0  0  0  0  0  0  0
    4.1800    1.6085   -1.1832 H   0  0  0  0  0  0  0  0  0  0  0  0
    4.1202   -0.0610   -0.6772 H   0  0  0  0  0  0  0  0  0  0  0  0
    5.4994    1.2101    0.7798 S   0  0  0  0  0  0  0  0  0  0  0  0
    1.5685    1.1487   -0.7985 C   0  0  0  0  0  0  0  0  0  0  0  0
    0.7935    0.1957   -0.8779 O   0  0  0  0  0  0  0  0  0  0  0  0
    1.5010    2.1980   -1.6287 N   0  0  0  0  0  0  0  0  0  0  0  0
    2.1649    2.9455   -1.5057 H   0  0  0  0  0  0  0  0  0  0  0  0
    0.5214    2.3178   -2.7066 C   0  0  0  0  0  0  0  0  0  0  0  0
    0.6682    1.5104   -3.4273 H   0  0  0  0  0  0  0  0  0  0  0  0
   -0.4880    2.2379   -2.2991 H   0  0  0  0  0  0  0  0  0  0  0  0
    0.6305    3.2775   -3.2133 H   0  0  0  0  0  0  0  0  0  0  0  0
    7.2661    8.0761   -3.1648 H   0  0  0  0  0  0  0  0  0  0  0  0
    7.3646    6.9957   -3.2598 C   0  0  0  0  0  0  0  0  0  0  0  0
    8.3273    6.7524   -3.7066 H   0  0  0  0  0  0  0  0  0  0  0  0
    6.5600    6.6089   -3.8825 H   0  0  0  0  0  0  0  0  0  0  0  0
    7.2781    6.3728   -1.8862 C   0  0  0  0  0  0  0  0  0  0  0  0
    7.1090    7.0750   -0.8986 O   0  0  0  0  0  0  0  0  0  0  0  0
    7.3865    5.0482   -1.8274 N   0  0  0  0  0  0  0  0  0  0  0  0
    7.5353    4.5330   -2.6828 H   0  0  0  0  0  0  0  0  0  0  0  0
    7.3222    4.2644   -0.5937 C   0  0  1  0  0  0  0  0  0  0  0  0
    7.8138    4.8201    0.2068 H   0  0  0  0  0  0  0  0  0  0  0  0
    5.8440    4.0860   -0.2202 C   0  0  0  0  0  0  0  0  0  0  0  0
    5.4099    5.0812   -0.1131 H   0  0  0  0  0  0  0  0  0  0  0  0
    5.3278    3.5975   -1.0468 H   0  0  0  0  0  0  0  0  0  0  0  0
    5.4715    3.1824    1.3068 S   0  0  0  0  0  0  0  0  0  0  0  0
    8.0572    2.9237   -0.7686 C   0  0  0  0  0  0  0  0  0  0  0  0
    8.0967    2.3842   -1.8753 O   0  0  0  0  0  0  0  0  0  0  0  0
    8.6418    2.3951    0.3141 N   0  0  0  0  0  0  0  0  0  0  0  0
    8.5354    2.8815    1.1902 H   0  0  0  0  0  0  0  0  0  0  0  0
    9.3701    1.1270    0.3194 C   0  0  0  0  0  0  0  0  0  0  0  0
    8.6639    0.2969    0.2632 H   0  0  0  0  0  0  0  0  0  0  0  0
   10.0374    1.0758   -0.5443 H   0  0  0  0  0  0  0  0  0  0  0  0
    9.9604    1.0353    1.2313 H   0  0  0  0  0  0  0  0  0  0  0  0
  5  6  2  0  0  0  0
  5  7  1  0  0  0  0
  2  3  1  0  0  0  0
  2  4  1  0  0  0  0
  2  5  1  0  0  0  0
  1  2  1  0  0  0  0
 15 16  2  0  0  0  0
 15 17  1  0  0  0  0
 14 36  1  0  0  0  0
 11 12  1  0  0  0  0
 11 13  1  0  0  0  0
 11 14  1  0  0  0  0
  9 10  1  0  0  0  0
  9 11  1  0  0  0  0
  9 15  1  0  0  0  0
  7  8  1  0  0  0  0
  7  9  1  0  0  0  0
 19 20  1  0  0  0  0
 19 21  1  0  0  0  0
 19 22  1  0  0  0  0
 17 18  1  0  0  0  0
 17 19  1  0  0  0  0
 27 28  2  0  0  0  0
 27 29  1  0  0  0  0
 24 25  1  0  0  0  0
 24 26  1  0  0  0  0
 24 27  1  0  0  0  0
 23 24  1  0  0  0  0
 37 38  2  0  0  0  0
 37 39  1  0  0  0  0
 33 34  1  0  0  0  0
 33 35  1  0  0  0  0
 33 36  1  0  0  0  0
 31 32  1  0  0  0  0
 31 33  1  0  0  0  0
 31 37  1  0  0  0  0
 29 30  1  0  0  0  0
 29 31  1  0  0  0  0
 41 42  1  0  0  0  0
 41 43  1  0  0  0  0
 41 44  1  0  0  0  0
 39 40  1  0  0  0  0
 39 41  1  0  0  0  0
M  END
$$$$
default_name
  -OEChem-01062215323D

 44 43  0     1  0  0  0  0  0999 V2000
    2.4488   -3.0448    2.0990 H   0  0  0  0  0  0  0  0  0  0  0  0
    2.2788   -2.0018    2.3640 C   0  0  0  0  0  0  0  0  0  0  0  0
    2.9228   -1.7258    3.1960 H   0  0  0  0  0  0  0  0  0  0  0  0
    1.2358   -1.8618    2.6430 H   0  0  0  0  0  0  0  0  0  0  0  0
    2.6018   -1.1318    1.1730 C   0  0  0  0  0  0  0  0  0  0  0  0
    3.0048   -1.6348    0.1320 O   0  0  0  0  0  0  0  0  0  0  0  0
    2.4088    0.1752    1.3190 N   0  0  0  0  0  0  0  0  0  0  0  0
    2.0708    0.5242    2.2050 H   0  0  0  0  0  0  0  0  0  0  0  0
    2.6638    1.1782    0.2840 C   0  0  1  0  0  0  0  0  0  0  0  0
    2.9080    2.1205    0.7773 H   0  0  0  0  0  0  0  0  0  0  0  0
    3.8772    0.7533   -0.5615 C   0  0  0  0  0  0  0  0  0  0  0  0
    3.9564    1.4198   -1.4212 H   0  0  0  0  0  0  0  0  0  0  0  0
    3.6738   -0.2400   -0.9607 H   0  0  0  0  0  0  0  0  0  0  0  0
    5.4975    0.6716    0.2575 S   0  0  0  0  0  0  0  0  0  0  0  0
    1.4117    1.4119   -0.5821 C   0  0  0  0  0  0  0  0  0  0  0  0
    0.3712    0.7944   -0.3561 O   0  0  0  0  0  0  0  0  0  0  0  0
    1.5112    2.3105   -1.5707 N   0  0  0  0  0  0  0  0  0  0  0  0
    2.3922    2.7820   -1.6982 H   0  0  0  0  0  0  0  0  0  0  0  0
    0.4152    2.6419   -2.4789 C   0  0  0  0  0  0  0  0  0  0  0  0
    0.1318    1.7559   -3.0509 H   0  0  0  0  0  0  0  0  0  0  0  0
   -0.4518    2.9750   -1.9055 H   0  0  0  0  0  0  0  0  0  0  0  0
    0.7182    3.4330   -3.1660 H   0  0  0  0  0  0  0  0  0  0  0  0
    7.8074    7.3403   -3.7445 H   0  0  0  0  0  0  0  0  0  0  0  0
    7.6840    6.2677   -3.8867 C   0  0  0  0  0  0  0  0  0  0  0  0
    8.4920    5.8840   -4.5075 H   0  0  0  0  0  0  0  0  0  0  0  0
    6.7259    6.0702   -4.3637 H   0  0  0  0  0  0  0  0  0  0  0  0
    7.7217    5.5868   -2.5386 C   0  0  0  0  0  0  0  0  0  0  0  0
    7.8606    6.2458   -1.5170 O   0  0  0  0  0  0  0  0  0  0  0  0
    7.5889    4.2632   -2.5382 N   0  0  0  0  0  0  0  0  0  0  0  0
    7.4883    3.7833   -3.4209 H   0  0  0  0  0  0  0  0  0  0  0  0
    7.5937    3.4291   -1.3364 C   0  0  1  0  0  0  0  0  0  0  0  0
    8.3116    3.8374   -0.6228 H   0  0  0  0  0  0  0  0  0  0  0  0
    6.1956    3.4954   -0.7058 C   0  0  0  0  0  0  0  0  0  0  0  0
    5.9806    4.5437   -0.4934 H   0  0  0  0  0  0  0  0  0  0  0  0
    5.4620    3.1590   -1.4387 H   0  0  0  0  0  0  0  0  0  0  0  0
    5.9308    2.5807    0.8369 S   0  0  0  0  0  0  0  0  0  0  0  0
    8.0233    1.9918   -1.6800 C   0  0  0  0  0  0  0  0  0  0  0  0
    7.7689    1.5232   -2.7904 O   0  0  0  0  0  0  0  0  0  0  0  0
    8.6772    1.3015   -0.7370 N   0  0  0  0  0  0  0  0  0  0  0  0
    8.8169    1.7441    0.1574 H   0  0  0  0  0  0  0  0  0  0  0  0
    9.1451   -0.0744   -0.9003 C   0  0  0  0  0  0  0  0  0  0  0  0
    8.2972   -0.7596   -0.8510 H   0  0  0  0  0  0  0  0  0  0  0  0
    9.6312   -0.1909   -1.8719 H   0  0  0  0  0  0  0  0  0  0  0  0
    9.8566   -0.3263   -0.1137 H   0  0  0  0  0  0  0  0  0  0  0  0
  5  6  2  0  0  0  0
  5  7  1  0  0  0  0
  2  3  1  0  0  0  0
  2  4  1  0  0  0  0
  2  5  1  0  0  0  0
  1  2  1  0  0  0  0
 15 16  2  0  0  0  0
 15 17  1  0  0  0  0
 14 36  1  0  0  0  0
 11 12  1  0  0  0  0
 11 13  1  0  0  0  0
 11 14  1  0  0  0  0
  9 10  1  0  0  0  0
  9 11  1  0  0  0  0
  9 15  1  0  0  0  0
  7  8  1  0  0  0  0
  7  9  1  0  0  0  0
 19 20  1  0  0  0  0
 19 21  1  0  0  0  0
 19 22  1  0  0  0  0
 17 18  1  0  0  0  0
 17 19  1  0  0  0  0
 27 28  2  0  0  0  0
 27 29  1  0  0  0  0
 24 25  1  0  0  0  0
 24 26  1  0  0  0  0
 24 27  1  0  0  0  0
 23 24  1  0  0  0  0
 37 38  2  0  0  0  0
 37 39  1  0  0  0  0
 33 34  1  0  0  0  0
 33 35  1  0  0  0  0
 33 36  1  0  0  0  0
 31 32  1  0  0  0  0
 31 33  1  0  0  0  0
 31 37  1  0  0  0  0
 29 30  1  0  0  0  0
 29 31  1  0  0  0  0
 41 42  1  0  0  0  0
 41 43  1  0  0  0  0
 41 44  1  0  0  0  0
 39 40  1  0  0  0  0
 39 41  1  0  0  0  0
M  END
$$$$
default_name
  -OEChem-01062215323D

 44 43  0     1  0  0  0  0  0999 V2000
    2.4488   -3.0448    2.0990 H   0  0  0  0  0  0  0  0  0  0  0  0
    2.2788   -2.0018    2.3640 C   0  0  0  0  0  0  0  0  0  0  0  0
    2.9228   -1.7258    3.1960 H   0  0  0  0  0  0  0  0  0  0  0  0
    1.2358   -1.8618    2.6430 H   0  0  0  0  0  0  0  0  0  0  0  0
    2.6018   -1.1318    1.1730 C   0  0  0  0  0  0  0  0  0  0  0  0
    3.0048   -1.6348    0.1320 O   0  0  0  0  0  0  0  0  0  0  0  0
    2.4088    0.1752    1.3190 N   0  0  0  0  0  0  0  0  0  0  0  0
    2.0708    0.5242    2.2050 H   0  0  0  0  0  0  0  0  0  0  0  0
    2.6638    1.1782    0.2840 C   0  0  1  0  0  0  0  0  0  0  0  0
    2.9080    2.1205    0.7773 H   0  0  0  0  0  0  0  0  0  0  0  0
    3.8772    0.7533   -0.5615 C   0  0  0  0  0  0  0  0  0  0  0  0
    3.9564    1.4198   -1.4212 H   0  0  0  0  0  0  0  0  0  0  0  0
    3.6738   -0.2400   -0.9607 H   0  0  0  0  0  0  0  0  0  0  0  0
    5.4975    0.6716    0.2575 S   0  0  0  0  0  0  0  0  0  0  0  0
    1.4117    1.4119   -0.5821 C   0  0  0  0  0  0  0  0  0  0  0  0
    0.3083    1.0176   -0.2050 O   0  0  0  0  0  0  0  0  0  0  0  0
    1.5829    2.0605   -1.7417 N   0  0  0  0  0  0  0  0  0  0  0  0
    2.5133    2.3580   -1.9877 H   0  0  0  0  0  0  0  0  0  0  0  0
    0.4966    2.3566   -2.6735 C   0  0  0  0  0  0  0  0  0  0  0  0
    0.0598    1.4238   -3.0364 H   0  0  0  0  0  0  0  0  0  0  0  0
   -0.2820    2.9274   -2.1639 H   0  0  0  0  0  0  0  0  0  0  0  0
    0.8701    2.9334   -3.5205 H   0  0  0  0  0  0  0  0  0  0  0  0
    7.8074    7.3403   -3.7445 H   0  0  0  0  0  0  0  0  0  0  0  0
    7.6840    6.2677   -3.8867 C   0  0  0  0  0  0  0  0  0  0  0  0
    8.4920    5.8840   -4.5075 H   0  0  0  0  0  0  0  0  0  0  0  0
    6.7259    6.0702   -4.3637 H   0  0  0  0  0  0  0  0  0  0  0  0
    7.7217    5.5868   -2.5386 C   0  0  0  0  0  0  0  0  0  0  0  0
    7.8606    6.2458   -1.5170 O   0  0  0  0  0  0  0  0  0  0  0  0
    7.5889    4.2632   -2.5382 N   0  0  0  0  0  0  0  0  0  0  0  0
    7.4883    3.7833   -3.4209 H   0  0  0  0  0  0  0  0  0  0  0  0
    7.5937    3.4291   -1.3364 C   0  0  1  0  0  0  0  0  0  0  0  0
    8.3116    3.8374   -0.6228 H   0  0  0  0  0  0  0  0  0  0  0  0
    6.1956    3.4954   -0.7058 C   0  0  0  0  0  0  0  0  0  0  0  0
    5.9806    4.5437   -0.4934 H   0  0  0  0  0  0  0  0  0  0  0  0
    5.4620    3.1590   -1.4387 H   0  0  0  0  0  0  0  0  0  0  0  0
    5.9308    2.5807    0.8369 S   0  0  0  0  0  0  0  0  0  0  0  0
    8.0233    1.9918   -1.6800 C   0  0  0  0  0  0  0  0  0  0  0  0
    7.7689    1.5232   -2.7904 O   0  0  0  0  0  0  0  0  0  0  0  0
    8.6772    1.3015   -0.7370 N   0  0  0  0  0  0  0  0  0  0  0  0
    8.8169    1.7441    0.1574 H   0  0  0  0  0  0  0  0  0  0  0  0
    9.1451   -0.0744   -0.9003 C   0  0  0  0  0  0  0  0  0  0  0  0
    8.2972   -0.7596   -0.8510 H   0  0  0  0  0  0  0  0  0  0  0  0
    9.6312   -0.1909   -1.8719 H   0  0  0  0  0  0  0  0  0  0  0  0
    9.8566   -0.3263   -0.1137 H   0  0  0  0  0  0  0  0  0  0  0  0
  5  6  2  0  0  0  0
  5  7  1  0  0  0  0
  2  3  1  0  0  0  0
  2  4  1  0  0  0  0
  2  5  1  0  0  0  0
  1  2  1  0  0  0  0
 15 16  2  0  0  0  0
 15 17  1  0  0  0  0
 14 36  1  0  0  0  0
 11 12  1  0  0  0  0
 11 13  1  0  0  0  0
 11 14  1  0  0  0  0
  9 10  1  0  0  0  0
  9 11  1  0  0  0  0
  9 15  1  0  0  0  0
  7  8  1  0  0  0  0
  7  9  1  0  0  0  0
 19 20  1  0  0  0  0
 19 21  1  0  0  0  0
 19 22  1  0  0  0  0
 17 18  1  0  0  0  0
 17 19  1  0  0  0  0
 27 28  2  0  0  0  0
 27 29  1  0  0  0  0
 24 25  1  0  0  0  0
 24 26  1  0  0  0  0
 24 27  1  0  0  0  0
 23 24  1  0  0  0  0
 37 38  2  0  0  0  0
 37 39  1  0  0  0  0
 33 34  1  0  0  0  0
 33 35  1  0  0  0  0
 33 36  1  0  0  0  0
 31 32  1  0  0  0  0
 31 33  1  0  0  0  0
 31 37  1  0  0  0  0
 29 30  1  0  0  0  0
 29 31  1  0  0  0  0
 41 42  1  0  0  0  0
 41 43  1  0  0  0  0
 41 44  1  0  0  0  0
 39 40  1  0  0  0  0
 39 41  1  0  0  0  0
M  END
$$$$
default_name
  -OEChem-01062215323D

 44 43  0     1  0  0  0  0  0999 V2000
    2.4488   -3.0448    2.0990 H   0  0  0  0  0  0  0  0  0  0  0  0
    2.2788   -2.0018    2.3640 C   0  0  0  0  0  0  0  0  0  0  0  0
    2.9228   -1.7258    3.1960 H   0  0  0  0  0  0  0  0  0  0  0  0
    1.2358   -1.8618    2.6430 H   0  0  0  0  0  0  0  0  0  0  0  0
    2.6018   -1.1318    1.1730 C   0  0  0  0  0  0  0  0  0  0  0  0
    3.0048   -1.6348    0.1320 O   0  0  0  0  0  0  0  0  0  0  0  0
    2.4088    0.1752    1.3190 N   0  0  0  0  0  0  0  0  0  0  0  0
    2.0708    0.5242    2.2050 H   0  0  0  0  0  0  0  0  0  0  0  0
    2.6638    1.1782    0.2840 C   0  0  1  0  0  0  0  0  0  0  0  0
    2.9080    2.1205    0.7773 H   0  0  0  0  0  0  0  0  0  0  0  0
    3.8772    0.7533   -0.5615 C   0  0  0  0  0  0  0  0  0  0  0  0
    3.9564    1.4198   -1.4212 H   0  0  0  0  0  0  0  0  0  0  0  0
    3.6738   -0.2400   -0.9607 H   0  0  0  0  0  0  0  0  0  0  0  0
    5.4975    0.6716    0.2575 S   0  0  0  0  0  0  0  0  0  0  0  0
    1.4117    1.4119   -0.5821 C   0  0  0  0  0  0  0  0  0  0  0  0
    0.2861    1.2742   -0.1035 O   0  0  0  0  0  0  0  0  0  0  0  0
    1.6089    1.7727   -1.8571 N   0  0  0  0  0  0  0  0  0  0  0  0
    2.5572    1.8700   -2.1828 H   0  0  0  0  0  0  0  0  0  0  0  0
    0.5259    2.0283   -2.8045 C   0  0  0  0  0  0  0  0  0  0  0  0
   -0.0575    1.1166   -2.9498 H   0  0  0  0  0  0  0  0  0  0  0  0
   -0.1350    2.8023   -2.4102 H   0  0  0  0  0  0  0  0  0  0  0  0
    0.9302    2.3542   -3.7637 H   0  0  0  0  0  0  0  0  0  0  0  0
    7.8074    7.3403   -3.7445 H   0  0  0  0  0  0  0  0  0  0  0  0
    7.6840    6.2677   -3.8867 C   0  0  0  0  0  0  0  0  0  0  0  0
    8.4920    5.8840   -4.5075 H   0  0  0  0  0  0  0  0  0  0  0  0
    6.7259    6.0702   -4.3637 H   0  0  0  0  0  0  0  0  0  0  0  0
    7.7217    5.5868   -2.5386 C   0  0  0  0  0  0  0  0  0  0  0  0
    7.8606    6.2458   -1.5170 O   0  0  0  0  0  0  0  0  0  0  0  0
    7.5889    4.2632   -2.5382 N   0  0  0  0  0  0  0  0  0  0  0  0
    7.4883    3.7833   -3.4209 H   0  0  0  0  0  0  0  0  0  0  0  0
    7.5937    3.4291   -1.3364 C   0  0  1  0  0  0  0  0  0  0  0  0
    8.3116    3.8374   -0.6228 H   0  0  0  0  0  0  0  0  0  0  0  0
    6.1956    3.4954   -0.7058 C   0  0  0  0  0  0  0  0  0  0  0  0
    5.9806    4.5437   -0.4934 H   0  0  0  0  0  0  0  0  0  0  0  0
    5.4620    3.1590   -1.4387 H   0  0  0  0  0  0  0  0  0  0  0  0
    5.9308    2.5807    0.8369 S   0  0  0  0  0  0  0  0  0  0  0  0
    8.0233    1.9918   -1.6800 C   0  0  0  0  0  0  0  0  0  0  0  0
    7.7689    1.5232   -2.7904 O   0  0  0  0  0  0  0  0  0  0  0  0
    8.6772    1.3015   -0.7370 N   0  0  0  0  0  0  0  0  0  0  0  0
    8.8169    1.7441    0.1574 H   0  0  0  0  0  0  0  0  0  0  0  0
    9.1451   -0.0744   -0.9003 C   0  0  0  0  0  0  0  0  0  0  0  0
    8.2972   -0.7596   -0.8510 H   0  0  0  0  0  0  0  0  0  0  0  0
    9.6312   -0.1909   -1.8719 H   0  0  0  0  0  0  0  0  0  0  0  0
    9.8566   -0.3263   -0.1137 H   0  0  0  0  0  0  0  0  0  0  0  0
  5  6  2  0  0  0  0
  5  7  1  0  0  0  0
  2  3  1  0  0  0  0
  2  4  1  0  0  0  0
  2  5  1  0  0  0  0
  1  2  1  0  0  0  0
 15 16  2  0  0  0  0
 15 17  1  0  0  0  0
 14 36  1  0  0  0  0
 11 12  1  0  0  0  0
 11 13  1  0  0  0  0
 11 14  1  0  0  0  0
  9 10  1  0  0  0  0
  9 11  1  0  0  0  0
  9 15  1  0  0  0  0
  7  8  1  0  0  0  0
  7  9  1  0  0  0  0
 19 20  1  0  0  0  0
 19 21  1  0  0  0  0
 19 22  1  0  0  0  0
 17 18  1  0  0  0  0
 17 19  1  0  0  0  0
 27 28  2  0  0  0  0
 27 29  1  0  0  0  0
 24 25  1  0  0  0  0
 24 26  1  0  0  0  0
 24 27  1  0  0  0  0
 23 24  1  0  0  0  0
 37 38  2  0  0  0  0
 37 39  1  0  0  0  0
 33 34  1  0  0  0  0
 33 35  1  0  0  0  0
 33 36  1  0  0  0  0
 31 32  1  0  0  0  0
 31 33  1  0  0  0  0
 31 37  1  0  0  0  0
 29 30  1  0  0  0  0
 29 31  1  0  0  0  0
 41 42  1  0  0  0  0
 41 43  1  0  0  0  0
 41 44  1  0  0  0  0
 39 40  1  0  0  0  0
 39 41  1  0  0  0  0
M  END
$$$$
default_name
  -OEChem-01062215323D

 44 43  0     1  0  0  0  0  0999 V2000
    2.4488   -3.0448    2.0990 H   0  0  0  0  0  0  0  0  0  0  0  0
    2.2788   -2.0018    2.3640 C   0  0  0  0  0  0  0  0  0  0  0  0
    2.9228   -1.7258    3.1960 H   0  0  0  0  0  0  0  0  0  0  0  0
    1.2358   -1.8618    2.6430 H   0  0  0  0  0  0  0  0  0  0  0  0
    2.6018   -1.1318    1.1730 C   0  0  0  0  0  0  0  0  0  0  0  0
    3.0048   -1.6348    0.1320 O   0  0  0  0  0  0  0  0  0  0  0  0
    2.4088    0.1752    1.3190 N   0  0  0  0  0  0  0  0  0  0  0  0
    2.0708    0.5242    2.2050 H   0  0  0  0  0  0  0  0  0  0  0  0
    2.6638    1.1782    0.2840 C   0  0  1  0  0  0  0  0  0  0  0  0
    2.9080    2.1205    0.7773 H   0  0  0  0  0  0  0  0  0  0  0  0
    3.8772    0.7533   -0.5615 C   0  0  0  0  0  0  0  0  0  0  0  0
    3.9564    1.4198   -1.4212 H   0  0  0  0  0  0  0  0  0  0  0  0
    3.6738   -0.2400   -0.9607 H   0  0  0  0  0  0  0  0  0  0  0  0
    5.4975    0.6716    0.2575 S   0  0  0  0  0  0  0  0  0  0  0  0
    1.4117    1.4119   -0.5821 C   0  0  0  0  0  0  0  0  0  0  0  0
    0.3058    1.5466   -0.0586 O   0  0  0  0  0  0  0  0  0  0  0  0
    1.5877    1.4666   -1.9090 N   0  0  0  0  0  0  0  0  0  0  0  0
    2.5208    1.3511   -2.2704 H   0  0  0  0  0  0  0  0  0  0  0  0
    0.5014    1.6792   -2.8632 C   0  0  0  0  0  0  0  0  0  0  0  0
   -0.2121    0.8551   -2.7968 H   0  0  0  0  0  0  0  0  0  0  0  0
   -0.0209    2.6083   -2.6275 H   0  0  0  0  0  0  0  0  0  0  0  0
    0.8944    1.7347   -3.8792 H   0  0  0  0  0  0  0  0  0  0  0  0
    7.8074    7.3403   -3.7445 H   0  0  0  0  0  0  0  0  0  0  0  0
    7.6840    6.2677   -3.8867 C   0  0  0  0  0  0  0  0  0  0  0  0
    8.4920    5.8840   -4.5075 H   0  0  0  0  0  0  0  0  0  0  0  0
    6.7259    6.0702   -4.3637 H   0  0  0  0  0  0  0  0  0  0  0  0
    7.7217    5.5868   -2.5386 C   0  0  0  0  0  0  0  0  0  0  0  0
    7.8606    6.2458   -1.5170 O   0  0  0  0  0  0  0  0  0  0  0  0
    7.5889    4.2632   -2.5382 N   0  0  0  0  0  0  0  0  0  0  0  0
    7.4883    3.7833   -3.4209 H   0  0  0  0  0  0  0  0  0  0  0  0
    7.5937    3.4291   -1.3364 C   0  0  1  0  0  0  0  0  0  0  0  0
    8.3116    3.8374   -0.6228 H   0  0  0  0  0  0  0  0  0  0  0  0
    6.1956    3.4954   -0.7058 C   0  0  0  0  0  0  0  0  0  0  0  0
    5.9806    4.5437   -0.4934 H   0  0  0  0  0  0  0  0  0  0  0  0
    5.4620    3.1590   -1.4387 H   0  0  0  0  0  0  0  0  0  0  0  0
    5.9308    2.5807    0.8369 S   0  0  0  0  0  0  0  0  0  0  0  0
    8.0233    1.9918   -1.6800 C   0  0  0  0  0  0  0  0  0  0  0  0
    7.7689    1.5232   -2.7904 O   0  0  0  0  0  0  0  0  0  0  0  0
    8.6772    1.3015   -0.7370 N   0  0  0  0  0  0  0  0  0  0  0  0
    8.8169    1.7441    0.1574 H   0  0  0  0  0  0  0  0  0  0  0  0
    9.1451   -0.0744   -0.9003 C   0  0  0  0  0  0  0  0  0  0  0  0
    8.2972   -0.7596   -0.8510 H   0  0  0  0  0  0  0  0  0  0  0  0
    9.6312   -0.1909   -1.8719 H   0  0  0  0  0  0  0  0  0  0  0  0
    9.8566   -0.3263   -0.1137 H   0  0  0  0  0  0  0  0  0  0  0  0
  5  6  2  0  0  0  0
  5  7  1  0  0  0  0
  2  3  1  0  0  0  0
  2  4  1  0  0  0  0
  2  5  1  0  0  0  0
  1  2  1  0  0  0  0
 15 16  2  0  0  0  0
 15 17  1  0  0  0  0
 14 36  1  0  0  0  0
 11 12  1  0  0  0  0
 11 13  1  0  0  0  0
 11 14  1  0  0  0  0
  9 10  1  0  0  0  0
  9 11  1  0  0  0  0
  9 15  1  0  0  0  0
  7  8  1  0  0  0  0
  7  9  1  0  0  0  0
 19 20  1  0  0  0  0
 19 21  1  0  0  0  0
 19 22  1  0  0  0  0
 17 18  1  0  0  0  0
 17 19  1  0  0  0  0
 27 28  2  0  0  0  0
 27 29  1  0  0  0  0
 24 25  1  0  0  0  0
 24 26  1  0  0  0  0
 24 27  1  0  0  0  0
 23 24  1  0  0  0  0
 37 38  2  0  0  0  0
 37 39  1  0  0  0  0
 33 34  1  0  0  0  0
 33 35  1  0  0  0  0
 33 36  1  0  0  0  0
 31 32  1  0  0  0  0
 31 33  1  0  0  0  0
 31 37  1  0  0  0  0
 29 30  1  0  0  0  0
 29 31  1  0  0  0  0
 41 42  1  0  0  0  0
 41 43  1  0  0  0  0
 41 44  1  0  0  0  0
 39 40  1  0  0  0  0
 39 41  1  0  0  0  0
M  END
$$$$
default_name
  -OEChem-01062215323D

 44 43  0     1  0  0  0  0  0999 V2000
    2.4488   -3.0448    2.0990 H   0  0  0  0  0  0  0  0  0  0  0  0
    2.2788   -2.0018    2.3640 C   0  0  0  0  0  0  0  0  0  0  0  0
    2.9228   -1.7258    3.1960 H   0  0  0  0  0  0  0  0  0  0  0  0
    1.2358   -1.8618    2.6430 H   0  0  0  0  0  0  0  0  0  0  0  0
    2.6018   -1.1318    1.1730 C   0  0  0  0  0  0  0  0  0  0  0  0
    3.0048   -1.6348    0.1320 O   0  0  0  0  0  0  0  0  0  0  0  0
    2.4088    0.1752    1.3190 N   0  0  0  0  0  0  0  0  0  0  0  0
    2.0708    0.5242    2.2050 H   0  0  0  0  0  0  0  0  0  0  0  0
    2.6638    1.1782    0.2840 C   0  0  1  0  0  0  0  0  0  0  0  0
    2.9080    2.1205    0.7773 H   0  0  0  0  0  0  0  0  0  0  0  0
    3.8772    0.7533   -0.5615 C   0  0  0  0  0  0  0  0  0  0  0  0
    3.9564    1.4198   -1.4212 H   0  0  0  0  0  0  0  0  0  0  0  0
    3.6738   -0.2400   -0.9607 H   0  0  0  0  0  0  0  0  0  0  0  0
    5.4975    0.6716    0.2575 S   0  0  0  0  0  0  0  0  0  0  0  0
    1.4117    1.4119   -0.5821 C   0  0  0  0  0  0  0  0  0  0  0  0
    0.3664    1.8163   -0.0733 O   0  0  0  0  0  0  0  0  0  0  0  0
    1.5206    1.1631   -1.8940 N   0  0  0  0  0  0  0  0  0  0  0  0
    2.4068    0.8367   -2.2444 H   0  0  0  0  0  0  0  0  0  0  0  0
    0.4245    1.3333   -2.8455 C   0  0  0  0  0  0  0  0  0  0  0  0
   -0.3935    0.6573   -2.5879 H   0  0  0  0  0  0  0  0  0  0  0  0
    0.0526    2.3586   -2.8011 H   0  0  0  0  0  0  0  0  0  0  0  0
    0.7652    1.1173   -3.8589 H   0  0  0  0  0  0  0  0  0  0  0  0
    7.8074    7.3403   -3.7445 H   0  0  0  0  0  0  0  0  0  0  0  0
    7.6840    6.2677   -3.8867 C   0  0  0  0  0  0  0  0  0  0  0  0
    8.4920    5.8840   -4.5075 H   0  0  0  0  0  0  0  0  0  0  0  0
    6.7259    6.0702   -4.3637 H   0  0  0  0  0  0  0  0  0  0  0  0
    7.7217    5.5868   -2.5386 C   0  0  0  0  0  0  0  0  0  0  0  0
    7.8606    6.2458   -1.5170 O   0  0  0  0  0  0  0  0  0  0  0  0
    7.5889    4.2632   -2.5382 N   0  0  0  0  0  0  0  0  0  0  0  0
    7.4883    3.7833   -3.4209 H   0  0  0  0  0  0  0  0  0  0  0  0
    7.5937    3.4291   -1.3364 C   0  0  1  0  0  0  0  0  0  0  0  0
    8.3116    3.8374   -0.6228 H   0  0  0  0  0  0  0  0  0  0  0  0
    6.1956    3.4954   -0.7058 C   0  0  0  0  0  0  0  0  0  0  0  0
    5.9806    4.5437   -0.4934 H   0  0  0  0  0  0  0  0  0  0  0  0
    5.4620    3.1590   -1.4387 H   0  0  0  0  0  0  0  0  0  0  0  0
    5.9308    2.5807    0.8369 S   0  0  0  0  0  0  0  0  0  0  0  0
    8.0233    1.9918   -1.6800 C   0  0  0  0  0  0  0  0  0  0  0  0
    7.7689    1.5232   -2.7904 O   0  0  0  0  0  0  0  0  0  0  0  0
    8.6772    1.3015   -0.7370 N   0  0  0  0  0  0  0  0  0  0  0  0
    8.8169    1.7441    0.1574 H   0  0  0  0  0  0  0  0  0  0  0  0
    9.1451   -0.0744   -0.9003 C   0  0  0  0  0  0  0  0  0  0  0  0
    8.2972   -0.7596   -0.8510 H   0  0  0  0  0  0  0  0  0  0  0  0
    9.6312   -0.1909   -1.8719 H   0  0  0  0  0  0  0  0  0  0  0  0
    9.8566   -0.3263   -0.1137 H   0  0  0  0  0  0  0  0  0  0  0  0
  5  6  2  0  0  0  0
  5  7  1  0  0  0  0
  2  3  1  0  0  0  0
  2  4  1  0  0  0  0
  2  5  1  0  0  0  0
  1  2  1  0  0  0  0
 15 16  2  0  0  0  0
 15 17  1  0  0  0  0
 14 36  1  0  0  0  0
 11 12  1  0  0  0  0
 11 13  1  0  0  0  0
 11 14  1  0  0  0  0
  9 10  1  0  0  0  0
  9 11  1  0  0  0  0
  9 15  1  0  0  0  0
  7  8  1  0  0  0  0
  7  9  1  0  0  0  0
 19 20  1  0  0  0  0
 19 21  1  0  0  0  0
 19 22  1  0  0  0  0
 17 18  1  0  0  0  0
 17 19  1  0  0  0  0
 27 28  2  0  0  0  0
 27 29  1  0  0  0  0
 24 25  1  0  0  0  0
 24 26  1  0  0  0  0
 24 27  1  0  0  0  0
 23 24  1  0  0  0  0
 37 38  2  0  0  0  0
 37 39  1  0  0  0  0
 33 34  1  0  0  0  0
 33 35  1  0  0  0  0
 33 36  1  0  0  0  0
 31 32  1  0  0  0  0
 31 33  1  0  0  0  0
 31 37  1  0  0  0  0
 29 30  1  0  0  0  0
 29 31  1  0  0  0  0
 41 42  1  0  0  0  0
 41 43  1  0  0  0  0
 41 44  1  0  0  0  0
 39 40  1  0  0  0  0
 39 41  1  0  0  0  0
M  END
$$$$
default_name
  -OEChem-01062215323D

 44 43  0     1  0  0  0  0  0999 V2000
    2.4488   -3.0448    2.0990 H   0  0  0  0  0  0  0  0  0  0  0  0
    2.2788   -2.0018    2.3640 C   0  0  0  0  0  0  0  0  0  0  0  0
    2.9228   -1.7258    3.1960 H   0  0  0  0  0  0  0  0  0  0  0  0
    1.2358   -1.8618    2.6430 H   0  0  0  0  0  0  0  0  0  0  0  0
    2.6018   -1.1318    1.1730 C   0  0  0  0  0  0  0  0  0  0  0  0
    3.0048   -1.6348    0.1320 O   0  0  0  0  0  0  0  0  0  0  0  0
    2.4088    0.1752    1.3190 N   0  0  0  0  0  0  0  0  0  0  0  0
    2.0708    0.5242    2.2050 H   0  0  0  0  0  0  0  0  0  0  0  0
    2.6638    1.1782    0.2840 C   0  0  1  0  0  0  0  0  0  0  0  0
    2.9080    2.1205    0.7773 H   0  0  0  0  0  0  0  0  0  0  0  0
    3.8772    0.7533   -0.5615 C   0  0  0  0  0  0  0  0  0  0  0  0
    3.9564    1.4198   -1.4212 H   0  0  0  0  0  0  0  0  0  0  0  0
    3.6738   -0.2400   -0.9607 H   0  0  0  0  0  0  0  0  0  0  0  0
    5.4975    0.6716    0.2575 S   0  0  0  0  0  0  0  0  0  0  0  0
    1.4117    1.4119   -0.5821 C   0  0  0  0  0  0  0  0  0  0  0  0
    0.4635    2.0649   -0.1467 O   0  0  0  0  0  0  0  0  0  0  0  0
    1.4122    0.8829   -1.8129 N   0  0  0  0  0  0  0  0  0  0  0  0
    2.2229    0.3620   -2.1065 H   0  0  0  0  0  0  0  0  0  0  0  0
    0.3007    1.0141   -2.7526 C   0  0  0  0  0  0  0  0  0  0  0  0
   -0.5893    0.5365   -2.3374 H   0  0  0  0  0  0  0  0  0  0  0  0
    0.0803    2.0701   -2.9191 H   0  0  0  0  0  0  0  0  0  0  0  0
    0.5513    0.5440   -3.7044 H   0  0  0  0  0  0  0  0  0  0  0  0
    7.8074    7.3403   -3.7445 H   0  0  0  0  0  0  0  0  0  0  0  0
    7.6840    6.2677   -3.8867 C   0  0  0  0  0  0  0  0  0  0  0  0
    8.4920    5.8840   -4.5075 H   0  0  0  0  0  0  0  0  0  0  0  0
    6.7259    6.0702   -4.3637 H   0  0  0  0  0  0  0  0  0  0  0  0
    7.7217    5.5868   -2.5386 C   0  0  0  0  0  0  0  0  0  0  0  0
    7.8606    6.2458   -1.5170 O   0  0  0  0  0  0  0  0  0  0  0  0
    7.5889    4.2632   -2.5382 N   0  0  0  0  0  0  0  0  0  0  0  0
    7.4883    3.7833   -3.4209 H   0  0  0  0  0  0  0  0  0  0  0  0
    7.5937    3.4291   -1.3364 C   0  0  1  0  0  0  0  0  0  0  0  0
    8.3116    3.8374   -0.6228 H   0  0  0  0  0  0  0  0  0  0  0  0
    6.1956    3.4954   -0.7058 C   0  0  0  0  0  0  0  0  0  0  0  0
    5.9806    4.5437   -0.4934 H   0  0  0  0  0  0  0  0  0  0  0  0
    5.4620    3.1590   -1.4387 H   0  0  0  0  0  0  0  0  0  0  0  0
    5.9308    2.5807    0.8369 S   0  0  0  0  0  0  0  0  0  0  0  0
    8.0233    1.9918   -1.6800 C   0  0  0  0  0  0  0  0  0  0  0  0
    7.7689    1.5232   -2.7904 O   0  0  0  0  0  0  0  0  0  0  0  0
    8.6772    1.3015   -0.7370 N   0  0  0  0  0  0  0  0  0  0  0  0
    8.8169    1.7441    0.1574 H   0  0  0  0  0  0  0  0  0  0  0  0
    9.1451   -0.0744   -0.9003 C   0  0  0  0  0  0  0  0  0  0  0  0
    8.2972   -0.7596   -0.8510 H   0  0  0  0  0  0  0  0  0  0  0  0
    9.6312   -0.1909   -1.8719 H   0  0  0  0  0  0  0  0  0  0  0  0
    9.8566   -0.3263   -0.1137 H   0  0  0  0  0  0  0  0  0  0  0  0
  5  6  2  0  0  0  0
  5  7  1  0  0  0  0
  2  3  1  0  0  0  0
  2  4  1  0  0  0  0
  2  5  1  0  0  0  0
  1  2  1  0  0  0  0
 15 16  2  0  0  0  0
 15 17  1  0  0  0  0
 14 36  1  0  0  0  0
 11 12  1  0  0  0  0
 11 13  1  0  0  0  0
 11 14  1  0  0  0  0
  9 10  1  0  0  0  0
  9 11  1  0  0  0  0
  9 15  1  0  0  0  0
  7  8  1  0  0  0  0
  7  9  1  0  0  0  0
 19 20  1  0  0  0  0
 19 21  1  0  0  0  0
 19 22  1  0  0  0  0
 17 18  1  0  0  0  0
 17 19  1  0  0  0  0
 27 28  2  0  0  0  0
 27 29  1  0  0  0  0
 24 25  1  0  0  0  0
 24 26  1  0  0  0  0
 24 27  1  0  0  0  0
 23 24  1  0  0  0  0
 37 38  2  0  0  0  0
 37 39  1  0  0  0  0
 33 34  1  0  0  0  0
 33 35  1  0  0  0  0
 33 36  1  0  0  0  0
 31 32  1  0  0  0  0
 31 33  1  0  0  0  0
 31 37  1  0  0  0  0
 29 30  1  0  0  0  0
 29 31  1  0  0  0  0
 41 42  1  0  0  0  0
 41 43  1  0  0  0  0
 41 44  1  0  0  0  0
 39 40  1  0  0  0  0
 39 41  1  0  0  0  0
M  END
$$$$
default_name
  -OEChem-01062215323D

 44 43  0     1  0  0  0  0  0999 V2000
    2.4488   -3.0448    2.0990 H   0  0  0  0  0  0  0  0  0  0  0  0
    2.2788   -2.0018    2.3640 C   0  0  0  0  0  0  0  0  0  0  0  0
    2.9228   -1.7258    3.1960 H   0  0  0  0  0  0  0  0  0  0  0  0
    1.2358   -1.8618    2.6430 H   0  0  0  0  0  0  0  0  0  0  0  0
    2.6018   -1.1318    1.1730 C   0  0  0  0  0  0  0  0  0  0  0  0
    3.0048   -1.6348    0.1320 O   0  0  0  0  0  0  0  0  0  0  0  0
    2.4088    0.1752    1.3190 N   0  0  0  0  0  0  0  0  0  0  0  0
    2.0708    0.5242    2.2050 H   0  0  0  0  0  0  0  0  0  0  0  0
    2.6638    1.1782    0.2840 C   0  0  1  0  0  0  0  0  0  0  0  0
    2.9080    2.1205    0.7773 H   0  0  0  0  0  0  0  0  0  0  0  0
    3.8772    0.7533   -0.5615 C   0  0  0  0  0  0  0  0  0  0  0  0
    3.9564    1.4198   -1.4212 H   0  0  0  0  0  0  0  0  0  0  0  0
    3.6738   -0.2400   -0.9607 H   0  0  0  0  0  0  0  0  0  0  0  0
    5.4975    0.6716    0.2575 S   0  0  0  0  0  0  0  0  0  0  0  0
    1.4117    1.4119   -0.5821 C   0  0  0  0  0  0  0  0  0  0  0  0
    0.5906    2.2755   -0.2736 O   0  0  0  0  0  0  0  0  0  0  0  0
    1.2700    0.6450   -1.6714 N   0  0  0  0  0  0  0  0  0  0  0  0
    1.9815   -0.0408   -1.8663 H   0  0  0  0  0  0  0  0  0  0  0  0
    0.1383    0.7434   -2.5909 C   0  0  0  0  0  0  0  0  0  0  0  0
   -0.7862    0.5011   -2.0624 H   0  0  0  0  0  0  0  0  0  0  0  0
    0.0606    1.7627   -2.9735 H   0  0  0  0  0  0  0  0  0  0  0  0
    0.2673    0.0539   -3.4261 H   0  0  0  0  0  0  0  0  0  0  0  0
    7.8074    7.3403   -3.7445 H   0  0  0  0  0  0  0  0  0  0  0  0
    7.6840    6.2677   -3.8867 C   0  0  0  0  0  0  0  0  0  0  0  0
    8.4920    5.8840   -4.5075 H   0  0  0  0  0  0  0  0  0  0  0  0
    6.7259    6.0702   -4.3637 H   0  0  0  0  0  0  0  0  0  0  0  0
    7.7217    5.5868   -2.5386 C   0  0  0  0  0  0  0  0  0  0  0  0
    7.8606    6.2458   -1.5170 O   0  0  0  0  0  0  0  0  0  0  0  0
    7.5889    4.2632   -2.5382 N   0  0  0  0  0  0  0  0  0  0  0  0
    7.4883    3.7833   -3.4209 H   0  0  0  0  0  0  0  0  0  0  0  0
    7.5937    3.4291   -1.3364 C   0  0  1  0  0  0  0  0  0  0  0  0
    8.3116    3.8374   -0.6228 H   0  0  0  0  0  0  0  0  0  0  0  0
    6.1956    3.4954   -0.7058 C   0  0  0  0  0  0  0  0  0  0  0  0
    5.9806    4.5437   -0.4934 H   0  0  0  0  0  0  0  0  0  0  0  0
    5.4620    3.1590   -1.4387 H   0  0  0  0  0  0  0  0  0  0  0  0
    5.9308    2.5807    0.8369 S   0  0  0  0  0  0  0  0  0  0  0  0
    8.0233    1.9918   -1.6800 C   0  0  0  0  0  0  0  0  0  0  0  0
    7.7689    1.5232   -2.7904 O   0  0  0  0  0  0  0  0  0  0  0  0
    8.6772    1.3015   -0.7370 N   0  0  0  0  0  0  0  0  0  0  0  0
    8.8169    1.7441    0.1574 H   0  0  0  0  0  0  0  0  0  0  0  0
    9.1451   -0.0744   -0.9003 C   0  0  0  0  0  0  0  0  0  0  0  0
    8.2972   -0.7596   -0.8510 H   0  0  0  0  0  0  0  0  0  0  0  0
    9.6312   -0.1909   -1.8719 H   0  0  0  0  0  0  0  0  0  0  0  0
    9.8566   -0.3263   -0.1137 H   0  0  0  0  0  0  0  0  0  0  0  0
  5  6  2  0  0  0  0
  5  7  1  0  0  0  0
  2  3  1  0  0  0  0
  2  4  1  0  0  0  0
  2  5  1  0  0  0  0
  1  2  1  0  0  0  0
 15 16  2  0  0  0  0
 15 17  1  0  0  0  0
 14 36  1  0  0  0  0
 11 12  1  0  0  0  0
 11 13  1  0  0  0  0
 11 14  1  0  0  0  0
  9 10  1  0  0  0  0
  9 11  1  0  0  0  0
  9 15  1  0  0  0  0
  7  8  1  0  0  0  0
  7  9  1  0  0  0  0
 19 20  1  0  0  0  0
 19 21  1  0  0  0  0
 19 22  1  0  0  0  0
 17 18  1  0  0  0  0
 17 19  1  0  0  0  0
 27 28  2  0  0  0  0
 27 29  1  0  0  0  0
 24 25  1  0  0  0  0
 24 26  1  0  0  0  0
 24 27  1  0  0  0  0
 23 24  1  0  0  0  0
 37 38  2  0  0  0  0
 37 39  1  0  0  0  0
 33 34  1  0  0  0  0
 33 35  1  0  0  0  0
 33 36  1  0  0  0  0
 31 32  1  0  0  0  0
 31 33  1  0  0  0  0
 31 37  1  0  0  0  0
 29 30  1  0  0  0  0
 29 31  1  0  0  0  0
 41 42  1  0  0  0  0
 41 43  1  0  0  0  0
 41 44  1  0  0  0  0
 39 40  1  0  0  0  0
 39 41  1  0  0  0  0
M  END
$$$$
default_name
  -OEChem-01062215323D

 44 43  0     1  0  0  0  0  0999 V2000
    2.4488   -3.0448    2.0990 H   0  0  0  0  0  0  0  0  0  0  0  0
    2.2788   -2.0018    2.3640 C   0  0  0  0  0  0  0  0  0  0  0  0
    2.9228   -1.7258    3.1960 H   0  0  0  0  0  0  0  0  0  0  0  0
    1.2358   -1.8618    2.6430 H   0  0  0  0  0  0  0  0  0  0  0  0
    2.6018   -1.1318    1.1730 C   0  0  0  0  0  0  0  0  0  0  0  0
    3.0048   -1.6348    0.1320 O   0  0  0  0  0  0  0  0  0  0  0  0
    2.4088    0.1752    1.3190 N   0  0  0  0  0  0  0  0  0  0  0  0
    2.0708    0.5242    2.2050 H   0  0  0  0  0  0  0  0  0  0  0  0
    2.6638    1.1782    0.2840 C   0  0  1  0  0  0  0  0  0  0  0  0
    2.9080    2.1205    0.7773 H   0  0  0  0  0  0  0  0  0  0  0  0
    3.8772    0.7533   -0.5615 C   0  0  0  0  0  0  0  0  0  0  0  0
    3.9564    1.4198   -1.4212 H   0  0  0  0  0  0  0  0  0  0  0  0
    3.6738   -0.2400   -0.9607 H   0  0  0  0  0  0  0  0  0  0  0  0
    5.4975    0.6716    0.2575 S   0  0  0  0  0  0  0  0  0  0  0  0
    1.4117    1.4119   -0.5821 C   0  0  0  0  0  0  0  0  0  0  0  0
    0.7391    2.4337   -0.4456 O   0  0  0  0  0  0  0  0  0  0  0  0
    1.1035    0.4658   -1.4791 N   0  0  0  0  0  0  0  0  0  0  0  0
    1.6992   -0.3442   -1.5400 H   0  0  0  0  0  0  0  0  0  0  0  0
   -0.0517    0.5395   -2.3713 C   0  0  0  0  0  0  0  0  0  0  0  0
   -0.9707    0.5533   -1.7815 H   0  0  0  0  0  0  0  0  0  0  0  0
   -0.0054    1.4571   -2.9606 H   0  0  0  0  0  0  0  0  0  0  0  0
   -0.0674   -0.3197   -3.0431 H   0  0  0  0  0  0  0  0  0  0  0  0
    7.8074    7.3403   -3.7445 H   0  0  0  0  0  0  0  0  0  0  0  0
    7.6840    6.2677   -3.8867 C   0  0  0  0  0  0  0  0  0  0  0  0
    8.4920    5.8840   -4.5075 H   0  0  0  0  0  0  0  0  0  0  0  0
    6.7259    6.0702   -4.3637 H   0  0  0  0  0  0  0  0  0  0  0  0
    7.7217    5.5868   -2.5386 C   0  0  0  0  0  0  0  0  0  0  0  0
    7.8606    6.2458   -1.5170 O   0  0  0  0  0  0  0  0  0  0  0  0
    7.5889    4.2632   -2.5382 N   0  0  0  0  0  0  0  0  0  0  0  0
    7.4883    3.7833   -3.4209 H   0  0  0  0  0  0  0  0  0  0  0  0
    7.5937    3.4291   -1.3364 C   0  0  1  0  0  0  0  0  0  0  0  0
    8.3116    3.8374   -0.6228 H   0  0  0  0  0  0  0  0  0  0  0  0
    6.1956    3.4954   -0.7058 C   0  0  0  0  0  0  0  0  0  0  0  0
    5.9806    4.5437   -0.4934 H   0  0  0  0  0  0  0  0  0  0  0  0
    5.4620    3.1590   -1.4387 H   0  0  0  0  0  0  0  0  0  0  0  0
    5.9308    2.5807    0.8369 S   0  0  0  0  0  0  0  0  0  0  0  0
    8.0233    1.9918   -1.6800 C   0  0  0  0  0  0  0  0  0  0  0  0
    7.7689    1.5232   -2.7904 O   0  0  0  0  0  0  0  0  0  0  0  0
    8.6772    1.3015   -0.7370 N   0  0  0  0  0  0  0  0  0  0  0  0
    8.8169    1.7441    0.1574 H   0  0  0  0  0  0  0  0  0  0  0  0
    9.1451   -0.0744   -0.9003 C   0  0  0  0  0  0  0  0  0  0  0  0
    8.2972   -0.7596   -0.8510 H   0  0  0  0  0  0  0  0  0  0  0  0
    9.6312   -0.1909   -1.8719 H   0  0  0  0  0  0  0  0  0  0  0  0
    9.8566   -0.3263   -0.1137 H   0  0  0  0  0  0  0  0  0  0  0  0
  5  6  2  0  0  0  0
  5  7  1  0  0  0  0
  2  3  1  0  0  0  0
  2  4  1  0  0  0  0
  2  5  1  0  0  0  0
  1  2  1  0  0  0  0
 15 16  2  0  0  0  0
 15 17  1  0  0  0  0
 14 36  1  0  0  0  0
 11 12  1  0  0  0  0
 11 13  1  0  0  0  0
 11 14  1  0  0  0  0
  9 10  1  0  0  0  0
  9 11  1  0  0  0  0
  9 15  1  0  0  0  0
  7  8  1  0  0  0  0
  7  9  1  0  0  0  0
 19 20  1  0  0  0  0
 19 21  1  0  0  0  0
 19 22  1  0  0  0  0
 17 18  1  0  0  0  0
 17 19  1  0  0  0  0
 27 28  2  0  0  0  0
 27 29  1  0  0  0  0
 24 25  1  0  0  0  0
 24 26  1  0  0  0  0
 24 27  1  0  0  0  0
 23 24  1  0  0  0  0
 37 38  2  0  0  0  0
 37 39  1  0  0  0  0
 33 34  1  0  0  0  0
 33 35  1  0  0  0  0
 33 36  1  0  0  0  0
 31 32  1  0  0  0  0
 31 33  1  0  0  0  0
 31 37  1  0  0  0  0
 29 30  1  0  0  0  0
 29 31  1  0  0  0  0
 41 42  1  0  0  0  0
 41 43  1  0  0  0  0
 41 44  1  0  0  0  0
 39 40  1  0  0  0  0
 39 41  1  0  0  0  0
M  END
$$$$
default_name
  -OEChem-01062215323D

 44 43  0     1  0  0  0  0  0999 V2000
    2.4488   -3.0448    2.0990 H   0  0  0  0  0  0  0  0  0  0  0  0
    2.2788   -2.0018    2.3640 C   0  0  0  0  0  0  0  0  0  0  0  0
    2.9228   -1.7258    3.1960 H   0  0  0  0  0  0  0  0  0  0  0  0
    1.2358   -1.8618    2.6430 H   0  0  0  0  0  0  0  0  0  0  0  0
    2.6018   -1.1318    1.1730 C   0  0  0  0  0  0  0  0  0  0  0  0
    3.0048   -1.6348    0.1320 O   0  0  0  0  0  0  0  0  0  0  0  0
    2.4088    0.1752    1.3190 N   0  0  0  0  0  0  0  0  0  0  0  0
    2.0708    0.5242    2.2050 H   0  0  0  0  0  0  0  0  0  0  0  0
    2.6638    1.1782    0.2840 C   0  0  1  0  0  0  0  0  0  0  0  0
    2.9080    2.1205    0.7773 H   0  0  0  0  0  0  0  0  0  0  0  0
    3.8772    0.7533   -0.5615 C   0  0  0  0  0  0  0  0  0  0  0  0
    3.9564    1.4198   -1.4212 H   0  0  0  0  0  0  0  0  0  0  0  0
    3.6738   -0.2400   -0.9607 H   0  0  0  0  0  0  0  0  0  0  0  0
    5.4975    0.6716    0.2575 S   0  0  0  0  0  0  0  0  0  0  0  0
    1.4117    1.4119   -0.5821 C   0  0  0  0  0  0  0  0  0  0  0  0
    0.8988    2.5287   -0.6508 O   0  0  0  0  0  0  0  0  0  0  0  0
    0.9241    0.3573   -1.2490 N   0  0  0  0  0  0  0  0  0  0  0  0
    1.3951   -0.5276   -1.1499 H   0  0  0  0  0  0  0  0  0  0  0  0
   -0.2562    0.4164   -2.1088 C   0  0  0  0  0  0  0  0  0  0  0  0
   -1.1303    0.6898   -1.5139 H   0  0  0  0  0  0  0  0  0  0  0  0
   -0.1131    1.1743   -2.8812 H   0  0  0  0  0  0  0  0  0  0  0  0
   -0.4300   -0.5512   -2.5813 H   0  0  0  0  0  0  0  0  0  0  0  0
    7.8074    7.3403   -3.7445 H   0  0  0  0  0  0  0  0  0  0  0  0
    7.6840    6.2677   -3.8867 C   0  0  0  0  0  0  0  0  0  0  0  0
    8.4920    5.8840   -4.5075 H   0  0  0  0  0  0  0  0  0  0  0  0
    6.7259    6.0702   -4.3637 H   0  0  0  0  0  0  0  0  0  0  0  0
    7.7217    5.5868   -2.5386 C   0  0  0  0  0  0  0  0  0  0  0  0
    7.8606    6.2458   -1.5170 O   0  0  0  0  0  0  0  0  0  0  0  0
    7.5889    4.2632   -2.5382 N   0  0  0  0  0  0  0  0  0  0  0  0
    7.4883    3.7833   -3.4209 H   0  0  0  0  0  0  0  0  0  0  0  0
    7.5937    3.4291   -1.3364 C   0  0  1  0  0  0  0  0  0  0  0  0
    8.3116    3.8374   -0.6228 H   0  0  0  0  0  0  0  0  0  0  0  0
    6.1956    3.4954   -0.7058 C   0  0  0  0  0  0  0  0  0  0  0  0
    5.9806    4.5437   -0.4934 H   0  0  0  0  0  0  0  0  0  0  0  0
    5.4620    3.1590   -1.4387 H   0  0  0  0  0  0  0  0  0  0  0  0
    5.9308    2.5807    0.8369 S   0  0  0  0  0  0  0  0  0  0  0  0
    8.0233    1.9918   -1.6800 C   0  0  0  0  0  0  0  0  0  0  0  0
    7.7689    1.5232   -2.7904 O   0  0  0  0  0  0  0  0  0  0  0  0
    8.6772    1.3015   -0.7370 N   0  0  0  0  0  0  0  0  0  0  0  0
    8.8169    1.7441    0.1574 H   0  0  0  0  0  0  0  0  0  0  0  0
    9.1451   -0.0744   -0.9003 C   0  0  0  0  0  0  0  0  0  0  0  0
    8.2972   -0.7596   -0.8510 H   0  0  0  0  0  0  0  0  0  0  0  0
    9.6312   -0.1909   -1.8719 H   0  0  0  0  0  0  0  0  0  0  0  0
    9.8566   -0.3263   -0.1137 H   0  0  0  0  0  0  0  0  0  0  0  0
  5  6  2  0  0  0  0
  5  7  1  0  0  0  0
  2  3  1  0  0  0  0
  2  4  1  0  0  0  0
  2  5  1  0  0  0  0
  1  2  1  0  0  0  0
 15 16  2  0  0  0  0
 15 17  1  0  0  0  0
 14 36  1  0  0  0  0
 11 12  1  0  0  0  0
 11 13  1  0  0  0  0
 11 14  1  0  0  0  0
  9 10  1  0  0  0  0
  9 11  1  0  0  0  0
  9 15  1  0  0  0  0
  7  8  1  0  0  0  0
  7  9  1  0  0  0  0
 19 20  1  0  0  0  0
 19 21  1  0  0  0  0
 19 22  1  0  0  0  0
 17 18  1  0  0  0  0
 17 19  1  0  0  0  0
 27 28  2  0  0  0  0
 27 29  1  0  0  0  0
 24 25  1  0  0  0  0
 24 26  1  0  0  0  0
 24 27  1  0  0  0  0
 23 24  1  0  0  0  0
 37 38  2  0  0  0  0
 37 39  1  0  0  0  0
 33 34  1  0  0  0  0
 33 35  1  0  0  0  0
 33 36  1  0  0  0  0
 31 32  1  0  0  0  0
 31 33  1  0  0  0  0
 31 37  1  0  0  0  0
 29 30  1  0  0  0  0
 29 31  1  0  0  0  0
 41 42  1  0  0  0  0
 41 43  1  0  0  0  0
 41 44  1  0  0  0  0
 39 40  1  0  0  0  0
 39 41  1  0  0  0  0
M  END
$$$$
default_name
  -OEChem-01062215323D

 44 43  0     1  0  0  0  0  0999 V2000
    2.4488   -3.0448    2.0990 H   0  0  0  0  0  0  0  0  0  0  0  0
    2.2788   -2.0018    2.3640 C   0  0  0  0  0  0  0  0  0  0  0  0
    2.9228   -1.7258    3.1960 H   0  0  0  0  0  0  0  0  0  0  0  0
    1.2358   -1.8618    2.6430 H   0  0  0  0  0  0  0  0  0  0  0  0
    2.6018   -1.1318    1.1730 C   0  0  0  0  0  0  0  0  0  0  0  0
    3.0048   -1.6348    0.1320 O   0  0  0  0  0  0  0  0  0  0  0  0
    2.4088    0.1752    1.3190 N   0  0  0  0  0  0  0  0  0  0  0  0
    2.0708    0.5242    2.2050 H   0  0  0  0  0  0  0  0  0  0  0  0
    2.6638    1.1782    0.2840 C   0  0  1  0  0  0  0  0  0  0  0  0
    2.9080    2.1205    0.7773 H   0  0  0  0  0  0  0  0  0  0  0  0
    3.8772    0.7533   -0.5615 C   0  0  0  0  0  0  0  0  0  0  0  0
    3.9564    1.4198   -1.4212 H   0  0  0  0  0  0  0  0  0  0  0  0
    3.6738   -0.2400   -0.9607 H   0  0  0  0  0  0  0  0  0  0  0  0
    5.4975    0.6716    0.2575 S   0  0  0  0  0  0  0  0  0  0  0  0
    1.4117    1.4119   -0.5821 C   0  0  0  0  0  0  0  0  0  0  0  0
    1.0588    2.5541   -0.8752 O   0  0  0  0  0  0  0  0  0  0  0  0
    0.7441    0.3270   -0.9970 N   0  0  0  0  0  0  0  0  0  0  0  0
    1.0901   -0.5783   -0.7225 H   0  0  0  0  0  0  0  0  0  0  0  0
   -0.4614    0.3825   -1.8213 C   0  0  0  0  0  0  0  0  0  0  0  0
   -1.2541    0.9011   -1.2779 H   0  0  0  0  0  0  0  0  0  0  0  0
   -0.2552    0.9335   -2.7408 H   0  0  0  0  0  0  0  0  0  0  0  0
   -0.7958   -0.6249   -2.0723 H   0  0  0  0  0  0  0  0  0  0  0  0
    7.8074    7.3403   -3.7445 H   0  0  0  0  0  0  0  0  0  0  0  0
    7.6840    6.2677   -3.8867 C   0  0  0  0  0  0  0  0  0  0  0  0
    8.4920    5.8840   -4.5075 H   0  0  0  0  0  0  0  0  0  0  0  0
    6.7259    6.0702   -4.3637 H   0  0  0  0  0  0  0  0  0  0  0  0
    7.7217    5.5868   -2.5386 C   0  0  0  0  0  0  0  0  0  0  0  0
    7.8606    6.2458   -1.5170 O   0  0  0  0  0  0  0  0  0  0  0  0
    7.5889    4.2632   -2.5382 N   0  0  0  0  0  0  0  0  0  0  0  0
    7.4883    3.7833   -3.4209 H   0  0  0  0  0  0  0  0  0  0  0  0
    7.5937    3.4291   -1.3364 C   0  0  1  0  0  0  0  0  0  0  0  0
    8.3116    3.8374   -0.6228 H   0  0  0  0  0  0  0  0  0  0  0  0
    6.1956    3.4954   -0.7058 C   0  0  0  0  0  0  0  0  0  0  0  0
    5.9806    4.5437   -0.4934 H   0  0  0  0  0  0  0  0  0  0  0  0
    5.4620    3.1590   -1.4387 H   0  0  0  0  0  0  0  0  0  0  0  0
    5.9308    2.5807    0.8369 S   0  0  0  0  0  0  0  0  0  0  0  0
    8.0233    1.9918   -1.6800 C   0  0  0  0  0  0  0  0  0  0  0  0
    7.7689    1.5232   -2.7904 O   0  0  0  0  0  0  0  0  0  0  0  0
    8.6772    1.3015   -0.7370 N   0  0  0  0  0  0  0  0  0  0  0  0
    8.8169    1.7441    0.1574 H   0  0  0  0  0  0  0  0  0  0  0  0
    9.1451   -0.0744   -0.9003 C   0  0  0  0  0  0  0  0  0  0  0  0
    8.2972   -0.7596   -0.8510 H   0  0  0  0  0  0  0  0  0  0  0  0
    9.6312   -0.1909   -1.8719 H   0  0  0  0  0  0  0  0  0  0  0  0
    9.8566   -0.3263   -0.1137 H   0  0  0  0  0  0  0  0  0  0  0  0
  5  6  2  0  0  0  0
  5  7  1  0  0  0  0
  2  3  1  0  0  0  0
  2  4  1  0  0  0  0
  2  5  1  0  0  0  0
  1  2  1  0  0  0  0
 15 16  2  0  0  0  0
 15 17  1  0  0  0  0
 14 36  1  0  0  0  0
 11 12  1  0  0  0  0
 11 13  1  0  0  0  0
 11 14  1  0  0  0  0
  9 10  1  0  0  0  0
  9 11  1  0  0  0  0
  9 15  1  0  0  0  0
  7  8  1  0  0  0  0
  7  9  1  0  0  0  0
 19 20  1  0  0  0  0
 19 21  1  0  0  0  0
 19 22  1  0  0  0  0
 17 18  1  0  0  0  0
 17 19  1  0  0  0  0
 27 28  2  0  0  0  0
 27 29  1  0  0  0  0
 24 25  1  0  0  0  0
 24 26  1  0  0  0  0
 24 27  1  0  0  0  0
 23 24  1  0  0  0  0
 37 38  2  0  0  0  0
 37 39  1  0  0  0  0
 33 34  1  0  0  0  0
 33 35  1  0  0  0  0
 33 36  1  0  0  0  0
 31 32  1  0  0  0  0
 31 33  1  0  0  0  0
 31 37  1  0  0  0  0
 29 30  1  0  0  0  0
 29 31  1  0  0  0  0
 41 42  1  0  0  0  0
 41 43  1  0  0  0  0
 41 44  1  0  0  0  0
 39 40  1  0  0  0  0
 39 41  1  0  0  0  0
M  END
$$$$
default_name
  -OEChem-01062215323D

 44 43  0     1  0  0  0  0  0999 V2000
    2.4488   -3.0448    2.0990 H   0  0  0  0  0  0  0  0  0  0  0  0
    2.2788   -2.0018    2.3640 C   0  0  0  0  0  0  0  0  0  0  0  0
    2.9228   -1.7258    3.1960 H   0  0  0  0  0  0  0  0  0  0  0  0
    1.2358   -1.8618    2.6430 H   0  0  0  0  0  0  0  0  0  0  0  0
    2.6018   -1.1318    1.1730 C   0  0  0  0  0  0  0  0  0  0  0  0
    3.0048   -1.6348    0.1320 O   0  0  0  0  0  0  0  0  0  0  0  0
    2.4088    0.1752    1.3190 N   0  0  0  0  0  0  0  0  0  0  0  0
    2.0708    0.5242    2.2050 H   0  0  0  0  0  0  0  0  0  0  0  0
    2.6638    1.1782    0.2840 C   0  0  1  0  0  0  0  0  0  0  0  0
    2.9080    2.1205    0.7773 H   0  0  0  0  0  0  0  0  0  0  0  0
    3.8772    0.7533   -0.5615 C   0  0  0  0  0  0  0  0  0  0  0  0
    3.9564    1.4198   -1.4212 H   0  0  0  0  0  0  0  0  0  0  0  0
    3.6738   -0.2400   -0.9607 H   0  0  0  0  0  0  0  0  0  0  0  0
    5.4975    0.6716    0.2575 S   0  0  0  0  0  0  0  0  0  0  0  0
    1.4117    1.4119   -0.5821 C   0  0  0  0  0  0  0  0  0  0  0  0
    1.2082    2.5081   -1.1037 O   0  0  0  0  0  0  0  0  0  0  0  0
    0.5758    0.3770   -0.7401 N   0  0  0  0  0  0  0  0  0  0  0  0
    0.8048   -0.4931   -0.2871 H   0  0  0  0  0  0  0  0  0  0  0  0
   -0.6532    0.4401   -1.5285 C   0  0  0  0  0  0  0  0  0  0  0  0
   -1.3336    1.1729   -1.0896 H   0  0  0  0  0  0  0  0  0  0  0  0
   -0.4220    0.7511   -2.5489 H   0  0  0  0  0  0  0  0  0  0  0  0
   -1.1399   -0.5358   -1.5508 H   0  0  0  0  0  0  0  0  0  0  0  0
    7.8074    7.3403   -3.7445 H   0  0  0  0  0  0  0  0  0  0  0  0
    7.6840    6.2677   -3.8867 C   0  0  0  0  0  0  0  0  0  0  0  0
    8.4920    5.8840   -4.5075 H   0  0  0  0  0  0  0  0  0  0  0  0
    6.7259    6.0702   -4.3637 H   0  0  0  0  0  0  0  0  0  0  0  0
    7.7217    5.5868   -2.5386 C   0  0  0  0  0  0  0  0  0  0  0  0
    7.8606    6.2458   -1.5170 O   0  0  0  0  0  0  0  0  0  0  0  0
    7.5889    4.2632   -2.5382 N   0  0  0  0  0  0  0  0  0  0  0  0
    7.4883    3.7833   -3.4209 H   0  0  0  0  0  0  0  0  0  0  0  0
    7.5937    3.4291   -1.3364 C   0  0  1  0  0  0  0  0  0  0  0  0
    8.3116    3.8374   -0.6228 H   0  0  0  0  0  0  0  0  0  0  0  0
    6.1956    3.4954   -0.7058 C   0  0  0  0  0  0  0  0  0  0  0  0
    5.9806    4.5437   -0.4934 H   0  0  0  0  0  0  0  0  0  0  0  0
    5.4620    3.1590   -1.4387 H   0  0  0  0  0  0  0  0  0  0  0  0
    5.9308    2.5807    0.8369 S   0  0  0  0  0  0  0  0  0  0  0  0
    8.0233    1.9918   -1.6800 C   0  0  0  0  0  0  0  0  0  0  0  0
    7.7689    1.5232   -2.7904 O   0  0  0  0  0  0  0  0  0  0  0  0
    8.6772    1.3015   -0.7370 N   0  0  0  0  0  0  0  0  0  0  0  0
    8.8169    1.7441    0.1574 H   0  0  0  0  0  0  0  0  0  0  0  0
    9.1451   -0.0744   -0.9003 C   0  0  0  0  0  0  0  0  0  0  0  0
    8.2972   -0.7596   -0.8510 H   0  0  0  0  0  0  0  0  0  0  0  0
    9.6312   -0.1909   -1.8719 H   0  0  0  0  0  0  0  0  0  0  0  0
    9.8566   -0.3263   -0.1137 H   0  0  0  0  0  0  0  0  0  0  0  0
  5  6  2  0  0  0  0
  5  7  1  0  0  0  0
  2  3  1  0  0  0  0
  2  4  1  0  0  0  0
  2  5  1  0  0  0  0
  1  2  1  0  0  0  0
 15 16  2  0  0  0  0
 15 17  1  0  0  0  0
 14 36  1  0  0  0  0
 11 12  1  0  0  0  0
 11 13  1  0  0  0  0
 11 14  1  0  0  0  0
  9 10  1  0  0  0  0
  9 11  1  0  0  0  0
  9 15  1  0  0  0  0
  7  8  1  0  0  0  0
  7  9  1  0  0  0  0
 19 20  1  0  0  0  0
 19 21  1  0  0  0  0
 19 22  1  0  0  0  0
 17 18  1  0  0  0  0
 17 19  1  0  0  0  0
 27 28  2  0  0  0  0
 27 29  1  0  0  0  0
 24 25  1  0  0  0  0
 24 26  1  0  0  0  0
 24 27  1  0  0  0  0
 23 24  1  0  0  0  0
 37 38  2  0  0  0  0
 37 39  1  0  0  0  0
 33 34  1  0  0  0  0
 33 35  1  0  0  0  0
 33 36  1  0  0  0  0
 31 32  1  0  0  0  0
 31 33  1  0  0  0  0
 31 37  1  0  0  0  0
 29 30  1  0  0  0  0
 29 31  1  0  0  0  0
 41 42  1  0  0  0  0
 41 43  1  0  0  0  0
 41 44  1  0  0  0  0
 39 40  1  0  0  0  0
 39 41  1  0  0  0  0
M  END
$$$$
default_name
  -OEChem-01062215323D

 44 43  0     1  0  0  0  0  0999 V2000
    2.4488   -3.0448    2.0990 H   0  0  0  0  0  0  0  0  0  0  0  0
    2.2788   -2.0018    2.3640 C   0  0  0  0  0  0  0  0  0  0  0  0
    2.9228   -1.7258    3.1960 H   0  0  0  0  0  0  0  0  0  0  0  0
    1.2358   -1.8618    2.6430 H   0  0  0  0  0  0  0  0  0  0  0  0
    2.6018   -1.1318    1.1730 C   0  0  0  0  0  0  0  0  0  0  0  0
    3.0048   -1.6348    0.1320 O   0  0  0  0  0  0  0  0  0  0  0  0
    2.4088    0.1752    1.3190 N   0  0  0  0  0  0  0  0  0  0  0  0
    2.0708    0.5242    2.2050 H   0  0  0  0  0  0  0  0  0  0  0  0
    2.6638    1.1782    0.2840 C   0  0  1  0  0  0  0  0  0  0  0  0
    2.9080    2.1205    0.7773 H   0  0  0  0  0  0  0  0  0  0  0  0
    3.8772    0.7533   -0.5615 C   0  0  0  0  0  0  0  0  0  0  0  0
    3.9564    1.4198   -1.4212 H   0  0  0  0  0  0  0  0  0  0  0  0
    3.6738   -0.2400   -0.9607 H   0  0  0  0  0  0  0  0  0  0  0  0
    5.4975    0.6716    0.2575 S   0  0  0  0  0  0  0  0  0  0  0  0
    1.4117    1.4119   -0.5821 C   0  0  0  0  0  0  0  0  0  0  0  0
    1.3368    2.3939   -1.3205 O   0  0  0  0  0  0  0  0  0  0  0  0
    0.4305    0.5039   -0.4958 N   0  0  0  0  0  0  0  0  0  0  0  0
    0.5588   -0.2776    0.1267 H   0  0  0  0  0  0  0  0  0  0  0  0
   -0.8186    0.5853   -1.2502 C   0  0  0  0  0  0  0  0  0  0  0  0
   -1.3635    1.4866   -0.9617 H   0  0  0  0  0  0  0  0  0  0  0  0
   -0.6020    0.6395   -2.3187 H   0  0  0  0  0  0  0  0  0  0  0  0
   -1.4388   -0.2899   -1.0523 H   0  0  0  0  0  0  0  0  0  0  0  0
    7.8074    7.3403   -3.7445 H   0  0  0  0  0  0  0  0  0  0  0  0
    7.6840    6.2677   -3.8867 C   0  0  0  0  0  0  0  0  0  0  0  0
    8.4920    5.8840   -4.5075 H   0  0  0  0  0  0  0  0  0  0  0  0
    6.7259    6.0702   -4.3637 H   0  0  0  0  0  0  0  0  0  0  0  0
    7.7217    5.5868   -2.5386 C   0  0  0  0  0  0  0  0  0  0  0  0
    7.8606    6.2458   -1.5170 O   0  0  0  0  0  0  0  0  0  0  0  0
    7.5889    4.2632   -2.5382 N   0  0  0  0  0  0  0  0  0  0  0  0
    7.4883    3.7833   -3.4209 H   0  0  0  0  0  0  0  0  0  0  0  0
    7.5937    3.4291   -1.3364 C   0  0  1  0  0  0  0  0  0  0  0  0
    8.3116    3.8374   -0.6228 H   0  0  0  0  0  0  0  0  0  0  0  0
    6.1956    3.4954   -0.7058 C   0  0  0  0  0  0  0  0  0  0  0  0
    5.9806    4.5437   -0.4934 H   0  0  0  0  0  0  0  0  0  0  0  0
    5.4620    3.1590   -1.4387 H   0  0  0  0  0  0  0  0  0  0  0  0
    5.9308    2.5807    0.8369 S   0  0  0  0  0  0  0  0  0  0  0  0
    8.0233    1.9918   -1.6800 C   0  0  0  0  0  0  0  0  0  0  0  0
    7.7689    1.5232   -2.7904 O   0  0  0  0  0  0  0  0  0  0  0  0
    8.6772    1.3015   -0.7370 N   0  0  0  0  0  0  0  0  0  0  0  0
    8.8169    1.7441    0.1574 H   0  0  0  0  0  0  0  0  0  0  0  0
    9.1451   -0.0744   -0.9003 C   0  0  0  0  0  0  0  0  0  0  0  0
    8.2972   -0.7596   -0.8510 H   0  0  0  0  0  0  0  0  0  0  0  0
    9.6312   -0.1909   -1.8719 H   0  0  0  0  0  0  0  0  0  0  0  0
    9.8566   -0.3263   -0.1137 H   0  0  0  0  0  0  0  0  0  0  0  0
  5  6  2  0  0  0  0
  5  7  1  0  0  0  0
  2  3  1  0  0  0  0
  2  4  1  0  0  0  0
  2  5  1  0  0  0  0
  1  2  1  0  0  0  0
 15 16  2  0  0  0  0
 15 17  1  0  0  0  0
 14 36  1  0  0  0  0
 11 12  1  0  0  0  0
 11 13  1  0  0  0  0
 11 14  1  0  0  0  0
  9 10  1  0  0  0  0
  9 11  1  0  0  0  0
  9 15  1  0  0  0  0
  7  8  1  0  0  0  0
  7  9  1  0  0  0  0
 19 20  1  0  0  0  0
 19 21  1  0  0  0  0
 19 22  1  0  0  0  0
 17 18  1  0  0  0  0
 17 19  1  0  0  0  0
 27 28  2  0  0  0  0
 27 29  1  0  0  0  0
 24 25  1  0  0  0  0
 24 26  1  0  0  0  0
 24 27  1  0  0  0  0
 23 24  1  0  0  0  0
 37 38  2  0  0  0  0
 37 39  1  0  0  0  0
 33 34  1  0  0  0  0
 33 35  1  0  0  0  0
 33 36  1  0  0  0  0
 31 32  1  0  0  0  0
 31 33  1  0  0  0  0
 31 37  1  0  0  0  0
 29 30  1  0  0  0  0
 29 31  1  0  0  0  0
 41 42  1  0  0  0  0
 41 43  1  0  0  0  0
 41 44  1  0  0  0  0
 39 40  1  0  0  0  0
 39 41  1  0  0  0  0
M  END
$$$$
default_name
  -OEChem-01062215323D

 44 43  0     1  0  0  0  0  0999 V2000
    2.4488   -3.0448    2.0990 H   0  0  0  0  0  0  0  0  0  0  0  0
    2.2788   -2.0018    2.3640 C   0  0  0  0  0  0  0  0  0  0  0  0
    2.9228   -1.7258    3.1960 H   0  0  0  0  0  0  0  0  0  0  0  0
    1.2358   -1.8618    2.6430 H   0  0  0  0  0  0  0  0  0  0  0  0
    2.6018   -1.1318    1.1730 C   0  0  0  0  0  0  0  0  0  0  0  0
    3.0048   -1.6348    0.1320 O   0  0  0  0  0  0  0  0  0  0  0  0
    2.4088    0.1752    1.3190 N   0  0  0  0  0  0  0  0  0  0  0  0
    2.0708    0.5242    2.2050 H   0  0  0  0  0  0  0  0  0  0  0  0
    2.6638    1.1782    0.2840 C   0  0  1  0  0  0  0  0  0  0  0  0
    2.9080    2.1205    0.7773 H   0  0  0  0  0  0  0  0  0  0  0  0
    3.8772    0.7533   -0.5615 C   0  0  0  0  0  0  0  0  0  0  0  0
    3.9564    1.4198   -1.4212 H   0  0  0  0  0  0  0  0  0  0  0  0
    3.6738   -0.2400   -0.9607 H   0  0  0  0  0  0  0  0  0  0  0  0
    5.4975    0.6716    0.2575 S   0  0  0  0  0  0  0  0  0  0  0  0
    1.4117    1.4119   -0.5821 C   0  0  0  0  0  0  0  0  0  0  0  0
    1.4360    2.2192   -1.5110 O   0  0  0  0  0  0  0  0  0  0  0  0
    0.3182    0.6989   -0.2809 N   0  0  0  0  0  0  0  0  0  0  0  0
    0.3687    0.0535    0.4908 H   0  0  0  0  0  0  0  0  0  0  0  0
   -0.9463    0.8081   -1.0054 C   0  0  0  0  0  0  0  0  0  0  0  0
   -1.3417    1.8209   -0.9030 H   0  0  0  0  0  0  0  0  0  0  0  0
   -0.7832    0.6064   -2.0657 H   0  0  0  0  0  0  0  0  0  0  0  0
   -1.6721    0.0960   -0.6108 H   0  0  0  0  0  0  0  0  0  0  0  0
    7.8074    7.3403   -3.7445 H   0  0  0  0  0  0  0  0  0  0  0  0
    7.6840    6.2677   -3.8867 C   0  0  0  0  0  0  0  0  0  0  0  0
    8.4920    5.8840   -4.5075 H   0  0  0  0  0  0  0  0  0  0  0  0
    6.7259    6.0702   -4.3637 H   0  0  0  0  0  0  0  0  0  0  0  0
    7.7217    5.5868   -2.5386 C   0  0  0  0  0  0  0  0  0  0  0  0
    7.8606    6.2458   -1.5170 O   0  0  0  0  0  0  0  0  0  0  0  0
    7.5889    4.2632   -2.5382 N   0  0  0  0  0  0  0  0  0  0  0  0
    7.4883    3.7833   -3.4209 H   0  0  0  0  0  0  0  0  0  0  0  0
    7.5937    3.4291   -1.3364 C   0  0  1  0  0  0  0  0  0  0  0  0
    8.3116    3.8374   -0.6228 H   0  0  0  0  0  0  0  0  0  0  0  0
    6.1956    3.4954   -0.7058 C   0  0  0  0  0  0  0  0  0  0  0  0
    5.9806    4.5437   -0.4934 H   0  0  0  0  0  0  0  0  0  0  0  0
    5.4620    3.1590   -1.4387 H   0  0  0  0  0  0  0  0  0  0  0  0
    5.9308    2.5807    0.8369 S   0  0  0  0  0  0  0  0  0  0  0  0
    8.0233    1.9918   -1.6800 C   0  0  0  0  0  0  0  0  0  0  0  0
    7.7689    1.5232   -2.7904 O   0  0  0  0  0  0  0  0  0  0  0  0
    8.6772    1.3015   -0.7370 N   0  0  0  0  0  0  0  0  0  0  0  0
    8.8169    1.7441    0.1574 H   0  0  0  0  0  0  0  0  0  0  0  0
    9.1451   -0.0744   -0.9003 C   0  0  0  0  0  0  0  0  0  0  0  0
    8.2972   -0.7596   -0.8510 H   0  0  0  0  0  0  0  0  0  0  0  0
    9.6312   -0.1909   -1.8719 H   0  0  0  0  0  0  0  0  0  0  0  0
    9.8566   -0.3263   -0.1137 H   0  0  0  0  0  0  0  0  0  0  0  0
  5  6  2  0  0  0  0
  5  7  1  0  0  0  0
  2  3  1  0  0  0  0
  2  4  1  0  0  0  0
  2  5  1  0  0  0  0
  1  2  1  0  0  0  0
 15 16  2  0  0  0  0
 15 17  1  0  0  0  0
 14 36  1  0  0  0  0
 11 12  1  0  0  0  0
 11 13  1  0  0  0  0
 11 14  1  0  0  0  0
  9 10  1  0  0  0  0
  9 11  1  0  0  0  0
  9 15  1  0  0  0  0
  7  8  1  0  0  0  0
  7  9  1  0  0  0  0
 19 20  1  0  0  0  0
 19 21  1  0  0  0  0
 19 22  1  0  0  0  0
 17 18  1  0  0  0  0
 17 19  1  0  0  0  0
 27 28  2  0  0  0  0
 27 29  1  0  0  0  0
 24 25  1  0  0  0  0
 24 26  1  0  0  0  0
 24 27  1  0  0  0  0
 23 24  1  0  0  0  0
 37 38  2  0  0  0  0
 37 39  1  0  0  0  0
 33 34  1  0  0  0  0
 33 35  1  0  0  0  0
 33 36  1  0  0  0  0
 31 32  1  0  0  0  0
 31 33  1  0  0  0  0
 31 37  1  0  0  0  0
 29 30  1  0  0  0  0
 29 31  1  0  0  0  0
 41 42  1  0  0  0  0
 41 43  1  0  0  0  0
 41 44  1  0  0  0  0
 39 40  1  0  0  0  0
 39 41  1  0  0  0  0
M  END
$$$$
default_name
  -OEChem-01062215323D

 44 43  0     1  0  0  0  0  0999 V2000
    2.4488   -3.0448    2.0990 H   0  0  0  0  0  0  0  0  0  0  0  0
    2.2788   -2.0018    2.3640 C   0  0  0  0  0  0  0  0  0  0  0  0
    2.9228   -1.7258    3.1960 H   0  0  0  0  0  0  0  0  0  0  0  0
    1.2358   -1.8618    2.6430 H   0  0  0  0  0  0  0  0  0  0  0  0
    2.6018   -1.1318    1.1730 C   0  0  0  0  0  0  0  0  0  0  0  0
    3.0048   -1.6348    0.1320 O   0  0  0  0  0  0  0  0  0  0  0  0
    2.4088    0.1752    1.3190 N   0  0  0  0  0  0  0  0  0  0  0  0
    2.0708    0.5242    2.2050 H   0  0  0  0  0  0  0  0  0  0  0  0
    2.6638    1.1782    0.2840 C   0  0  1  0  0  0  0  0  0  0  0  0
    2.9080    2.1205    0.7773 H   0  0  0  0  0  0  0  0  0  0  0  0
    3.8772    0.7533   -0.5615 C   0  0  0  0  0  0  0  0  0  0  0  0
    3.9564    1.4198   -1.4212 H   0  0  0  0  0  0  0  0  0  0  0  0
    3.6738   -0.2400   -0.9607 H   0  0  0  0  0  0  0  0  0  0  0  0
    5.4975    0.6716    0.2575 S   0  0  0  0  0  0  0  0  0  0  0  0
    1.4117    1.4119   -0.5821 C   0  0  0  0  0  0  0  0  0  0  0  0
    1.4988    1.9959   -1.6621 O   0  0  0  0  0  0  0  0  0  0  0  0
    0.2466    0.9488   -0.1099 N   0  0  0  0  0  0  0  0  0  0  0  0
    0.2477    0.4775    0.7803 H   0  0  0  0  0  0  0  0  0  0  0  0
   -1.0276    1.0934   -0.8109 C   0  0  0  0  0  0  0  0  0  0  0  0
   -1.2697    2.1529   -0.9175 H   0  0  0  0  0  0  0  0  0  0  0  0
   -0.9530    0.6540   -1.8073 H   0  0  0  0  0  0  0  0  0  0  0  0
   -1.8240    0.5956   -0.2564 H   0  0  0  0  0  0  0  0  0  0  0  0
    7.8074    7.3403   -3.7445 H   0  0  0  0  0  0  0  0  0  0  0  0
    7.6840    6.2677   -3.8867 C   0  0  0  0  0  0  0  0  0  0  0  0
    8.4920    5.8840   -4.5075 H   0  0  0  0  0  0  0  0  0  0  0  0
    6.7259    6.0702   -4.3637 H   0  0  0  0  0  0  0  0  0  0  0  0
    7.7217    5.5868   -2.5386 C   0  0  0  0  0  0  0  0  0  0  0  0
    7.8606    6.2458   -1.5170 O   0  0  0  0  0  0  0  0  0  0  0  0
    7.5889    4.2632   -2.5382 N   0  0  0  0  0  0  0  0  0  0  0  0
    7.4883    3.7833   -3.4209 H   0  0  0  0  0  0  0  0  0  0  0  0
    7.5937    3.4291   -1.3364 C   0  0  1  0  0  0  0  0  0  0  0  0
    8.3116    3.8374   -0.6228 H   0  0  0  0  0  0  0  0  0  0  0  0
    6.1956    3.4954   -0.7058 C   0  0  0  0  0  0  0  0  0  0  0  0
    5.9806    4.5437   -0.4934 H   0  0  0  0  0  0  0  0  0  0  0  0
    5.4620    3.1590   -1.4387 H   0  0  0  0  0  0  0  0  0  0  0  0
    5.9308    2.5807    0.8369 S   0  0  0  0  0  0  0  0  0  0  0  0
    8.0233    1.9918   -1.6800 C   0  0  0  0  0  0  0  0  0  0  0  0
    7.7689    1.5232   -2.7904 O   0  0  0  0  0  0  0  0  0  0  0  0
    8.6772    1.3015   -0.7370 N   0  0  0  0  0  0  0  0  0  0  0  0
    8.8169    1.7441    0.1574 H   0  0  0  0  0  0  0  0  0  0  0  0
    9.1451   -0.0744   -0.9003 C   0  0  0  0  0  0  0  0  0  0  0  0
    8.2972   -0.7596   -0.8510 H   0  0  0  0  0  0  0  0  0  0  0  0
    9.6312   -0.1909   -1.8719 H   0  0  0  0  0  0  0  0  0  0  0  0
    9.8566   -0.3263   -0.1137 H   0  0  0  0  0  0  0  0  0  0  0  0
  5  6  2  0  0  0  0
  5  7  1  0  0  0  0
  2  3  1  0  0  0  0
  2  4  1  0  0  0  0
  2  5  1  0  0  0  0
  1  2  1  0  0  0  0
 15 16  2  0  0  0  0
 15 17  1  0  0  0  0
 14 36  1  0  0  0  0
 11 12  1  0  0  0  0
 11 13  1  0  0  0  0
 11 14  1  0  0  0  0
  9 10  1  0  0  0  0
  9 11  1  0  0  0  0
  9 15  1  0  0  0  0
  7  8  1  0  0  0  0
  7  9  1  0  0  0  0
 19 20  1  0  0  0  0
 19 21  1  0  0  0  0
 19 22  1  0  0  0  0
 17 18  1  0  0  0  0
 17 19  1  0  0  0  0
 27 28  2  0  0  0  0
 27 29  1  0  0  0  0
 24 25  1  0  0  0  0
 24 26  1  0  0  0  0
 24 27  1  0  0  0  0
 23 24  1  0  0  0  0
 37 38  2  0  0  0  0
 37 39  1  0  0  0  0
 33 34  1  0  0  0  0
 33 35  1  0  0  0  0
 33 36  1  0  0  0  0
 31 32  1  0  0  0  0
 31 33  1  0  0  0  0
 31 37  1  0  0  0  0
 29 30  1  0  0  0  0
 29 31  1  0  0  0  0
 41 42  1  0  0  0  0
 41 43  1  0  0  0  0
 41 44  1  0  0  0  0
 39 40  1  0  0  0  0
 39 41  1  0  0  0  0
M  END
$$$$
default_name
  -OEChem-01062215323D

 44 43  0     1  0  0  0  0  0999 V2000
    2.4488   -3.0448    2.0990 H   0  0  0  0  0  0  0  0  0  0  0  0
    2.2788   -2.0018    2.3640 C   0  0  0  0  0  0  0  0  0  0  0  0
    2.9228   -1.7258    3.1960 H   0  0  0  0  0  0  0  0  0  0  0  0
    1.2358   -1.8618    2.6430 H   0  0  0  0  0  0  0  0  0  0  0  0
    2.6018   -1.1318    1.1730 C   0  0  0  0  0  0  0  0  0  0  0  0
    3.0048   -1.6348    0.1320 O   0  0  0  0  0  0  0  0  0  0  0  0
    2.4088    0.1752    1.3190 N   0  0  0  0  0  0  0  0  0  0  0  0
    2.0708    0.5242    2.2050 H   0  0  0  0  0  0  0  0  0  0  0  0
    2.6638    1.1782    0.2840 C   0  0  1  0  0  0  0  0  0  0  0  0
    2.9080    2.1205    0.7773 H   0  0  0  0  0  0  0  0  0  0  0  0
    3.8772    0.7533   -0.5615 C   0  0  0  0  0  0  0  0  0  0  0  0
    3.9564    1.4198   -1.4212 H   0  0  0  0  0  0  0  0  0  0  0  0
    3.6738   -0.2400   -0.9607 H   0  0  0  0  0  0  0  0  0  0  0  0
    5.4975    0.6716    0.2575 S   0  0  0  0  0  0  0  0  0  0  0  0
    1.4117    1.4119   -0.5821 C   0  0  0  0  0  0  0  0  0  0  0  0
    1.5211    1.7394   -1.7636 O   0  0  0  0  0  0  0  0  0  0  0  0
    0.2206    1.2367    0.0055 N   0  0  0  0  0  0  0  0  0  0  0  0
    0.2038    0.9655    0.9755 H   0  0  0  0  0  0  0  0  0  0  0  0
   -1.0569    1.4218   -0.6798 C   0  0  0  0  0  0  0  0  0  0  0  0
   -1.1524    2.4602   -1.0042 H   0  0  0  0  0  0  0  0  0  0  0  0
   -1.1000    0.7791   -1.5611 H   0  0  0  0  0  0  0  0  0  0  0  0
   -1.8841    1.1748   -0.0131 H   0  0  0  0  0  0  0  0  0  0  0  0
    7.8074    7.3403   -3.7445 H   0  0  0  0  0  0  0  0  0  0  0  0
    7.6840    6.2677   -3.8867 C   0  0  0  0  0  0  0  0  0  0  0  0
    8.4920    5.8840   -4.5075 H   0  0  0  0  0  0  0  0  0  0  0  0
    6.7259    6.0702   -4.3637 H   0  0  0  0  0  0  0  0  0  0  0  0
    7.7217    5.5868   -2.5386 C   0  0  0  0  0  0  0  0  0  0  0  0
    7.8606    6.2458   -1.5170 O   0  0  0  0  0  0  0  0  0  0  0  0
    7.5889    4.2632   -2.5382 N   0  0  0  0  0  0  0  0  0  0  0  0
    7.4883    3.7833   -3.4209 H   0  0  0  0  0  0  0  0  0  0  0  0
    7.5937    3.4291   -1.3364 C   0  0  1  0  0  0  0  0  0  0  0  0
    8.3116    3.8374   -0.6228 H   0  0  0  0  0  0  0  0  0  0  0  0
    6.1956    3.4954   -0.7058 C   0  0  0  0  0  0  0  0  0  0  0  0
    5.9806    4.5437   -0.4934 H   0  0  0  0  0  0  0  0  0  0  0  0
    5.4620    3.1590   -1.4387 H   0  0  0  0  0  0  0  0  0  0  0  0
    5.9308    2.5807    0.8369 S   0  0  0  0  0  0  0  0  0  0  0  0
    8.0233    1.9918   -1.6800 C   0  0  0  0  0  0  0  0  0  0  0  0
    7.7689    1.5232   -2.7904 O   0  0  0  0  0  0  0  0  0  0  0  0
    8.6772    1.3015   -0.7370 N   0  0  0  0  0  0  0  0  0  0  0  0
    8.8169    1.7441    0.1574 H   0  0  0  0  0  0  0  0  0  0  0  0
    9.1451   -0.0744   -0.9003 C   0  0  0  0  0  0  0  0  0  0  0  0
    8.2972   -0.7596   -0.8510 H   0  0  0  0  0  0  0  0  0  0  0  0
    9.6312   -0.1909   -1.8719 H   0  0  0  0  0  0  0  0  0  0  0  0
    9.8566   -0.3263   -0.1137 H   0  0  0  0  0  0  0  0  0  0  0  0
  5  6  2  0  0  0  0
  5  7  1  0  0  0  0
  2  3  1  0  0  0  0
  2  4  1  0  0  0  0
  2  5  1  0  0  0  0
  1  2  1  0  0  0  0
 15 16  2  0  0  0  0
 15 17  1  0  0  0  0
 14 36  1  0  0  0  0
 11 12  1  0  0  0  0
 11 13  1  0  0  0  0
 11 14  1  0  0  0  0
  9 10  1  0  0  0  0
  9 11  1  0  0  0  0
  9 15  1  0  0  0  0
  7  8  1  0  0  0  0
  7  9  1  0  0  0  0
 19 20  1  0  0  0  0
 19 21  1  0  0  0  0
 19 22  1  0  0  0  0
 17 18  1  0  0  0  0
 17 19  1  0  0  0  0
 27 28  2  0  0  0  0
 27 29  1  0  0  0  0
 24 25  1  0  0  0  0
 24 26  1  0  0  0  0
 24 27  1  0  0  0  0
 23 24  1  0  0  0  0
 37 38  2  0  0  0  0
 37 39  1  0  0  0  0
 33 34  1  0  0  0  0
 33 35  1  0  0  0  0
 33 36  1  0  0  0  0
 31 32  1  0  0  0  0
 31 33  1  0  0  0  0
 31 37  1  0  0  0  0
 29 30  1  0  0  0  0
 29 31  1  0  0  0  0
 41 42  1  0  0  0  0
 41 43  1  0  0  0  0
 41 44  1  0  0  0  0
 39 40  1  0  0  0  0
 39 41  1  0  0  0  0
M  END
$$$$
default_name
  -OEChem-01062215323D

 44 43  0     1  0  0  0  0  0999 V2000
    2.4488   -3.0448    2.0990 H   0  0  0  0  0  0  0  0  0  0  0  0
    2.2788   -2.0018    2.3640 C   0  0  0  0  0  0  0  0  0  0  0  0
    2.9228   -1.7258    3.1960 H   0  0  0  0  0  0  0  0  0  0  0  0
    1.2358   -1.8618    2.6430 H   0  0  0  0  0  0  0  0  0  0  0  0
    2.6018   -1.1318    1.1730 C   0  0  0  0  0  0  0  0  0  0  0  0
    3.0048   -1.6348    0.1320 O   0  0  0  0  0  0  0  0  0  0  0  0
    2.4088    0.1752    1.3190 N   0  0  0  0  0  0  0  0  0  0  0  0
    2.0708    0.5242    2.2050 H   0  0  0  0  0  0  0  0  0  0  0  0
    2.6638    1.1782    0.2840 C   0  0  1  0  0  0  0  0  0  0  0  0
    2.9080    2.1205    0.7773 H   0  0  0  0  0  0  0  0  0  0  0  0
    3.8772    0.7533   -0.5615 C   0  0  0  0  0  0  0  0  0  0  0  0
    3.9564    1.4198   -1.4212 H   0  0  0  0  0  0  0  0  0  0  0  0
    3.6738   -0.2400   -0.9607 H   0  0  0  0  0  0  0  0  0  0  0  0
    5.4975    0.6716    0.2575 S   0  0  0  0  0  0  0  0  0  0  0  0
    1.4117    1.4119   -0.5821 C   0  0  0  0  0  0  0  0  0  0  0  0
    1.5013    1.4669   -1.8085 O   0  0  0  0  0  0  0  0  0  0  0  0
    0.2418    1.5428    0.0574 N   0  0  0  0  0  0  0  0  0  0  0  0
    0.2401    1.4844    1.0630 H   0  0  0  0  0  0  0  0  0  0  0  0
   -1.0324    1.7708   -0.6211 C   0  0  0  0  0  0  0  0  0  0  0  0
   -0.9978    2.7216   -1.1572 H   0  0  0  0  0  0  0  0  0  0  0  0
   -1.2141    0.9731   -1.3437 H   0  0  0  0  0  0  0  0  0  0  0  0
   -1.8483    1.7942    0.1023 H   0  0  0  0  0  0  0  0  0  0  0  0
    7.8074    7.3403   -3.7445 H   0  0  0  0  0  0  0  0  0  0  0  0
    7.6840    6.2677   -3.8867 C   0  0  0  0  0  0  0  0  0  0  0  0
    8.4920    5.8840   -4.5075 H   0  0  0  0  0  0  0  0  0  0  0  0
    6.7259    6.0702   -4.3637 H   0  0  0  0  0  0  0  0  0  0  0  0
    7.7217    5.5868   -2.5386 C   0  0  0  0  0  0  0  0  0  0  0  0
    7.8606    6.2458   -1.5170 O   0  0  0  0  0  0  0  0  0  0  0  0
    7.5889    4.2632   -2.5382 N   0  0  0  0  0  0  0  0  0  0  0  0
    7.4883    3.7833   -3.4209 H   0  0  0  0  0  0  0  0  0  0  0  0
    7.5937    3.4291   -1.3364 C   0  0  1  0  0  0  0  0  0  0  0  0
    8.3116    3.8374   -0.6228 H   0  0  0  0  0  0  0  0  0  0  0  0
    6.1956    3.4954   -0.7058 C   0  0  0  0  0  0  0  0  0  0  0  0
    5.9806    4.5437   -0.4934 H   0  0  0  0  0  0  0  0  0  0  0  0
    5.4620    3.1590   -1.4387 H   0  0  0  0  0  0  0  0  0  0  0  0
    5.9308    2.5807    0.8369 S   0  0  0  0  0  0  0  0  0  0  0  0
    8.0233    1.9918   -1.6800 C   0  0  0  0  0  0  0  0  0  0  0  0
    7.7689    1.5232   -2.7904 O   0  0  0  0  0  0  0  0  0  0  0  0
    8.6772    1.3015   -0.7370 N   0  0  0  0  0  0  0  0  0  0  0  0
    8.8169    1.7441    0.1574 H   0  0  0  0  0  0  0  0  0  0  0  0
    9.1451   -0.0744   -0.9003 C   0  0  0  0  0  0  0  0  0  0  0  0
    8.2972   -0.7596   -0.8510 H   0  0  0  0  0  0  0  0  0  0  0  0
    9.6312   -0.1909   -1.8719 H   0  0  0  0  0  0  0  0  0  0  0  0
    9.8566   -0.3263   -0.1137 H   0  0  0  0  0  0  0  0  0  0  0  0
  5  6  2  0  0  0  0
  5  7  1  0  0  0  0
  2  3  1  0  0  0  0
  2  4  1  0  0  0  0
  2  5  1  0  0  0  0
  1  2  1  0  0  0  0
 15 16  2  0  0  0  0
 15 17  1  0  0  0  0
 14 36  1  0  0  0  0
 11 12  1  0  0  0  0
 11 13  1  0  0  0  0
 11 14  1  0  0  0  0
  9 10  1  0  0  0  0
  9 11  1  0  0  0  0
  9 15  1  0  0  0  0
  7  8  1  0  0  0  0
  7  9  1  0  0  0  0
 19 20  1  0  0  0  0
 19 21  1  0  0  0  0
 19 22  1  0  0  0  0
 17 18  1  0  0  0  0
 17 19  1  0  0  0  0
 27 28  2  0  0  0  0
 27 29  1  0  0  0  0
 24 25  1  0  0  0  0
 24 26  1  0  0  0  0
 24 27  1  0  0  0  0
 23 24  1  0  0  0  0
 37 38  2  0  0  0  0
 37 39  1  0  0  0  0
 33 34  1  0  0  0  0
 33 35  1  0  0  0  0
 33 36  1  0  0  0  0
 31 32  1  0  0  0  0
 31 33  1  0  0  0  0
 31 37  1  0  0  0  0
 29 30  1  0  0  0  0
 29 31  1  0  0  0  0
 41 42  1  0  0  0  0
 41 43  1  0  0  0  0
 41 44  1  0  0  0  0
 39 40  1  0  0  0  0
 39 41  1  0  0  0  0
M  END
$$$$
default_name
  -OEChem-01062215323D

 44 43  0     1  0  0  0  0  0999 V2000
    2.4488   -3.0448    2.0990 H   0  0  0  0  0  0  0  0  0  0  0  0
    2.2788   -2.0018    2.3640 C   0  0  0  0  0  0  0  0  0  0  0  0
    2.9228   -1.7258    3.1960 H   0  0  0  0  0  0  0  0  0  0  0  0
    1.2358   -1.8618    2.6430 H   0  0  0  0  0  0  0  0  0  0  0  0
    2.6018   -1.1318    1.1730 C   0  0  0  0  0  0  0  0  0  0  0  0
    3.0048   -1.6348    0.1320 O   0  0  0  0  0  0  0  0  0  0  0  0
    2.4088    0.1752    1.3190 N   0  0  0  0  0  0  0  0  0  0  0  0
    2.0708    0.5242    2.2050 H   0  0  0  0  0  0  0  0  0  0  0  0
    2.6638    1.1782    0.2840 C   0  0  1  0  0  0  0  0  0  0  0  0
    2.9080    2.1205    0.7773 H   0  0  0  0  0  0  0  0  0  0  0  0
    3.8772    0.7533   -0.5615 C   0  0  0  0  0  0  0  0  0  0  0  0
    3.9564    1.4198   -1.4212 H   0  0  0  0  0  0  0  0  0  0  0  0
    3.6738   -0.2400   -0.9607 H   0  0  0  0  0  0  0  0  0  0  0  0
    5.4975    0.6716    0.2575 S   0  0  0  0  0  0  0  0  0  0  0  0
    1.4117    1.4119   -0.5821 C   0  0  0  0  0  0  0  0  0  0  0  0
    1.4408    1.1972   -1.7938 O   0  0  0  0  0  0  0  0  0  0  0  0
    0.3089    1.8463    0.0423 N   0  0  0  0  0  0  0  0  0  0  0  0
    0.3541    1.9988    1.0370 H   0  0  0  0  0  0  0  0  0  0  0  0
   -0.9555    2.1167   -0.6388 C   0  0  0  0  0  0  0  0  0  0  0  0
   -0.8164    2.9195   -1.3660 H   0  0  0  0  0  0  0  0  0  0  0  0
   -1.2875    1.2229   -1.1702 H   0  0  0  0  0  0  0  0  0  0  0  0
   -1.7191    2.4117    0.0821 H   0  0  0  0  0  0  0  0  0  0  0  0
    7.8074    7.3403   -3.7445 H   0  0  0  0  0  0  0  0  0  0  0  0
    7.6840    6.2677   -3.8867 C   0  0  0  0  0  0  0  0  0  0  0  0
    8.4920    5.8840   -4.5075 H   0  0  0  0  0  0  0  0  0  0  0  0
    6.7259    6.0702   -4.3637 H   0  0  0  0  0  0  0  0  0  0  0  0
    7.7217    5.5868   -2.5386 C   0  0  0  0  0  0  0  0  0  0  0  0
    7.8606    6.2458   -1.5170 O   0  0  0  0  0  0  0  0  0  0  0  0
    7.5889    4.2632   -2.5382 N   0  0  0  0  0  0  0  0  0  0  0  0
    7.4883    3.7833   -3.4209 H   0  0  0  0  0  0  0  0  0  0  0  0
    7.5937    3.4291   -1.3364 C   0  0  1  0  0  0  0  0  0  0  0  0
    8.3116    3.8374   -0.6228 H   0  0  0  0  0  0  0  0  0  0  0  0
    6.1956    3.4954   -0.7058 C   0  0  0  0  0  0  0  0  0  0  0  0
    5.9806    4.5437   -0.4934 H   0  0  0  0  0  0  0  0  0  0  0  0
    5.4620    3.1590   -1.4387 H   0  0  0  0  0  0  0  0  0  0  0  0
    5.9308    2.5807    0.8369 S   0  0  0  0  0  0  0  0  0  0  0  0
    8.0233    1.9918   -1.6800 C   0  0  0  0  0  0  0  0  0  0  0  0
    7.7689    1.5232   -2.7904 O   0  0  0  0  0  0  0  0  0  0  0  0
    8.6772    1.3015   -0.7370 N   0  0  0  0  0  0  0  0  0  0  0  0
    8.8169    1.7441    0.1574 H   0  0  0  0  0  0  0  0  0  0  0  0
    9.1451   -0.0744   -0.9003 C   0  0  0  0  0  0  0  0  0  0  0  0
    8.2972   -0.7596   -0.8510 H   0  0  0  0  0  0  0  0  0  0  0  0
    9.6312   -0.1909   -1.8719 H   0  0  0  0  0  0  0  0  0  0  0  0
    9.8566   -0.3263   -0.1137 H   0  0  0  0  0  0  0  0  0  0  0  0
  5  6  2  0  0  0  0
  5  7  1  0  0  0  0
  2  3  1  0  0  0  0
  2  4  1  0  0  0  0
  2  5  1  0  0  0  0
  1  2  1  0  0  0  0
 15 16  2  0  0  0  0
 15 17  1  0  0  0  0
 14 36  1  0  0  0  0
 11 12  1  0  0  0  0
 11 13  1  0  0  0  0
 11 14  1  0  0  0  0
  9 10  1  0  0  0  0
  9 11  1  0  0  0  0
  9 15  1  0  0  0  0
  7  8  1  0  0  0  0
  7  9  1  0  0  0  0
 19 20  1  0  0  0  0
 19 21  1  0  0  0  0
 19 22  1  0  0  0  0
 17 18  1  0  0  0  0
 17 19  1  0  0  0  0
 27 28  2  0  0  0  0
 27 29  1  0  0  0  0
 24 25  1  0  0  0  0
 24 26  1  0  0  0  0
 24 27  1  0  0  0  0
 23 24  1  0  0  0  0
 37 38  2  0  0  0  0
 37 39  1  0  0  0  0
 33 34  1  0  0  0  0
 33 35  1  0  0  0  0
 33 36  1  0  0  0  0
 31 32  1  0  0  0  0
 31 33  1  0  0  0  0
 31 37  1  0  0  0  0
 29 30  1  0  0  0  0
 29 31  1  0  0  0  0
 41 42  1  0  0  0  0
 41 43  1  0  0  0  0
 41 44  1  0  0  0  0
 39 40  1  0  0  0  0
 39 41  1  0  0  0  0
M  END
$$$$
default_name
  -OEChem-01062215323D

 44 43  0     1  0  0  0  0  0999 V2000
    2.4488   -3.0448    2.0990 H   0  0  0  0  0  0  0  0  0  0  0  0
    2.2788   -2.0018    2.3640 C   0  0  0  0  0  0  0  0  0  0  0  0
    2.9228   -1.7258    3.1960 H   0  0  0  0  0  0  0  0  0  0  0  0
    1.2358   -1.8618    2.6430 H   0  0  0  0  0  0  0  0  0  0  0  0
    2.6018   -1.1318    1.1730 C   0  0  0  0  0  0  0  0  0  0  0  0
    3.0048   -1.6348    0.1320 O   0  0  0  0  0  0  0  0  0  0  0  0
    2.4088    0.1752    1.3190 N   0  0  0  0  0  0  0  0  0  0  0  0
    2.0708    0.5242    2.2050 H   0  0  0  0  0  0  0  0  0  0  0  0
    2.6638    1.1782    0.2840 C   0  0  1  0  0  0  0  0  0  0  0  0
    2.9080    2.1205    0.7773 H   0  0  0  0  0  0  0  0  0  0  0  0
    3.8772    0.7533   -0.5615 C   0  0  0  0  0  0  0  0  0  0  0  0
    3.9564    1.4198   -1.4212 H   0  0  0  0  0  0  0  0  0  0  0  0
    3.6738   -0.2400   -0.9607 H   0  0  0  0  0  0  0  0  0  0  0  0
    5.4975    0.6716    0.2575 S   0  0  0  0  0  0  0  0  0  0  0  0
    1.4117    1.4119   -0.5821 C   0  0  0  0  0  0  0  0  0  0  0  0
    1.3437    0.9486   -1.7204 O   0  0  0  0  0  0  0  0  0  0  0  0
    0.4173    2.1265   -0.0388 N   0  0  0  0  0  0  0  0  0  0  0  0
    0.5381    2.4735    0.8991 H   0  0  0  0  0  0  0  0  0  0  0  0
   -0.8317    2.4359   -0.7317 C   0  0  0  0  0  0  0  0  0  0  0  0
   -0.6206    3.0402   -1.6165 H   0  0  0  0  0  0  0  0  0  0  0  0
   -1.3153    1.5113   -1.0522 H   0  0  0  0  0  0  0  0  0  0  0  0
   -1.5052    2.9850   -0.0724 H   0  0  0  0  0  0  0  0  0  0  0  0
    7.8074    7.3403   -3.7445 H   0  0  0  0  0  0  0  0  0  0  0  0
    7.6840    6.2677   -3.8867 C   0  0  0  0  0  0  0  0  0  0  0  0
    8.4920    5.8840   -4.5075 H   0  0  0  0  0  0  0  0  0  0  0  0
    6.7259    6.0702   -4.3637 H   0  0  0  0  0  0  0  0  0  0  0  0
    7.7217    5.5868   -2.5386 C   0  0  0  0  0  0  0  0  0  0  0  0
    7.8606    6.2458   -1.5170 O   0  0  0  0  0  0  0  0  0  0  0  0
    7.5889    4.2632   -2.5382 N   0  0  0  0  0  0  0  0  0  0  0  0
    7.4883    3.7833   -3.4209 H   0  0  0  0  0  0  0  0  0  0  0  0
    7.5937    3.4291   -1.3364 C   0  0  1  0  0  0  0  0  0  0  0  0
    8.3116    3.8374   -0.6228 H   0  0  0  0  0  0  0  0  0  0  0  0
    6.1956    3.4954   -0.7058 C   0  0  0  0  0  0  0  0  0  0  0  0
    5.9806    4.5437   -0.4934 H   0  0  0  0  0  0  0  0  0  0  0  0
    5.4620    3.1590   -1.4387 H   0  0  0  0  0  0  0  0  0  0  0  0
    5.9308    2.5807    0.8369 S   0  0  0  0  0  0  0  0  0  0  0  0
    8.0233    1.9918   -1.6800 C   0  0  0  0  0  0  0  0  0  0  0  0
    7.7689    1.5232   -2.7904 O   0  0  0  0  0  0  0  0  0  0  0  0
    8.6772    1.3015   -0.7370 N   0  0  0  0  0  0  0  0  0  0  0  0
    8.8169    1.7441    0.1574 H   0  0  0  0  0  0  0  0  0  0  0  0
    9.1451   -0.0744   -0.9003 C   0  0  0  0  0  0  0  0  0  0  0  0
    8.2972   -0.7596   -0.8510 H   0  0  0  0  0  0  0  0  0  0  0  0
    9.6312   -0.1909   -1.8719 H   0  0  0  0  0  0  0  0  0  0  0  0
    9.8566   -0.3263   -0.1137 H   0  0  0  0  0  0  0  0  0  0  0  0
  5  6  2  0  0  0  0
  5  7  1  0  0  0  0
  2  3  1  0  0  0  0
  2  4  1  0  0  0  0
  2  5  1  0  0  0  0
  1  2  1  0  0  0  0
 15 16  2  0  0  0  0
 15 17  1  0  0  0  0
 14 36  1  0  0  0  0
 11 12  1  0  0  0  0
 11 13  1  0  0  0  0
 11 14  1  0  0  0  0
  9 10  1  0  0  0  0
  9 11  1  0  0  0  0
  9 15  1  0  0  0  0
  7  8  1  0  0  0  0
  7  9  1  0  0  0  0
 19 20  1  0  0  0  0
 19 21  1  0  0  0  0
 19 22  1  0  0  0  0
 17 18  1  0  0  0  0
 17 19  1  0  0  0  0
 27 28  2  0  0  0  0
 27 29  1  0  0  0  0
 24 25  1  0  0  0  0
 24 26  1  0  0  0  0
 24 27  1  0  0  0  0
 23 24  1  0  0  0  0
 37 38  2  0  0  0  0
 37 39  1  0  0  0  0
 33 34  1  0  0  0  0
 33 35  1  0  0  0  0
 33 36  1  0  0  0  0
 31 32  1  0  0  0  0
 31 33  1  0  0  0  0
 31 37  1  0  0  0  0
 29 30  1  0  0  0  0
 29 31  1  0  0  0  0
 41 42  1  0  0  0  0
 41 43  1  0  0  0  0
 41 44  1  0  0  0  0
 39 40  1  0  0  0  0
 39 41  1  0  0  0  0
M  END
$$$$
default_name
  -OEChem-01062215323D

 44 43  0     1  0  0  0  0  0999 V2000
    2.4488   -3.0448    2.0990 H   0  0  0  0  0  0  0  0  0  0  0  0
    2.2788   -2.0018    2.3640 C   0  0  0  0  0  0  0  0  0  0  0  0
    2.9228   -1.7258    3.1960 H   0  0  0  0  0  0  0  0  0  0  0  0
    1.2358   -1.8618    2.6430 H   0  0  0  0  0  0  0  0  0  0  0  0
    2.6018   -1.1318    1.1730 C   0  0  0  0  0  0  0  0  0  0  0  0
    3.0048   -1.6348    0.1320 O   0  0  0  0  0  0  0  0  0  0  0  0
    2.4088    0.1752    1.3190 N   0  0  0  0  0  0  0  0  0  0  0  0
    2.0708    0.5242    2.2050 H   0  0  0  0  0  0  0  0  0  0  0  0
    2.6638    1.1782    0.2840 C   0  0  1  0  0  0  0  0  0  0  0  0
    2.9080    2.1205    0.7773 H   0  0  0  0  0  0  0  0  0  0  0  0
    3.8772    0.7533   -0.5615 C   0  0  0  0  0  0  0  0  0  0  0  0
    3.9564    1.4198   -1.4212 H   0  0  0  0  0  0  0  0  0  0  0  0
    3.6738   -0.2400   -0.9607 H   0  0  0  0  0  0  0  0  0  0  0  0
    5.4975    0.6716    0.2575 S   0  0  0  0  0  0  0  0  0  0  0  0
    1.4117    1.4119   -0.5821 C   0  0  0  0  0  0  0  0  0  0  0  0
    1.2165    0.7380   -1.5935 O   0  0  0  0  0  0  0  0  0  0  0  0
    0.5595    2.3643   -0.1803 N   0  0  0  0  0  0  0  0  0  0  0  0
    0.7795    2.8763    0.6589 H   0  0  0  0  0  0  0  0  0  0  0  0
   -0.6693    2.7067   -0.8935 C   0  0  0  0  0  0  0  0  0  0  0  0
   -0.4237    3.0757   -1.8916 H   0  0  0  0  0  0  0  0  0  0  0  0
   -1.2955    1.8188   -0.9978 H   0  0  0  0  0  0  0  0  0  0  0  0
   -1.2212    3.4751   -0.3507 H   0  0  0  0  0  0  0  0  0  0  0  0
    7.8074    7.3403   -3.7445 H   0  0  0  0  0  0  0  0  0  0  0  0
    7.6840    6.2677   -3.8867 C   0  0  0  0  0  0  0  0  0  0  0  0
    8.4920    5.8840   -4.5075 H   0  0  0  0  0  0  0  0  0  0  0  0
    6.7259    6.0702   -4.3637 H   0  0  0  0  0  0  0  0  0  0  0  0
    7.7217    5.5868   -2.5386 C   0  0  0  0  0  0  0  0  0  0  0  0
    7.8606    6.2458   -1.5170 O   0  0  0  0  0  0  0  0  0  0  0  0
    7.5889    4.2632   -2.5382 N   0  0  0  0  0  0  0  0  0  0  0  0
    7.4883    3.7833   -3.4209 H   0  0  0  0  0  0  0  0  0  0  0  0
    7.5937    3.4291   -1.3364 C   0  0  1  0  0  0  0  0  0  0  0  0
    8.3116    3.8374   -0.6228 H   0  0  0  0  0  0  0  0  0  0  0  0
    6.1956    3.4954   -0.7058 C   0  0  0  0  0  0  0  0  0  0  0  0
    5.9806    4.5437   -0.4934 H   0  0  0  0  0  0  0  0  0  0  0  0
    5.4620    3.1590   -1.4387 H   0  0  0  0  0  0  0  0  0  0  0  0
    5.9308    2.5807    0.8369 S   0  0  0  0  0  0  0  0  0  0  0  0
    8.0233    1.9918   -1.6800 C   0  0  0  0  0  0  0  0  0  0  0  0
    7.7689    1.5232   -2.7904 O   0  0  0  0  0  0  0  0  0  0  0  0
    8.6772    1.3015   -0.7370 N   0  0  0  0  0  0  0  0  0  0  0  0
    8.8169    1.7441    0.1574 H   0  0  0  0  0  0  0  0  0  0  0  0
    9.1451   -0.0744   -0.9003 C   0  0  0  0  0  0  0  0  0  0  0  0
    8.2972   -0.7596   -0.8510 H   0  0  0  0  0  0  0  0  0  0  0  0
    9.6312   -0.1909   -1.8719 H   0  0  0  0  0  0  0  0  0  0  0  0
    9.8566   -0.3263   -0.1137 H   0  0  0  0  0  0  0  0  0  0  0  0
  5  6  2  0  0  0  0
  5  7  1  0  0  0  0
  2  3  1  0  0  0  0
  2  4  1  0  0  0  0
  2  5  1  0  0  0  0
  1  2  1  0  0  0  0
 15 16  2  0  0  0  0
 15 17  1  0  0  0  0
 14 36  1  0  0  0  0
 11 12  1  0  0  0  0
 11 13  1  0  0  0  0
 11 14  1  0  0  0  0
  9 10  1  0  0  0  0
  9 11  1  0  0  0  0
  9 15  1  0  0  0  0
  7  8  1  0  0  0  0
  7  9  1  0  0  0  0
 19 20  1  0  0  0  0
 19 21  1  0  0  0  0
 19 22  1  0  0  0  0
 17 18  1  0  0  0  0
 17 19  1  0  0  0  0
 27 28  2  0  0  0  0
 27 29  1  0  0  0  0
 24 25  1  0  0  0  0
 24 26  1  0  0  0  0
 24 27  1  0  0  0  0
 23 24  1  0  0  0  0
 37 38  2  0  0  0  0
 37 39  1  0  0  0  0
 33 34  1  0  0  0  0
 33 35  1  0  0  0  0
 33 36  1  0  0  0  0
 31 32  1  0  0  0  0
 31 33  1  0  0  0  0
 31 37  1  0  0  0  0
 29 30  1  0  0  0  0
 29 31  1  0  0  0  0
 41 42  1  0  0  0  0
 41 43  1  0  0  0  0
 41 44  1  0  0  0  0
 39 40  1  0  0  0  0
 39 41  1  0  0  0  0
M  END
$$$$
default_name
  -OEChem-01062215323D

 44 43  0     1  0  0  0  0  0999 V2000
    2.4488   -3.0448    2.0990 H   0  0  0  0  0  0  0  0  0  0  0  0
    2.2788   -2.0018    2.3640 C   0  0  0  0  0  0  0  0  0  0  0  0
    2.9228   -1.7258    3.1960 H   0  0  0  0  0  0  0  0  0  0  0  0
    1.2358   -1.8618    2.6430 H   0  0  0  0  0  0  0  0  0  0  0  0
    2.6018   -1.1318    1.1730 C   0  0  0  0  0  0  0  0  0  0  0  0
    3.0048   -1.6348    0.1320 O   0  0  0  0  0  0  0  0  0  0  0  0
    2.4088    0.1752    1.3190 N   0  0  0  0  0  0  0  0  0  0  0  0
    2.0708    0.5242    2.2050 H   0  0  0  0  0  0  0  0  0  0  0  0
    2.6638    1.1782    0.2840 C   0  0  1  0  0  0  0  0  0  0  0  0
    2.9080    2.1205    0.7773 H   0  0  0  0  0  0  0  0  0  0  0  0
    3.8772    0.7533   -0.5615 C   0  0  0  0  0  0  0  0  0  0  0  0
    3.9564    1.4198   -1.4212 H   0  0  0  0  0  0  0  0  0  0  0  0
    3.6738   -0.2400   -0.9607 H   0  0  0  0  0  0  0  0  0  0  0  0
    5.4975    0.6716    0.2575 S   0  0  0  0  0  0  0  0  0  0  0  0
    1.4117    1.4119   -0.5821 C   0  0  0  0  0  0  0  0  0  0  0  0
    1.0681    0.5798   -1.4215 O   0  0  0  0  0  0  0  0  0  0  0  0
    0.7260    2.5436   -0.3726 N   0  0  0  0  0  0  0  0  0  0  0  0
    1.0618    3.1797    0.3326 H   0  0  0  0  0  0  0  0  0  0  0  0
   -0.4793    2.9105   -1.1131 C   0  0  0  0  0  0  0  0  0  0  0  0
   -0.2392    3.0234   -2.1724 H   0  0  0  0  0  0  0  0  0  0  0  0
   -1.2295    2.1243   -1.0107 H   0  0  0  0  0  0  0  0  0  0  0  0
   -0.8865    3.8486   -0.7338 H   0  0  0  0  0  0  0  0  0  0  0  0
    7.8074    7.3403   -3.7445 H   0  0  0  0  0  0  0  0  0  0  0  0
    7.6840    6.2677   -3.8867 C   0  0  0  0  0  0  0  0  0  0  0  0
    8.4920    5.8840   -4.5075 H   0  0  0  0  0  0  0  0  0  0  0  0
    6.7259    6.0702   -4.3637 H   0  0  0  0  0  0  0  0  0  0  0  0
    7.7217    5.5868   -2.5386 C   0  0  0  0  0  0  0  0  0  0  0  0
    7.8606    6.2458   -1.5170 O   0  0  0  0  0  0  0  0  0  0  0  0
    7.5889    4.2632   -2.5382 N   0  0  0  0  0  0  0  0  0  0  0  0
    7.4883    3.7833   -3.4209 H   0  0  0  0  0  0  0  0  0  0  0  0
    7.5937    3.4291   -1.3364 C   0  0  1  0  0  0  0  0  0  0  0  0
    8.3116    3.8374   -0.6228 H   0  0  0  0  0  0  0  0  0  0  0  0
    6.1956    3.4954   -0.7058 C   0  0  0  0  0  0  0  0  0  0  0  0
    5.9806    4.5437   -0.4934 H   0  0  0  0  0  0  0  0  0  0  0  0
    5.4620    3.1590   -1.4387 H   0  0  0  0  0  0  0  0  0  0  0  0
    5.9308    2.5807    0.8369 S   0  0  0  0  0  0  0  0  0  0  0  0
    8.0233    1.9918   -1.6800 C   0  0  0  0  0  0  0  0  0  0  0  0
    7.7689    1.5232   -2.7904 O   0  0  0  0  0  0  0  0  0  0  0  0
    8.6772    1.3015   -0.7370 N   0  0  0  0  0  0  0  0  0  0  0  0
    8.8169    1.7441    0.1574 H   0  0  0  0  0  0  0  0  0  0  0  0
    9.1451   -0.0744   -0.9003 C   0  0  0  0  0  0  0  0  0  0  0  0
    8.2972   -0.7596   -0.8510 H   0  0  0  0  0  0  0  0  0  0  0  0
    9.6312   -0.1909   -1.8719 H   0  0  0  0  0  0  0  0  0  0  0  0
    9.8566   -0.3263   -0.1137 H   0  0  0  0  0  0  0  0  0  0  0  0
  5  6  2  0  0  0  0
  5  7  1  0  0  0  0
  2  3  1  0  0  0  0
  2  4  1  0  0  0  0
  2  5  1  0  0  0  0
  1  2  1  0  0  0  0
 15 16  2  0  0  0  0
 15 17  1  0  0  0  0
 14 36  1  0  0  0  0
 11 12  1  0  0  0  0
 11 13  1  0  0  0  0
 11 14  1  0  0  0  0
  9 10  1  0  0  0  0
  9 11  1  0  0  0  0
  9 15  1  0  0  0  0
  7  8  1  0  0  0  0
  7  9  1  0  0  0  0
 19 20  1  0  0  0  0
 19 21  1  0  0  0  0
 19 22  1  0  0  0  0
 17 18  1  0  0  0  0
 17 19  1  0  0  0  0
 27 28  2  0  0  0  0
 27 29  1  0  0  0  0
 24 25  1  0  0  0  0
 24 26  1  0  0  0  0
 24 27  1  0  0  0  0
 23 24  1  0  0  0  0
 37 38  2  0  0  0  0
 37 39  1  0  0  0  0
 33 34  1  0  0  0  0
 33 35  1  0  0  0  0
 33 36  1  0  0  0  0
 31 32  1  0  0  0  0
 31 33  1  0  0  0  0
 31 37  1  0  0  0  0
 29 30  1  0  0  0  0
 29 31  1  0  0  0  0
 41 42  1  0  0  0  0
 41 43  1  0  0  0  0
 41 44  1  0  0  0  0
 39 40  1  0  0  0  0
 39 41  1  0  0  0  0
M  END
$$$$
default_name
  -OEChem-01062215323D

 44 43  0     1  0  0  0  0  0999 V2000
    2.4488   -3.0448    2.0990 H   0  0  0  0  0  0  0  0  0  0  0  0
    2.2788   -2.0018    2.3640 C   0  0  0  0  0  0  0  0  0  0  0  0
    2.9228   -1.7258    3.1960 H   0  0  0  0  0  0  0  0  0  0  0  0
    1.2358   -1.8618    2.6430 H   0  0  0  0  0  0  0  0  0  0  0  0
    2.6018   -1.1318    1.1730 C   0  0  0  0  0  0  0  0  0  0  0  0
    3.0048   -1.6348    0.1320 O   0  0  0  0  0  0  0  0  0  0  0  0
    2.4088    0.1752    1.3190 N   0  0  0  0  0  0  0  0  0  0  0  0
    2.0708    0.5242    2.2050 H   0  0  0  0  0  0  0  0  0  0  0  0
    2.6638    1.1782    0.2840 C   0  0  1  0  0  0  0  0  0  0  0  0
    2.9080    2.1205    0.7773 H   0  0  0  0  0  0  0  0  0  0  0  0
    3.8772    0.7533   -0.5615 C   0  0  0  0  0  0  0  0  0  0  0  0
    3.9564    1.4198   -1.4212 H   0  0  0  0  0  0  0  0  0  0  0  0
    3.6738   -0.2400   -0.9607 H   0  0  0  0  0  0  0  0  0  0  0  0
    5.4975    0.6716    0.2575 S   0  0  0  0  0  0  0  0  0  0  0  0
    1.4117    1.4119   -0.5821 C   0  0  0  0  0  0  0  0  0  0  0  0
    0.9084    0.4848   -1.2163 O   0  0  0  0  0  0  0  0  0  0  0  0
    0.9054    2.6521   -0.6026 N   0  0  0  0  0  0  0  0  0  0  0  0
    1.3658    3.3631   -0.0575 H   0  0  0  0  0  0  0  0  0  0  0  0
   -0.2748    3.0336   -1.3756 C   0  0  0  0  0  0  0  0  0  0  0  0
   -0.0796    2.8870   -2.4400 H   0  0  0  0  0  0  0  0  0  0  0  0
   -1.1219    2.4072   -1.0901 H   0  0  0  0  0  0  0  0  0  0  0  0
   -0.5239    4.0802   -1.1955 H   0  0  0  0  0  0  0  0  0  0  0  0
    7.8074    7.3403   -3.7445 H   0  0  0  0  0  0  0  0  0  0  0  0
    7.6840    6.2677   -3.8867 C   0  0  0  0  0  0  0  0  0  0  0  0
    8.4920    5.8840   -4.5075 H   0  0  0  0  0  0  0  0  0  0  0  0
    6.7259    6.0702   -4.3637 H   0  0  0  0  0  0  0  0  0  0  0  0
    7.7217    5.5868   -2.5386 C   0  0  0  0  0  0  0  0  0  0  0  0
    7.8606    6.2458   -1.5170 O   0  0  0  0  0  0  0  0  0  0  0  0
    7.5889    4.2632   -2.5382 N   0  0  0  0  0  0  0  0  0  0  0  0
    7.4883    3.7833   -3.4209 H   0  0  0  0  0  0  0  0  0  0  0  0
    7.5937    3.4291   -1.3364 C   0  0  1  0  0  0  0  0  0  0  0  0
    8.3116    3.8374   -0.6228 H   0  0  0  0  0  0  0  0  0  0  0  0
    6.1956    3.4954   -0.7058 C   0  0  0  0  0  0  0  0  0  0  0  0
    5.9806    4.5437   -0.4934 H   0  0  0  0  0  0  0  0  0  0  0  0
    5.4620    3.1590   -1.4387 H   0  0  0  0  0  0  0  0  0  0  0  0
    5.9308    2.5807    0.8369 S   0  0  0  0  0  0  0  0  0  0  0  0
    8.0233    1.9918   -1.6800 C   0  0  0  0  0  0  0  0  0  0  0  0
    7.7689    1.5232   -2.7904 O   0  0  0  0  0  0  0  0  0  0  0  0
    8.6772    1.3015   -0.7370 N   0  0  0  0  0  0  0  0  0  0  0  0
    8.8169    1.7441    0.1574 H   0  0  0  0  0  0  0  0  0  0  0  0
    9.1451   -0.0744   -0.9003 C   0  0  0  0  0  0  0  0  0  0  0  0
    8.2972   -0.7596   -0.8510 H   0  0  0  0  0  0  0  0  0  0  0  0
    9.6312   -0.1909   -1.8719 H   0  0  0  0  0  0  0  0  0  0  0  0
    9.8566   -0.3263   -0.1137 H   0  0  0  0  0  0  0  0  0  0  0  0
  5  6  2  0  0  0  0
  5  7  1  0  0  0  0
  2  3  1  0  0  0  0
  2  4  1  0  0  0  0
  2  5  1  0  0  0  0
  1  2  1  0  0  0  0
 15 16  2  0  0  0  0
 15 17  1  0  0  0  0
 14 36  1  0  0  0  0
 11 12  1  0  0  0  0
 11 13  1  0  0  0  0
 11 14  1  0  0  0  0
  9 10  1  0  0  0  0
  9 11  1  0  0  0  0
  9 15  1  0  0  0  0
  7  8  1  0  0  0  0
  7  9  1  0  0  0  0
 19 20  1  0  0  0  0
 19 21  1  0  0  0  0
 19 22  1  0  0  0  0
 17 18  1  0  0  0  0
 17 19  1  0  0  0  0
 27 28  2  0  0  0  0
 27 29  1  0  0  0  0
 24 25  1  0  0  0  0
 24 26  1  0  0  0  0
 24 27  1  0  0  0  0
 23 24  1  0  0  0  0
 37 38  2  0  0  0  0
 37 39  1  0  0  0  0
 33 34  1  0  0  0  0
 33 35  1  0  0  0  0
 33 36  1  0  0  0  0
 31 32  1  0  0  0  0
 31 33  1  0  0  0  0
 31 37  1  0  0  0  0
 29 30  1  0  0  0  0
 29 31  1  0  0  0  0
 41 42  1  0  0  0  0
 41 43  1  0  0  0  0
 41 44  1  0  0  0  0
 39 40  1  0  0  0  0
 39 41  1  0  0  0  0
M  END
$$$$
default_name
  -OEChem-01062215323D

 44 43  0     1  0  0  0  0  0999 V2000
    2.4488   -3.0448    2.0990 H   0  0  0  0  0  0  0  0  0  0  0  0
    2.2788   -2.0018    2.3640 C   0  0  0  0  0  0  0  0  0  0  0  0
    2.9228   -1.7258    3.1960 H   0  0  0  0  0  0  0  0  0  0  0  0
    1.2358   -1.8618    2.6430 H   0  0  0  0  0  0  0  0  0  0  0  0
    2.6018   -1.1318    1.1730 C   0  0  0  0  0  0  0  0  0  0  0  0
    3.0048   -1.6348    0.1320 O   0  0  0  0  0  0  0  0  0  0  0  0
    2.4088    0.1752    1.3190 N   0  0  0  0  0  0  0  0  0  0  0  0
    2.0708    0.5242    2.2050 H   0  0  0  0  0  0  0  0  0  0  0  0
    2.6638    1.1782    0.2840 C   0  0  1  0  0  0  0  0  0  0  0  0
    2.9080    2.1205    0.7773 H   0  0  0  0  0  0  0  0  0  0  0  0
    3.8772    0.7533   -0.5615 C   0  0  0  0  0  0  0  0  0  0  0  0
    3.9564    1.4198   -1.4212 H   0  0  0  0  0  0  0  0  0  0  0  0
    3.6738   -0.2400   -0.9607 H   0  0  0  0  0  0  0  0  0  0  0  0
    5.4975    0.6716    0.2575 S   0  0  0  0  0  0  0  0  0  0  0  0
    1.4117    1.4119   -0.5821 C   0  0  0  0  0  0  0  0  0  0  0  0
    0.7484    0.4594   -0.9919 O   0  0  0  0  0  0  0  0  0  0  0  0
    1.0854    2.6823   -0.8547 N   0  0  0  0  0  0  0  0  0  0  0  0
    1.6709    3.4138   -0.4848 H   0  0  0  0  0  0  0  0  0  0  0  0
   -0.0696    3.0675   -1.6630 C   0  0  0  0  0  0  0  0  0  0  0  0
    0.0442    2.6757   -2.6760 H   0  0  0  0  0  0  0  0  0  0  0  0
   -0.9798    2.6480   -1.2305 H   0  0  0  0  0  0  0  0  0  0  0  0
   -0.1581    4.1539   -1.7045 H   0  0  0  0  0  0  0  0  0  0  0  0
    7.8074    7.3403   -3.7445 H   0  0  0  0  0  0  0  0  0  0  0  0
    7.6840    6.2677   -3.8867 C   0  0  0  0  0  0  0  0  0  0  0  0
    8.4920    5.8840   -4.5075 H   0  0  0  0  0  0  0  0  0  0  0  0
    6.7259    6.0702   -4.3637 H   0  0  0  0  0  0  0  0  0  0  0  0
    7.7217    5.5868   -2.5386 C   0  0  0  0  0  0  0  0  0  0  0  0
    7.8606    6.2458   -1.5170 O   0  0  0  0  0  0  0  0  0  0  0  0
    7.5889    4.2632   -2.5382 N   0  0  0  0  0  0  0  0  0  0  0  0
    7.4883    3.7833   -3.4209 H   0  0  0  0  0  0  0  0  0  0  0  0
    7.5937    3.4291   -1.3364 C   0  0  1  0  0  0  0  0  0  0  0  0
    8.3116    3.8374   -0.6228 H   0  0  0  0  0  0  0  0  0  0  0  0
    6.1956    3.4954   -0.7058 C   0  0  0  0  0  0  0  0  0  0  0  0
    5.9806    4.5437   -0.4934 H   0  0  0  0  0  0  0  0  0  0  0  0
    5.4620    3.1590   -1.4387 H   0  0  0  0  0  0  0  0  0  0  0  0
    5.9308    2.5807    0.8369 S   0  0  0  0  0  0  0  0  0  0  0  0
    8.0233    1.9918   -1.6800 C   0  0  0  0  0  0  0  0  0  0  0  0
    7.7689    1.5232   -2.7904 O   0  0  0  0  0  0  0  0  0  0  0  0
    8.6772    1.3015   -0.7370 N   0  0  0  0  0  0  0  0  0  0  0  0
    8.8169    1.7441    0.1574 H   0  0  0  0  0  0  0  0  0  0  0  0
    9.1451   -0.0744   -0.9003 C   0  0  0  0  0  0  0  0  0  0  0  0
    8.2972   -0.7596   -0.8510 H   0  0  0  0  0  0  0  0  0  0  0  0
    9.6312   -0.1909   -1.8719 H   0  0  0  0  0  0  0  0  0  0  0  0
    9.8566   -0.3263   -0.1137 H   0  0  0  0  0  0  0  0  0  0  0  0
  5  6  2  0  0  0  0
  5  7  1  0  0  0  0
  2  3  1  0  0  0  0
  2  4  1  0  0  0  0
  2  5  1  0  0  0  0
  1  2  1  0  0  0  0
 15 16  2  0  0  0  0
 15 17  1  0  0  0  0
 14 36  1  0  0  0  0
 11 12  1  0  0  0  0
 11 13  1  0  0  0  0
 11 14  1  0  0  0  0
  9 10  1  0  0  0  0
  9 11  1  0  0  0  0
  9 15  1  0  0  0  0
  7  8  1  0  0  0  0
  7  9  1  0  0  0  0
 19 20  1  0  0  0  0
 19 21  1  0  0  0  0
 19 22  1  0  0  0  0
 17 18  1  0  0  0  0
 17 19  1  0  0  0  0
 27 28  2  0  0  0  0
 27 29  1  0  0  0  0
 24 25  1  0  0  0  0
 24 26  1  0  0  0  0
 24 27  1  0  0  0  0
 23 24  1  0  0  0  0
 37 38  2  0  0  0  0
 37 39  1  0  0  0  0
 33 34  1  0  0  0  0
 33 35  1  0  0  0  0
 33 36  1  0  0  0  0
 31 32  1  0  0  0  0
 31 33  1  0  0  0  0
 31 37  1  0  0  0  0
 29 30  1  0  0  0  0
 29 31  1  0  0  0  0
 41 42  1  0  0  0  0
 41 43  1  0  0  0  0
 41 44  1  0  0  0  0
 39 40  1  0  0  0  0
 39 41  1  0  0  0  0
M  END
$$$$
default_name
  -OEChem-01062215323D

 44 43  0     1  0  0  0  0  0999 V2000
    2.4488   -3.0448    2.0990 H   0  0  0  0  0  0  0  0  0  0  0  0
    2.2788   -2.0018    2.3640 C   0  0  0  0  0  0  0  0  0  0  0  0
    2.9228   -1.7258    3.1960 H   0  0  0  0  0  0  0  0  0  0  0  0
    1.2358   -1.8618    2.6430 H   0  0  0  0  0  0  0  0  0  0  0  0
    2.6018   -1.1318    1.1730 C   0  0  0  0  0  0  0  0  0  0  0  0
    3.0048   -1.6348    0.1320 O   0  0  0  0  0  0  0  0  0  0  0  0
    2.4088    0.1752    1.3190 N   0  0  0  0  0  0  0  0  0  0  0  0
    2.0708    0.5242    2.2050 H   0  0  0  0  0  0  0  0  0  0  0  0
    2.6638    1.1782    0.2840 C   0  0  1  0  0  0  0  0  0  0  0  0
    2.9080    2.1205    0.7773 H   0  0  0  0  0  0  0  0  0  0  0  0
    3.8772    0.7533   -0.5615 C   0  0  0  0  0  0  0  0  0  0  0  0
    3.9564    1.4198   -1.4212 H   0  0  0  0  0  0  0  0  0  0  0  0
    3.6738   -0.2400   -0.9607 H   0  0  0  0  0  0  0  0  0  0  0  0
    5.4975    0.6716    0.2575 S   0  0  0  0  0  0  0  0  0  0  0  0
    1.4117    1.4119   -0.5821 C   0  0  0  0  0  0  0  0  0  0  0  0
    0.5990    0.5054   -0.7634 O   0  0  0  0  0  0  0  0  0  0  0  0
    1.2537    2.6324   -1.1116 N   0  0  0  0  0  0  0  0  0  0  0  0
    1.9561    3.3286   -0.9203 H   0  0  0  0  0  0  0  0  0  0  0  0
    0.1222    3.0099   -1.9559 C   0  0  0  0  0  0  0  0  0  0  0  0
    0.1237    2.4039   -2.8644 H   0  0  0  0  0  0  0  0  0  0  0  0
   -0.8130    2.8304   -1.4223 H   0  0  0  0  0  0  0  0  0  0  0  0
    0.1860    4.0648   -2.2260 H   0  0  0  0  0  0  0  0  0  0  0  0
    7.8074    7.3403   -3.7445 H   0  0  0  0  0  0  0  0  0  0  0  0
    7.6840    6.2677   -3.8867 C   0  0  0  0  0  0  0  0  0  0  0  0
    8.4920    5.8840   -4.5075 H   0  0  0  0  0  0  0  0  0  0  0  0
    6.7259    6.0702   -4.3637 H   0  0  0  0  0  0  0  0  0  0  0  0
    7.7217    5.5868   -2.5386 C   0  0  0  0  0  0  0  0  0  0  0  0
    7.8606    6.2458   -1.5170 O   0  0  0  0  0  0  0  0  0  0  0  0
    7.5889    4.2632   -2.5382 N   0  0  0  0  0  0  0  0  0  0  0  0
    7.4883    3.7833   -3.4209 H   0  0  0  0  0  0  0  0  0  0  0  0
    7.5937    3.4291   -1.3364 C   0  0  1  0  0  0  0  0  0  0  0  0
    8.3116    3.8374   -0.6228 H   0  0  0  0  0  0  0  0  0  0  0  0
    6.1956    3.4954   -0.7058 C   0  0  0  0  0  0  0  0  0  0  0  0
    5.9806    4.5437   -0.4934 H   0  0  0  0  0  0  0  0  0  0  0  0
    5.4620    3.1590   -1.4387 H   0  0  0  0  0  0  0  0  0  0  0  0
    5.9308    2.5807    0.8369 S   0  0  0  0  0  0  0  0  0  0  0  0
    8.0233    1.9918   -1.6800 C   0  0  0  0  0  0  0  0  0  0  0  0
    7.7689    1.5232   -2.7904 O   0  0  0  0  0  0  0  0  0  0  0  0
    8.6772    1.3015   -0.7370 N   0  0  0  0  0  0  0  0  0  0  0  0
    8.8169    1.7441    0.1574 H   0  0  0  0  0  0  0  0  0  0  0  0
    9.1451   -0.0744   -0.9003 C   0  0  0  0  0  0  0  0  0  0  0  0
    8.2972   -0.7596   -0.8510 H   0  0  0  0  0  0  0  0  0  0  0  0
    9.6312   -0.1909   -1.8719 H   0  0  0  0  0  0  0  0  0  0  0  0
    9.8566   -0.3263   -0.1137 H   0  0  0  0  0  0  0  0  0  0  0  0
  5  6  2  0  0  0  0
  5  7  1  0  0  0  0
  2  3  1  0  0  0  0
  2  4  1  0  0  0  0
  2  5  1  0  0  0  0
  1  2  1  0  0  0  0
 15 16  2  0  0  0  0
 15 17  1  0  0  0  0
 14 36  1  0  0  0  0
 11 12  1  0  0  0  0
 11 13  1  0  0  0  0
 11 14  1  0  0  0  0
  9 10  1  0  0  0  0
  9 11  1  0  0  0  0
  9 15  1  0  0  0  0
  7  8  1  0  0  0  0
  7  9  1  0  0  0  0
 19 20  1  0  0  0  0
 19 21  1  0  0  0  0
 19 22  1  0  0  0  0
 17 18  1  0  0  0  0
 17 19  1  0  0  0  0
 27 28  2  0  0  0  0
 27 29  1  0  0  0  0
 24 25  1  0  0  0  0
 24 26  1  0  0  0  0
 24 27  1  0  0  0  0
 23 24  1  0  0  0  0
 37 38  2  0  0  0  0
 37 39  1  0  0  0  0
 33 34  1  0  0  0  0
 33 35  1  0  0  0  0
 33 36  1  0  0  0  0
 31 32  1  0  0  0  0
 31 33  1  0  0  0  0
 31 37  1  0  0  0  0
 29 30  1  0  0  0  0
 29 31  1  0  0  0  0
 41 42  1  0  0  0  0
 41 43  1  0  0  0  0
 41 44  1  0  0  0  0
 39 40  1  0  0  0  0
 39 41  1  0  0  0  0
M  END
$$$$
default_name
  -OEChem-01062215323D

 44 43  0     1  0  0  0  0  0999 V2000
    2.4488   -3.0448    2.0990 H   0  0  0  0  0  0  0  0  0  0  0  0
    2.2788   -2.0018    2.3640 C   0  0  0  0  0  0  0  0  0  0  0  0
    2.9228   -1.7258    3.1960 H   0  0  0  0  0  0  0  0  0  0  0  0
    1.2358   -1.8618    2.6430 H   0  0  0  0  0  0  0  0  0  0  0  0
    2.6018   -1.1318    1.1730 C   0  0  0  0  0  0  0  0  0  0  0  0
    3.0048   -1.6348    0.1320 O   0  0  0  0  0  0  0  0  0  0  0  0
    2.4088    0.1752    1.3190 N   0  0  0  0  0  0  0  0  0  0  0  0
    2.0708    0.5242    2.2050 H   0  0  0  0  0  0  0  0  0  0  0  0
    2.6638    1.1782    0.2840 C   0  0  1  0  0  0  0  0  0  0  0  0
    2.9080    2.1205    0.7773 H   0  0  0  0  0  0  0  0  0  0  0  0
    3.8772    0.7533   -0.5615 C   0  0  0  0  0  0  0  0  0  0  0  0
    3.9564    1.4198   -1.4212 H   0  0  0  0  0  0  0  0  0  0  0  0
    3.6738   -0.2400   -0.9607 H   0  0  0  0  0  0  0  0  0  0  0  0
    5.4975    0.6716    0.2575 S   0  0  0  0  0  0  0  0  0  0  0  0
    1.4117    1.4119   -0.5821 C   0  0  0  0  0  0  0  0  0  0  0  0
    0.4703    0.6197   -0.5466 O   0  0  0  0  0  0  0  0  0  0  0  0
    1.3990    2.5055   -1.3558 N   0  0  0  0  0  0  0  0  0  0  0  0
    2.2022    3.1131   -1.3341 H   0  0  0  0  0  0  0  0  0  0  0  0
    0.2876    2.8648   -2.2341 C   0  0  0  0  0  0  0  0  0  0  0  0
    0.1536    2.0902   -2.9922 H   0  0  0  0  0  0  0  0  0  0  0  0
   -0.6329    2.9419   -1.6526 H   0  0  0  0  0  0  0  0  0  0  0  0
    0.4849    3.8189   -2.7245 H   0  0  0  0  0  0  0  0  0  0  0  0
    7.8074    7.3403   -3.7445 H   0  0  0  0  0  0  0  0  0  0  0  0
    7.6840    6.2677   -3.8867 C   0  0  0  0  0  0  0  0  0  0  0  0
    8.4920    5.8840   -4.5075 H   0  0  0  0  0  0  0  0  0  0  0  0
    6.7259    6.0702   -4.3637 H   0  0  0  0  0  0  0  0  0  0  0  0
    7.7217    5.5868   -2.5386 C   0  0  0  0  0  0  0  0  0  0  0  0
    7.8606    6.2458   -1.5170 O   0  0  0  0  0  0  0  0  0  0  0  0
    7.5889    4.2632   -2.5382 N   0  0  0  0  0  0  0  0  0  0  0  0
    7.4883    3.7833   -3.4209 H   0  0  0  0  0  0  0  0  0  0  0  0
    7.5937    3.4291   -1.3364 C   0  0  1  0  0  0  0  0  0  0  0  0
    8.3116    3.8374   -0.6228 H   0  0  0  0  0  0  0  0  0  0  0  0
    6.1956    3.4954   -0.7058 C   0  0  0  0  0  0  0  0  0  0  0  0
    5.9806    4.5437   -0.4934 H   0  0  0  0  0  0  0  0  0  0  0  0
    5.4620    3.1590   -1.4387 H   0  0  0  0  0  0  0  0  0  0  0  0
    5.9308    2.5807    0.8369 S   0  0  0  0  0  0  0  0  0  0  0  0
    8.0233    1.9918   -1.6800 C   0  0  0  0  0  0  0  0  0  0  0  0
    7.7689    1.5232   -2.7904 O   0  0  0  0  0  0  0  0  0  0  0  0
    8.6772    1.3015   -0.7370 N   0  0  0  0  0  0  0  0  0  0  0  0
    8.8169    1.7441    0.1574 H   0  0  0  0  0  0  0  0  0  0  0  0
    9.1451   -0.0744   -0.9003 C   0  0  0  0  0  0  0  0  0  0  0  0
    8.2972   -0.7596   -0.8510 H   0  0  0  0  0  0  0  0  0  0  0  0
    9.6312   -0.1909   -1.8719 H   0  0  0  0  0  0  0  0  0  0  0  0
    9.8566   -0.3263   -0.1137 H   0  0  0  0  0  0  0  0  0  0  0  0
  5  6  2  0  0  0  0
  5  7  1  0  0  0  0
  2  3  1  0  0  0  0
  2  4  1  0  0  0  0
  2  5  1  0  0  0  0
  1  2  1  0  0  0  0
 15 16  2  0  0  0  0
 15 17  1  0  0  0  0
 14 36  1  0  0  0  0
 11 12  1  0  0  0  0
 11 13  1  0  0  0  0
 11 14  1  0  0  0  0
  9 10  1  0  0  0  0
  9 11  1  0  0  0  0
  9 15  1  0  0  0  0
  7  8  1  0  0  0  0
  7  9  1  0  0  0  0
 19 20  1  0  0  0  0
 19 21  1  0  0  0  0
 19 22  1  0  0  0  0
 17 18  1  0  0  0  0
 17 19  1  0  0  0  0
 27 28  2  0  0  0  0
 27 29  1  0  0  0  0
 24 25  1  0  0  0  0
 24 26  1  0  0  0  0
 24 27  1  0  0  0  0
 23 24  1  0  0  0  0
 37 38  2  0  0  0  0
 37 39  1  0  0  0  0
 33 34  1  0  0  0  0
 33 35  1  0  0  0  0
 33 36  1  0  0  0  0
 31 32  1  0  0  0  0
 31 33  1  0  0  0  0
 31 37  1  0  0  0  0
 29 30  1  0  0  0  0
 29 31  1  0  0  0  0
 41 42  1  0  0  0  0
 41 43  1  0  0  0  0
 41 44  1  0  0  0  0
 39 40  1  0  0  0  0
 39 41  1  0  0  0  0
M  END
$$$$
default_name
  -OEChem-01062215323D

 44 43  0     1  0  0  0  0  0999 V2000
    2.4488   -3.0448    2.0990 H   0  0  0  0  0  0  0  0  0  0  0  0
    2.2788   -2.0018    2.3640 C   0  0  0  0  0  0  0  0  0  0  0  0
    2.9228   -1.7258    3.1960 H   0  0  0  0  0  0  0  0  0  0  0  0
    1.2358   -1.8618    2.6430 H   0  0  0  0  0  0  0  0  0  0  0  0
    2.6018   -1.1318    1.1730 C   0  0  0  0  0  0  0  0  0  0  0  0
    3.0048   -1.6348    0.1320 O   0  0  0  0  0  0  0  0  0  0  0  0
    2.4088    0.1752    1.3190 N   0  0  0  0  0  0  0  0  0  0  0  0
    2.0708    0.5242    2.2050 H   0  0  0  0  0  0  0  0  0  0  0  0
    2.6638    1.1782    0.2840 C   0  0  1  0  0  0  0  0  0  0  0  0
    3.1616    2.0293    0.7515 H   0  0  0  0  0  0  0  0  0  0  0  0
    3.6112    0.5959   -0.7795 C   0  0  0  0  0  0  0  0  0  0  0  0
    3.6636    1.2892   -1.6199 H   0  0  0  0  0  0  0  0  0  0  0  0
    3.1596   -0.3184   -1.1634 H   0  0  0  0  0  0  0  0  0  0  0  0
    5.3045    0.1752   -0.2710 S   0  0  0  0  0  0  0  0  0  0  0  0
    1.3469    1.6851   -0.3333 C   0  0  0  0  0  0  0  0  0  0  0  0
    0.2643    1.2510    0.0601 O   0  0  0  0  0  0  0  0  0  0  0  0
    1.4400    2.6105   -1.2975 N   0  0  0  0  0  0  0  0  0  0  0  0
    2.3580    2.9238   -1.5693 H   0  0  0  0  0  0  0  0  0  0  0  0
    0.2850    3.1881   -1.9818 C   0  0  0  0  0  0  0  0  0  0  0  0
   -0.2539    2.4040   -2.5179 H   0  0  0  0  0  0  0  0  0  0  0  0
   -0.3918    3.6350   -1.2512 H   0  0  0  0  0  0  0  0  0  0  0  0
    0.6069    3.9529   -2.6896 H   0  0  0  0  0  0  0  0  0  0  0  0
    8.0927    6.5566   -4.4337 H   0  0  0  0  0  0  0  0  0  0  0  0
    7.7481    5.5342   -4.5816 C   0  0  0  0  0  0  0  0  0  0  0  0
    8.3502    5.0512   -5.3496 H   0  0  0  0  0  0  0  0  0  0  0  0
    6.7021    5.5412   -4.8822 H   0  0  0  0  0  0  0  0  0  0  0  0
    7.8907    4.7759   -3.2828 C   0  0  0  0  0  0  0  0  0  0  0  0
    8.3251    5.3352   -2.2851 O   0  0  0  0  0  0  0  0  0  0  0  0
    7.5146    3.4999   -3.2962 N   0  0  0  0  0  0  0  0  0  0  0  0
    7.1747    3.1011   -4.1592 H   0  0  0  0  0  0  0  0  0  0  0  0
    7.5714    2.6060   -2.1395 C   0  0  1  0  0  0  0  0  0  0  0  0
    8.4655    2.8345   -1.5568 H   0  0  0  0  0  0  0  0  0  0  0  0
    6.3411    2.8825   -1.2640 C   0  0  0  0  0  0  0  0  0  0  0  0
    6.3661    3.9372   -0.9861 H   0  0  0  0  0  0  0  0  0  0  0  0
    5.4418    2.7286   -1.8608 H   0  0  0  0  0  0  0  0  0  0  0  0
    6.1810    1.9366    0.2744 S   0  0  0  0  0  0  0  0  0  0  0  0
    7.6584    1.1390   -2.5964 C   0  0  0  0  0  0  0  0  0  0  0  0
    7.1324    0.7928   -3.6551 O   0  0  0  0  0  0  0  0  0  0  0  0
    8.3248    0.2860   -1.8079 N   0  0  0  0  0  0  0  0  0  0  0  0
    8.6976    0.6406   -0.9414 H   0  0  0  0  0  0  0  0  0  0  0  0
    8.4916   -1.1386   -2.0927 C   0  0  0  0  0  0  0  0  0  0  0  0
    7.5520   -1.6628   -1.9099 H   0  0  0  0  0  0  0  0  0  0  0  0
    8.7715   -1.2801   -3.1393 H   0  0  0  0  0  0  0  0  0  0  0  0
    9.2686   -1.5617   -1.4559 H   0  0  0  0  0  0  0  0  0  0  0  0
  5  6  2  0  0  0  0
  5  7  1  0  0  0  0
  2  3  1  0  0  0  0
  2  4  1  0  0  0  0
  2  5  1  0  0  0  0
  1  2  1  0  0  0  0
 15 16  2  0  0  0  0
 15 17  1  0  0  0  0
 14 36  1  0  0  0  0
 11 12  1  0  0  0  0
 11 13  1  0  0  0  0
 11 14  1  0  0  0  0
  9 10  1  0  0  0  0
  9 11  1  0  0  0  0
  9 15  1  0  0  0  0
  7  8  1  0  0  0  0
  7  9  1  0  0  0  0
 19 20  1  0  0  0  0
 19 21  1  0  0  0  0
 19 22  1  0  0  0  0
 17 18  1  0  0  0  0
 17 19  1  0  0  0  0
 27 28  2  0  0  0  0
 27 29  1  0  0  0  0
 24 25  1  0  0  0  0
 24 26  1  0  0  0  0
 24 27  1  0  0  0  0
 23 24  1  0  0  0  0
 37 38  2  0  0  0  0
 37 39  1  0  0  0  0
 33 34  1  0  0  0  0
 33 35  1  0  0  0  0
 33 36  1  0  0  0  0
 31 32  1  0  0  0  0
 31 33  1  0  0  0  0
 31 37  1  0  0  0  0
 29 30  1  0  0  0  0
 29 31  1  0  0  0  0
 41 42  1  0  0  0  0
 41 43  1  0  0  0  0
 41 44  1  0  0  0  0
 39 40  1  0  0  0  0
 39 41  1  0  0  0  0
M  END
$$$$
default_name
  -OEChem-01062215323D

 44 43  0     1  0  0  0  0  0999 V2000
    2.4488   -3.0448    2.0990 H   0  0  0  0  0  0  0  0  0  0  0  0
    2.2788   -2.0018    2.3640 C   0  0  0  0  0  0  0  0  0  0  0  0
    2.9228   -1.7258    3.1960 H   0  0  0  0  0  0  0  0  0  0  0  0
    1.2358   -1.8618    2.6430 H   0  0  0  0  0  0  0  0  0  0  0  0
    2.6018   -1.1318    1.1730 C   0  0  0  0  0  0  0  0  0  0  0  0
    3.0048   -1.6348    0.1320 O   0  0  0  0  0  0  0  0  0  0  0  0
    2.4088    0.1752    1.3190 N   0  0  0  0  0  0  0  0  0  0  0  0
    2.0708    0.5242    2.2050 H   0  0  0  0  0  0  0  0  0  0  0  0
    2.6638    1.1782    0.2840 C   0  0  1  0  0  0  0  0  0  0  0  0
    3.1616    2.0293    0.7515 H   0  0  0  0  0  0  0  0  0  0  0  0
    3.6112    0.5959   -0.7795 C   0  0  0  0  0  0  0  0  0  0  0  0
    3.6636    1.2892   -1.6199 H   0  0  0  0  0  0  0  0  0  0  0  0
    3.1596   -0.3184   -1.1634 H   0  0  0  0  0  0  0  0  0  0  0  0
    5.3045    0.1752   -0.2710 S   0  0  0  0  0  0  0  0  0  0  0  0
    1.3469    1.6851   -0.3333 C   0  0  0  0  0  0  0  0  0  0  0  0
    0.2715    1.4721    0.2264 O   0  0  0  0  0  0  0  0  0  0  0  0
    1.4329    2.3628   -1.4858 N   0  0  0  0  0  0  0  0  0  0  0  0
    2.3456    2.5036   -1.8879 H   0  0  0  0  0  0  0  0  0  0  0  0
    0.2765    2.9054   -2.1959 C   0  0  0  0  0  0  0  0  0  0  0  0
   -0.3832    2.0899   -2.5001 H   0  0  0  0  0  0  0  0  0  0  0  0
   -0.2813    3.5737   -1.5374 H   0  0  0  0  0  0  0  0  0  0  0  0
    0.5990    3.4570   -3.0799 H   0  0  0  0  0  0  0  0  0  0  0  0
    8.0927    6.5566   -4.4337 H   0  0  0  0  0  0  0  0  0  0  0  0
    7.7481    5.5342   -4.5816 C   0  0  0  0  0  0  0  0  0  0  0  0
    8.3502    5.0512   -5.3496 H   0  0  0  0  0  0  0  0  0  0  0  0
    6.7021    5.5412   -4.8822 H   0  0  0  0  0  0  0  0  0  0  0  0
    7.8907    4.7759   -3.2828 C   0  0  0  0  0  0  0  0  0  0  0  0
    8.3251    5.3352   -2.2851 O   0  0  0  0  0  0  0  0  0  0  0  0
    7.5146    3.4999   -3.2962 N   0  0  0  0  0  0  0  0  0  0  0  0
    7.1747    3.1011   -4.1592 H   0  0  0  0  0  0  0  0  0  0  0  0
    7.5714    2.6060   -2.1395 C   0  0  1  0  0  0  0  0  0  0  0  0
    8.4655    2.8345   -1.5568 H   0  0  0  0  0  0  0  0  0  0  0  0
    6.3411    2.8825   -1.2640 C   0  0  0  0  0  0  0  0  0  0  0  0
    6.3661    3.9372   -0.9861 H   0  0  0  0  0  0  0  0  0  0  0  0
    5.4418    2.7286   -1.8608 H   0  0  0  0  0  0  0  0  0  0  0  0
    6.1810    1.9366    0.2744 S   0  0  0  0  0  0  0  0  0  0  0  0
    7.6584    1.1390   -2.5964 C   0  0  0  0  0  0  0  0  0  0  0  0
    7.1324    0.7928   -3.6551 O   0  0  0  0  0  0  0  0  0  0  0  0
    8.3248    0.2860   -1.8079 N   0  0  0  0  0  0  0  0  0  0  0  0
    8.6976    0.6406   -0.9414 H   0  0  0  0  0  0  0  0  0  0  0  0
    8.4916   -1.1386   -2.0927 C   0  0  0  0  0  0  0  0  0  0  0  0
    7.5520   -1.6628   -1.9099 H   0  0  0  0  0  0  0  0  0  0  0  0
    8.7715   -1.2801   -3.1393 H   0  0  0  0  0  0  0  0  0  0  0  0
    9.2686   -1.5617   -1.4559 H   0  0  0  0  0  0  0  0  0  0  0  0
  5  6  2  0  0  0  0
  5  7  1  0  0  0  0
  2  3  1  0  0  0  0
  2  4  1  0  0  0  0
  2  5  1  0  0  0  0
  1  2  1  0  0  0  0
 15 16  2  0  0  0  0
 15 17  1  0  0  0  0
 14 36  1  0  0  0  0
 11 12  1  0  0  0  0
 11 13  1  0  0  0  0
 11 14  1  0  0  0  0
  9 10  1  0  0  0  0
  9 11  1  0  0  0  0
  9 15  1  0  0  0  0
  7  8  1  0  0  0  0
  7  9  1  0  0  0  0
 19 20  1  0  0  0  0
 19 21  1  0  0  0  0
 19 22  1  0  0  0  0
 17 18  1  0  0  0  0
 17 19  1  0  0  0  0
 27 28  2  0  0  0  0
 27 29  1  0  0  0  0
 24 25  1  0  0  0  0
 24 26  1  0  0  0  0
 24 27  1  0  0  0  0
 23 24  1  0  0  0  0
 37 38  2  0  0  0  0
 37 39  1  0  0  0  0
 33 34  1  0  0  0  0
 33 35  1  0  0  0  0
 33 36  1  0  0  0  0
 31 32  1  0  0  0  0
 31 33  1  0  0  0  0
 31 37  1  0  0  0  0
 29 30  1  0  0  0  0
 29 31  1  0  0  0  0
 41 42  1  0  0  0  0
 41 43  1  0  0  0  0
 41 44  1  0  0  0  0
 39 40  1  0  0  0  0
 39 41  1  0  0  0  0
M  END
$$$$
default_name
  -OEChem-01062215323D

 44 43  0     1  0  0  0  0  0999 V2000
    2.4488   -3.0448    2.0990 H   0  0  0  0  0  0  0  0  0  0  0  0
    2.2788   -2.0018    2.3640 C   0  0  0  0  0  0  0  0  0  0  0  0
    2.9228   -1.7258    3.1960 H   0  0  0  0  0  0  0  0  0  0  0  0
    1.2358   -1.8618    2.6430 H   0  0  0  0  0  0  0  0  0  0  0  0
    2.6018   -1.1318    1.1730 C   0  0  0  0  0  0  0  0  0  0  0  0
    3.0048   -1.6348    0.1320 O   0  0  0  0  0  0  0  0  0  0  0  0
    2.4088    0.1752    1.3190 N   0  0  0  0  0  0  0  0  0  0  0  0
    2.0708    0.5242    2.2050 H   0  0  0  0  0  0  0  0  0  0  0  0
    2.6638    1.1782    0.2840 C   0  0  1  0  0  0  0  0  0  0  0  0
    3.1616    2.0293    0.7515 H   0  0  0  0  0  0  0  0  0  0  0  0
    3.6112    0.5959   -0.7795 C   0  0  0  0  0  0  0  0  0  0  0  0
    3.6636    1.2892   -1.6199 H   0  0  0  0  0  0  0  0  0  0  0  0
    3.1596   -0.3184   -1.1634 H   0  0  0  0  0  0  0  0  0  0  0  0
    5.3045    0.1752   -0.2710 S   0  0  0  0  0  0  0  0  0  0  0  0
    1.3469    1.6851   -0.3333 C   0  0  0  0  0  0  0  0  0  0  0  0
    0.3155    1.7218    0.3375 O   0  0  0  0  0  0  0  0  0  0  0  0
    1.3843    2.0826   -1.6121 N   0  0  0  0  0  0  0  0  0  0  0  0
    2.2629    2.0285   -2.1017 H   0  0  0  0  0  0  0  0  0  0  0  0
    0.2208    2.5857   -2.3395 C   0  0  0  0  0  0  0  0  0  0  0  0
   -0.5391    1.8039   -2.4023 H   0  0  0  0  0  0  0  0  0  0  0  0
   -0.2052    3.4398   -1.8097 H   0  0  0  0  0  0  0  0  0  0  0  0
    0.5066    2.8925   -3.3464 H   0  0  0  0  0  0  0  0  0  0  0  0
    8.0927    6.5566   -4.4337 H   0  0  0  0  0  0  0  0  0  0  0  0
    7.7481    5.5342   -4.5816 C   0  0  0  0  0  0  0  0  0  0  0  0
    8.3502    5.0512   -5.3496 H   0  0  0  0  0  0  0  0  0  0  0  0
    6.7021    5.5412   -4.8822 H   0  0  0  0  0  0  0  0  0  0  0  0
    7.8907    4.7759   -3.2828 C   0  0  0  0  0  0  0  0  0  0  0  0
    8.3251    5.3352   -2.2851 O   0  0  0  0  0  0  0  0  0  0  0  0
    7.5146    3.4999   -3.2962 N   0  0  0  0  0  0  0  0  0  0  0  0
    7.1747    3.1011   -4.1592 H   0  0  0  0  0  0  0  0  0  0  0  0
    7.5714    2.6060   -2.1395 C   0  0  1  0  0  0  0  0  0  0  0  0
    8.4655    2.8345   -1.5568 H   0  0  0  0  0  0  0  0  0  0  0  0
    6.3411    2.8825   -1.2640 C   0  0  0  0  0  0  0  0  0  0  0  0
    6.3661    3.9372   -0.9861 H   0  0  0  0  0  0  0  0  0  0  0  0
    5.4418    2.7286   -1.8608 H   0  0  0  0  0  0  0  0  0  0  0  0
    6.1810    1.9366    0.2744 S   0  0  0  0  0  0  0  0  0  0  0  0
    7.6584    1.1390   -2.5964 C   0  0  0  0  0  0  0  0  0  0  0  0
    7.1324    0.7928   -3.6551 O   0  0  0  0  0  0  0  0  0  0  0  0
    8.3248    0.2860   -1.8079 N   0  0  0  0  0  0  0  0  0  0  0  0
    8.6976    0.6406   -0.9414 H   0  0  0  0  0  0  0  0  0  0  0  0
    8.4916   -1.1386   -2.0927 C   0  0  0  0  0  0  0  0  0  0  0  0
    7.5520   -1.6628   -1.9099 H   0  0  0  0  0  0  0  0  0  0  0  0
    8.7715   -1.2801   -3.1393 H   0  0  0  0  0  0  0  0  0  0  0  0
    9.2686   -1.5617   -1.4559 H   0  0  0  0  0  0  0  0  0  0  0  0
  5  6  2  0  0  0  0
  5  7  1  0  0  0  0
  2  3  1  0  0  0  0
  2  4  1  0  0  0  0
  2  5  1  0  0  0  0
  1  2  1  0  0  0  0
 15 16  2  0  0  0  0
 15 17  1  0  0  0  0
 14 36  1  0  0  0  0
 11 12  1  0  0  0  0
 11 13  1  0  0  0  0
 11 14  1  0  0  0  0
  9 10  1  0  0  0  0
  9 11  1  0  0  0  0
  9 15  1  0  0  0  0
  7  8  1  0  0  0  0
  7  9  1  0  0  0  0
 19 20  1  0  0  0  0
 19 21  1  0  0  0  0
 19 22  1  0  0  0  0
 17 18  1  0  0  0  0
 17 19  1  0  0  0  0
 27 28  2  0  0  0  0
 27 29  1  0  0  0  0
 24 25  1  0  0  0  0
 24 26  1  0  0  0  0
 24 27  1  0  0  0  0
 23 24  1  0  0  0  0
 37 38  2  0  0  0  0
 37 39  1  0  0  0  0
 33 34  1  0  0  0  0
 33 35  1  0  0  0  0
 33 36  1  0  0  0  0
 31 32  1  0  0  0  0
 31 33  1  0  0  0  0
 31 37  1  0  0  0  0
 29 30  1  0  0  0  0
 29 31  1  0  0  0  0
 41 42  1  0  0  0  0
 41 43  1  0  0  0  0
 41 44  1  0  0  0  0
 39 40  1  0  0  0  0
 39 41  1  0  0  0  0
M  END
$$$$
default_name
  -OEChem-01062215323D

 44 43  0     1  0  0  0  0  0999 V2000
    2.4488   -3.0448    2.0990 H   0  0  0  0  0  0  0  0  0  0  0  0
    2.2788   -2.0018    2.3640 C   0  0  0  0  0  0  0  0  0  0  0  0
    2.9228   -1.7258    3.1960 H   0  0  0  0  0  0  0  0  0  0  0  0
    1.2358   -1.8618    2.6430 H   0  0  0  0  0  0  0  0  0  0  0  0
    2.6018   -1.1318    1.1730 C   0  0  0  0  0  0  0  0  0  0  0  0
    3.0048   -1.6348    0.1320 O   0  0  0  0  0  0  0  0  0  0  0  0
    2.4088    0.1752    1.3190 N   0  0  0  0  0  0  0  0  0  0  0  0
    2.0708    0.5242    2.2050 H   0  0  0  0  0  0  0  0  0  0  0  0
    2.6638    1.1782    0.2840 C   0  0  1  0  0  0  0  0  0  0  0  0
    3.1616    2.0293    0.7515 H   0  0  0  0  0  0  0  0  0  0  0  0
    3.6112    0.5959   -0.7795 C   0  0  0  0  0  0  0  0  0  0  0  0
    3.6636    1.2892   -1.6199 H   0  0  0  0  0  0  0  0  0  0  0  0
    3.1596   -0.3184   -1.1634 H   0  0  0  0  0  0  0  0  0  0  0  0
    5.3045    0.1752   -0.2710 S   0  0  0  0  0  0  0  0  0  0  0  0
    1.3469    1.6851   -0.3333 C   0  0  0  0  0  0  0  0  0  0  0  0
    0.3934    1.9830    0.3859 O   0  0  0  0  0  0  0  0  0  0  0  0
    1.2975    1.7891   -1.6681 N   0  0  0  0  0  0  0  0  0  0  0  0
    2.1156    1.5309   -2.1960 H   0  0  0  0  0  0  0  0  0  0  0  0
    0.1216    2.2510   -2.4027 C   0  0  0  0  0  0  0  0  0  0  0  0
   -0.7110    1.5654   -2.2314 H   0  0  0  0  0  0  0  0  0  0  0  0
   -0.1688    3.2423   -2.0496 H   0  0  0  0  0  0  0  0  0  0  0  0
    0.3361    2.2978   -3.4711 H   0  0  0  0  0  0  0  0  0  0  0  0
    8.0927    6.5566   -4.4337 H   0  0  0  0  0  0  0  0  0  0  0  0
    7.7481    5.5342   -4.5816 C   0  0  0  0  0  0  0  0  0  0  0  0
    8.3502    5.0512   -5.3496 H   0  0  0  0  0  0  0  0  0  0  0  0
    6.7021    5.5412   -4.8822 H   0  0  0  0  0  0  0  0  0  0  0  0
    7.8907    4.7759   -3.2828 C   0  0  0  0  0  0  0  0  0  0  0  0
    8.3251    5.3352   -2.2851 O   0  0  0  0  0  0  0  0  0  0  0  0
    7.5146    3.4999   -3.2962 N   0  0  0  0  0  0  0  0  0  0  0  0
    7.1747    3.1011   -4.1592 H   0  0  0  0  0  0  0  0  0  0  0  0
    7.5714    2.6060   -2.1395 C   0  0  1  0  0  0  0  0  0  0  0  0
    8.4655    2.8345   -1.5568 H   0  0  0  0  0  0  0  0  0  0  0  0
    6.3411    2.8825   -1.2640 C   0  0  0  0  0  0  0  0  0  0  0  0
    6.3661    3.9372   -0.9861 H   0  0  0  0  0  0  0  0  0  0  0  0
    5.4418    2.7286   -1.8608 H   0  0  0  0  0  0  0  0  0  0  0  0
    6.1810    1.9366    0.2744 S   0  0  0  0  0  0  0  0  0  0  0  0
    7.6584    1.1390   -2.5964 C   0  0  0  0  0  0  0  0  0  0  0  0
    7.1324    0.7928   -3.6551 O   0  0  0  0  0  0  0  0  0  0  0  0
    8.3248    0.2860   -1.8079 N   0  0  0  0  0  0  0  0  0  0  0  0
    8.6976    0.6406   -0.9414 H   0  0  0  0  0  0  0  0  0  0  0  0
    8.4916   -1.1386   -2.0927 C   0  0  0  0  0  0  0  0  0  0  0  0
    7.5520   -1.6628   -1.9099 H   0  0  0  0  0  0  0  0  0  0  0  0
    8.7715   -1.2801   -3.1393 H   0  0  0  0  0  0  0  0  0  0  0  0
    9.2686   -1.5617   -1.4559 H   0  0  0  0  0  0  0  0  0  0  0  0
  5  6  2  0  0  0  0
  5  7  1  0  0  0  0
  2  3  1  0  0  0  0
  2  4  1  0  0  0  0
  2  5  1  0  0  0  0
  1  2  1  0  0  0  0
 15 16  2  0  0  0  0
 15 17  1  0  0  0  0
 14 36  1  0  0  0  0
 11 12  1  0  0  0  0
 11 13  1  0  0  0  0
 11 14  1  0  0  0  0
  9 10  1  0  0  0  0
  9 11  1  0  0  0  0
  9 15  1  0  0  0  0
  7  8  1  0  0  0  0
  7  9  1  0  0  0  0
 19 20  1  0  0  0  0
 19 21  1  0  0  0  0
 19 22  1  0  0  0  0
 17 18  1  0  0  0  0
 17 19  1  0  0  0  0
 27 28  2  0  0  0  0
 27 29  1  0  0  0  0
 24 25  1  0  0  0  0
 24 26  1  0  0  0  0
 24 27  1  0  0  0  0
 23 24  1  0  0  0  0
 37 38  2  0  0  0  0
 37 39  1  0  0  0  0
 33 34  1  0  0  0  0
 33 35  1  0  0  0  0
 33 36  1  0  0  0  0
 31 32  1  0  0  0  0
 31 33  1  0  0  0  0
 31 37  1  0  0  0  0
 29 30  1  0  0  0  0
 29 31  1  0  0  0  0
 41 42  1  0  0  0  0
 41 43  1  0  0  0  0
 41 44  1  0  0  0  0
 39 40  1  0  0  0  0
 39 41  1  0  0  0  0
M  END
$$$$
default_name
  -OEChem-01062215323D

 44 43  0     1  0  0  0  0  0999 V2000
    2.4488   -3.0448    2.0990 H   0  0  0  0  0  0  0  0  0  0  0  0
    2.2788   -2.0018    2.3640 C   0  0  0  0  0  0  0  0  0  0  0  0
    2.9228   -1.7258    3.1960 H   0  0  0  0  0  0  0  0  0  0  0  0
    1.2358   -1.8618    2.6430 H   0  0  0  0  0  0  0  0  0  0  0  0
    2.6018   -1.1318    1.1730 C   0  0  0  0  0  0  0  0  0  0  0  0
    3.0048   -1.6348    0.1320 O   0  0  0  0  0  0  0  0  0  0  0  0
    2.4088    0.1752    1.3190 N   0  0  0  0  0  0  0  0  0  0  0  0
    2.0708    0.5242    2.2050 H   0  0  0  0  0  0  0  0  0  0  0  0
    2.6638    1.1782    0.2840 C   0  0  1  0  0  0  0  0  0  0  0  0
    3.1616    2.0293    0.7515 H   0  0  0  0  0  0  0  0  0  0  0  0
    3.6112    0.5959   -0.7795 C   0  0  0  0  0  0  0  0  0  0  0  0
    3.6636    1.2892   -1.6199 H   0  0  0  0  0  0  0  0  0  0  0  0
    3.1596   -0.3184   -1.1634 H   0  0  0  0  0  0  0  0  0  0  0  0
    5.3045    0.1752   -0.2710 S   0  0  0  0  0  0  0  0  0  0  0  0
    1.3469    1.6851   -0.3333 C   0  0  0  0  0  0  0  0  0  0  0  0
    0.4998    2.2379    0.3681 O   0  0  0  0  0  0  0  0  0  0  0  0
    1.1784    1.5021   -1.6497 N   0  0  0  0  0  0  0  0  0  0  0  0
    1.9136    1.0446   -2.1644 H   0  0  0  0  0  0  0  0  0  0  0  0
   -0.0144    1.9240   -2.3812 C   0  0  0  0  0  0  0  0  0  0  0  0
   -0.8873    1.3907   -1.9988 H   0  0  0  0  0  0  0  0  0  0  0  0
   -0.1745    2.9946   -2.2407 H   0  0  0  0  0  0  0  0  0  0  0  0
    0.0991    1.7134   -3.4454 H   0  0  0  0  0  0  0  0  0  0  0  0
    8.0927    6.5566   -4.4337 H   0  0  0  0  0  0  0  0  0  0  0  0
    7.7481    5.5342   -4.5816 C   0  0  0  0  0  0  0  0  0  0  0  0
    8.3502    5.0512   -5.3496 H   0  0  0  0  0  0  0  0  0  0  0  0
    6.7021    5.5412   -4.8822 H   0  0  0  0  0  0  0  0  0  0  0  0
    7.8907    4.7759   -3.2828 C   0  0  0  0  0  0  0  0  0  0  0  0
    8.3251    5.3352   -2.2851 O   0  0  0  0  0  0  0  0  0  0  0  0
    7.5146    3.4999   -3.2962 N   0  0  0  0  0  0  0  0  0  0  0  0
    7.1747    3.1011   -4.1592 H   0  0  0  0  0  0  0  0  0  0  0  0
    7.5714    2.6060   -2.1395 C   0  0  1  0  0  0  0  0  0  0  0  0
    8.4655    2.8345   -1.5568 H   0  0  0  0  0  0  0  0  0  0  0  0
    6.3411    2.8825   -1.2640 C   0  0  0  0  0  0  0  0  0  0  0  0
    6.3661    3.9372   -0.9861 H   0  0  0  0  0  0  0  0  0  0  0  0
    5.4418    2.7286   -1.8608 H   0  0  0  0  0  0  0  0  0  0  0  0
    6.1810    1.9366    0.2744 S   0  0  0  0  0  0  0  0  0  0  0  0
    7.6584    1.1390   -2.5964 C   0  0  0  0  0  0  0  0  0  0  0  0
    7.1324    0.7928   -3.6551 O   0  0  0  0  0  0  0  0  0  0  0  0
    8.3248    0.2860   -1.8079 N   0  0  0  0  0  0  0  0  0  0  0  0
    8.6976    0.6406   -0.9414 H   0  0  0  0  0  0  0  0  0  0  0  0
    8.4916   -1.1386   -2.0927 C   0  0  0  0  0  0  0  0  0  0  0  0
    7.5520   -1.6628   -1.9099 H   0  0  0  0  0  0  0  0  0  0  0  0
    8.7715   -1.2801   -3.1393 H   0  0  0  0  0  0  0  0  0  0  0  0
    9.2686   -1.5617   -1.4559 H   0  0  0  0  0  0  0  0  0  0  0  0
  5  6  2  0  0  0  0
  5  7  1  0  0  0  0
  2  3  1  0  0  0  0
  2  4  1  0  0  0  0
  2  5  1  0  0  0  0
  1  2  1  0  0  0  0
 15 16  2  0  0  0  0
 15 17  1  0  0  0  0
 14 36  1  0  0  0  0
 11 12  1  0  0  0  0
 11 13  1  0  0  0  0
 11 14  1  0  0  0  0
  9 10  1  0  0  0  0
  9 11  1  0  0  0  0
  9 15  1  0  0  0  0
  7  8  1  0  0  0  0
  7  9  1  0  0  0  0
 19 20  1  0  0  0  0
 19 21  1  0  0  0  0
 19 22  1  0  0  0  0
 17 18  1  0  0  0  0
 17 19  1  0  0  0  0
 27 28  2  0  0  0  0
 27 29  1  0  0  0  0
 24 25  1  0  0  0  0
 24 26  1  0  0  0  0
 24 27  1  0  0  0  0
 23 24  1  0  0  0  0
 37 38  2  0  0  0  0
 37 39  1  0  0  0  0
 33 34  1  0  0  0  0
 33 35  1  0  0  0  0
 33 36  1  0  0  0  0
 31 32  1  0  0  0  0
 31 33  1  0  0  0  0
 31 37  1  0  0  0  0
 29 30  1  0  0  0  0
 29 31  1  0  0  0  0
 41 42  1  0  0  0  0
 41 43  1  0  0  0  0
 41 44  1  0  0  0  0
 39 40  1  0  0  0  0
 39 41  1  0  0  0  0
M  END
$$$$
default_name
  -OEChem-01062215323D

 44 43  0     1  0  0  0  0  0999 V2000
    2.4488   -3.0448    2.0990 H   0  0  0  0  0  0  0  0  0  0  0  0
    2.2788   -2.0018    2.3640 C   0  0  0  0  0  0  0  0  0  0  0  0
    2.9228   -1.7258    3.1960 H   0  0  0  0  0  0  0  0  0  0  0  0
    1.2358   -1.8618    2.6430 H   0  0  0  0  0  0  0  0  0  0  0  0
    2.6018   -1.1318    1.1730 C   0  0  0  0  0  0  0  0  0  0  0  0
    3.0048   -1.6348    0.1320 O   0  0  0  0  0  0  0  0  0  0  0  0
    2.4088    0.1752    1.3190 N   0  0  0  0  0  0  0  0  0  0  0  0
    2.0708    0.5242    2.2050 H   0  0  0  0  0  0  0  0  0  0  0  0
    2.6638    1.1782    0.2840 C   0  0  1  0  0  0  0  0  0  0  0  0
    3.1616    2.0293    0.7515 H   0  0  0  0  0  0  0  0  0  0  0  0
    3.6112    0.5959   -0.7795 C   0  0  0  0  0  0  0  0  0  0  0  0
    3.6636    1.2892   -1.6199 H   0  0  0  0  0  0  0  0  0  0  0  0
    3.1596   -0.3184   -1.1634 H   0  0  0  0  0  0  0  0  0  0  0  0
    5.3045    0.1752   -0.2710 S   0  0  0  0  0  0  0  0  0  0  0  0
    1.3469    1.6851   -0.3333 C   0  0  0  0  0  0  0  0  0  0  0  0
    0.6275    2.4692    0.2855 O   0  0  0  0  0  0  0  0  0  0  0  0
    1.0352    1.2414   -1.5584 N   0  0  0  0  0  0  0  0  0  0  0  0
    1.6708    0.6029   -2.0091 H   0  0  0  0  0  0  0  0  0  0  0  0
   -0.1777    1.6270   -2.2765 C   0  0  0  0  0  0  0  0  0  0  0  0
   -1.0558    1.2918   -1.7205 H   0  0  0  0  0  0  0  0  0  0  0  0
   -0.2221    2.7137   -2.3700 H   0  0  0  0  0  0  0  0  0  0  0  0
   -0.1882    1.1792   -3.2711 H   0  0  0  0  0  0  0  0  0  0  0  0
    8.0927    6.5566   -4.4337 H   0  0  0  0  0  0  0  0  0  0  0  0
    7.7481    5.5342   -4.5816 C   0  0  0  0  0  0  0  0  0  0  0  0
    8.3502    5.0512   -5.3496 H   0  0  0  0  0  0  0  0  0  0  0  0
    6.7021    5.5412   -4.8822 H   0  0  0  0  0  0  0  0  0  0  0  0
    7.8907    4.7759   -3.2828 C   0  0  0  0  0  0  0  0  0  0  0  0
    8.3251    5.3352   -2.2851 O   0  0  0  0  0  0  0  0  0  0  0  0
    7.5146    3.4999   -3.2962 N   0  0  0  0  0  0  0  0  0  0  0  0
    7.1747    3.1011   -4.1592 H   0  0  0  0  0  0  0  0  0  0  0  0
    7.5714    2.6060   -2.1395 C   0  0  1  0  0  0  0  0  0  0  0  0
    8.4655    2.8345   -1.5568 H   0  0  0  0  0  0  0  0  0  0  0  0
    6.3411    2.8825   -1.2640 C   0  0  0  0  0  0  0  0  0  0  0  0
    6.3661    3.9372   -0.9861 H   0  0  0  0  0  0  0  0  0  0  0  0
    5.4418    2.7286   -1.8608 H   0  0  0  0  0  0  0  0  0  0  0  0
    6.1810    1.9366    0.2744 S   0  0  0  0  0  0  0  0  0  0  0  0
    7.6584    1.1390   -2.5964 C   0  0  0  0  0  0  0  0  0  0  0  0
    7.1324    0.7928   -3.6551 O   0  0  0  0  0  0  0  0  0  0  0  0
    8.3248    0.2860   -1.8079 N   0  0  0  0  0  0  0  0  0  0  0  0
    8.6976    0.6406   -0.9414 H   0  0  0  0  0  0  0  0  0  0  0  0
    8.4916   -1.1386   -2.0927 C   0  0  0  0  0  0  0  0  0  0  0  0
    7.5520   -1.6628   -1.9099 H   0  0  0  0  0  0  0  0  0  0  0  0
    8.7715   -1.2801   -3.1393 H   0  0  0  0  0  0  0  0  0  0  0  0
    9.2686   -1.5617   -1.4559 H   0  0  0  0  0  0  0  0  0  0  0  0
  5  6  2  0  0  0  0
  5  7  1  0  0  0  0
  2  3  1  0  0  0  0
  2  4  1  0  0  0  0
  2  5  1  0  0  0  0
  1  2  1  0  0  0  0
 15 16  2  0  0  0  0
 15 17  1  0  0  0  0
 14 36  1  0  0  0  0
 11 12  1  0  0  0  0
 11 13  1  0  0  0  0
 11 14  1  0  0  0  0
  9 10  1  0  0  0  0
  9 11  1  0  0  0  0
  9 15  1  0  0  0  0
  7  8  1  0  0  0  0
  7  9  1  0  0  0  0
 19 20  1  0  0  0  0
 19 21  1  0  0  0  0
 19 22  1  0  0  0  0
 17 18  1  0  0  0  0
 17 19  1  0  0  0  0
 27 28  2  0  0  0  0
 27 29  1  0  0  0  0
 24 25  1  0  0  0  0
 24 26  1  0  0  0  0
 24 27  1  0  0  0  0
 23 24  1  0  0  0  0
 37 38  2  0  0  0  0
 37 39  1  0  0  0  0
 33 34  1  0  0  0  0
 33 35  1  0  0  0  0
 33 36  1  0  0  0  0
 31 32  1  0  0  0  0
 31 33  1  0  0  0  0
 31 37  1  0  0  0  0
 29 30  1  0  0  0  0
 29 31  1  0  0  0  0
 41 42  1  0  0  0  0
 41 43  1  0  0  0  0
 41 44  1  0  0  0  0
 39 40  1  0  0  0  0
 39 41  1  0  0  0  0
M  END
$$$$
default_name
  -OEChem-01062215323D

 44 43  0     1  0  0  0  0  0999 V2000
    2.4488   -3.0448    2.0990 H   0  0  0  0  0  0  0  0  0  0  0  0
    2.2788   -2.0018    2.3640 C   0  0  0  0  0  0  0  0  0  0  0  0
    2.9228   -1.7258    3.1960 H   0  0  0  0  0  0  0  0  0  0  0  0
    1.2358   -1.8618    2.6430 H   0  0  0  0  0  0  0  0  0  0  0  0
    2.6018   -1.1318    1.1730 C   0  0  0  0  0  0  0  0  0  0  0  0
    3.0048   -1.6348    0.1320 O   0  0  0  0  0  0  0  0  0  0  0  0
    2.4088    0.1752    1.3190 N   0  0  0  0  0  0  0  0  0  0  0  0
    2.0708    0.5242    2.2050 H   0  0  0  0  0  0  0  0  0  0  0  0
    2.6638    1.1782    0.2840 C   0  0  1  0  0  0  0  0  0  0  0  0
    3.1616    2.0293    0.7515 H   0  0  0  0  0  0  0  0  0  0  0  0
    3.6112    0.5959   -0.7795 C   0  0  0  0  0  0  0  0  0  0  0  0
    3.6636    1.2892   -1.6199 H   0  0  0  0  0  0  0  0  0  0  0  0
    3.1596   -0.3184   -1.1634 H   0  0  0  0  0  0  0  0  0  0  0  0
    5.3045    0.1752   -0.2710 S   0  0  0  0  0  0  0  0  0  0  0  0
    1.3469    1.6851   -0.3333 C   0  0  0  0  0  0  0  0  0  0  0  0
    0.7679    2.6610    0.1436 O   0  0  0  0  0  0  0  0  0  0  0  0
    0.8777    1.0246   -1.4002 N   0  0  0  0  0  0  0  0  0  0  0  0
    1.4036    0.2358   -1.7406 H   0  0  0  0  0  0  0  0  0  0  0  0
   -0.3575    1.3803   -2.0958 C   0  0  0  0  0  0  0  0  0  0  0  0
   -1.2052    1.2752   -1.4154 H   0  0  0  0  0  0  0  0  0  0  0  0
   -0.3082    2.4186   -2.4287 H   0  0  0  0  0  0  0  0  0  0  0  0
   -0.5063    0.7316   -2.9600 H   0  0  0  0  0  0  0  0  0  0  0  0
    8.0927    6.5566   -4.4337 H   0  0  0  0  0  0  0  0  0  0  0  0
    7.7481    5.5342   -4.5816 C   0  0  0  0  0  0  0  0  0  0  0  0
    8.3502    5.0512   -5.3496 H   0  0  0  0  0  0  0  0  0  0  0  0
    6.7021    5.5412   -4.8822 H   0  0  0  0  0  0  0  0  0  0  0  0
    7.8907    4.7759   -3.2828 C   0  0  0  0  0  0  0  0  0  0  0  0
    8.3251    5.3352   -2.2851 O   0  0  0  0  0  0  0  0  0  0  0  0
    7.5146    3.4999   -3.2962 N   0  0  0  0  0  0  0  0  0  0  0  0
    7.1747    3.1011   -4.1592 H   0  0  0  0  0  0  0  0  0  0  0  0
    7.5714    2.6060   -2.1395 C   0  0  1  0  0  0  0  0  0  0  0  0
    8.4655    2.8345   -1.5568 H   0  0  0  0  0  0  0  0  0  0  0  0
    6.3411    2.8825   -1.2640 C   0  0  0  0  0  0  0  0  0  0  0  0
    6.3661    3.9372   -0.9861 H   0  0  0  0  0  0  0  0  0  0  0  0
    5.4418    2.7286   -1.8608 H   0  0  0  0  0  0  0  0  0  0  0  0
    6.1810    1.9366    0.2744 S   0  0  0  0  0  0  0  0  0  0  0  0
    7.6584    1.1390   -2.5964 C   0  0  0  0  0  0  0  0  0  0  0  0
    7.1324    0.7928   -3.6551 O   0  0  0  0  0  0  0  0  0  0  0  0
    8.3248    0.2860   -1.8079 N   0  0  0  0  0  0  0  0  0  0  0  0
    8.6976    0.6406   -0.9414 H   0  0  0  0  0  0  0  0  0  0  0  0
    8.4916   -1.1386   -2.0927 C   0  0  0  0  0  0  0  0  0  0  0  0
    7.5520   -1.6628   -1.9099 H   0  0  0  0  0  0  0  0  0  0  0  0
    8.7715   -1.2801   -3.1393 H   0  0  0  0  0  0  0  0  0  0  0  0
    9.2686   -1.5617   -1.4559 H   0  0  0  0  0  0  0  0  0  0  0  0
  5  6  2  0  0  0  0
  5  7  1  0  0  0  0
  2  3  1  0  0  0  0
  2  4  1  0  0  0  0
  2  5  1  0  0  0  0
  1  2  1  0  0  0  0
 15 16  2  0  0  0  0
 15 17  1  0  0  0  0
 14 36  1  0  0  0  0
 11 12  1  0  0  0  0
 11 13  1  0  0  0  0
 11 14  1  0  0  0  0
  9 10  1  0  0  0  0
  9 11  1  0  0  0  0
  9 15  1  0  0  0  0
  7  8  1  0  0  0  0
  7  9  1  0  0  0  0
 19 20  1  0  0  0  0
 19 21  1  0  0  0  0
 19 22  1  0  0  0  0
 17 18  1  0  0  0  0
 17 19  1  0  0  0  0
 27 28  2  0  0  0  0
 27 29  1  0  0  0  0
 24 25  1  0  0  0  0
 24 26  1  0  0  0  0
 24 27  1  0  0  0  0
 23 24  1  0  0  0  0
 37 38  2  0  0  0  0
 37 39  1  0  0  0  0
 33 34  1  0  0  0  0
 33 35  1  0  0  0  0
 33 36  1  0  0  0  0
 31 32  1  0  0  0  0
 31 33  1  0  0  0  0
 31 37  1  0  0  0  0
 29 30  1  0  0  0  0
 29 31  1  0  0  0  0
 41 42  1  0  0  0  0
 41 43  1  0  0  0  0
 41 44  1  0  0  0  0
 39 40  1  0  0  0  0
 39 41  1  0  0  0  0
M  END
$$$$
default_name
  -OEChem-01062215323D

 44 43  0     1  0  0  0  0  0999 V2000
    2.4488   -3.0448    2.0990 H   0  0  0  0  0  0  0  0  0  0  0  0
    2.2788   -2.0018    2.3640 C   0  0  0  0  0  0  0  0  0  0  0  0
    2.9228   -1.7258    3.1960 H   0  0  0  0  0  0  0  0  0  0  0  0
    1.2358   -1.8618    2.6430 H   0  0  0  0  0  0  0  0  0  0  0  0
    2.6018   -1.1318    1.1730 C   0  0  0  0  0  0  0  0  0  0  0  0
    3.0048   -1.6348    0.1320 O   0  0  0  0  0  0  0  0  0  0  0  0
    2.4088    0.1752    1.3190 N   0  0  0  0  0  0  0  0  0  0  0  0
    2.0708    0.5242    2.2050 H   0  0  0  0  0  0  0  0  0  0  0  0
    2.6638    1.1782    0.2840 C   0  0  1  0  0  0  0  0  0  0  0  0
    3.1616    2.0293    0.7515 H   0  0  0  0  0  0  0  0  0  0  0  0
    3.6112    0.5959   -0.7795 C   0  0  0  0  0  0  0  0  0  0  0  0
    3.6636    1.2892   -1.6199 H   0  0  0  0  0  0  0  0  0  0  0  0
    3.1596   -0.3184   -1.1634 H   0  0  0  0  0  0  0  0  0  0  0  0
    5.3045    0.1752   -0.2710 S   0  0  0  0  0  0  0  0  0  0  0  0
    1.3469    1.6851   -0.3333 C   0  0  0  0  0  0  0  0  0  0  0  0
    0.9113    2.8004   -0.0478 O   0  0  0  0  0  0  0  0  0  0  0  0
    0.7164    0.8665   -1.1861 N   0  0  0  0  0  0  0  0  0  0  0  0
    1.1304   -0.0317   -1.3773 H   0  0  0  0  0  0  0  0  0  0  0  0
   -0.5413    1.2005   -1.8513 C   0  0  0  0  0  0  0  0  0  0  0  0
   -1.3252    1.3423   -1.1043 H   0  0  0  0  0  0  0  0  0  0  0  0
   -0.4269    2.1296   -2.4127 H   0  0  0  0  0  0  0  0  0  0  0  0
   -0.8335    0.4011   -2.5333 H   0  0  0  0  0  0  0  0  0  0  0  0
    8.0927    6.5566   -4.4337 H   0  0  0  0  0  0  0  0  0  0  0  0
    7.7481    5.5342   -4.5816 C   0  0  0  0  0  0  0  0  0  0  0  0
    8.3502    5.0512   -5.3496 H   0  0  0  0  0  0  0  0  0  0  0  0
    6.7021    5.5412   -4.8822 H   0  0  0  0  0  0  0  0  0  0  0  0
    7.8907    4.7759   -3.2828 C   0  0  0  0  0  0  0  0  0  0  0  0
    8.3251    5.3352   -2.2851 O   0  0  0  0  0  0  0  0  0  0  0  0
    7.5146    3.4999   -3.2962 N   0  0  0  0  0  0  0  0  0  0  0  0
    7.1747    3.1011   -4.1592 H   0  0  0  0  0  0  0  0  0  0  0  0
    7.5714    2.6060   -2.1395 C   0  0  1  0  0  0  0  0  0  0  0  0
    8.4655    2.8345   -1.5568 H   0  0  0  0  0  0  0  0  0  0  0  0
    6.3411    2.8825   -1.2640 C   0  0  0  0  0  0  0  0  0  0  0  0
    6.3661    3.9372   -0.9861 H   0  0  0  0  0  0  0  0  0  0  0  0
    5.4418    2.7286   -1.8608 H   0  0  0  0  0  0  0  0  0  0  0  0
    6.1810    1.9366    0.2744 S   0  0  0  0  0  0  0  0  0  0  0  0
    7.6584    1.1390   -2.5964 C   0  0  0  0  0  0  0  0  0  0  0  0
    7.1324    0.7928   -3.6551 O   0  0  0  0  0  0  0  0  0  0  0  0
    8.3248    0.2860   -1.8079 N   0  0  0  0  0  0  0  0  0  0  0  0
    8.6976    0.6406   -0.9414 H   0  0  0  0  0  0  0  0  0  0  0  0
    8.4916   -1.1386   -2.0927 C   0  0  0  0  0  0  0  0  0  0  0  0
    7.5520   -1.6628   -1.9099 H   0  0  0  0  0  0  0  0  0  0  0  0
    8.7715   -1.2801   -3.1393 H   0  0  0  0  0  0  0  0  0  0  0  0
    9.2686   -1.5617   -1.4559 H   0  0  0  0  0  0  0  0  0  0  0  0
  5  6  2  0  0  0  0
  5  7  1  0  0  0  0
  2  3  1  0  0  0  0
  2  4  1  0  0  0  0
  2  5  1  0  0  0  0
  1  2  1  0  0  0  0
 15 16  2  0  0  0  0
 15 17  1  0  0  0  0
 14 36  1  0  0  0  0
 11 12  1  0  0  0  0
 11 13  1  0  0  0  0
 11 14  1  0  0  0  0
  9 10  1  0  0  0  0
  9 11  1  0  0  0  0
  9 15  1  0  0  0  0
  7  8  1  0  0  0  0
  7  9  1  0  0  0  0
 19 20  1  0  0  0  0
 19 21  1  0  0  0  0
 19 22  1  0  0  0  0
 17 18  1  0  0  0  0
 17 19  1  0  0  0  0
 27 28  2  0  0  0  0
 27 29  1  0  0  0  0
 24 25  1  0  0  0  0
 24 26  1  0  0  0  0
 24 27  1  0  0  0  0
 23 24  1  0  0  0  0
 37 38  2  0  0  0  0
 37 39  1  0  0  0  0
 33 34  1  0  0  0  0
 33 35  1  0  0  0  0
 33 36  1  0  0  0  0
 31 32  1  0  0  0  0
 31 33  1  0  0  0  0
 31 37  1  0  0  0  0
 29 30  1  0  0  0  0
 29 31  1  0  0  0  0
 41 42  1  0  0  0  0
 41 43  1  0  0  0  0
 41 44  1  0  0  0  0
 39 40  1  0  0  0  0
 39 41  1  0  0  0  0
M  END
$$$$
default_name
  -OEChem-01062215323D

 44 43  0     1  0  0  0  0  0999 V2000
    2.4488   -3.0448    2.0990 H   0  0  0  0  0  0  0  0  0  0  0  0
    2.2788   -2.0018    2.3640 C   0  0  0  0  0  0  0  0  0  0  0  0
    2.9228   -1.7258    3.1960 H   0  0  0  0  0  0  0  0  0  0  0  0
    1.2358   -1.8618    2.6430 H   0  0  0  0  0  0  0  0  0  0  0  0
    2.6018   -1.1318    1.1730 C   0  0  0  0  0  0  0  0  0  0  0  0
    3.0048   -1.6348    0.1320 O   0  0  0  0  0  0  0  0  0  0  0  0
    2.4088    0.1752    1.3190 N   0  0  0  0  0  0  0  0  0  0  0  0
    2.0708    0.5242    2.2050 H   0  0  0  0  0  0  0  0  0  0  0  0
    2.6638    1.1782    0.2840 C   0  0  1  0  0  0  0  0  0  0  0  0
    3.1616    2.0293    0.7515 H   0  0  0  0  0  0  0  0  0  0  0  0
    3.6112    0.5959   -0.7795 C   0  0  0  0  0  0  0  0  0  0  0  0
    3.6636    1.2892   -1.6199 H   0  0  0  0  0  0  0  0  0  0  0  0
    3.1596   -0.3184   -1.1634 H   0  0  0  0  0  0  0  0  0  0  0  0
    5.3045    0.1752   -0.2710 S   0  0  0  0  0  0  0  0  0  0  0  0
    1.3469    1.6851   -0.3333 C   0  0  0  0  0  0  0  0  0  0  0  0
    1.0479    2.8778   -0.2758 O   0  0  0  0  0  0  0  0  0  0  0  0
    0.5626    0.7779   -0.9305 N   0  0  0  0  0  0  0  0  0  0  0  0
    0.8696   -0.1814   -0.9439 H   0  0  0  0  0  0  0  0  0  0  0  0
   -0.7166    1.1001   -1.5596 C   0  0  0  0  0  0  0  0  0  0  0  0
   -1.4077    1.4883   -0.8084 H   0  0  0  0  0  0  0  0  0  0  0  0
   -0.5702    1.8663   -2.3232 H   0  0  0  0  0  0  0  0  0  0  0  0
   -1.1475    0.2102   -2.0202 H   0  0  0  0  0  0  0  0  0  0  0  0
    8.0927    6.5566   -4.4337 H   0  0  0  0  0  0  0  0  0  0  0  0
    7.7481    5.5342   -4.5816 C   0  0  0  0  0  0  0  0  0  0  0  0
    8.3502    5.0512   -5.3496 H   0  0  0  0  0  0  0  0  0  0  0  0
    6.7021    5.5412   -4.8822 H   0  0  0  0  0  0  0  0  0  0  0  0
    7.8907    4.7759   -3.2828 C   0  0  0  0  0  0  0  0  0  0  0  0
    8.3251    5.3352   -2.2851 O   0  0  0  0  0  0  0  0  0  0  0  0
    7.5146    3.4999   -3.2962 N   0  0  0  0  0  0  0  0  0  0  0  0
    7.1747    3.1011   -4.1592 H   0  0  0  0  0  0  0  0  0  0  0  0
    7.5714    2.6060   -2.1395 C   0  0  1  0  0  0  0  0  0  0  0  0
    8.4655    2.8345   -1.5568 H   0  0  0  0  0  0  0  0  0  0  0  0
    6.3411    2.8825   -1.2640 C   0  0  0  0  0  0  0  0  0  0  0  0
    6.3661    3.9372   -0.9861 H   0  0  0  0  0  0  0  0  0  0  0  0
    5.4418    2.7286   -1.8608 H   0  0  0  0  0  0  0  0  0  0  0  0
    6.1810    1.9366    0.2744 S   0  0  0  0  0  0  0  0  0  0  0  0
    7.6584    1.1390   -2.5964 C   0  0  0  0  0  0  0  0  0  0  0  0
    7.1324    0.7928   -3.6551 O   0  0  0  0  0  0  0  0  0  0  0  0
    8.3248    0.2860   -1.8079 N   0  0  0  0  0  0  0  0  0  0  0  0
    8.6976    0.6406   -0.9414 H   0  0  0  0  0  0  0  0  0  0  0  0
    8.4916   -1.1386   -2.0927 C   0  0  0  0  0  0  0  0  0  0  0  0
    7.5520   -1.6628   -1.9099 H   0  0  0  0  0  0  0  0  0  0  0  0
    8.7715   -1.2801   -3.1393 H   0  0  0  0  0  0  0  0  0  0  0  0
    9.2686   -1.5617   -1.4559 H   0  0  0  0  0  0  0  0  0  0  0  0
  5  6  2  0  0  0  0
  5  7  1  0  0  0  0
  2  3  1  0  0  0  0
  2  4  1  0  0  0  0
  2  5  1  0  0  0  0
  1  2  1  0  0  0  0
 15 16  2  0  0  0  0
 15 17  1  0  0  0  0
 14 36  1  0  0  0  0
 11 12  1  0  0  0  0
 11 13  1  0  0  0  0
 11 14  1  0  0  0  0
  9 10  1  0  0  0  0
  9 11  1  0  0  0  0
  9 15  1  0  0  0  0
  7  8  1  0  0  0  0
  7  9  1  0  0  0  0
 19 20  1  0  0  0  0
 19 21  1  0  0  0  0
 19 22  1  0  0  0  0
 17 18  1  0  0  0  0
 17 19  1  0  0  0  0
 27 28  2  0  0  0  0
 27 29  1  0  0  0  0
 24 25  1  0  0  0  0
 24 26  1  0  0  0  0
 24 27  1  0  0  0  0
 23 24  1  0  0  0  0
 37 38  2  0  0  0  0
 37 39  1  0  0  0  0
 33 34  1  0  0  0  0
 33 35  1  0  0  0  0
 33 36  1  0  0  0  0
 31 32  1  0  0  0  0
 31 33  1  0  0  0  0
 31 37  1  0  0  0  0
 29 30  1  0  0  0  0
 29 31  1  0  0  0  0
 41 42  1  0  0  0  0
 41 43  1  0  0  0  0
 41 44  1  0  0  0  0
 39 40  1  0  0  0  0
 39 41  1  0  0  0  0
M  END
$$$$
default_name
  -OEChem-01062215323D

 44 43  0     1  0  0  0  0  0999 V2000
    2.4488   -3.0448    2.0990 H   0  0  0  0  0  0  0  0  0  0  0  0
    2.2788   -2.0018    2.3640 C   0  0  0  0  0  0  0  0  0  0  0  0
    2.9228   -1.7258    3.1960 H   0  0  0  0  0  0  0  0  0  0  0  0
    1.2358   -1.8618    2.6430 H   0  0  0  0  0  0  0  0  0  0  0  0
    2.6018   -1.1318    1.1730 C   0  0  0  0  0  0  0  0  0  0  0  0
    3.0048   -1.6348    0.1320 O   0  0  0  0  0  0  0  0  0  0  0  0
    2.4088    0.1752    1.3190 N   0  0  0  0  0  0  0  0  0  0  0  0
    2.0708    0.5242    2.2050 H   0  0  0  0  0  0  0  0  0  0  0  0
    2.6638    1.1782    0.2840 C   0  0  1  0  0  0  0  0  0  0  0  0
    3.1616    2.0293    0.7515 H   0  0  0  0  0  0  0  0  0  0  0  0
    3.6112    0.5959   -0.7795 C   0  0  0  0  0  0  0  0  0  0  0  0
    3.6636    1.2892   -1.6199 H   0  0  0  0  0  0  0  0  0  0  0  0
    3.1596   -0.3184   -1.1634 H   0  0  0  0  0  0  0  0  0  0  0  0
    5.3045    0.1752   -0.2710 S   0  0  0  0  0  0  0  0  0  0  0  0
    1.3469    1.6851   -0.3333 C   0  0  0  0  0  0  0  0  0  0  0  0
    1.1685    2.8879   -0.5247 O   0  0  0  0  0  0  0  0  0  0  0  0
    0.4265    0.7649   -0.6510 N   0  0  0  0  0  0  0  0  0  0  0  0
    0.6391   -0.2030   -0.4699 H   0  0  0  0  0  0  0  0  0  0  0  0
   -0.8715    1.0858   -1.2408 C   0  0  0  0  0  0  0  0  0  0  0  0
   -1.4470    1.7034   -0.5479 H   0  0  0  0  0  0  0  0  0  0  0  0
   -0.7283    1.6466   -2.1663 H   0  0  0  0  0  0  0  0  0  0  0  0
   -1.4268    0.1720   -1.4556 H   0  0  0  0  0  0  0  0  0  0  0  0
    8.0927    6.5566   -4.4337 H   0  0  0  0  0  0  0  0  0  0  0  0
    7.7481    5.5342   -4.5816 C   0  0  0  0  0  0  0  0  0  0  0  0
    8.3502    5.0512   -5.3496 H   0  0  0  0  0  0  0  0  0  0  0  0
    6.7021    5.5412   -4.8822 H   0  0  0  0  0  0  0  0  0  0  0  0
    7.8907    4.7759   -3.2828 C   0  0  0  0  0  0  0  0  0  0  0  0
    8.3251    5.3352   -2.2851 O   0  0  0  0  0  0  0  0  0  0  0  0
    7.5146    3.4999   -3.2962 N   0  0  0  0  0  0  0  0  0  0  0  0
    7.1747    3.1011   -4.1592 H   0  0  0  0  0  0  0  0  0  0  0  0
    7.5714    2.6060   -2.1395 C   0  0  1  0  0  0  0  0  0  0  0  0
    8.4655    2.8345   -1.5568 H   0  0  0  0  0  0  0  0  0  0  0  0
    6.3411    2.8825   -1.2640 C   0  0  0  0  0  0  0  0  0  0  0  0
    6.3661    3.9372   -0.9861 H   0  0  0  0  0  0  0  0  0  0  0  0
    5.4418    2.7286   -1.8608 H   0  0  0  0  0  0  0  0  0  0  0  0
    6.1810    1.9366    0.2744 S   0  0  0  0  0  0  0  0  0  0  0  0
    7.6584    1.1390   -2.5964 C   0  0  0  0  0  0  0  0  0  0  0  0
    7.1324    0.7928   -3.6551 O   0  0  0  0  0  0  0  0  0  0  0  0
    8.3248    0.2860   -1.8079 N   0  0  0  0  0  0  0  0  0  0  0  0
    8.6976    0.6406   -0.9414 H   0  0  0  0  0  0  0  0  0  0  0  0
    8.4916   -1.1386   -2.0927 C   0  0  0  0  0  0  0  0  0  0  0  0
    7.5520   -1.6628   -1.9099 H   0  0  0  0  0  0  0  0  0  0  0  0
    8.7715   -1.2801   -3.1393 H   0  0  0  0  0  0  0  0  0  0  0  0
    9.2686   -1.5617   -1.4559 H   0  0  0  0  0  0  0  0  0  0  0  0
  5  6  2  0  0  0  0
  5  7  1  0  0  0  0
  2  3  1  0  0  0  0
  2  4  1  0  0  0  0
  2  5  1  0  0  0  0
  1  2  1  0  0  0  0
 15 16  2  0  0  0  0
 15 17  1  0  0  0  0
 14 36  1  0  0  0  0
 11 12  1  0  0  0  0
 11 13  1  0  0  0  0
 11 14  1  0  0  0  0
  9 10  1  0  0  0  0
  9 11  1  0  0  0  0
  9 15  1  0  0  0  0
  7  8  1  0  0  0  0
  7  9  1  0  0  0  0
 19 20  1  0  0  0  0
 19 21  1  0  0  0  0
 19 22  1  0  0  0  0
 17 18  1  0  0  0  0
 17 19  1  0  0  0  0
 27 28  2  0  0  0  0
 27 29  1  0  0  0  0
 24 25  1  0  0  0  0
 24 26  1  0  0  0  0
 24 27  1  0  0  0  0
 23 24  1  0  0  0  0
 37 38  2  0  0  0  0
 37 39  1  0  0  0  0
 33 34  1  0  0  0  0
 33 35  1  0  0  0  0
 33 36  1  0  0  0  0
 31 32  1  0  0  0  0
 31 33  1  0  0  0  0
 31 37  1  0  0  0  0
 29 30  1  0  0  0  0
 29 31  1  0  0  0  0
 41 42  1  0  0  0  0
 41 43  1  0  0  0  0
 41 44  1  0  0  0  0
 39 40  1  0  0  0  0
 39 41  1  0  0  0  0
M  END
$$$$
default_name
  -OEChem-01062215323D

 44 43  0     1  0  0  0  0  0999 V2000
    2.4488   -3.0448    2.0990 H   0  0  0  0  0  0  0  0  0  0  0  0
    2.2788   -2.0018    2.3640 C   0  0  0  0  0  0  0  0  0  0  0  0
    2.9228   -1.7258    3.1960 H   0  0  0  0  0  0  0  0  0  0  0  0
    1.2358   -1.8618    2.6430 H   0  0  0  0  0  0  0  0  0  0  0  0
    2.6018   -1.1318    1.1730 C   0  0  0  0  0  0  0  0  0  0  0  0
    3.0048   -1.6348    0.1320 O   0  0  0  0  0  0  0  0  0  0  0  0
    2.4088    0.1752    1.3190 N   0  0  0  0  0  0  0  0  0  0  0  0
    2.0708    0.5242    2.2050 H   0  0  0  0  0  0  0  0  0  0  0  0
    2.6638    1.1782    0.2840 C   0  0  1  0  0  0  0  0  0  0  0  0
    3.1616    2.0293    0.7515 H   0  0  0  0  0  0  0  0  0  0  0  0
    3.6112    0.5959   -0.7795 C   0  0  0  0  0  0  0  0  0  0  0  0
    3.6636    1.2892   -1.6199 H   0  0  0  0  0  0  0  0  0  0  0  0
    3.1596   -0.3184   -1.1634 H   0  0  0  0  0  0  0  0  0  0  0  0
    5.3045    0.1752   -0.2710 S   0  0  0  0  0  0  0  0  0  0  0  0
    1.3469    1.6851   -0.3333 C   0  0  0  0  0  0  0  0  0  0  0  0
    1.2648    2.8300   -0.7777 O   0  0  0  0  0  0  0  0  0  0  0  0
    0.3175    0.8282   -0.3664 N   0  0  0  0  0  0  0  0  0  0  0  0
    0.4547   -0.0950    0.0124 H   0  0  0  0  0  0  0  0  0  0  0  0
   -0.9955    1.1587   -0.9165 C   0  0  0  0  0  0  0  0  0  0  0  0
   -1.4404    1.9729   -0.3405 H   0  0  0  0  0  0  0  0  0  0  0  0
   -0.8905    1.4855   -1.9526 H   0  0  0  0  0  0  0  0  0  0  0  0
   -1.6526    0.2889   -0.8780 H   0  0  0  0  0  0  0  0  0  0  0  0
    8.0927    6.5566   -4.4337 H   0  0  0  0  0  0  0  0  0  0  0  0
    7.7481    5.5342   -4.5816 C   0  0  0  0  0  0  0  0  0  0  0  0
    8.3502    5.0512   -5.3496 H   0  0  0  0  0  0  0  0  0  0  0  0
    6.7021    5.5412   -4.8822 H   0  0  0  0  0  0  0  0  0  0  0  0
    7.8907    4.7759   -3.2828 C   0  0  0  0  0  0  0  0  0  0  0  0
    8.3251    5.3352   -2.2851 O   0  0  0  0  0  0  0  0  0  0  0  0
    7.5146    3.4999   -3.2962 N   0  0  0  0  0  0  0  0  0  0  0  0
    7.1747    3.1011   -4.1592 H   0  0  0  0  0  0  0  0  0  0  0  0
    7.5714    2.6060   -2.1395 C   0  0  1  0  0  0  0  0  0  0  0  0
    8.4655    2.8345   -1.5568 H   0  0  0  0  0  0  0  0  0  0  0  0
    6.3411    2.8825   -1.2640 C   0  0  0  0  0  0  0  0  0  0  0  0
    6.3661    3.9372   -0.9861 H   0  0  0  0  0  0  0  0  0  0  0  0
    5.4418    2.7286   -1.8608 H   0  0  0  0  0  0  0  0  0  0  0  0
    6.1810    1.9366    0.2744 S   0  0  0  0  0  0  0  0  0  0  0  0
    7.6584    1.1390   -2.5964 C   0  0  0  0  0  0  0  0  0  0  0  0
    7.1324    0.7928   -3.6551 O   0  0  0  0  0  0  0  0  0  0  0  0
    8.3248    0.2860   -1.8079 N   0  0  0  0  0  0  0  0  0  0  0  0
    8.6976    0.6406   -0.9414 H   0  0  0  0  0  0  0  0  0  0  0  0
    8.4916   -1.1386   -2.0927 C   0  0  0  0  0  0  0  0  0  0  0  0
    7.5520   -1.6628   -1.9099 H   0  0  0  0  0  0  0  0  0  0  0  0
    8.7715   -1.2801   -3.1393 H   0  0  0  0  0  0  0  0  0  0  0  0
    9.2686   -1.5617   -1.4559 H   0  0  0  0  0  0  0  0  0  0  0  0
  5  6  2  0  0  0  0
  5  7  1  0  0  0  0
  2  3  1  0  0  0  0
  2  4  1  0  0  0  0
  2  5  1  0  0  0  0
  1  2  1  0  0  0  0
 15 16  2  0  0  0  0
 15 17  1  0  0  0  0
 14 36  1  0  0  0  0
 11 12  1  0  0  0  0
 11 13  1  0  0  0  0
 11 14  1  0  0  0  0
  9 10  1  0  0  0  0
  9 11  1  0  0  0  0
  9 15  1  0  0  0  0
  7  8  1  0  0  0  0
  7  9  1  0  0  0  0
 19 20  1  0  0  0  0
 19 21  1  0  0  0  0
 19 22  1  0  0  0  0
 17 18  1  0  0  0  0
 17 19  1  0  0  0  0
 27 28  2  0  0  0  0
 27 29  1  0  0  0  0
 24 25  1  0  0  0  0
 24 26  1  0  0  0  0
 24 27  1  0  0  0  0
 23 24  1  0  0  0  0
 37 38  2  0  0  0  0
 37 39  1  0  0  0  0
 33 34  1  0  0  0  0
 33 35  1  0  0  0  0
 33 36  1  0  0  0  0
 31 32  1  0  0  0  0
 31 33  1  0  0  0  0
 31 37  1  0  0  0  0
 29 30  1  0  0  0  0
 29 31  1  0  0  0  0
 41 42  1  0  0  0  0
 41 43  1  0  0  0  0
 41 44  1  0  0  0  0
 39 40  1  0  0  0  0
 39 41  1  0  0  0  0
M  END
$$$$
default_name
  -OEChem-01062215323D

 44 43  0     1  0  0  0  0  0999 V2000
    2.4488   -3.0448    2.0990 H   0  0  0  0  0  0  0  0  0  0  0  0
    2.2788   -2.0018    2.3640 C   0  0  0  0  0  0  0  0  0  0  0  0
    2.9228   -1.7258    3.1960 H   0  0  0  0  0  0  0  0  0  0  0  0
    1.2358   -1.8618    2.6430 H   0  0  0  0  0  0  0  0  0  0  0  0
    2.6018   -1.1318    1.1730 C   0  0  0  0  0  0  0  0  0  0  0  0
    3.0048   -1.6348    0.1320 O   0  0  0  0  0  0  0  0  0  0  0  0
    2.4088    0.1752    1.3190 N   0  0  0  0  0  0  0  0  0  0  0  0
    2.0708    0.5242    2.2050 H   0  0  0  0  0  0  0  0  0  0  0  0
    2.6638    1.1782    0.2840 C   0  0  1  0  0  0  0  0  0  0  0  0
    3.1616    2.0293    0.7515 H   0  0  0  0  0  0  0  0  0  0  0  0
    3.6112    0.5959   -0.7795 C   0  0  0  0  0  0  0  0  0  0  0  0
    3.6636    1.2892   -1.6199 H   0  0  0  0  0  0  0  0  0  0  0  0
    3.1596   -0.3184   -1.1634 H   0  0  0  0  0  0  0  0  0  0  0  0
    5.3045    0.1752   -0.2710 S   0  0  0  0  0  0  0  0  0  0  0  0
    1.3469    1.6851   -0.3333 C   0  0  0  0  0  0  0  0  0  0  0  0
    1.3303    2.7082   -1.0175 O   0  0  0  0  0  0  0  0  0  0  0  0
    0.2431    0.9637   -0.0964 N   0  0  0  0  0  0  0  0  0  0  0  0
    0.3287    0.1351    0.4700 H   0  0  0  0  0  0  0  0  0  0  0  0
   -1.0801    1.3137   -0.6088 C   0  0  0  0  0  0  0  0  0  0  0  0
   -1.3885    2.2785   -0.2004 H   0  0  0  0  0  0  0  0  0  0  0  0
   -1.0456    1.3940   -1.6968 H   0  0  0  0  0  0  0  0  0  0  0  0
   -1.8093    0.5531   -0.3267 H   0  0  0  0  0  0  0  0  0  0  0  0
    8.0927    6.5566   -4.4337 H   0  0  0  0  0  0  0  0  0  0  0  0
    7.7481    5.5342   -4.5816 C   0  0  0  0  0  0  0  0  0  0  0  0
    8.3502    5.0512   -5.3496 H   0  0  0  0  0  0  0  0  0  0  0  0
    6.7021    5.5412   -4.8822 H   0  0  0  0  0  0  0  0  0  0  0  0
    7.8907    4.7759   -3.2828 C   0  0  0  0  0  0  0  0  0  0  0  0
    8.3251    5.3352   -2.2851 O   0  0  0  0  0  0  0  0  0  0  0  0
    7.5146    3.4999   -3.2962 N   0  0  0  0  0  0  0  0  0  0  0  0
    7.1747    3.1011   -4.1592 H   0  0  0  0  0  0  0  0  0  0  0  0
    7.5714    2.6060   -2.1395 C   0  0  1  0  0  0  0  0  0  0  0  0
    8.4655    2.8345   -1.5568 H   0  0  0  0  0  0  0  0  0  0  0  0
    6.3411    2.8825   -1.2640 C   0  0  0  0  0  0  0  0  0  0  0  0
    6.3661    3.9372   -0.9861 H   0  0  0  0  0  0  0  0  0  0  0  0
    5.4418    2.7286   -1.8608 H   0  0  0  0  0  0  0  0  0  0  0  0
    6.1810    1.9366    0.2744 S   0  0  0  0  0  0  0  0  0  0  0  0
    7.6584    1.1390   -2.5964 C   0  0  0  0  0  0  0  0  0  0  0  0
    7.1324    0.7928   -3.6551 O   0  0  0  0  0  0  0  0  0  0  0  0
    8.3248    0.2860   -1.8079 N   0  0  0  0  0  0  0  0  0  0  0  0
    8.6976    0.6406   -0.9414 H   0  0  0  0  0  0  0  0  0  0  0  0
    8.4916   -1.1386   -2.0927 C   0  0  0  0  0  0  0  0  0  0  0  0
    7.5520   -1.6628   -1.9099 H   0  0  0  0  0  0  0  0  0  0  0  0
    8.7715   -1.2801   -3.1393 H   0  0  0  0  0  0  0  0  0  0  0  0
    9.2686   -1.5617   -1.4559 H   0  0  0  0  0  0  0  0  0  0  0  0
  5  6  2  0  0  0  0
  5  7  1  0  0  0  0
  2  3  1  0  0  0  0
  2  4  1  0  0  0  0
  2  5  1  0  0  0  0
  1  2  1  0  0  0  0
 15 16  2  0  0  0  0
 15 17  1  0  0  0  0
 14 36  1  0  0  0  0
 11 12  1  0  0  0  0
 11 13  1  0  0  0  0
 11 14  1  0  0  0  0
  9 10  1  0  0  0  0
  9 11  1  0  0  0  0
  9 15  1  0  0  0  0
  7  8  1  0  0  0  0
  7  9  1  0  0  0  0
 19 20  1  0  0  0  0
 19 21  1  0  0  0  0
 19 22  1  0  0  0  0
 17 18  1  0  0  0  0
 17 19  1  0  0  0  0
 27 28  2  0  0  0  0
 27 29  1  0  0  0  0
 24 25  1  0  0  0  0
 24 26  1  0  0  0  0
 24 27  1  0  0  0  0
 23 24  1  0  0  0  0
 37 38  2  0  0  0  0
 37 39  1  0  0  0  0
 33 34  1  0  0  0  0
 33 35  1  0  0  0  0
 33 36  1  0  0  0  0
 31 32  1  0  0  0  0
 31 33  1  0  0  0  0
 31 37  1  0  0  0  0
 29 30  1  0  0  0  0
 29 31  1  0  0  0  0
 41 42  1  0  0  0  0
 41 43  1  0  0  0  0
 41 44  1  0  0  0  0
 39 40  1  0  0  0  0
 39 41  1  0  0  0  0
M  END
$$$$
default_name
  -OEChem-01062215323D

 44 43  0     1  0  0  0  0  0999 V2000
    2.4488   -3.0448    2.0990 H   0  0  0  0  0  0  0  0  0  0  0  0
    2.2788   -2.0018    2.3640 C   0  0  0  0  0  0  0  0  0  0  0  0
    2.9228   -1.7258    3.1960 H   0  0  0  0  0  0  0  0  0  0  0  0
    1.2358   -1.8618    2.6430 H   0  0  0  0  0  0  0  0  0  0  0  0
    2.6018   -1.1318    1.1730 C   0  0  0  0  0  0  0  0  0  0  0  0
    3.0048   -1.6348    0.1320 O   0  0  0  0  0  0  0  0  0  0  0  0
    2.4088    0.1752    1.3190 N   0  0  0  0  0  0  0  0  0  0  0  0
    2.0708    0.5242    2.2050 H   0  0  0  0  0  0  0  0  0  0  0  0
    2.6638    1.1782    0.2840 C   0  0  1  0  0  0  0  0  0  0  0  0
    3.1616    2.0293    0.7515 H   0  0  0  0  0  0  0  0  0  0  0  0
    3.6112    0.5959   -0.7795 C   0  0  0  0  0  0  0  0  0  0  0  0
    3.6636    1.2892   -1.6199 H   0  0  0  0  0  0  0  0  0  0  0  0
    3.1596   -0.3184   -1.1634 H   0  0  0  0  0  0  0  0  0  0  0  0
    5.3045    0.1752   -0.2710 S   0  0  0  0  0  0  0  0  0  0  0  0
    1.3469    1.6851   -0.3333 C   0  0  0  0  0  0  0  0  0  0  0  0
    1.3605    2.5307   -1.2277 O   0  0  0  0  0  0  0  0  0  0  0  0
    0.2083    1.1621    0.1409 N   0  0  0  0  0  0  0  0  0  0  0  0
    0.2700    0.4717    0.8718 H   0  0  0  0  0  0  0  0  0  0  0  0
   -1.1195    1.5402   -0.3386 C   0  0  0  0  0  0  0  0  0  0  0  0
   -1.2947    2.5992   -0.1372 H   0  0  0  0  0  0  0  0  0  0  0  0
   -1.1831    1.3784   -1.4162 H   0  0  0  0  0  0  0  0  0  0  0  0
   -1.8863    0.9466    0.1607 H   0  0  0  0  0  0  0  0  0  0  0  0
    8.0927    6.5566   -4.4337 H   0  0  0  0  0  0  0  0  0  0  0  0
    7.7481    5.5342   -4.5816 C   0  0  0  0  0  0  0  0  0  0  0  0
    8.3502    5.0512   -5.3496 H   0  0  0  0  0  0  0  0  0  0  0  0
    6.7021    5.5412   -4.8822 H   0  0  0  0  0  0  0  0  0  0  0  0
    7.8907    4.7759   -3.2828 C   0  0  0  0  0  0  0  0  0  0  0  0
    8.3251    5.3352   -2.2851 O   0  0  0  0  0  0  0  0  0  0  0  0
    7.5146    3.4999   -3.2962 N   0  0  0  0  0  0  0  0  0  0  0  0
    7.1747    3.1011   -4.1592 H   0  0  0  0  0  0  0  0  0  0  0  0
    7.5714    2.6060   -2.1395 C   0  0  1  0  0  0  0  0  0  0  0  0
    8.4655    2.8345   -1.5568 H   0  0  0  0  0  0  0  0  0  0  0  0
    6.3411    2.8825   -1.2640 C   0  0  0  0  0  0  0  0  0  0  0  0
    6.3661    3.9372   -0.9861 H   0  0  0  0  0  0  0  0  0  0  0  0
    5.4418    2.7286   -1.8608 H   0  0  0  0  0  0  0  0  0  0  0  0
    6.1810    1.9366    0.2744 S   0  0  0  0  0  0  0  0  0  0  0  0
    7.6584    1.1390   -2.5964 C   0  0  0  0  0  0  0  0  0  0  0  0
    7.1324    0.7928   -3.6551 O   0  0  0  0  0  0  0  0  0  0  0  0
    8.3248    0.2860   -1.8079 N   0  0  0  0  0  0  0  0  0  0  0  0
    8.6976    0.6406   -0.9414 H   0  0  0  0  0  0  0  0  0  0  0  0
    8.4916   -1.1386   -2.0927 C   0  0  0  0  0  0  0  0  0  0  0  0
    7.5520   -1.6628   -1.9099 H   0  0  0  0  0  0  0  0  0  0  0  0
    8.7715   -1.2801   -3.1393 H   0  0  0  0  0  0  0  0  0  0  0  0
    9.2686   -1.5617   -1.4559 H   0  0  0  0  0  0  0  0  0  0  0  0
  5  6  2  0  0  0  0
  5  7  1  0  0  0  0
  2  3  1  0  0  0  0
  2  4  1  0  0  0  0
  2  5  1  0  0  0  0
  1  2  1  0  0  0  0
 15 16  2  0  0  0  0
 15 17  1  0  0  0  0
 14 36  1  0  0  0  0
 11 12  1  0  0  0  0
 11 13  1  0  0  0  0
 11 14  1  0  0  0  0
  9 10  1  0  0  0  0
  9 11  1  0  0  0  0
  9 15  1  0  0  0  0
  7  8  1  0  0  0  0
  7  9  1  0  0  0  0
 19 20  1  0  0  0  0
 19 21  1  0  0  0  0
 19 22  1  0  0  0  0
 17 18  1  0  0  0  0
 17 19  1  0  0  0  0
 27 28  2  0  0  0  0
 27 29  1  0  0  0  0
 24 25  1  0  0  0  0
 24 26  1  0  0  0  0
 24 27  1  0  0  0  0
 23 24  1  0  0  0  0
 37 38  2  0  0  0  0
 37 39  1  0  0  0  0
 33 34  1  0  0  0  0
 33 35  1  0  0  0  0
 33 36  1  0  0  0  0
 31 32  1  0  0  0  0
 31 33  1  0  0  0  0
 31 37  1  0  0  0  0
 29 30  1  0  0  0  0
 29 31  1  0  0  0  0
 41 42  1  0  0  0  0
 41 43  1  0  0  0  0
 41 44  1  0  0  0  0
 39 40  1  0  0  0  0
 39 41  1  0  0  0  0
M  END
$$$$
default_name
  -OEChem-01062215323D

 44 43  0     1  0  0  0  0  0999 V2000
    2.4488   -3.0448    2.0990 H   0  0  0  0  0  0  0  0  0  0  0  0
    2.2788   -2.0018    2.3640 C   0  0  0  0  0  0  0  0  0  0  0  0
    2.9228   -1.7258    3.1960 H   0  0  0  0  0  0  0  0  0  0  0  0
    1.2358   -1.8618    2.6430 H   0  0  0  0  0  0  0  0  0  0  0  0
    2.6018   -1.1318    1.1730 C   0  0  0  0  0  0  0  0  0  0  0  0
    3.0048   -1.6348    0.1320 O   0  0  0  0  0  0  0  0  0  0  0  0
    2.4088    0.1752    1.3190 N   0  0  0  0  0  0  0  0  0  0  0  0
    2.0708    0.5242    2.2050 H   0  0  0  0  0  0  0  0  0  0  0  0
    2.6638    1.1782    0.2840 C   0  0  1  0  0  0  0  0  0  0  0  0
    3.1616    2.0293    0.7515 H   0  0  0  0  0  0  0  0  0  0  0  0
    3.6112    0.5959   -0.7795 C   0  0  0  0  0  0  0  0  0  0  0  0
    3.6636    1.2892   -1.6199 H   0  0  0  0  0  0  0  0  0  0  0  0
    3.1596   -0.3184   -1.1634 H   0  0  0  0  0  0  0  0  0  0  0  0
    5.3045    0.1752   -0.2710 S   0  0  0  0  0  0  0  0  0  0  0  0
    1.3469    1.6851   -0.3333 C   0  0  0  0  0  0  0  0  0  0  0  0
    1.3533    2.3095   -1.3941 O   0  0  0  0  0  0  0  0  0  0  0  0
    0.2154    1.4098    0.3291 N   0  0  0  0  0  0  0  0  0  0  0  0
    0.2823    0.8919    1.1905 H   0  0  0  0  0  0  0  0  0  0  0  0
   -1.1110    1.8230   -0.1245 C   0  0  0  0  0  0  0  0  0  0  0  0
   -1.1654    2.9133   -0.1550 H   0  0  0  0  0  0  0  0  0  0  0  0
   -1.2937    1.4396   -1.1300 H   0  0  0  0  0  0  0  0  0  0  0  0
   -1.8783    1.4425    0.5510 H   0  0  0  0  0  0  0  0  0  0  0  0
    8.0927    6.5566   -4.4337 H   0  0  0  0  0  0  0  0  0  0  0  0
    7.7481    5.5342   -4.5816 C   0  0  0  0  0  0  0  0  0  0  0  0
    8.3502    5.0512   -5.3496 H   0  0  0  0  0  0  0  0  0  0  0  0
    6.7021    5.5412   -4.8822 H   0  0  0  0  0  0  0  0  0  0  0  0
    7.8907    4.7759   -3.2828 C   0  0  0  0  0  0  0  0  0  0  0  0
    8.3251    5.3352   -2.2851 O   0  0  0  0  0  0  0  0  0  0  0  0
    7.5146    3.4999   -3.2962 N   0  0  0  0  0  0  0  0  0  0  0  0
    7.1747    3.1011   -4.1592 H   0  0  0  0  0  0  0  0  0  0  0  0
    7.5714    2.6060   -2.1395 C   0  0  1  0  0  0  0  0  0  0  0  0
    8.4655    2.8345   -1.5568 H   0  0  0  0  0  0  0  0  0  0  0  0
    6.3411    2.8825   -1.2640 C   0  0  0  0  0  0  0  0  0  0  0  0
    6.3661    3.9372   -0.9861 H   0  0  0  0  0  0  0  0  0  0  0  0
    5.4418    2.7286   -1.8608 H   0  0  0  0  0  0  0  0  0  0  0  0
    6.1810    1.9366    0.2744 S   0  0  0  0  0  0  0  0  0  0  0  0
    7.6584    1.1390   -2.5964 C   0  0  0  0  0  0  0  0  0  0  0  0
    7.1324    0.7928   -3.6551 O   0  0  0  0  0  0  0  0  0  0  0  0
    8.3248    0.2860   -1.8079 N   0  0  0  0  0  0  0  0  0  0  0  0
    8.6976    0.6406   -0.9414 H   0  0  0  0  0  0  0  0  0  0  0  0
    8.4916   -1.1386   -2.0927 C   0  0  0  0  0  0  0  0  0  0  0  0
    7.5520   -1.6628   -1.9099 H   0  0  0  0  0  0  0  0  0  0  0  0
    8.7715   -1.2801   -3.1393 H   0  0  0  0  0  0  0  0  0  0  0  0
    9.2686   -1.5617   -1.4559 H   0  0  0  0  0  0  0  0  0  0  0  0
  5  6  2  0  0  0  0
  5  7  1  0  0  0  0
  2  3  1  0  0  0  0
  2  4  1  0  0  0  0
  2  5  1  0  0  0  0
  1  2  1  0  0  0  0
 15 16  2  0  0  0  0
 15 17  1  0  0  0  0
 14 36  1  0  0  0  0
 11 12  1  0  0  0  0
 11 13  1  0  0  0  0
 11 14  1  0  0  0  0
  9 10  1  0  0  0  0
  9 11  1  0  0  0  0
  9 15  1  0  0  0  0
  7  8  1  0  0  0  0
  7  9  1  0  0  0  0
 19 20  1  0  0  0  0
 19 21  1  0  0  0  0
 19 22  1  0  0  0  0
 17 18  1  0  0  0  0
 17 19  1  0  0  0  0
 27 28  2  0  0  0  0
 27 29  1  0  0  0  0
 24 25  1  0  0  0  0
 24 26  1  0  0  0  0
 24 27  1  0  0  0  0
 23 24  1  0  0  0  0
 37 38  2  0  0  0  0
 37 39  1  0  0  0  0
 33 34  1  0  0  0  0
 33 35  1  0  0  0  0
 33 36  1  0  0  0  0
 31 32  1  0  0  0  0
 31 33  1  0  0  0  0
 31 37  1  0  0  0  0
 29 30  1  0  0  0  0
 29 31  1  0  0  0  0
 41 42  1  0  0  0  0
 41 43  1  0  0  0  0
 41 44  1  0  0  0  0
 39 40  1  0  0  0  0
 39 41  1  0  0  0  0
M  END
$$$$
default_name
  -OEChem-01062215323D

 44 43  0     1  0  0  0  0  0999 V2000
    2.4488   -3.0448    2.0990 H   0  0  0  0  0  0  0  0  0  0  0  0
    2.2788   -2.0018    2.3640 C   0  0  0  0  0  0  0  0  0  0  0  0
    2.9228   -1.7258    3.1960 H   0  0  0  0  0  0  0  0  0  0  0  0
    1.2358   -1.8618    2.6430 H   0  0  0  0  0  0  0  0  0  0  0  0
    2.6018   -1.1318    1.1730 C   0  0  0  0  0  0  0  0  0  0  0  0
    3.0048   -1.6348    0.1320 O   0  0  0  0  0  0  0  0  0  0  0  0
    2.4088    0.1752    1.3190 N   0  0  0  0  0  0  0  0  0  0  0  0
    2.0708    0.5242    2.2050 H   0  0  0  0  0  0  0  0  0  0  0  0
    2.6638    1.1782    0.2840 C   0  0  1  0  0  0  0  0  0  0  0  0
    3.1616    2.0293    0.7515 H   0  0  0  0  0  0  0  0  0  0  0  0
    3.6112    0.5959   -0.7795 C   0  0  0  0  0  0  0  0  0  0  0  0
    3.6636    1.2892   -1.6199 H   0  0  0  0  0  0  0  0  0  0  0  0
    3.1596   -0.3184   -1.1634 H   0  0  0  0  0  0  0  0  0  0  0  0
    5.3045    0.1752   -0.2710 S   0  0  0  0  0  0  0  0  0  0  0  0
    1.3469    1.6851   -0.3333 C   0  0  0  0  0  0  0  0  0  0  0  0
    1.3093    2.0598   -1.5052 O   0  0  0  0  0  0  0  0  0  0  0  0
    0.2640    1.6900    0.4555 N   0  0  0  0  0  0  0  0  0  0  0  0
    0.3650    1.3670    1.4042 H   0  0  0  0  0  0  0  0  0  0  0  0
   -1.0553    2.1426    0.0191 C   0  0  0  0  0  0  0  0  0  0  0  0
   -1.0095    3.1993   -0.2527 H   0  0  0  0  0  0  0  0  0  0  0  0
   -1.3698    1.5735   -0.8577 H   0  0  0  0  0  0  0  0  0  0  0  0
   -1.7859    2.0070    0.8176 H   0  0  0  0  0  0  0  0  0  0  0  0
    8.0927    6.5566   -4.4337 H   0  0  0  0  0  0  0  0  0  0  0  0
    7.7481    5.5342   -4.5816 C   0  0  0  0  0  0  0  0  0  0  0  0
    8.3502    5.0512   -5.3496 H   0  0  0  0  0  0  0  0  0  0  0  0
    6.7021    5.5412   -4.8822 H   0  0  0  0  0  0  0  0  0  0  0  0
    7.8907    4.7759   -3.2828 C   0  0  0  0  0  0  0  0  0  0  0  0
    8.3251    5.3352   -2.2851 O   0  0  0  0  0  0  0  0  0  0  0  0
    7.5146    3.4999   -3.2962 N   0  0  0  0  0  0  0  0  0  0  0  0
    7.1747    3.1011   -4.1592 H   0  0  0  0  0  0  0  0  0  0  0  0
    7.5714    2.6060   -2.1395 C   0  0  1  0  0  0  0  0  0  0  0  0
    8.4655    2.8345   -1.5568 H   0  0  0  0  0  0  0  0  0  0  0  0
    6.3411    2.8825   -1.2640 C   0  0  0  0  0  0  0  0  0  0  0  0
    6.3661    3.9372   -0.9861 H   0  0  0  0  0  0  0  0  0  0  0  0
    5.4418    2.7286   -1.8608 H   0  0  0  0  0  0  0  0  0  0  0  0
    6.1810    1.9366    0.2744 S   0  0  0  0  0  0  0  0  0  0  0  0
    7.6584    1.1390   -2.5964 C   0  0  0  0  0  0  0  0  0  0  0  0
    7.1324    0.7928   -3.6551 O   0  0  0  0  0  0  0  0  0  0  0  0
    8.3248    0.2860   -1.8079 N   0  0  0  0  0  0  0  0  0  0  0  0
    8.6976    0.6406   -0.9414 H   0  0  0  0  0  0  0  0  0  0  0  0
    8.4916   -1.1386   -2.0927 C   0  0  0  0  0  0  0  0  0  0  0  0
    7.5520   -1.6628   -1.9099 H   0  0  0  0  0  0  0  0  0  0  0  0
    8.7715   -1.2801   -3.1393 H   0  0  0  0  0  0  0  0  0  0  0  0
    9.2686   -1.5617   -1.4559 H   0  0  0  0  0  0  0  0  0  0  0  0
  5  6  2  0  0  0  0
  5  7  1  0  0  0  0
  2  3  1  0  0  0  0
  2  4  1  0  0  0  0
  2  5  1  0  0  0  0
  1  2  1  0  0  0  0
 15 16  2  0  0  0  0
 15 17  1  0  0  0  0
 14 36  1  0  0  0  0
 11 12  1  0  0  0  0
 11 13  1  0  0  0  0
 11 14  1  0  0  0  0
  9 10  1  0  0  0  0
  9 11  1  0  0  0  0
  9 15  1  0  0  0  0
  7  8  1  0  0  0  0
  7  9  1  0  0  0  0
 19 20  1  0  0  0  0
 19 21  1  0  0  0  0
 19 22  1  0  0  0  0
 17 18  1  0  0  0  0
 17 19  1  0  0  0  0
 27 28  2  0  0  0  0
 27 29  1  0  0  0  0
 24 25  1  0  0  0  0
 24 26  1  0  0  0  0
 24 27  1  0  0  0  0
 23 24  1  0  0  0  0
 37 38  2  0  0  0  0
 37 39  1  0  0  0  0
 33 34  1  0  0  0  0
 33 35  1  0  0  0  0
 33 36  1  0  0  0  0
 31 32  1  0  0  0  0
 31 33  1  0  0  0  0
 31 37  1  0  0  0  0
 29 30  1  0  0  0  0
 29 31  1  0  0  0  0
 41 42  1  0  0  0  0
 41 43  1  0  0  0  0
 41 44  1  0  0  0  0
 39 40  1  0  0  0  0
 39 41  1  0  0  0  0
M  END
$$$$
default_name
  -OEChem-01062215323D

 44 43  0     1  0  0  0  0  0999 V2000
    2.4488   -3.0448    2.0990 H   0  0  0  0  0  0  0  0  0  0  0  0
    2.2788   -2.0018    2.3640 C   0  0  0  0  0  0  0  0  0  0  0  0
    2.9228   -1.7258    3.1960 H   0  0  0  0  0  0  0  0  0  0  0  0
    1.2358   -1.8618    2.6430 H   0  0  0  0  0  0  0  0  0  0  0  0
    2.6018   -1.1318    1.1730 C   0  0  0  0  0  0  0  0  0  0  0  0
    3.0048   -1.6348    0.1320 O   0  0  0  0  0  0  0  0  0  0  0  0
    2.4088    0.1752    1.3190 N   0  0  0  0  0  0  0  0  0  0  0  0
    2.0708    0.5242    2.2050 H   0  0  0  0  0  0  0  0  0  0  0  0
    2.6638    1.1782    0.2840 C   0  0  1  0  0  0  0  0  0  0  0  0
    3.1616    2.0293    0.7515 H   0  0  0  0  0  0  0  0  0  0  0  0
    3.6112    0.5959   -0.7795 C   0  0  0  0  0  0  0  0  0  0  0  0
    3.6636    1.2892   -1.6199 H   0  0  0  0  0  0  0  0  0  0  0  0
    3.1596   -0.3184   -1.1634 H   0  0  0  0  0  0  0  0  0  0  0  0
    5.3045    0.1752   -0.2710 S   0  0  0  0  0  0  0  0  0  0  0  0
    1.3469    1.6851   -0.3333 C   0  0  0  0  0  0  0  0  0  0  0  0
    1.2314    1.7987   -1.5535 O   0  0  0  0  0  0  0  0  0  0  0  0
    0.3508    1.9836    0.5114 N   0  0  0  0  0  0  0  0  0  0  0  0
    0.5124    1.8646    1.4985 H   0  0  0  0  0  0  0  0  0  0  0  0
   -0.9561    2.4773    0.0823 C   0  0  0  0  0  0  0  0  0  0  0  0
   -0.8376    3.4378   -0.4237 H   0  0  0  0  0  0  0  0  0  0  0  0
   -1.4062    1.7711   -0.6178 H   0  0  0  0  0  0  0  0  0  0  0  0
   -1.6155    2.6018    0.9422 H   0  0  0  0  0  0  0  0  0  0  0  0
    8.0927    6.5566   -4.4337 H   0  0  0  0  0  0  0  0  0  0  0  0
    7.7481    5.5342   -4.5816 C   0  0  0  0  0  0  0  0  0  0  0  0
    8.3502    5.0512   -5.3496 H   0  0  0  0  0  0  0  0  0  0  0  0
    6.7021    5.5412   -4.8822 H   0  0  0  0  0  0  0  0  0  0  0  0
    7.8907    4.7759   -3.2828 C   0  0  0  0  0  0  0  0  0  0  0  0
    8.3251    5.3352   -2.2851 O   0  0  0  0  0  0  0  0  0  0  0  0
    7.5146    3.4999   -3.2962 N   0  0  0  0  0  0  0  0  0  0  0  0
    7.1747    3.1011   -4.1592 H   0  0  0  0  0  0  0  0  0  0  0  0
    7.5714    2.6060   -2.1395 C   0  0  1  0  0  0  0  0  0  0  0  0
    8.4655    2.8345   -1.5568 H   0  0  0  0  0  0  0  0  0  0  0  0
    6.3411    2.8825   -1.2640 C   0  0  0  0  0  0  0  0  0  0  0  0
    6.3661    3.9372   -0.9861 H   0  0  0  0  0  0  0  0  0  0  0  0
    5.4418    2.7286   -1.8608 H   0  0  0  0  0  0  0  0  0  0  0  0
    6.1810    1.9366    0.2744 S   0  0  0  0  0  0  0  0  0  0  0  0
    7.6584    1.1390   -2.5964 C   0  0  0  0  0  0  0  0  0  0  0  0
    7.1324    0.7928   -3.6551 O   0  0  0  0  0  0  0  0  0  0  0  0
    8.3248    0.2860   -1.8079 N   0  0  0  0  0  0  0  0  0  0  0  0
    8.6976    0.6406   -0.9414 H   0  0  0  0  0  0  0  0  0  0  0  0
    8.4916   -1.1386   -2.0927 C   0  0  0  0  0  0  0  0  0  0  0  0
    7.5520   -1.6628   -1.9099 H   0  0  0  0  0  0  0  0  0  0  0  0
    8.7715   -1.2801   -3.1393 H   0  0  0  0  0  0  0  0  0  0  0  0
    9.2686   -1.5617   -1.4559 H   0  0  0  0  0  0  0  0  0  0  0  0
  5  6  2  0  0  0  0
  5  7  1  0  0  0  0
  2  3  1  0  0  0  0
  2  4  1  0  0  0  0
  2  5  1  0  0  0  0
  1  2  1  0  0  0  0
 15 16  2  0  0  0  0
 15 17  1  0  0  0  0
 14 36  1  0  0  0  0
 11 12  1  0  0  0  0
 11 13  1  0  0  0  0
 11 14  1  0  0  0  0
  9 10  1  0  0  0  0
  9 11  1  0  0  0  0
  9 15  1  0  0  0  0
  7  8  1  0  0  0  0
  7  9  1  0  0  0  0
 19 20  1  0  0  0  0
 19 21  1  0  0  0  0
 19 22  1  0  0  0  0
 17 18  1  0  0  0  0
 17 19  1  0  0  0  0
 27 28  2  0  0  0  0
 27 29  1  0  0  0  0
 24 25  1  0  0  0  0
 24 26  1  0  0  0  0
 24 27  1  0  0  0  0
 23 24  1  0  0  0  0
 37 38  2  0  0  0  0
 37 39  1  0  0  0  0
 33 34  1  0  0  0  0
 33 35  1  0  0  0  0
 33 36  1  0  0  0  0
 31 32  1  0  0  0  0
 31 33  1  0  0  0  0
 31 37  1  0  0  0  0
 29 30  1  0  0  0  0
 29 31  1  0  0  0  0
 41 42  1  0  0  0  0
 41 43  1  0  0  0  0
 41 44  1  0  0  0  0
 39 40  1  0  0  0  0
 39 41  1  0  0  0  0
M  END
$$$$
default_name
  -OEChem-01062215323D

 44 43  0     1  0  0  0  0  0999 V2000
    2.4488   -3.0448    2.0990 H   0  0  0  0  0  0  0  0  0  0  0  0
    2.2788   -2.0018    2.3640 C   0  0  0  0  0  0  0  0  0  0  0  0
    2.9228   -1.7258    3.1960 H   0  0  0  0  0  0  0  0  0  0  0  0
    1.2358   -1.8618    2.6430 H   0  0  0  0  0  0  0  0  0  0  0  0
    2.6018   -1.1318    1.1730 C   0  0  0  0  0  0  0  0  0  0  0  0
    3.0048   -1.6348    0.1320 O   0  0  0  0  0  0  0  0  0  0  0  0
    2.4088    0.1752    1.3190 N   0  0  0  0  0  0  0  0  0  0  0  0
    2.0708    0.5242    2.2050 H   0  0  0  0  0  0  0  0  0  0  0  0
    2.6638    1.1782    0.2840 C   0  0  1  0  0  0  0  0  0  0  0  0
    3.1616    2.0293    0.7515 H   0  0  0  0  0  0  0  0  0  0  0  0
    3.6112    0.5959   -0.7795 C   0  0  0  0  0  0  0  0  0  0  0  0
    3.6636    1.2892   -1.6199 H   0  0  0  0  0  0  0  0  0  0  0  0
    3.1596   -0.3184   -1.1634 H   0  0  0  0  0  0  0  0  0  0  0  0
    5.3045    0.1752   -0.2710 S   0  0  0  0  0  0  0  0  0  0  0  0
    1.3469    1.6851   -0.3333 C   0  0  0  0  0  0  0  0  0  0  0  0
    1.1250    1.5437   -1.5358 O   0  0  0  0  0  0  0  0  0  0  0  0
    0.4698    2.2705    0.4931 N   0  0  0  0  0  0  0  0  0  0  0  0
    0.7144    2.3509    1.4670 H   0  0  0  0  0  0  0  0  0  0  0  0
   -0.8202    2.8043    0.0608 C   0  0  0  0  0  0  0  0  0  0  0  0
   -0.6613    3.6124   -0.6563 H   0  0  0  0  0  0  0  0  0  0  0  0
   -1.4004    2.0187   -0.4267 H   0  0  0  0  0  0  0  0  0  0  0  0
   -1.3785    3.1861    0.9165 H   0  0  0  0  0  0  0  0  0  0  0  0
    8.0927    6.5566   -4.4337 H   0  0  0  0  0  0  0  0  0  0  0  0
    7.7481    5.5342   -4.5816 C   0  0  0  0  0  0  0  0  0  0  0  0
    8.3502    5.0512   -5.3496 H   0  0  0  0  0  0  0  0  0  0  0  0
    6.7021    5.5412   -4.8822 H   0  0  0  0  0  0  0  0  0  0  0  0
    7.8907    4.7759   -3.2828 C   0  0  0  0  0  0  0  0  0  0  0  0
    8.3251    5.3352   -2.2851 O   0  0  0  0  0  0  0  0  0  0  0  0
    7.5146    3.4999   -3.2962 N   0  0  0  0  0  0  0  0  0  0  0  0
    7.1747    3.1011   -4.1592 H   0  0  0  0  0  0  0  0  0  0  0  0
    7.5714    2.6060   -2.1395 C   0  0  1  0  0  0  0  0  0  0  0  0
    8.4655    2.8345   -1.5568 H   0  0  0  0  0  0  0  0  0  0  0  0
    6.3411    2.8825   -1.2640 C   0  0  0  0  0  0  0  0  0  0  0  0
    6.3661    3.9372   -0.9861 H   0  0  0  0  0  0  0  0  0  0  0  0
    5.4418    2.7286   -1.8608 H   0  0  0  0  0  0  0  0  0  0  0  0
    6.1810    1.9366    0.2744 S   0  0  0  0  0  0  0  0  0  0  0  0
    7.6584    1.1390   -2.5964 C   0  0  0  0  0  0  0  0  0  0  0  0
    7.1324    0.7928   -3.6551 O   0  0  0  0  0  0  0  0  0  0  0  0
    8.3248    0.2860   -1.8079 N   0  0  0  0  0  0  0  0  0  0  0  0
    8.6976    0.6406   -0.9414 H   0  0  0  0  0  0  0  0  0  0  0  0
    8.4916   -1.1386   -2.0927 C   0  0  0  0  0  0  0  0  0  0  0  0
    7.5520   -1.6628   -1.9099 H   0  0  0  0  0  0  0  0  0  0  0  0
    8.7715   -1.2801   -3.1393 H   0  0  0  0  0  0  0  0  0  0  0  0
    9.2686   -1.5617   -1.4559 H   0  0  0  0  0  0  0  0  0  0  0  0
  5  6  2  0  0  0  0
  5  7  1  0  0  0  0
  2  3  1  0  0  0  0
  2  4  1  0  0  0  0
  2  5  1  0  0  0  0
  1  2  1  0  0  0  0
 15 16  2  0  0  0  0
 15 17  1  0  0  0  0
 14 36  1  0  0  0  0
 11 12  1  0  0  0  0
 11 13  1  0  0  0  0
 11 14  1  0  0  0  0
  9 10  1  0  0  0  0
  9 11  1  0  0  0  0
  9 15  1  0  0  0  0
  7  8  1  0  0  0  0
  7  9  1  0  0  0  0
 19 20  1  0  0  0  0
 19 21  1  0  0  0  0
 19 22  1  0  0  0  0
 17 18  1  0  0  0  0
 17 19  1  0  0  0  0
 27 28  2  0  0  0  0
 27 29  1  0  0  0  0
 24 25  1  0  0  0  0
 24 26  1  0  0  0  0
 24 27  1  0  0  0  0
 23 24  1  0  0  0  0
 37 38  2  0  0  0  0
 37 39  1  0  0  0  0
 33 34  1  0  0  0  0
 33 35  1  0  0  0  0
 33 36  1  0  0  0  0
 31 32  1  0  0  0  0
 31 33  1  0  0  0  0
 31 37  1  0  0  0  0
 29 30  1  0  0  0  0
 29 31  1  0  0  0  0
 41 42  1  0  0  0  0
 41 43  1  0  0  0  0
 41 44  1  0  0  0  0
 39 40  1  0  0  0  0
 39 41  1  0  0  0  0
M  END
$$$$
default_name
  -OEChem-01062215323D

 44 43  0     1  0  0  0  0  0999 V2000
    2.4488   -3.0448    2.0990 H   0  0  0  0  0  0  0  0  0  0  0  0
    2.2788   -2.0018    2.3640 C   0  0  0  0  0  0  0  0  0  0  0  0
    2.9228   -1.7258    3.1960 H   0  0  0  0  0  0  0  0  0  0  0  0
    1.2358   -1.8618    2.6430 H   0  0  0  0  0  0  0  0  0  0  0  0
    2.6018   -1.1318    1.1730 C   0  0  0  0  0  0  0  0  0  0  0  0
    3.0048   -1.6348    0.1320 O   0  0  0  0  0  0  0  0  0  0  0  0
    2.4088    0.1752    1.3190 N   0  0  0  0  0  0  0  0  0  0  0  0
    2.0708    0.5242    2.2050 H   0  0  0  0  0  0  0  0  0  0  0  0
    2.6638    1.1782    0.2840 C   0  0  1  0  0  0  0  0  0  0  0  0
    3.1616    2.0293    0.7515 H   0  0  0  0  0  0  0  0  0  0  0  0
    3.6112    0.5959   -0.7795 C   0  0  0  0  0  0  0  0  0  0  0  0
    3.6636    1.2892   -1.6199 H   0  0  0  0  0  0  0  0  0  0  0  0
    3.1596   -0.3184   -1.1634 H   0  0  0  0  0  0  0  0  0  0  0  0
    5.3045    0.1752   -0.2710 S   0  0  0  0  0  0  0  0  0  0  0  0
    1.3469    1.6851   -0.3333 C   0  0  0  0  0  0  0  0  0  0  0  0
    0.9972    1.3125   -1.4532 O   0  0  0  0  0  0  0  0  0  0  0  0
    0.6130    2.5313    0.4017 N   0  0  0  0  0  0  0  0  0  0  0  0
    0.9572    2.7926    1.3116 H   0  0  0  0  0  0  0  0  0  0  0  0
   -0.6568    3.1013   -0.0438 C   0  0  0  0  0  0  0  0  0  0  0  0
   -0.4928    3.7114   -0.9346 H   0  0  0  0  0  0  0  0  0  0  0  0
   -1.3529    2.2997   -0.2974 H   0  0  0  0  0  0  0  0  0  0  0  0
   -1.0911    3.7203    0.7422 H   0  0  0  0  0  0  0  0  0  0  0  0
    8.0927    6.5566   -4.4337 H   0  0  0  0  0  0  0  0  0  0  0  0
    7.7481    5.5342   -4.5816 C   0  0  0  0  0  0  0  0  0  0  0  0
    8.3502    5.0512   -5.3496 H   0  0  0  0  0  0  0  0  0  0  0  0
    6.7021    5.5412   -4.8822 H   0  0  0  0  0  0  0  0  0  0  0  0
    7.8907    4.7759   -3.2828 C   0  0  0  0  0  0  0  0  0  0  0  0
    8.3251    5.3352   -2.2851 O   0  0  0  0  0  0  0  0  0  0  0  0
    7.5146    3.4999   -3.2962 N   0  0  0  0  0  0  0  0  0  0  0  0
    7.1747    3.1011   -4.1592 H   0  0  0  0  0  0  0  0  0  0  0  0
    7.5714    2.6060   -2.1395 C   0  0  1  0  0  0  0  0  0  0  0  0
    8.4655    2.8345   -1.5568 H   0  0  0  0  0  0  0  0  0  0  0  0
    6.3411    2.8825   -1.2640 C   0  0  0  0  0  0  0  0  0  0  0  0
    6.3661    3.9372   -0.9861 H   0  0  0  0  0  0  0  0  0  0  0  0
    5.4418    2.7286   -1.8608 H   0  0  0  0  0  0  0  0  0  0  0  0
    6.1810    1.9366    0.2744 S   0  0  0  0  0  0  0  0  0  0  0  0
    7.6584    1.1390   -2.5964 C   0  0  0  0  0  0  0  0  0  0  0  0
    7.1324    0.7928   -3.6551 O   0  0  0  0  0  0  0  0  0  0  0  0
    8.3248    0.2860   -1.8079 N   0  0  0  0  0  0  0  0  0  0  0  0
    8.6976    0.6406   -0.9414 H   0  0  0  0  0  0  0  0  0  0  0  0
    8.4916   -1.1386   -2.0927 C   0  0  0  0  0  0  0  0  0  0  0  0
    7.5520   -1.6628   -1.9099 H   0  0  0  0  0  0  0  0  0  0  0  0
    8.7715   -1.2801   -3.1393 H   0  0  0  0  0  0  0  0  0  0  0  0
    9.2686   -1.5617   -1.4559 H   0  0  0  0  0  0  0  0  0  0  0  0
  5  6  2  0  0  0  0
  5  7  1  0  0  0  0
  2  3  1  0  0  0  0
  2  4  1  0  0  0  0
  2  5  1  0  0  0  0
  1  2  1  0  0  0  0
 15 16  2  0  0  0  0
 15 17  1  0  0  0  0
 14 36  1  0  0  0  0
 11 12  1  0  0  0  0
 11 13  1  0  0  0  0
 11 14  1  0  0  0  0
  9 10  1  0  0  0  0
  9 11  1  0  0  0  0
  9 15  1  0  0  0  0
  7  8  1  0  0  0  0
  7  9  1  0  0  0  0
 19 20  1  0  0  0  0
 19 21  1  0  0  0  0
 19 22  1  0  0  0  0
 17 18  1  0  0  0  0
 17 19  1  0  0  0  0
 27 28  2  0  0  0  0
 27 29  1  0  0  0  0
 24 25  1  0  0  0  0
 24 26  1  0  0  0  0
 24 27  1  0  0  0  0
 23 24  1  0  0  0  0
 37 38  2  0  0  0  0
 37 39  1  0  0  0  0
 33 34  1  0  0  0  0
 33 35  1  0  0  0  0
 33 36  1  0  0  0  0
 31 32  1  0  0  0  0
 31 33  1  0  0  0  0
 31 37  1  0  0  0  0
 29 30  1  0  0  0  0
 29 31  1  0  0  0  0
 41 42  1  0  0  0  0
 41 43  1  0  0  0  0
 41 44  1  0  0  0  0
 39 40  1  0  0  0  0
 39 41  1  0  0  0  0
M  END
$$$$
default_name
  -OEChem-01062215323D

 44 43  0     1  0  0  0  0  0999 V2000
    2.4488   -3.0448    2.0990 H   0  0  0  0  0  0  0  0  0  0  0  0
    2.2788   -2.0018    2.3640 C   0  0  0  0  0  0  0  0  0  0  0  0
    2.9228   -1.7258    3.1960 H   0  0  0  0  0  0  0  0  0  0  0  0
    1.2358   -1.8618    2.6430 H   0  0  0  0  0  0  0  0  0  0  0  0
    2.6018   -1.1318    1.1730 C   0  0  0  0  0  0  0  0  0  0  0  0
    3.0048   -1.6348    0.1320 O   0  0  0  0  0  0  0  0  0  0  0  0
    2.4088    0.1752    1.3190 N   0  0  0  0  0  0  0  0  0  0  0  0
    2.0708    0.5242    2.2050 H   0  0  0  0  0  0  0  0  0  0  0  0
    2.6638    1.1782    0.2840 C   0  0  1  0  0  0  0  0  0  0  0  0
    3.1616    2.0293    0.7515 H   0  0  0  0  0  0  0  0  0  0  0  0
    3.6112    0.5959   -0.7795 C   0  0  0  0  0  0  0  0  0  0  0  0
    3.6636    1.2892   -1.6199 H   0  0  0  0  0  0  0  0  0  0  0  0
    3.1596   -0.3184   -1.1634 H   0  0  0  0  0  0  0  0  0  0  0  0
    5.3045    0.1752   -0.2710 S   0  0  0  0  0  0  0  0  0  0  0  0
    1.3469    1.6851   -0.3333 C   0  0  0  0  0  0  0  0  0  0  0  0
    0.8569    1.1206   -1.3113 O   0  0  0  0  0  0  0  0  0  0  0  0
    0.7706    2.7481    0.2436 N   0  0  0  0  0  0  0  0  0  0  0  0
    1.2243    3.1598    1.0432 H   0  0  0  0  0  0  0  0  0  0  0  0
   -0.4771    3.3481   -0.2246 C   0  0  0  0  0  0  0  0  0  0  0  0
   -0.3434    3.7279   -1.2397 H   0  0  0  0  0  0  0  0  0  0  0  0
   -1.2668    2.5947   -0.2388 H   0  0  0  0  0  0  0  0  0  0  0  0
   -0.7730    4.1679    0.4311 H   0  0  0  0  0  0  0  0  0  0  0  0
    8.0927    6.5566   -4.4337 H   0  0  0  0  0  0  0  0  0  0  0  0
    7.7481    5.5342   -4.5816 C   0  0  0  0  0  0  0  0  0  0  0  0
    8.3502    5.0512   -5.3496 H   0  0  0  0  0  0  0  0  0  0  0  0
    6.7021    5.5412   -4.8822 H   0  0  0  0  0  0  0  0  0  0  0  0
    7.8907    4.7759   -3.2828 C   0  0  0  0  0  0  0  0  0  0  0  0
    8.3251    5.3352   -2.2851 O   0  0  0  0  0  0  0  0  0  0  0  0
    7.5146    3.4999   -3.2962 N   0  0  0  0  0  0  0  0  0  0  0  0
    7.1747    3.1011   -4.1592 H   0  0  0  0  0  0  0  0  0  0  0  0
    7.5714    2.6060   -2.1395 C   0  0  1  0  0  0  0  0  0  0  0  0
    8.4655    2.8345   -1.5568 H   0  0  0  0  0  0  0  0  0  0  0  0
    6.3411    2.8825   -1.2640 C   0  0  0  0  0  0  0  0  0  0  0  0
    6.3661    3.9372   -0.9861 H   0  0  0  0  0  0  0  0  0  0  0  0
    5.4418    2.7286   -1.8608 H   0  0  0  0  0  0  0  0  0  0  0  0
    6.1810    1.9366    0.2744 S   0  0  0  0  0  0  0  0  0  0  0  0
    7.6584    1.1390   -2.5964 C   0  0  0  0  0  0  0  0  0  0  0  0
    7.1324    0.7928   -3.6551 O   0  0  0  0  0  0  0  0  0  0  0  0
    8.3248    0.2860   -1.8079 N   0  0  0  0  0  0  0  0  0  0  0  0
    8.6976    0.6406   -0.9414 H   0  0  0  0  0  0  0  0  0  0  0  0
    8.4916   -1.1386   -2.0927 C   0  0  0  0  0  0  0  0  0  0  0  0
    7.5520   -1.6628   -1.9099 H   0  0  0  0  0  0  0  0  0  0  0  0
    8.7715   -1.2801   -3.1393 H   0  0  0  0  0  0  0  0  0  0  0  0
    9.2686   -1.5617   -1.4559 H   0  0  0  0  0  0  0  0  0  0  0  0
  5  6  2  0  0  0  0
  5  7  1  0  0  0  0
  2  3  1  0  0  0  0
  2  4  1  0  0  0  0
  2  5  1  0  0  0  0
  1  2  1  0  0  0  0
 15 16  2  0  0  0  0
 15 17  1  0  0  0  0
 14 36  1  0  0  0  0
 11 12  1  0  0  0  0
 11 13  1  0  0  0  0
 11 14  1  0  0  0  0
  9 10  1  0  0  0  0
  9 11  1  0  0  0  0
  9 15  1  0  0  0  0
  7  8  1  0  0  0  0
  7  9  1  0  0  0  0
 19 20  1  0  0  0  0
 19 21  1  0  0  0  0
 19 22  1  0  0  0  0
 17 18  1  0  0  0  0
 17 19  1  0  0  0  0
 27 28  2  0  0  0  0
 27 29  1  0  0  0  0
 24 25  1  0  0  0  0
 24 26  1  0  0  0  0
 24 27  1  0  0  0  0
 23 24  1  0  0  0  0
 37 38  2  0  0  0  0
 37 39  1  0  0  0  0
 33 34  1  0  0  0  0
 33 35  1  0  0  0  0
 33 36  1  0  0  0  0
 31 32  1  0  0  0  0
 31 33  1  0  0  0  0
 31 37  1  0  0  0  0
 29 30  1  0  0  0  0
 29 31  1  0  0  0  0
 41 42  1  0  0  0  0
 41 43  1  0  0  0  0
 41 44  1  0  0  0  0
 39 40  1  0  0  0  0
 39 41  1  0  0  0  0
M  END
$$$$
default_name
  -OEChem-01062215323D

 44 43  0     1  0  0  0  0  0999 V2000
    2.4488   -3.0448    2.0990 H   0  0  0  0  0  0  0  0  0  0  0  0
    2.2788   -2.0018    2.3640 C   0  0  0  0  0  0  0  0  0  0  0  0
    2.9228   -1.7258    3.1960 H   0  0  0  0  0  0  0  0  0  0  0  0
    1.2358   -1.8618    2.6430 H   0  0  0  0  0  0  0  0  0  0  0  0
    2.6018   -1.1318    1.1730 C   0  0  0  0  0  0  0  0  0  0  0  0
    3.0048   -1.6348    0.1320 O   0  0  0  0  0  0  0  0  0  0  0  0
    2.4088    0.1752    1.3190 N   0  0  0  0  0  0  0  0  0  0  0  0
    2.0708    0.5242    2.2050 H   0  0  0  0  0  0  0  0  0  0  0  0
    2.6638    1.1782    0.2840 C   0  0  1  0  0  0  0  0  0  0  0  0
    3.1616    2.0293    0.7515 H   0  0  0  0  0  0  0  0  0  0  0  0
    3.6112    0.5959   -0.7795 C   0  0  0  0  0  0  0  0  0  0  0  0
    3.6636    1.2892   -1.6199 H   0  0  0  0  0  0  0  0  0  0  0  0
    3.1596   -0.3184   -1.1634 H   0  0  0  0  0  0  0  0  0  0  0  0
    5.3045    0.1752   -0.2710 S   0  0  0  0  0  0  0  0  0  0  0  0
    1.3469    1.6851   -0.3333 C   0  0  0  0  0  0  0  0  0  0  0  0
    0.7135    0.9813   -1.1198 O   0  0  0  0  0  0  0  0  0  0  0  0
    0.9318    2.9061    0.0294 N   0  0  0  0  0  0  0  0  0  0  0  0
    1.4976    3.4273    0.6798 H   0  0  0  0  0  0  0  0  0  0  0  0
   -0.2933    3.5278   -0.4691 C   0  0  0  0  0  0  0  0  0  0  0  0
   -0.2234    3.6609   -1.5508 H   0  0  0  0  0  0  0  0  0  0  0  0
   -1.1481    2.8837   -0.2547 H   0  0  0  0  0  0  0  0  0  0  0  0
   -0.4459    4.4984    0.0045 H   0  0  0  0  0  0  0  0  0  0  0  0
    8.0927    6.5566   -4.4337 H   0  0  0  0  0  0  0  0  0  0  0  0
    7.7481    5.5342   -4.5816 C   0  0  0  0  0  0  0  0  0  0  0  0
    8.3502    5.0512   -5.3496 H   0  0  0  0  0  0  0  0  0  0  0  0
    6.7021    5.5412   -4.8822 H   0  0  0  0  0  0  0  0  0  0  0  0
    7.8907    4.7759   -3.2828 C   0  0  0  0  0  0  0  0  0  0  0  0
    8.3251    5.3352   -2.2851 O   0  0  0  0  0  0  0  0  0  0  0  0
    7.5146    3.4999   -3.2962 N   0  0  0  0  0  0  0  0  0  0  0  0
    7.1747    3.1011   -4.1592 H   0  0  0  0  0  0  0  0  0  0  0  0
    7.5714    2.6060   -2.1395 C   0  0  1  0  0  0  0  0  0  0  0  0
    8.4655    2.8345   -1.5568 H   0  0  0  0  0  0  0  0  0  0  0  0
    6.3411    2.8825   -1.2640 C   0  0  0  0  0  0  0  0  0  0  0  0
    6.3661    3.9372   -0.9861 H   0  0  0  0  0  0  0  0  0  0  0  0
    5.4418    2.7286   -1.8608 H   0  0  0  0  0  0  0  0  0  0  0  0
    6.1810    1.9366    0.2744 S   0  0  0  0  0  0  0  0  0  0  0  0
    7.6584    1.1390   -2.5964 C   0  0  0  0  0  0  0  0  0  0  0  0
    7.1324    0.7928   -3.6551 O   0  0  0  0  0  0  0  0  0  0  0  0
    8.3248    0.2860   -1.8079 N   0  0  0  0  0  0  0  0  0  0  0  0
    8.6976    0.6406   -0.9414 H   0  0  0  0  0  0  0  0  0  0  0  0
    8.4916   -1.1386   -2.0927 C   0  0  0  0  0  0  0  0  0  0  0  0
    7.5520   -1.6628   -1.9099 H   0  0  0  0  0  0  0  0  0  0  0  0
    8.7715   -1.2801   -3.1393 H   0  0  0  0  0  0  0  0  0  0  0  0
    9.2686   -1.5617   -1.4559 H   0  0  0  0  0  0  0  0  0  0  0  0
  5  6  2  0  0  0  0
  5  7  1  0  0  0  0
  2  3  1  0  0  0  0
  2  4  1  0  0  0  0
  2  5  1  0  0  0  0
  1  2  1  0  0  0  0
 15 16  2  0  0  0  0
 15 17  1  0  0  0  0
 14 36  1  0  0  0  0
 11 12  1  0  0  0  0
 11 13  1  0  0  0  0
 11 14  1  0  0  0  0
  9 10  1  0  0  0  0
  9 11  1  0  0  0  0
  9 15  1  0  0  0  0
  7  8  1  0  0  0  0
  7  9  1  0  0  0  0
 19 20  1  0  0  0  0
 19 21  1  0  0  0  0
 19 22  1  0  0  0  0
 17 18  1  0  0  0  0
 17 19  1  0  0  0  0
 27 28  2  0  0  0  0
 27 29  1  0  0  0  0
 24 25  1  0  0  0  0
 24 26  1  0  0  0  0
 24 27  1  0  0  0  0
 23 24  1  0  0  0  0
 37 38  2  0  0  0  0
 37 39  1  0  0  0  0
 33 34  1  0  0  0  0
 33 35  1  0  0  0  0
 33 36  1  0  0  0  0
 31 32  1  0  0  0  0
 31 33  1  0  0  0  0
 31 37  1  0  0  0  0
 29 30  1  0  0  0  0
 29 31  1  0  0  0  0
 41 42  1  0  0  0  0
 41 43  1  0  0  0  0
 41 44  1  0  0  0  0
 39 40  1  0  0  0  0
 39 41  1  0  0  0  0
M  END
$$$$
default_name
  -OEChem-01062215323D

 44 43  0     1  0  0  0  0  0999 V2000
    2.4488   -3.0448    2.0990 H   0  0  0  0  0  0  0  0  0  0  0  0
    2.2788   -2.0018    2.3640 C   0  0  0  0  0  0  0  0  0  0  0  0
    2.9228   -1.7258    3.1960 H   0  0  0  0  0  0  0  0  0  0  0  0
    1.2358   -1.8618    2.6430 H   0  0  0  0  0  0  0  0  0  0  0  0
    2.6018   -1.1318    1.1730 C   0  0  0  0  0  0  0  0  0  0  0  0
    3.0048   -1.6348    0.1320 O   0  0  0  0  0  0  0  0  0  0  0  0
    2.4088    0.1752    1.3190 N   0  0  0  0  0  0  0  0  0  0  0  0
    2.0708    0.5242    2.2050 H   0  0  0  0  0  0  0  0  0  0  0  0
    2.6638    1.1782    0.2840 C   0  0  1  0  0  0  0  0  0  0  0  0
    3.1616    2.0293    0.7515 H   0  0  0  0  0  0  0  0  0  0  0  0
    3.6112    0.5959   -0.7795 C   0  0  0  0  0  0  0  0  0  0  0  0
    3.6636    1.2892   -1.6199 H   0  0  0  0  0  0  0  0  0  0  0  0
    3.1596   -0.3184   -1.1634 H   0  0  0  0  0  0  0  0  0  0  0  0
    5.3045    0.1752   -0.2710 S   0  0  0  0  0  0  0  0  0  0  0  0
    1.3469    1.6851   -0.3333 C   0  0  0  0  0  0  0  0  0  0  0  0
    0.5769    0.9039   -0.8919 O   0  0  0  0  0  0  0  0  0  0  0  0
    1.0857    2.9947   -0.2261 N   0  0  0  0  0  0  0  0  0  0  0  0
    1.7584    3.5769    0.2464 H   0  0  0  0  0  0  0  0  0  0  0  0
   -0.1179    3.6282   -0.7607 C   0  0  0  0  0  0  0  0  0  0  0  0
   -0.1410    3.5148   -1.8467 H   0  0  0  0  0  0  0  0  0  0  0  0
   -1.0048    3.1471   -0.3442 H   0  0  0  0  0  0  0  0  0  0  0  0
   -0.1319    4.6893   -0.5086 H   0  0  0  0  0  0  0  0  0  0  0  0
    8.0927    6.5566   -4.4337 H   0  0  0  0  0  0  0  0  0  0  0  0
    7.7481    5.5342   -4.5816 C   0  0  0  0  0  0  0  0  0  0  0  0
    8.3502    5.0512   -5.3496 H   0  0  0  0  0  0  0  0  0  0  0  0
    6.7021    5.5412   -4.8822 H   0  0  0  0  0  0  0  0  0  0  0  0
    7.8907    4.7759   -3.2828 C   0  0  0  0  0  0  0  0  0  0  0  0
    8.3251    5.3352   -2.2851 O   0  0  0  0  0  0  0  0  0  0  0  0
    7.5146    3.4999   -3.2962 N   0  0  0  0  0  0  0  0  0  0  0  0
    7.1747    3.1011   -4.1592 H   0  0  0  0  0  0  0  0  0  0  0  0
    7.5714    2.6060   -2.1395 C   0  0  1  0  0  0  0  0  0  0  0  0
    8.4655    2.8345   -1.5568 H   0  0  0  0  0  0  0  0  0  0  0  0
    6.3411    2.8825   -1.2640 C   0  0  0  0  0  0  0  0  0  0  0  0
    6.3661    3.9372   -0.9861 H   0  0  0  0  0  0  0  0  0  0  0  0
    5.4418    2.7286   -1.8608 H   0  0  0  0  0  0  0  0  0  0  0  0
    6.1810    1.9366    0.2744 S   0  0  0  0  0  0  0  0  0  0  0  0
    7.6584    1.1390   -2.5964 C   0  0  0  0  0  0  0  0  0  0  0  0
    7.1324    0.7928   -3.6551 O   0  0  0  0  0  0  0  0  0  0  0  0
    8.3248    0.2860   -1.8079 N   0  0  0  0  0  0  0  0  0  0  0  0
    8.6976    0.6406   -0.9414 H   0  0  0  0  0  0  0  0  0  0  0  0
    8.4916   -1.1386   -2.0927 C   0  0  0  0  0  0  0  0  0  0  0  0
    7.5520   -1.6628   -1.9099 H   0  0  0  0  0  0  0  0  0  0  0  0
    8.7715   -1.2801   -3.1393 H   0  0  0  0  0  0  0  0  0  0  0  0
    9.2686   -1.5617   -1.4559 H   0  0  0  0  0  0  0  0  0  0  0  0
  5  6  2  0  0  0  0
  5  7  1  0  0  0  0
  2  3  1  0  0  0  0
  2  4  1  0  0  0  0
  2  5  1  0  0  0  0
  1  2  1  0  0  0  0
 15 16  2  0  0  0  0
 15 17  1  0  0  0  0
 14 36  1  0  0  0  0
 11 12  1  0  0  0  0
 11 13  1  0  0  0  0
 11 14  1  0  0  0  0
  9 10  1  0  0  0  0
  9 11  1  0  0  0  0
  9 15  1  0  0  0  0
  7  8  1  0  0  0  0
  7  9  1  0  0  0  0
 19 20  1  0  0  0  0
 19 21  1  0  0  0  0
 19 22  1  0  0  0  0
 17 18  1  0  0  0  0
 17 19  1  0  0  0  0
 27 28  2  0  0  0  0
 27 29  1  0  0  0  0
 24 25  1  0  0  0  0
 24 26  1  0  0  0  0
 24 27  1  0  0  0  0
 23 24  1  0  0  0  0
 37 38  2  0  0  0  0
 37 39  1  0  0  0  0
 33 34  1  0  0  0  0
 33 35  1  0  0  0  0
 33 36  1  0  0  0  0
 31 32  1  0  0  0  0
 31 33  1  0  0  0  0
 31 37  1  0  0  0  0
 29 30  1  0  0  0  0
 29 31  1  0  0  0  0
 41 42  1  0  0  0  0
 41 43  1  0  0  0  0
 41 44  1  0  0  0  0
 39 40  1  0  0  0  0
 39 41  1  0  0  0  0
M  END
$$$$
default_name
  -OEChem-01062215323D

 44 43  0     1  0  0  0  0  0999 V2000
    2.4488   -3.0448    2.0990 H   0  0  0  0  0  0  0  0  0  0  0  0
    2.2788   -2.0018    2.3640 C   0  0  0  0  0  0  0  0  0  0  0  0
    2.9228   -1.7258    3.1960 H   0  0  0  0  0  0  0  0  0  0  0  0
    1.2358   -1.8618    2.6430 H   0  0  0  0  0  0  0  0  0  0  0  0
    2.6018   -1.1318    1.1730 C   0  0  0  0  0  0  0  0  0  0  0  0
    3.0048   -1.6348    0.1320 O   0  0  0  0  0  0  0  0  0  0  0  0
    2.4088    0.1752    1.3190 N   0  0  0  0  0  0  0  0  0  0  0  0
    2.0708    0.5242    2.2050 H   0  0  0  0  0  0  0  0  0  0  0  0
    2.6638    1.1782    0.2840 C   0  0  1  0  0  0  0  0  0  0  0  0
    3.1616    2.0293    0.7515 H   0  0  0  0  0  0  0  0  0  0  0  0
    3.6112    0.5959   -0.7795 C   0  0  0  0  0  0  0  0  0  0  0  0
    3.6636    1.2892   -1.6199 H   0  0  0  0  0  0  0  0  0  0  0  0
    3.1596   -0.3184   -1.1634 H   0  0  0  0  0  0  0  0  0  0  0  0
    5.3045    0.1752   -0.2710 S   0  0  0  0  0  0  0  0  0  0  0  0
    1.3469    1.6851   -0.3333 C   0  0  0  0  0  0  0  0  0  0  0  0
    0.4563    0.8938   -0.6429 O   0  0  0  0  0  0  0  0  0  0  0  0
    1.2218    3.0078   -0.5057 N   0  0  0  0  0  0  0  0  0  0  0  0
    1.9888    3.5985   -0.2276 H   0  0  0  0  0  0  0  0  0  0  0  0
    0.0370    3.6425   -1.0796 C   0  0  0  0  0  0  0  0  0  0  0  0
   -0.1017    3.2997   -2.1072 H   0  0  0  0  0  0  0  0  0  0  0  0
   -0.8467    3.3667   -0.5011 H   0  0  0  0  0  0  0  0  0  0  0  0
    0.1475    4.7276   -1.0732 H   0  0  0  0  0  0  0  0  0  0  0  0
    8.0927    6.5566   -4.4337 H   0  0  0  0  0  0  0  0  0  0  0  0
    7.7481    5.5342   -4.5816 C   0  0  0  0  0  0  0  0  0  0  0  0
    8.3502    5.0512   -5.3496 H   0  0  0  0  0  0  0  0  0  0  0  0
    6.7021    5.5412   -4.8822 H   0  0  0  0  0  0  0  0  0  0  0  0
    7.8907    4.7759   -3.2828 C   0  0  0  0  0  0  0  0  0  0  0  0
    8.3251    5.3352   -2.2851 O   0  0  0  0  0  0  0  0  0  0  0  0
    7.5146    3.4999   -3.2962 N   0  0  0  0  0  0  0  0  0  0  0  0
    7.1747    3.1011   -4.1592 H   0  0  0  0  0  0  0  0  0  0  0  0
    7.5714    2.6060   -2.1395 C   0  0  1  0  0  0  0  0  0  0  0  0
    8.4655    2.8345   -1.5568 H   0  0  0  0  0  0  0  0  0  0  0  0
    6.3411    2.8825   -1.2640 C   0  0  0  0  0  0  0  0  0  0  0  0
    6.3661    3.9372   -0.9861 H   0  0  0  0  0  0  0  0  0  0  0  0
    5.4418    2.7286   -1.8608 H   0  0  0  0  0  0  0  0  0  0  0  0
    6.1810    1.9366    0.2744 S   0  0  0  0  0  0  0  0  0  0  0  0
    7.6584    1.1390   -2.5964 C   0  0  0  0  0  0  0  0  0  0  0  0
    7.1324    0.7928   -3.6551 O   0  0  0  0  0  0  0  0  0  0  0  0
    8.3248    0.2860   -1.8079 N   0  0  0  0  0  0  0  0  0  0  0  0
    8.6976    0.6406   -0.9414 H   0  0  0  0  0  0  0  0  0  0  0  0
    8.4916   -1.1386   -2.0927 C   0  0  0  0  0  0  0  0  0  0  0  0
    7.5520   -1.6628   -1.9099 H   0  0  0  0  0  0  0  0  0  0  0  0
    8.7715   -1.2801   -3.1393 H   0  0  0  0  0  0  0  0  0  0  0  0
    9.2686   -1.5617   -1.4559 H   0  0  0  0  0  0  0  0  0  0  0  0
  5  6  2  0  0  0  0
  5  7  1  0  0  0  0
  2  3  1  0  0  0  0
  2  4  1  0  0  0  0
  2  5  1  0  0  0  0
  1  2  1  0  0  0  0
 15 16  2  0  0  0  0
 15 17  1  0  0  0  0
 14 36  1  0  0  0  0
 11 12  1  0  0  0  0
 11 13  1  0  0  0  0
 11 14  1  0  0  0  0
  9 10  1  0  0  0  0
  9 11  1  0  0  0  0
  9 15  1  0  0  0  0
  7  8  1  0  0  0  0
  7  9  1  0  0  0  0
 19 20  1  0  0  0  0
 19 21  1  0  0  0  0
 19 22  1  0  0  0  0
 17 18  1  0  0  0  0
 17 19  1  0  0  0  0
 27 28  2  0  0  0  0
 27 29  1  0  0  0  0
 24 25  1  0  0  0  0
 24 26  1  0  0  0  0
 24 27  1  0  0  0  0
 23 24  1  0  0  0  0
 37 38  2  0  0  0  0
 37 39  1  0  0  0  0
 33 34  1  0  0  0  0
 33 35  1  0  0  0  0
 33 36  1  0  0  0  0
 31 32  1  0  0  0  0
 31 33  1  0  0  0  0
 31 37  1  0  0  0  0
 29 30  1  0  0  0  0
 29 31  1  0  0  0  0
 41 42  1  0  0  0  0
 41 43  1  0  0  0  0
 41 44  1  0  0  0  0
 39 40  1  0  0  0  0
 39 41  1  0  0  0  0
M  END
$$$$
default_name
  -OEChem-01062215323D

 44 43  0     1  0  0  0  0  0999 V2000
    2.4488   -3.0448    2.0990 H   0  0  0  0  0  0  0  0  0  0  0  0
    2.2788   -2.0018    2.3640 C   0  0  0  0  0  0  0  0  0  0  0  0
    2.9228   -1.7258    3.1960 H   0  0  0  0  0  0  0  0  0  0  0  0
    1.2358   -1.8618    2.6430 H   0  0  0  0  0  0  0  0  0  0  0  0
    2.6018   -1.1318    1.1730 C   0  0  0  0  0  0  0  0  0  0  0  0
    3.0048   -1.6348    0.1320 O   0  0  0  0  0  0  0  0  0  0  0  0
    2.4088    0.1752    1.3190 N   0  0  0  0  0  0  0  0  0  0  0  0
    2.0708    0.5242    2.2050 H   0  0  0  0  0  0  0  0  0  0  0  0
    2.6638    1.1782    0.2840 C   0  0  1  0  0  0  0  0  0  0  0  0
    3.1616    2.0293    0.7515 H   0  0  0  0  0  0  0  0  0  0  0  0
    3.6112    0.5959   -0.7795 C   0  0  0  0  0  0  0  0  0  0  0  0
    3.6636    1.2892   -1.6199 H   0  0  0  0  0  0  0  0  0  0  0  0
    3.1596   -0.3184   -1.1634 H   0  0  0  0  0  0  0  0  0  0  0  0
    5.3045    0.1752   -0.2710 S   0  0  0  0  0  0  0  0  0  0  0  0
    1.3469    1.6851   -0.3333 C   0  0  0  0  0  0  0  0  0  0  0  0
    0.3600    0.9516   -0.3899 O   0  0  0  0  0  0  0  0  0  0  0  0
    1.3307    2.9444   -0.7902 N   0  0  0  0  0  0  0  0  0  0  0  0
    2.1733    3.4905   -0.7098 H   0  0  0  0  0  0  0  0  0  0  0  0
    0.1610    3.5696   -1.4039 C   0  0  0  0  0  0  0  0  0  0  0  0
   -0.1082    3.0303   -2.3145 H   0  0  0  0  0  0  0  0  0  0  0  0
   -0.6845    3.5278   -0.7148 H   0  0  0  0  0  0  0  0  0  0  0  0
    0.3732    4.6106   -1.6509 H   0  0  0  0  0  0  0  0  0  0  0  0
    8.0927    6.5566   -4.4337 H   0  0  0  0  0  0  0  0  0  0  0  0
    7.7481    5.5342   -4.5816 C   0  0  0  0  0  0  0  0  0  0  0  0
    8.3502    5.0512   -5.3496 H   0  0  0  0  0  0  0  0  0  0  0  0
    6.7021    5.5412   -4.8822 H   0  0  0  0  0  0  0  0  0  0  0  0
    7.8907    4.7759   -3.2828 C   0  0  0  0  0  0  0  0  0  0  0  0
    8.3251    5.3352   -2.2851 O   0  0  0  0  0  0  0  0  0  0  0  0
    7.5146    3.4999   -3.2962 N   0  0  0  0  0  0  0  0  0  0  0  0
    7.1747    3.1011   -4.1592 H   0  0  0  0  0  0  0  0  0  0  0  0
    7.5714    2.6060   -2.1395 C   0  0  1  0  0  0  0  0  0  0  0  0
    8.4655    2.8345   -1.5568 H   0  0  0  0  0  0  0  0  0  0  0  0
    6.3411    2.8825   -1.2640 C   0  0  0  0  0  0  0  0  0  0  0  0
    6.3661    3.9372   -0.9861 H   0  0  0  0  0  0  0  0  0  0  0  0
    5.4418    2.7286   -1.8608 H   0  0  0  0  0  0  0  0  0  0  0  0
    6.1810    1.9366    0.2744 S   0  0  0  0  0  0  0  0  0  0  0  0
    7.6584    1.1390   -2.5964 C   0  0  0  0  0  0  0  0  0  0  0  0
    7.1324    0.7928   -3.6551 O   0  0  0  0  0  0  0  0  0  0  0  0
    8.3248    0.2860   -1.8079 N   0  0  0  0  0  0  0  0  0  0  0  0
    8.6976    0.6406   -0.9414 H   0  0  0  0  0  0  0  0  0  0  0  0
    8.4916   -1.1386   -2.0927 C   0  0  0  0  0  0  0  0  0  0  0  0
    7.5520   -1.6628   -1.9099 H   0  0  0  0  0  0  0  0  0  0  0  0
    8.7715   -1.2801   -3.1393 H   0  0  0  0  0  0  0  0  0  0  0  0
    9.2686   -1.5617   -1.4559 H   0  0  0  0  0  0  0  0  0  0  0  0
  5  6  2  0  0  0  0
  5  7  1  0  0  0  0
  2  3  1  0  0  0  0
  2  4  1  0  0  0  0
  2  5  1  0  0  0  0
  1  2  1  0  0  0  0
 15 16  2  0  0  0  0
 15 17  1  0  0  0  0
 14 36  1  0  0  0  0
 11 12  1  0  0  0  0
 11 13  1  0  0  0  0
 11 14  1  0  0  0  0
  9 10  1  0  0  0  0
  9 11  1  0  0  0  0
  9 15  1  0  0  0  0
  7  8  1  0  0  0  0
  7  9  1  0  0  0  0
 19 20  1  0  0  0  0
 19 21  1  0  0  0  0
 19 22  1  0  0  0  0
 17 18  1  0  0  0  0
 17 19  1  0  0  0  0
 27 28  2  0  0  0  0
 27 29  1  0  0  0  0
 24 25  1  0  0  0  0
 24 26  1  0  0  0  0
 24 27  1  0  0  0  0
 23 24  1  0  0  0  0
 37 38  2  0  0  0  0
 37 39  1  0  0  0  0
 33 34  1  0  0  0  0
 33 35  1  0  0  0  0
 33 36  1  0  0  0  0
 31 32  1  0  0  0  0
 31 33  1  0  0  0  0
 31 37  1  0  0  0  0
 29 30  1  0  0  0  0
 29 31  1  0  0  0  0
 41 42  1  0  0  0  0
 41 43  1  0  0  0  0
 41 44  1  0  0  0  0
 39 40  1  0  0  0  0
 39 41  1  0  0  0  0
M  END
$$$$
default_name
  -OEChem-01062215323D

 44 43  0     1  0  0  0  0  0999 V2000
    2.4488   -3.0448    2.0990 H   0  0  0  0  0  0  0  0  0  0  0  0
    2.2788   -2.0018    2.3640 C   0  0  0  0  0  0  0  0  0  0  0  0
    2.9228   -1.7258    3.1960 H   0  0  0  0  0  0  0  0  0  0  0  0
    1.2358   -1.8618    2.6430 H   0  0  0  0  0  0  0  0  0  0  0  0
    2.6018   -1.1318    1.1730 C   0  0  0  0  0  0  0  0  0  0  0  0
    3.0048   -1.6348    0.1320 O   0  0  0  0  0  0  0  0  0  0  0  0
    2.4088    0.1752    1.3190 N   0  0  0  0  0  0  0  0  0  0  0  0
    2.0708    0.5242    2.2050 H   0  0  0  0  0  0  0  0  0  0  0  0
    2.6638    1.1782    0.2840 C   0  0  1  0  0  0  0  0  0  0  0  0
    3.1616    2.0293    0.7515 H   0  0  0  0  0  0  0  0  0  0  0  0
    3.6112    0.5959   -0.7795 C   0  0  0  0  0  0  0  0  0  0  0  0
    3.6636    1.2892   -1.6199 H   0  0  0  0  0  0  0  0  0  0  0  0
    3.1596   -0.3184   -1.1634 H   0  0  0  0  0  0  0  0  0  0  0  0
    5.3045    0.1752   -0.2710 S   0  0  0  0  0  0  0  0  0  0  0  0
    1.3469    1.6851   -0.3333 C   0  0  0  0  0  0  0  0  0  0  0  0
    0.2945    1.0735   -0.1502 O   0  0  0  0  0  0  0  0  0  0  0  0
    1.4052    2.8089   -1.0603 N   0  0  0  0  0  0  0  0  0  0  0  0
    2.2992    3.2604   -1.1674 H   0  0  0  0  0  0  0  0  0  0  0  0
    0.2456    3.4147   -1.7116 C   0  0  0  0  0  0  0  0  0  0  0  0
   -0.1601    2.7247   -2.4546 H   0  0  0  0  0  0  0  0  0  0  0  0
   -0.5294    3.6193   -0.9706 H   0  0  0  0  0  0  0  0  0  0  0  0
    0.5299    4.3464   -2.2022 H   0  0  0  0  0  0  0  0  0  0  0  0
    8.0927    6.5566   -4.4337 H   0  0  0  0  0  0  0  0  0  0  0  0
    7.7481    5.5342   -4.5816 C   0  0  0  0  0  0  0  0  0  0  0  0
    8.3502    5.0512   -5.3496 H   0  0  0  0  0  0  0  0  0  0  0  0
    6.7021    5.5412   -4.8822 H   0  0  0  0  0  0  0  0  0  0  0  0
    7.8907    4.7759   -3.2828 C   0  0  0  0  0  0  0  0  0  0  0  0
    8.3251    5.3352   -2.2851 O   0  0  0  0  0  0  0  0  0  0  0  0
    7.5146    3.4999   -3.2962 N   0  0  0  0  0  0  0  0  0  0  0  0
    7.1747    3.1011   -4.1592 H   0  0  0  0  0  0  0  0  0  0  0  0
    7.5714    2.6060   -2.1395 C   0  0  1  0  0  0  0  0  0  0  0  0
    8.4655    2.8345   -1.5568 H   0  0  0  0  0  0  0  0  0  0  0  0
    6.3411    2.8825   -1.2640 C   0  0  0  0  0  0  0  0  0  0  0  0
    6.3661    3.9372   -0.9861 H   0  0  0  0  0  0  0  0  0  0  0  0
    5.4418    2.7286   -1.8608 H   0  0  0  0  0  0  0  0  0  0  0  0
    6.1810    1.9366    0.2744 S   0  0  0  0  0  0  0  0  0  0  0  0
    7.6584    1.1390   -2.5964 C   0  0  0  0  0  0  0  0  0  0  0  0
    7.1324    0.7928   -3.6551 O   0  0  0  0  0  0  0  0  0  0  0  0
    8.3248    0.2860   -1.8079 N   0  0  0  0  0  0  0  0  0  0  0  0
    8.6976    0.6406   -0.9414 H   0  0  0  0  0  0  0  0  0  0  0  0
    8.4916   -1.1386   -2.0927 C   0  0  0  0  0  0  0  0  0  0  0  0
    7.5520   -1.6628   -1.9099 H   0  0  0  0  0  0  0  0  0  0  0  0
    8.7715   -1.2801   -3.1393 H   0  0  0  0  0  0  0  0  0  0  0  0
    9.2686   -1.5617   -1.4559 H   0  0  0  0  0  0  0  0  0  0  0  0
  5  6  2  0  0  0  0
  5  7  1  0  0  0  0
  2  3  1  0  0  0  0
  2  4  1  0  0  0  0
  2  5  1  0  0  0  0
  1  2  1  0  0  0  0
 15 16  2  0  0  0  0
 15 17  1  0  0  0  0
 14 36  1  0  0  0  0
 11 12  1  0  0  0  0
 11 13  1  0  0  0  0
 11 14  1  0  0  0  0
  9 10  1  0  0  0  0
  9 11  1  0  0  0  0
  9 15  1  0  0  0  0
  7  8  1  0  0  0  0
  7  9  1  0  0  0  0
 19 20  1  0  0  0  0
 19 21  1  0  0  0  0
 19 22  1  0  0  0  0
 17 18  1  0  0  0  0
 17 19  1  0  0  0  0
 27 28  2  0  0  0  0
 27 29  1  0  0  0  0
 24 25  1  0  0  0  0
 24 26  1  0  0  0  0
 24 27  1  0  0  0  0
 23 24  1  0  0  0  0
 37 38  2  0  0  0  0
 37 39  1  0  0  0  0
 33 34  1  0  0  0  0
 33 35  1  0  0  0  0
 33 36  1  0  0  0  0
 31 32  1  0  0  0  0
 31 33  1  0  0  0  0
 31 37  1  0  0  0  0
 29 30  1  0  0  0  0
 29 31  1  0  0  0  0
 41 42  1  0  0  0  0
 41 43  1  0  0  0  0
 41 44  1  0  0  0  0
 39 40  1  0  0  0  0
 39 41  1  0  0  0  0
M  END
$$$$
default_name
  -OEChem-01062215323D

 44 43  0     1  0  0  0  0  0999 V2000
    2.4488   -3.0448    2.0990 H   0  0  0  0  0  0  0  0  0  0  0  0
    2.2788   -2.0018    2.3640 C   0  0  0  0  0  0  0  0  0  0  0  0
    2.9228   -1.7258    3.1960 H   0  0  0  0  0  0  0  0  0  0  0  0
    1.2358   -1.8618    2.6430 H   0  0  0  0  0  0  0  0  0  0  0  0
    2.6018   -1.1318    1.1730 C   0  0  0  0  0  0  0  0  0  0  0  0
    3.0048   -1.6348    0.1320 O   0  0  0  0  0  0  0  0  0  0  0  0
    2.4088    0.1752    1.3190 N   0  0  0  0  0  0  0  0  0  0  0  0
    2.0708    0.5242    2.2050 H   0  0  0  0  0  0  0  0  0  0  0  0
    2.6638    1.1782    0.2840 C   0  0  1  0  0  0  0  0  0  0  0  0
    3.3854    1.8961    0.6774 H   0  0  0  0  0  0  0  0  0  0  0  0
    3.2868    0.5024   -0.9501 C   0  0  0  0  0  0  0  0  0  0  0  0
    3.3217    1.2255   -1.7658 H   0  0  0  0  0  0  0  0  0  0  0  0
    2.6126   -0.2910   -1.2715 H   0  0  0  0  0  0  0  0  0  0  0  0
    4.9335   -0.2450   -0.7697 S   0  0  0  0  0  0  0  0  0  0  0  0
    1.3783    1.9496   -0.0692 C   0  0  0  0  0  0  0  0  0  0  0  0
    0.3184    1.6929    0.5016 O   0  0  0  0  0  0  0  0  0  0  0  0
    1.4746    2.9011   -1.0075 N   0  0  0  0  0  0  0  0  0  0  0  0
    2.3738    3.0611   -1.4323 H   0  0  0  0  0  0  0  0  0  0  0  0
    0.3473    3.7170   -1.4538 C   0  0  0  0  0  0  0  0  0  0  0  0
   -0.4134    3.0766   -1.9054 H   0  0  0  0  0  0  0  0  0  0  0  0
   -0.0971    4.2320   -0.6001 H   0  0  0  0  0  0  0  0  0  0  0  0
    0.6791    4.4541   -2.1862 H   0  0  0  0  0  0  0  0  0  0  0  0
    8.1026    5.7785   -5.1853 H   0  0  0  0  0  0  0  0  0  0  0  0
    7.5525    4.8454   -5.2973 C   0  0  0  0  0  0  0  0  0  0  0  0
    7.9114    4.3106   -6.1753 H   0  0  0  0  0  0  0  0  0  0  0  0
    6.4903    5.0579   -5.4027 H   0  0  0  0  0  0  0  0  0  0  0  0
    7.7734    3.9952   -4.0682 C   0  0  0  0  0  0  0  0  0  0  0  0
    8.4710    4.4052   -3.1504 O   0  0  0  0  0  0  0  0  0  0  0  0
    7.1688    2.8104   -4.0496 N   0  0  0  0  0  0  0  0  0  0  0  0
    6.6161    2.5328   -4.8476 H   0  0  0  0  0  0  0  0  0  0  0  0
    7.2567    1.8513   -2.9484 C   0  0  1  0  0  0  0  0  0  0  0  0
    8.2650    1.8797   -2.5315 H   0  0  0  0  0  0  0  0  0  0  0  0
    6.2704    2.2890   -1.8566 C   0  0  0  0  0  0  0  0  0  0  0  0
    6.5400    3.3030   -1.5578 H   0  0  0  0  0  0  0  0  0  0  0  0
    5.2687    2.3355   -2.2843 H   0  0  0  0  0  0  0  0  0  0  0  0
    6.2050    1.2941   -0.3423 S   0  0  0  0  0  0  0  0  0  0  0  0
    6.9873    0.4234   -3.4553 C   0  0  0  0  0  0  0  0  0  0  0  0
    6.2306    0.2427   -4.4103 O   0  0  0  0  0  0  0  0  0  0  0  0
    7.6086   -0.5821   -2.8255 N   0  0  0  0  0  0  0  0  0  0  0  0
    8.1855   -0.3540   -2.0314 H   0  0  0  0  0  0  0  0  0  0  0  0
    7.4540   -1.9932   -3.1765 C   0  0  0  0  0  0  0  0  0  0  0  0
    6.4791   -2.3511   -2.8412 H   0  0  0  0  0  0  0  0  0  0  0  0
    7.5170   -2.1178   -4.2601 H   0  0  0  0  0  0  0  0  0  0  0  0
    8.2365   -2.5870   -2.7037 H   0  0  0  0  0  0  0  0  0  0  0  0
  5  6  2  0  0  0  0
  5  7  1  0  0  0  0
  2  3  1  0  0  0  0
  2  4  1  0  0  0  0
  2  5  1  0  0  0  0
  1  2  1  0  0  0  0
 15 16  2  0  0  0  0
 15 17  1  0  0  0  0
 14 36  1  0  0  0  0
 11 12  1  0  0  0  0
 11 13  1  0  0  0  0
 11 14  1  0  0  0  0
  9 10  1  0  0  0  0
  9 11  1  0  0  0  0
  9 15  1  0  0  0  0
  7  8  1  0  0  0  0
  7  9  1  0  0  0  0
 19 20  1  0  0  0  0
 19 21  1  0  0  0  0
 19 22  1  0  0  0  0
 17 18  1  0  0  0  0
 17 19  1  0  0  0  0
 27 28  2  0  0  0  0
 27 29  1  0  0  0  0
 24 25  1  0  0  0  0
 24 26  1  0  0  0  0
 24 27  1  0  0  0  0
 23 24  1  0  0  0  0
 37 38  2  0  0  0  0
 37 39  1  0  0  0  0
 33 34  1  0  0  0  0
 33 35  1  0  0  0  0
 33 36  1  0  0  0  0
 31 32  1  0  0  0  0
 31 33  1  0  0  0  0
 31 37  1  0  0  0  0
 29 30  1  0  0  0  0
 29 31  1  0  0  0  0
 41 42  1  0  0  0  0
 41 43  1  0  0  0  0
 41 44  1  0  0  0  0
 39 40  1  0  0  0  0
 39 41  1  0  0  0  0
M  END
$$$$
default_name
  -OEChem-01062215323D

 44 43  0     1  0  0  0  0  0999 V2000
    2.4488   -3.0448    2.0990 H   0  0  0  0  0  0  0  0  0  0  0  0
    2.2788   -2.0018    2.3640 C   0  0  0  0  0  0  0  0  0  0  0  0
    2.9228   -1.7258    3.1960 H   0  0  0  0  0  0  0  0  0  0  0  0
    1.2358   -1.8618    2.6430 H   0  0  0  0  0  0  0  0  0  0  0  0
    2.6018   -1.1318    1.1730 C   0  0  0  0  0  0  0  0  0  0  0  0
    3.0048   -1.6348    0.1320 O   0  0  0  0  0  0  0  0  0  0  0  0
    2.4088    0.1752    1.3190 N   0  0  0  0  0  0  0  0  0  0  0  0
    2.0708    0.5242    2.2050 H   0  0  0  0  0  0  0  0  0  0  0  0
    2.6638    1.1782    0.2840 C   0  0  1  0  0  0  0  0  0  0  0  0
    3.3854    1.8961    0.6774 H   0  0  0  0  0  0  0  0  0  0  0  0
    3.2868    0.5024   -0.9501 C   0  0  0  0  0  0  0  0  0  0  0  0
    3.3217    1.2255   -1.7658 H   0  0  0  0  0  0  0  0  0  0  0  0
    2.6126   -0.2910   -1.2715 H   0  0  0  0  0  0  0  0  0  0  0  0
    4.9335   -0.2450   -0.7697 S   0  0  0  0  0  0  0  0  0  0  0  0
    1.3783    1.9496   -0.0692 C   0  0  0  0  0  0  0  0  0  0  0  0
    0.3955    1.8985    0.6701 O   0  0  0  0  0  0  0  0  0  0  0  0
    1.3887    2.6707   -1.1983 N   0  0  0  0  0  0  0  0  0  0  0  0
    2.2280    2.6704   -1.7553 H   0  0  0  0  0  0  0  0  0  0  0  0
    0.2491    3.4541   -1.6709 C   0  0  0  0  0  0  0  0  0  0  0  0
   -0.5940    2.7902   -1.8734 H   0  0  0  0  0  0  0  0  0  0  0  0
   -0.0512    4.1697   -0.9032 H   0  0  0  0  0  0  0  0  0  0  0  0
    0.5111    3.9926   -2.5825 H   0  0  0  0  0  0  0  0  0  0  0  0
    8.1026    5.7785   -5.1853 H   0  0  0  0  0  0  0  0  0  0  0  0
    7.5525    4.8454   -5.2973 C   0  0  0  0  0  0  0  0  0  0  0  0
    7.9114    4.3106   -6.1753 H   0  0  0  0  0  0  0  0  0  0  0  0
    6.4903    5.0579   -5.4027 H   0  0  0  0  0  0  0  0  0  0  0  0
    7.7734    3.9952   -4.0682 C   0  0  0  0  0  0  0  0  0  0  0  0
    8.4710    4.4052   -3.1504 O   0  0  0  0  0  0  0  0  0  0  0  0
    7.1688    2.8104   -4.0496 N   0  0  0  0  0  0  0  0  0  0  0  0
    6.6161    2.5328   -4.8476 H   0  0  0  0  0  0  0  0  0  0  0  0
    7.2567    1.8513   -2.9484 C   0  0  1  0  0  0  0  0  0  0  0  0
    8.2650    1.8797   -2.5315 H   0  0  0  0  0  0  0  0  0  0  0  0
    6.2704    2.2890   -1.8566 C   0  0  0  0  0  0  0  0  0  0  0  0
    6.5400    3.3030   -1.5578 H   0  0  0  0  0  0  0  0  0  0  0  0
    5.2687    2.3355   -2.2843 H   0  0  0  0  0  0  0  0  0  0  0  0
    6.2050    1.2941   -0.3423 S   0  0  0  0  0  0  0  0  0  0  0  0
    6.9873    0.4234   -3.4553 C   0  0  0  0  0  0  0  0  0  0  0  0
    6.2306    0.2427   -4.4103 O   0  0  0  0  0  0  0  0  0  0  0  0
    7.6086   -0.5821   -2.8255 N   0  0  0  0  0  0  0  0  0  0  0  0
    8.1855   -0.3540   -2.0314 H   0  0  0  0  0  0  0  0  0  0  0  0
    7.4540   -1.9932   -3.1765 C   0  0  0  0  0  0  0  0  0  0  0  0
    6.4791   -2.3511   -2.8412 H   0  0  0  0  0  0  0  0  0  0  0  0
    7.5170   -2.1178   -4.2601 H   0  0  0  0  0  0  0  0  0  0  0  0
    8.2365   -2.5870   -2.7037 H   0  0  0  0  0  0  0  0  0  0  0  0
  5  6  2  0  0  0  0
  5  7  1  0  0  0  0
  2  3  1  0  0  0  0
  2  4  1  0  0  0  0
  2  5  1  0  0  0  0
  1  2  1  0  0  0  0
 15 16  2  0  0  0  0
 15 17  1  0  0  0  0
 14 36  1  0  0  0  0
 11 12  1  0  0  0  0
 11 13  1  0  0  0  0
 11 14  1  0  0  0  0
  9 10  1  0  0  0  0
  9 11  1  0  0  0  0
  9 15  1  0  0  0  0
  7  8  1  0  0  0  0
  7  9  1  0  0  0  0
 19 20  1  0  0  0  0
 19 21  1  0  0  0  0
 19 22  1  0  0  0  0
 17 18  1  0  0  0  0
 17 19  1  0  0  0  0
 27 28  2  0  0  0  0
 27 29  1  0  0  0  0
 24 25  1  0  0  0  0
 24 26  1  0  0  0  0
 24 27  1  0  0  0  0
 23 24  1  0  0  0  0
 37 38  2  0  0  0  0
 37 39  1  0  0  0  0
 33 34  1  0  0  0  0
 33 35  1  0  0  0  0
 33 36  1  0  0  0  0
 31 32  1  0  0  0  0
 31 33  1  0  0  0  0
 31 37  1  0  0  0  0
 29 30  1  0  0  0  0
 29 31  1  0  0  0  0
 41 42  1  0  0  0  0
 41 43  1  0  0  0  0
 41 44  1  0  0  0  0
 39 40  1  0  0  0  0
 39 41  1  0  0  0  0
M  END
$$$$
default_name
  -OEChem-01062215323D

 44 43  0     1  0  0  0  0  0999 V2000
    2.4488   -3.0448    2.0990 H   0  0  0  0  0  0  0  0  0  0  0  0
    2.2788   -2.0018    2.3640 C   0  0  0  0  0  0  0  0  0  0  0  0
    2.9228   -1.7258    3.1960 H   0  0  0  0  0  0  0  0  0  0  0  0
    1.2358   -1.8618    2.6430 H   0  0  0  0  0  0  0  0  0  0  0  0
    2.6018   -1.1318    1.1730 C   0  0  0  0  0  0  0  0  0  0  0  0
    3.0048   -1.6348    0.1320 O   0  0  0  0  0  0  0  0  0  0  0  0
    2.4088    0.1752    1.3190 N   0  0  0  0  0  0  0  0  0  0  0  0
    2.0708    0.5242    2.2050 H   0  0  0  0  0  0  0  0  0  0  0  0
    2.6638    1.1782    0.2840 C   0  0  1  0  0  0  0  0  0  0  0  0
    3.3854    1.8961    0.6774 H   0  0  0  0  0  0  0  0  0  0  0  0
    3.2868    0.5024   -0.9501 C   0  0  0  0  0  0  0  0  0  0  0  0
    3.3217    1.2255   -1.7658 H   0  0  0  0  0  0  0  0  0  0  0  0
    2.6126   -0.2910   -1.2715 H   0  0  0  0  0  0  0  0  0  0  0  0
    4.9335   -0.2450   -0.7697 S   0  0  0  0  0  0  0  0  0  0  0  0
    1.3783    1.9496   -0.0692 C   0  0  0  0  0  0  0  0  0  0  0  0
    0.5041    2.1289    0.7785 O   0  0  0  0  0  0  0  0  0  0  0  0
    1.2674    2.4121   -1.3217 N   0  0  0  0  0  0  0  0  0  0  0  0
    2.0222    2.2318   -1.9640 H   0  0  0  0  0  0  0  0  0  0  0  0
    0.1106    3.1591   -1.8110 C   0  0  0  0  0  0  0  0  0  0  0  0
   -0.7814    2.5312   -1.7572 H   0  0  0  0  0  0  0  0  0  0  0  0
   -0.0498    4.0413   -1.1885 H   0  0  0  0  0  0  0  0  0  0  0  0
    0.2700    3.4712   -2.8439 H   0  0  0  0  0  0  0  0  0  0  0  0
    8.1026    5.7785   -5.1853 H   0  0  0  0  0  0  0  0  0  0  0  0
    7.5525    4.8454   -5.2973 C   0  0  0  0  0  0  0  0  0  0  0  0
    7.9114    4.3106   -6.1753 H   0  0  0  0  0  0  0  0  0  0  0  0
    6.4903    5.0579   -5.4027 H   0  0  0  0  0  0  0  0  0  0  0  0
    7.7734    3.9952   -4.0682 C   0  0  0  0  0  0  0  0  0  0  0  0
    8.4710    4.4052   -3.1504 O   0  0  0  0  0  0  0  0  0  0  0  0
    7.1688    2.8104   -4.0496 N   0  0  0  0  0  0  0  0  0  0  0  0
    6.6161    2.5328   -4.8476 H   0  0  0  0  0  0  0  0  0  0  0  0
    7.2567    1.8513   -2.9484 C   0  0  1  0  0  0  0  0  0  0  0  0
    8.2650    1.8797   -2.5315 H   0  0  0  0  0  0  0  0  0  0  0  0
    6.2704    2.2890   -1.8566 C   0  0  0  0  0  0  0  0  0  0  0  0
    6.5400    3.3030   -1.5578 H   0  0  0  0  0  0  0  0  0  0  0  0
    5.2687    2.3355   -2.2843 H   0  0  0  0  0  0  0  0  0  0  0  0
    6.2050    1.2941   -0.3423 S   0  0  0  0  0  0  0  0  0  0  0  0
    6.9873    0.4234   -3.4553 C   0  0  0  0  0  0  0  0  0  0  0  0
    6.2306    0.2427   -4.4103 O   0  0  0  0  0  0  0  0  0  0  0  0
    7.6086   -0.5821   -2.8255 N   0  0  0  0  0  0  0  0  0  0  0  0
    8.1855   -0.3540   -2.0314 H   0  0  0  0  0  0  0  0  0  0  0  0
    7.4540   -1.9932   -3.1765 C   0  0  0  0  0  0  0  0  0  0  0  0
    6.4791   -2.3511   -2.8412 H   0  0  0  0  0  0  0  0  0  0  0  0
    7.5170   -2.1178   -4.2601 H   0  0  0  0  0  0  0  0  0  0  0  0
    8.2365   -2.5870   -2.7037 H   0  0  0  0  0  0  0  0  0  0  0  0
  5  6  2  0  0  0  0
  5  7  1  0  0  0  0
  2  3  1  0  0  0  0
  2  4  1  0  0  0  0
  2  5  1  0  0  0  0
  1  2  1  0  0  0  0
 15 16  2  0  0  0  0
 15 17  1  0  0  0  0
 14 36  1  0  0  0  0
 11 12  1  0  0  0  0
 11 13  1  0  0  0  0
 11 14  1  0  0  0  0
  9 10  1  0  0  0  0
  9 11  1  0  0  0  0
  9 15  1  0  0  0  0
  7  8  1  0  0  0  0
  7  9  1  0  0  0  0
 19 20  1  0  0  0  0
 19 21  1  0  0  0  0
 19 22  1  0  0  0  0
 17 18  1  0  0  0  0
 17 19  1  0  0  0  0
 27 28  2  0  0  0  0
 27 29  1  0  0  0  0
 24 25  1  0  0  0  0
 24 26  1  0  0  0  0
 24 27  1  0  0  0  0
 23 24  1  0  0  0  0
 37 38  2  0  0  0  0
 37 39  1  0  0  0  0
 33 34  1  0  0  0  0
 33 35  1  0  0  0  0
 33 36  1  0  0  0  0
 31 32  1  0  0  0  0
 31 33  1  0  0  0  0
 31 37  1  0  0  0  0
 29 30  1  0  0  0  0
 29 31  1  0  0  0  0
 41 42  1  0  0  0  0
 41 43  1  0  0  0  0
 41 44  1  0  0  0  0
 39 40  1  0  0  0  0
 39 41  1  0  0  0  0
M  END
$$$$
default_name
  -OEChem-01062215323D

 44 43  0     1  0  0  0  0  0999 V2000
    2.4488   -3.0448    2.0990 H   0  0  0  0  0  0  0  0  0  0  0  0
    2.2788   -2.0018    2.3640 C   0  0  0  0  0  0  0  0  0  0  0  0
    2.9228   -1.7258    3.1960 H   0  0  0  0  0  0  0  0  0  0  0  0
    1.2358   -1.8618    2.6430 H   0  0  0  0  0  0  0  0  0  0  0  0
    2.6018   -1.1318    1.1730 C   0  0  0  0  0  0  0  0  0  0  0  0
    3.0048   -1.6348    0.1320 O   0  0  0  0  0  0  0  0  0  0  0  0
    2.4088    0.1752    1.3190 N   0  0  0  0  0  0  0  0  0  0  0  0
    2.0708    0.5242    2.2050 H   0  0  0  0  0  0  0  0  0  0  0  0
    2.6638    1.1782    0.2840 C   0  0  1  0  0  0  0  0  0  0  0  0
    3.3854    1.8961    0.6774 H   0  0  0  0  0  0  0  0  0  0  0  0
    3.2868    0.5024   -0.9501 C   0  0  0  0  0  0  0  0  0  0  0  0
    3.3217    1.2255   -1.7658 H   0  0  0  0  0  0  0  0  0  0  0  0
    2.6126   -0.2910   -1.2715 H   0  0  0  0  0  0  0  0  0  0  0  0
    4.9335   -0.2450   -0.7697 S   0  0  0  0  0  0  0  0  0  0  0  0
    1.3783    1.9496   -0.0692 C   0  0  0  0  0  0  0  0  0  0  0  0
    0.6366    2.3685    0.8194 O   0  0  0  0  0  0  0  0  0  0  0  0
    1.1189    2.1428   -1.3693 N   0  0  0  0  0  0  0  0  0  0  0  0
    1.7703    1.7754   -2.0441 H   0  0  0  0  0  0  0  0  0  0  0  0
   -0.0589    2.8521   -1.8647 C   0  0  0  0  0  0  0  0  0  0  0  0
   -0.9626    2.3173   -1.5647 H   0  0  0  0  0  0  0  0  0  0  0  0
   -0.0931    3.8556   -1.4366 H   0  0  0  0  0  0  0  0  0  0  0  0
   -0.0278    2.9254   -2.9525 H   0  0  0  0  0  0  0  0  0  0  0  0
    8.1026    5.7785   -5.1853 H   0  0  0  0  0  0  0  0  0  0  0  0
    7.5525    4.8454   -5.2973 C   0  0  0  0  0  0  0  0  0  0  0  0
    7.9114    4.3106   -6.1753 H   0  0  0  0  0  0  0  0  0  0  0  0
    6.4903    5.0579   -5.4027 H   0  0  0  0  0  0  0  0  0  0  0  0
    7.7734    3.9952   -4.0682 C   0  0  0  0  0  0  0  0  0  0  0  0
    8.4710    4.4052   -3.1504 O   0  0  0  0  0  0  0  0  0  0  0  0
    7.1688    2.8104   -4.0496 N   0  0  0  0  0  0  0  0  0  0  0  0
    6.6161    2.5328   -4.8476 H   0  0  0  0  0  0  0  0  0  0  0  0
    7.2567    1.8513   -2.9484 C   0  0  1  0  0  0  0  0  0  0  0  0
    8.2650    1.8797   -2.5315 H   0  0  0  0  0  0  0  0  0  0  0  0
    6.2704    2.2890   -1.8566 C   0  0  0  0  0  0  0  0  0  0  0  0
    6.5400    3.3030   -1.5578 H   0  0  0  0  0  0  0  0  0  0  0  0
    5.2687    2.3355   -2.2843 H   0  0  0  0  0  0  0  0  0  0  0  0
    6.2050    1.2941   -0.3423 S   0  0  0  0  0  0  0  0  0  0  0  0
    6.9873    0.4234   -3.4553 C   0  0  0  0  0  0  0  0  0  0  0  0
    6.2306    0.2427   -4.4103 O   0  0  0  0  0  0  0  0  0  0  0  0
    7.6086   -0.5821   -2.8255 N   0  0  0  0  0  0  0  0  0  0  0  0
    8.1855   -0.3540   -2.0314 H   0  0  0  0  0  0  0  0  0  0  0  0
    7.4540   -1.9932   -3.1765 C   0  0  0  0  0  0  0  0  0  0  0  0
    6.4791   -2.3511   -2.8412 H   0  0  0  0  0  0  0  0  0  0  0  0
    7.5170   -2.1178   -4.2601 H   0  0  0  0  0  0  0  0  0  0  0  0
    8.2365   -2.5870   -2.7037 H   0  0  0  0  0  0  0  0  0  0  0  0
  5  6  2  0  0  0  0
  5  7  1  0  0  0  0
  2  3  1  0  0  0  0
  2  4  1  0  0  0  0
  2  5  1  0  0  0  0
  1  2  1  0  0  0  0
 15 16  2  0  0  0  0
 15 17  1  0  0  0  0
 14 36  1  0  0  0  0
 11 12  1  0  0  0  0
 11 13  1  0  0  0  0
 11 14  1  0  0  0  0
  9 10  1  0  0  0  0
  9 11  1  0  0  0  0
  9 15  1  0  0  0  0
  7  8  1  0  0  0  0
  7  9  1  0  0  0  0
 19 20  1  0  0  0  0
 19 21  1  0  0  0  0
 19 22  1  0  0  0  0
 17 18  1  0  0  0  0
 17 19  1  0  0  0  0
 27 28  2  0  0  0  0
 27 29  1  0  0  0  0
 24 25  1  0  0  0  0
 24 26  1  0  0  0  0
 24 27  1  0  0  0  0
 23 24  1  0  0  0  0
 37 38  2  0  0  0  0
 37 39  1  0  0  0  0
 33 34  1  0  0  0  0
 33 35  1  0  0  0  0
 33 36  1  0  0  0  0
 31 32  1  0  0  0  0
 31 33  1  0  0  0  0
 31 37  1  0  0  0  0
 29 30  1  0  0  0  0
 29 31  1  0  0  0  0
 41 42  1  0  0  0  0
 41 43  1  0  0  0  0
 41 44  1  0  0  0  0
 39 40  1  0  0  0  0
 39 41  1  0  0  0  0
M  END
$$$$
default_name
  -OEChem-01062215323D

 44 43  0     1  0  0  0  0  0999 V2000
    2.4488   -3.0448    2.0990 H   0  0  0  0  0  0  0  0  0  0  0  0
    2.2788   -2.0018    2.3640 C   0  0  0  0  0  0  0  0  0  0  0  0
    2.9228   -1.7258    3.1960 H   0  0  0  0  0  0  0  0  0  0  0  0
    1.2358   -1.8618    2.6430 H   0  0  0  0  0  0  0  0  0  0  0  0
    2.6018   -1.1318    1.1730 C   0  0  0  0  0  0  0  0  0  0  0  0
    3.0048   -1.6348    0.1320 O   0  0  0  0  0  0  0  0  0  0  0  0
    2.4088    0.1752    1.3190 N   0  0  0  0  0  0  0  0  0  0  0  0
    2.0708    0.5242    2.2050 H   0  0  0  0  0  0  0  0  0  0  0  0
    2.6638    1.1782    0.2840 C   0  0  1  0  0  0  0  0  0  0  0  0
    3.3854    1.8961    0.6774 H   0  0  0  0  0  0  0  0  0  0  0  0
    3.2868    0.5024   -0.9501 C   0  0  0  0  0  0  0  0  0  0  0  0
    3.3217    1.2255   -1.7658 H   0  0  0  0  0  0  0  0  0  0  0  0
    2.6126   -0.2910   -1.2715 H   0  0  0  0  0  0  0  0  0  0  0  0
    4.9335   -0.2450   -0.7697 S   0  0  0  0  0  0  0  0  0  0  0  0
    1.3783    1.9496   -0.0692 C   0  0  0  0  0  0  0  0  0  0  0  0
    0.7841    2.6008    0.7899 O   0  0  0  0  0  0  0  0  0  0  0  0
    0.9533    1.8812   -1.3378 N   0  0  0  0  0  0  0  0  0  0  0  0
    1.4894    1.3321   -1.9903 H   0  0  0  0  0  0  0  0  0  0  0  0
   -0.2478    2.5540   -1.8282 C   0  0  0  0  0  0  0  0  0  0  0  0
   -1.1255    2.1630   -1.3091 H   0  0  0  0  0  0  0  0  0  0  0  0
   -0.1781    3.6252   -1.6305 H   0  0  0  0  0  0  0  0  0  0  0  0
   -0.3618    2.3924   -2.9009 H   0  0  0  0  0  0  0  0  0  0  0  0
    8.1026    5.7785   -5.1853 H   0  0  0  0  0  0  0  0  0  0  0  0
    7.5525    4.8454   -5.2973 C   0  0  0  0  0  0  0  0  0  0  0  0
    7.9114    4.3106   -6.1753 H   0  0  0  0  0  0  0  0  0  0  0  0
    6.4903    5.0579   -5.4027 H   0  0  0  0  0  0  0  0  0  0  0  0
    7.7734    3.9952   -4.0682 C   0  0  0  0  0  0  0  0  0  0  0  0
    8.4710    4.4052   -3.1504 O   0  0  0  0  0  0  0  0  0  0  0  0
    7.1688    2.8104   -4.0496 N   0  0  0  0  0  0  0  0  0  0  0  0
    6.6161    2.5328   -4.8476 H   0  0  0  0  0  0  0  0  0  0  0  0
    7.2567    1.8513   -2.9484 C   0  0  1  0  0  0  0  0  0  0  0  0
    8.2650    1.8797   -2.5315 H   0  0  0  0  0  0  0  0  0  0  0  0
    6.2704    2.2890   -1.8566 C   0  0  0  0  0  0  0  0  0  0  0  0
    6.5400    3.3030   -1.5578 H   0  0  0  0  0  0  0  0  0  0  0  0
    5.2687    2.3355   -2.2843 H   0  0  0  0  0  0  0  0  0  0  0  0
    6.2050    1.2941   -0.3423 S   0  0  0  0  0  0  0  0  0  0  0  0
    6.9873    0.4234   -3.4553 C   0  0  0  0  0  0  0  0  0  0  0  0
    6.2306    0.2427   -4.4103 O   0  0  0  0  0  0  0  0  0  0  0  0
    7.6086   -0.5821   -2.8255 N   0  0  0  0  0  0  0  0  0  0  0  0
    8.1855   -0.3540   -2.0314 H   0  0  0  0  0  0  0  0  0  0  0  0
    7.4540   -1.9932   -3.1765 C   0  0  0  0  0  0  0  0  0  0  0  0
    6.4791   -2.3511   -2.8412 H   0  0  0  0  0  0  0  0  0  0  0  0
    7.5170   -2.1178   -4.2601 H   0  0  0  0  0  0  0  0  0  0  0  0
    8.2365   -2.5870   -2.7037 H   0  0  0  0  0  0  0  0  0  0  0  0
  5  6  2  0  0  0  0
  5  7  1  0  0  0  0
  2  3  1  0  0  0  0
  2  4  1  0  0  0  0
  2  5  1  0  0  0  0
  1  2  1  0  0  0  0
 15 16  2  0  0  0  0
 15 17  1  0  0  0  0
 14 36  1  0  0  0  0
 11 12  1  0  0  0  0
 11 13  1  0  0  0  0
 11 14  1  0  0  0  0
  9 10  1  0  0  0  0
  9 11  1  0  0  0  0
  9 15  1  0  0  0  0
  7  8  1  0  0  0  0
  7  9  1  0  0  0  0
 19 20  1  0  0  0  0
 19 21  1  0  0  0  0
 19 22  1  0  0  0  0
 17 18  1  0  0  0  0
 17 19  1  0  0  0  0
 27 28  2  0  0  0  0
 27 29  1  0  0  0  0
 24 25  1  0  0  0  0
 24 26  1  0  0  0  0
 24 27  1  0  0  0  0
 23 24  1  0  0  0  0
 37 38  2  0  0  0  0
 37 39  1  0  0  0  0
 33 34  1  0  0  0  0
 33 35  1  0  0  0  0
 33 36  1  0  0  0  0
 31 32  1  0  0  0  0
 31 33  1  0  0  0  0
 31 37  1  0  0  0  0
 29 30  1  0  0  0  0
 29 31  1  0  0  0  0
 41 42  1  0  0  0  0
 41 43  1  0  0  0  0
 41 44  1  0  0  0  0
 39 40  1  0  0  0  0
 39 41  1  0  0  0  0
M  END
$$$$
default_name
  -OEChem-01062215323D

 44 43  0     1  0  0  0  0  0999 V2000
    2.4488   -3.0448    2.0990 H   0  0  0  0  0  0  0  0  0  0  0  0
    2.2788   -2.0018    2.3640 C   0  0  0  0  0  0  0  0  0  0  0  0
    2.9228   -1.7258    3.1960 H   0  0  0  0  0  0  0  0  0  0  0  0
    1.2358   -1.8618    2.6430 H   0  0  0  0  0  0  0  0  0  0  0  0
    2.6018   -1.1318    1.1730 C   0  0  0  0  0  0  0  0  0  0  0  0
    3.0048   -1.6348    0.1320 O   0  0  0  0  0  0  0  0  0  0  0  0
    2.4088    0.1752    1.3190 N   0  0  0  0  0  0  0  0  0  0  0  0
    2.0708    0.5242    2.2050 H   0  0  0  0  0  0  0  0  0  0  0  0
    2.6638    1.1782    0.2840 C   0  0  1  0  0  0  0  0  0  0  0  0
    3.3854    1.8961    0.6774 H   0  0  0  0  0  0  0  0  0  0  0  0
    3.2868    0.5024   -0.9501 C   0  0  0  0  0  0  0  0  0  0  0  0
    3.3217    1.2255   -1.7658 H   0  0  0  0  0  0  0  0  0  0  0  0
    2.6126   -0.2910   -1.2715 H   0  0  0  0  0  0  0  0  0  0  0  0
    4.9335   -0.2450   -0.7697 S   0  0  0  0  0  0  0  0  0  0  0  0
    1.3783    1.9496   -0.0692 C   0  0  0  0  0  0  0  0  0  0  0  0
    0.9366    2.8102    0.6921 O   0  0  0  0  0  0  0  0  0  0  0  0
    0.7818    1.6452   -1.2295 N   0  0  0  0  0  0  0  0  0  0  0  0
    1.1989    0.9323   -1.8062 H   0  0  0  0  0  0  0  0  0  0  0  0
   -0.4433    2.2852   -1.7042 C   0  0  0  0  0  0  0  0  0  0  0  0
   -1.2588    2.0788   -1.0077 H   0  0  0  0  0  0  0  0  0  0  0  0
   -0.2990    3.3658   -1.7569 H   0  0  0  0  0  0  0  0  0  0  0  0
   -0.7094    1.9086   -2.6927 H   0  0  0  0  0  0  0  0  0  0  0  0
    8.1026    5.7785   -5.1853 H   0  0  0  0  0  0  0  0  0  0  0  0
    7.5525    4.8454   -5.2973 C   0  0  0  0  0  0  0  0  0  0  0  0
    7.9114    4.3106   -6.1753 H   0  0  0  0  0  0  0  0  0  0  0  0
    6.4903    5.0579   -5.4027 H   0  0  0  0  0  0  0  0  0  0  0  0
    7.7734    3.9952   -4.0682 C   0  0  0  0  0  0  0  0  0  0  0  0
    8.4710    4.4052   -3.1504 O   0  0  0  0  0  0  0  0  0  0  0  0
    7.1688    2.8104   -4.0496 N   0  0  0  0  0  0  0  0  0  0  0  0
    6.6161    2.5328   -4.8476 H   0  0  0  0  0  0  0  0  0  0  0  0
    7.2567    1.8513   -2.9484 C   0  0  1  0  0  0  0  0  0  0  0  0
    8.2650    1.8797   -2.5315 H   0  0  0  0  0  0  0  0  0  0  0  0
    6.2704    2.2890   -1.8566 C   0  0  0  0  0  0  0  0  0  0  0  0
    6.5400    3.3030   -1.5578 H   0  0  0  0  0  0  0  0  0  0  0  0
    5.2687    2.3355   -2.2843 H   0  0  0  0  0  0  0  0  0  0  0  0
    6.2050    1.2941   -0.3423 S   0  0  0  0  0  0  0  0  0  0  0  0
    6.9873    0.4234   -3.4553 C   0  0  0  0  0  0  0  0  0  0  0  0
    6.2306    0.2427   -4.4103 O   0  0  0  0  0  0  0  0  0  0  0  0
    7.6086   -0.5821   -2.8255 N   0  0  0  0  0  0  0  0  0  0  0  0
    8.1855   -0.3540   -2.0314 H   0  0  0  0  0  0  0  0  0  0  0  0
    7.4540   -1.9932   -3.1765 C   0  0  0  0  0  0  0  0  0  0  0  0
    6.4791   -2.3511   -2.8412 H   0  0  0  0  0  0  0  0  0  0  0  0
    7.5170   -2.1178   -4.2601 H   0  0  0  0  0  0  0  0  0  0  0  0
    8.2365   -2.5870   -2.7037 H   0  0  0  0  0  0  0  0  0  0  0  0
  5  6  2  0  0  0  0
  5  7  1  0  0  0  0
  2  3  1  0  0  0  0
  2  4  1  0  0  0  0
  2  5  1  0  0  0  0
  1  2  1  0  0  0  0
 15 16  2  0  0  0  0
 15 17  1  0  0  0  0
 14 36  1  0  0  0  0
 11 12  1  0  0  0  0
 11 13  1  0  0  0  0
 11 14  1  0  0  0  0
  9 10  1  0  0  0  0
  9 11  1  0  0  0  0
  9 15  1  0  0  0  0
  7  8  1  0  0  0  0
  7  9  1  0  0  0  0
 19 20  1  0  0  0  0
 19 21  1  0  0  0  0
 19 22  1  0  0  0  0
 17 18  1  0  0  0  0
 17 19  1  0  0  0  0
 27 28  2  0  0  0  0
 27 29  1  0  0  0  0
 24 25  1  0  0  0  0
 24 26  1  0  0  0  0
 24 27  1  0  0  0  0
 23 24  1  0  0  0  0
 37 38  2  0  0  0  0
 37 39  1  0  0  0  0
 33 34  1  0  0  0  0
 33 35  1  0  0  0  0
 33 36  1  0  0  0  0
 31 32  1  0  0  0  0
 31 33  1  0  0  0  0
 31 37  1  0  0  0  0
 29 30  1  0  0  0  0
 29 31  1  0  0  0  0
 41 42  1  0  0  0  0
 41 43  1  0  0  0  0
 41 44  1  0  0  0  0
 39 40  1  0  0  0  0
 39 41  1  0  0  0  0
M  END
$$$$
default_name
  -OEChem-01062215323D

 44 43  0     1  0  0  0  0  0999 V2000
    2.4488   -3.0448    2.0990 H   0  0  0  0  0  0  0  0  0  0  0  0
    2.2788   -2.0018    2.3640 C   0  0  0  0  0  0  0  0  0  0  0  0
    2.9228   -1.7258    3.1960 H   0  0  0  0  0  0  0  0  0  0  0  0
    1.2358   -1.8618    2.6430 H   0  0  0  0  0  0  0  0  0  0  0  0
    2.6018   -1.1318    1.1730 C   0  0  0  0  0  0  0  0  0  0  0  0
    3.0048   -1.6348    0.1320 O   0  0  0  0  0  0  0  0  0  0  0  0
    2.4088    0.1752    1.3190 N   0  0  0  0  0  0  0  0  0  0  0  0
    2.0708    0.5242    2.2050 H   0  0  0  0  0  0  0  0  0  0  0  0
    2.6638    1.1782    0.2840 C   0  0  1  0  0  0  0  0  0  0  0  0
    3.3854    1.8961    0.6774 H   0  0  0  0  0  0  0  0  0  0  0  0
    3.2868    0.5024   -0.9501 C   0  0  0  0  0  0  0  0  0  0  0  0
    3.3217    1.2255   -1.7658 H   0  0  0  0  0  0  0  0  0  0  0  0
    2.6126   -0.2910   -1.2715 H   0  0  0  0  0  0  0  0  0  0  0  0
    4.9335   -0.2450   -0.7697 S   0  0  0  0  0  0  0  0  0  0  0  0
    1.3783    1.9496   -0.0692 C   0  0  0  0  0  0  0  0  0  0  0  0
    1.0837    2.9822    0.5326 O   0  0  0  0  0  0  0  0  0  0  0  0
    0.6163    1.4507   -1.0517 N   0  0  0  0  0  0  0  0  0  0  0  0
    0.9184    0.6030   -1.5042 H   0  0  0  0  0  0  0  0  0  0  0  0
   -0.6319    2.0639   -1.5009 C   0  0  0  0  0  0  0  0  0  0  0  0
   -1.3535    2.0705   -0.6812 H   0  0  0  0  0  0  0  0  0  0  0  0
   -0.4476    3.0952   -1.8074 H   0  0  0  0  0  0  0  0  0  0  0  0
   -1.0468    1.5068   -2.3419 H   0  0  0  0  0  0  0  0  0  0  0  0
    8.1026    5.7785   -5.1853 H   0  0  0  0  0  0  0  0  0  0  0  0
    7.5525    4.8454   -5.2973 C   0  0  0  0  0  0  0  0  0  0  0  0
    7.9114    4.3106   -6.1753 H   0  0  0  0  0  0  0  0  0  0  0  0
    6.4903    5.0579   -5.4027 H   0  0  0  0  0  0  0  0  0  0  0  0
    7.7734    3.9952   -4.0682 C   0  0  0  0  0  0  0  0  0  0  0  0
    8.4710    4.4052   -3.1504 O   0  0  0  0  0  0  0  0  0  0  0  0
    7.1688    2.8104   -4.0496 N   0  0  0  0  0  0  0  0  0  0  0  0
    6.6161    2.5328   -4.8476 H   0  0  0  0  0  0  0  0  0  0  0  0
    7.2567    1.8513   -2.9484 C   0  0  1  0  0  0  0  0  0  0  0  0
    8.2650    1.8797   -2.5315 H   0  0  0  0  0  0  0  0  0  0  0  0
    6.2704    2.2890   -1.8566 C   0  0  0  0  0  0  0  0  0  0  0  0
    6.5400    3.3030   -1.5578 H   0  0  0  0  0  0  0  0  0  0  0  0
    5.2687    2.3355   -2.2843 H   0  0  0  0  0  0  0  0  0  0  0  0
    6.2050    1.2941   -0.3423 S   0  0  0  0  0  0  0  0  0  0  0  0
    6.9873    0.4234   -3.4553 C   0  0  0  0  0  0  0  0  0  0  0  0
    6.2306    0.2427   -4.4103 O   0  0  0  0  0  0  0  0  0  0  0  0
    7.6086   -0.5821   -2.8255 N   0  0  0  0  0  0  0  0  0  0  0  0
    8.1855   -0.3540   -2.0314 H   0  0  0  0  0  0  0  0  0  0  0  0
    7.4540   -1.9932   -3.1765 C   0  0  0  0  0  0  0  0  0  0  0  0
    6.4791   -2.3511   -2.8412 H   0  0  0  0  0  0  0  0  0  0  0  0
    7.5170   -2.1178   -4.2601 H   0  0  0  0  0  0  0  0  0  0  0  0
    8.2365   -2.5870   -2.7037 H   0  0  0  0  0  0  0  0  0  0  0  0
  5  6  2  0  0  0  0
  5  7  1  0  0  0  0
  2  3  1  0  0  0  0
  2  4  1  0  0  0  0
  2  5  1  0  0  0  0
  1  2  1  0  0  0  0
 15 16  2  0  0  0  0
 15 17  1  0  0  0  0
 14 36  1  0  0  0  0
 11 12  1  0  0  0  0
 11 13  1  0  0  0  0
 11 14  1  0  0  0  0
  9 10  1  0  0  0  0
  9 11  1  0  0  0  0
  9 15  1  0  0  0  0
  7  8  1  0  0  0  0
  7  9  1  0  0  0  0
 19 20  1  0  0  0  0
 19 21  1  0  0  0  0
 19 22  1  0  0  0  0
 17 18  1  0  0  0  0
 17 19  1  0  0  0  0
 27 28  2  0  0  0  0
 27 29  1  0  0  0  0
 24 25  1  0  0  0  0
 24 26  1  0  0  0  0
 24 27  1  0  0  0  0
 23 24  1  0  0  0  0
 37 38  2  0  0  0  0
 37 39  1  0  0  0  0
 33 34  1  0  0  0  0
 33 35  1  0  0  0  0
 33 36  1  0  0  0  0
 31 32  1  0  0  0  0
 31 33  1  0  0  0  0
 31 37  1  0  0  0  0
 29 30  1  0  0  0  0
 29 31  1  0  0  0  0
 41 42  1  0  0  0  0
 41 43  1  0  0  0  0
 41 44  1  0  0  0  0
 39 40  1  0  0  0  0
 39 41  1  0  0  0  0
M  END
$$$$
default_name
  -OEChem-01062215323D

 44 43  0     1  0  0  0  0  0999 V2000
    2.4488   -3.0448    2.0990 H   0  0  0  0  0  0  0  0  0  0  0  0
    2.2788   -2.0018    2.3640 C   0  0  0  0  0  0  0  0  0  0  0  0
    2.9228   -1.7258    3.1960 H   0  0  0  0  0  0  0  0  0  0  0  0
    1.2358   -1.8618    2.6430 H   0  0  0  0  0  0  0  0  0  0  0  0
    2.6018   -1.1318    1.1730 C   0  0  0  0  0  0  0  0  0  0  0  0
    3.0048   -1.6348    0.1320 O   0  0  0  0  0  0  0  0  0  0  0  0
    2.4088    0.1752    1.3190 N   0  0  0  0  0  0  0  0  0  0  0  0
    2.0708    0.5242    2.2050 H   0  0  0  0  0  0  0  0  0  0  0  0
    2.6638    1.1782    0.2840 C   0  0  1  0  0  0  0  0  0  0  0  0
    3.3854    1.8961    0.6774 H   0  0  0  0  0  0  0  0  0  0  0  0
    3.2868    0.5024   -0.9501 C   0  0  0  0  0  0  0  0  0  0  0  0
    3.3217    1.2255   -1.7658 H   0  0  0  0  0  0  0  0  0  0  0  0
    2.6126   -0.2910   -1.2715 H   0  0  0  0  0  0  0  0  0  0  0  0
    4.9335   -0.2450   -0.7697 S   0  0  0  0  0  0  0  0  0  0  0  0
    1.3783    1.9496   -0.0692 C   0  0  0  0  0  0  0  0  0  0  0  0
    1.2152    3.1051    0.3224 O   0  0  0  0  0  0  0  0  0  0  0  0
    0.4679    1.3112   -0.8164 N   0  0  0  0  0  0  0  0  0  0  0  0
    0.6670    0.3669   -1.1051 H   0  0  0  0  0  0  0  0  0  0  0  0
   -0.8009    1.9052   -1.2323 C   0  0  0  0  0  0  0  0  0  0  0  0
   -1.4031    2.1387   -0.3517 H   0  0  0  0  0  0  0  0  0  0  0  0
   -0.6137    2.8316   -1.7784 H   0  0  0  0  0  0  0  0  0  0  0  0
   -1.3512    1.2146   -1.8726 H   0  0  0  0  0  0  0  0  0  0  0  0
    8.1026    5.7785   -5.1853 H   0  0  0  0  0  0  0  0  0  0  0  0
    7.5525    4.8454   -5.2973 C   0  0  0  0  0  0  0  0  0  0  0  0
    7.9114    4.3106   -6.1753 H   0  0  0  0  0  0  0  0  0  0  0  0
    6.4903    5.0579   -5.4027 H   0  0  0  0  0  0  0  0  0  0  0  0
    7.7734    3.9952   -4.0682 C   0  0  0  0  0  0  0  0  0  0  0  0
    8.4710    4.4052   -3.1504 O   0  0  0  0  0  0  0  0  0  0  0  0
    7.1688    2.8104   -4.0496 N   0  0  0  0  0  0  0  0  0  0  0  0
    6.6161    2.5328   -4.8476 H   0  0  0  0  0  0  0  0  0  0  0  0
    7.2567    1.8513   -2.9484 C   0  0  1  0  0  0  0  0  0  0  0  0
    8.2650    1.8797   -2.5315 H   0  0  0  0  0  0  0  0  0  0  0  0
    6.2704    2.2890   -1.8566 C   0  0  0  0  0  0  0  0  0  0  0  0
    6.5400    3.3030   -1.5578 H   0  0  0  0  0  0  0  0  0  0  0  0
    5.2687    2.3355   -2.2843 H   0  0  0  0  0  0  0  0  0  0  0  0
    6.2050    1.2941   -0.3423 S   0  0  0  0  0  0  0  0  0  0  0  0
    6.9873    0.4234   -3.4553 C   0  0  0  0  0  0  0  0  0  0  0  0
    6.2306    0.2427   -4.4103 O   0  0  0  0  0  0  0  0  0  0  0  0
    7.6086   -0.5821   -2.8255 N   0  0  0  0  0  0  0  0  0  0  0  0
    8.1855   -0.3540   -2.0314 H   0  0  0  0  0  0  0  0  0  0  0  0
    7.4540   -1.9932   -3.1765 C   0  0  0  0  0  0  0  0  0  0  0  0
    6.4791   -2.3511   -2.8412 H   0  0  0  0  0  0  0  0  0  0  0  0
    7.5170   -2.1178   -4.2601 H   0  0  0  0  0  0  0  0  0  0  0  0
    8.2365   -2.5870   -2.7037 H   0  0  0  0  0  0  0  0  0  0  0  0
  5  6  2  0  0  0  0
  5  7  1  0  0  0  0
  2  3  1  0  0  0  0
  2  4  1  0  0  0  0
  2  5  1  0  0  0  0
  1  2  1  0  0  0  0
 15 16  2  0  0  0  0
 15 17  1  0  0  0  0
 14 36  1  0  0  0  0
 11 12  1  0  0  0  0
 11 13  1  0  0  0  0
 11 14  1  0  0  0  0
  9 10  1  0  0  0  0
  9 11  1  0  0  0  0
  9 15  1  0  0  0  0
  7  8  1  0  0  0  0
  7  9  1  0  0  0  0
 19 20  1  0  0  0  0
 19 21  1  0  0  0  0
 19 22  1  0  0  0  0
 17 18  1  0  0  0  0
 17 19  1  0  0  0  0
 27 28  2  0  0  0  0
 27 29  1  0  0  0  0
 24 25  1  0  0  0  0
 24 26  1  0  0  0  0
 24 27  1  0  0  0  0
 23 24  1  0  0  0  0
 37 38  2  0  0  0  0
 37 39  1  0  0  0  0
 33 34  1  0  0  0  0
 33 35  1  0  0  0  0
 33 36  1  0  0  0  0
 31 32  1  0  0  0  0
 31 33  1  0  0  0  0
 31 37  1  0  0  0  0
 29 30  1  0  0  0  0
 29 31  1  0  0  0  0
 41 42  1  0  0  0  0
 41 43  1  0  0  0  0
 41 44  1  0  0  0  0
 39 40  1  0  0  0  0
 39 41  1  0  0  0  0
M  END
$$$$
default_name
  -OEChem-01062215323D

 44 43  0     1  0  0  0  0  0999 V2000
    2.4488   -3.0448    2.0990 H   0  0  0  0  0  0  0  0  0  0  0  0
    2.2788   -2.0018    2.3640 C   0  0  0  0  0  0  0  0  0  0  0  0
    2.9228   -1.7258    3.1960 H   0  0  0  0  0  0  0  0  0  0  0  0
    1.2358   -1.8618    2.6430 H   0  0  0  0  0  0  0  0  0  0  0  0
    2.6018   -1.1318    1.1730 C   0  0  0  0  0  0  0  0  0  0  0  0
    3.0048   -1.6348    0.1320 O   0  0  0  0  0  0  0  0  0  0  0  0
    2.4088    0.1752    1.3190 N   0  0  0  0  0  0  0  0  0  0  0  0
    2.0708    0.5242    2.2050 H   0  0  0  0  0  0  0  0  0  0  0  0
    2.6638    1.1782    0.2840 C   0  0  1  0  0  0  0  0  0  0  0  0
    3.3854    1.8961    0.6774 H   0  0  0  0  0  0  0  0  0  0  0  0
    3.2868    0.5024   -0.9501 C   0  0  0  0  0  0  0  0  0  0  0  0
    3.3217    1.2255   -1.7658 H   0  0  0  0  0  0  0  0  0  0  0  0
    2.6126   -0.2910   -1.2715 H   0  0  0  0  0  0  0  0  0  0  0  0
    4.9335   -0.2450   -0.7697 S   0  0  0  0  0  0  0  0  0  0  0  0
    1.3783    1.9496   -0.0692 C   0  0  0  0  0  0  0  0  0  0  0  0
    1.3223    3.1707    0.0757 O   0  0  0  0  0  0  0  0  0  0  0  0
    0.3468    1.2360   -0.5398 N   0  0  0  0  0  0  0  0  0  0  0  0
    0.4619    0.2399   -0.6360 H   0  0  0  0  0  0  0  0  0  0  0  0
   -0.9388    1.8200   -0.9167 C   0  0  0  0  0  0  0  0  0  0  0  0
   -1.4043    2.2786   -0.0417 H   0  0  0  0  0  0  0  0  0  0  0  0
   -0.7861    2.5932   -1.6720 H   0  0  0  0  0  0  0  0  0  0  0  0
   -1.6016    1.0517   -1.3167 H   0  0  0  0  0  0  0  0  0  0  0  0
    8.1026    5.7785   -5.1853 H   0  0  0  0  0  0  0  0  0  0  0  0
    7.5525    4.8454   -5.2973 C   0  0  0  0  0  0  0  0  0  0  0  0
    7.9114    4.3106   -6.1753 H   0  0  0  0  0  0  0  0  0  0  0  0
    6.4903    5.0579   -5.4027 H   0  0  0  0  0  0  0  0  0  0  0  0
    7.7734    3.9952   -4.0682 C   0  0  0  0  0  0  0  0  0  0  0  0
    8.4710    4.4052   -3.1504 O   0  0  0  0  0  0  0  0  0  0  0  0
    7.1688    2.8104   -4.0496 N   0  0  0  0  0  0  0  0  0  0  0  0
    6.6161    2.5328   -4.8476 H   0  0  0  0  0  0  0  0  0  0  0  0
    7.2567    1.8513   -2.9484 C   0  0  1  0  0  0  0  0  0  0  0  0
    8.2650    1.8797   -2.5315 H   0  0  0  0  0  0  0  0  0  0  0  0
    6.2704    2.2890   -1.8566 C   0  0  0  0  0  0  0  0  0  0  0  0
    6.5400    3.3030   -1.5578 H   0  0  0  0  0  0  0  0  0  0  0  0
    5.2687    2.3355   -2.2843 H   0  0  0  0  0  0  0  0  0  0  0  0
    6.2050    1.2941   -0.3423 S   0  0  0  0  0  0  0  0  0  0  0  0
    6.9873    0.4234   -3.4553 C   0  0  0  0  0  0  0  0  0  0  0  0
    6.2306    0.2427   -4.4103 O   0  0  0  0  0  0  0  0  0  0  0  0
    7.6086   -0.5821   -2.8255 N   0  0  0  0  0  0  0  0  0  0  0  0
    8.1855   -0.3540   -2.0314 H   0  0  0  0  0  0  0  0  0  0  0  0
    7.4540   -1.9932   -3.1765 C   0  0  0  0  0  0  0  0  0  0  0  0
    6.4791   -2.3511   -2.8412 H   0  0  0  0  0  0  0  0  0  0  0  0
    7.5170   -2.1178   -4.2601 H   0  0  0  0  0  0  0  0  0  0  0  0
    8.2365   -2.5870   -2.7037 H   0  0  0  0  0  0  0  0  0  0  0  0
  5  6  2  0  0  0  0
  5  7  1  0  0  0  0
  2  3  1  0  0  0  0
  2  4  1  0  0  0  0
  2  5  1  0  0  0  0
  1  2  1  0  0  0  0
 15 16  2  0  0  0  0
 15 17  1  0  0  0  0
 14 36  1  0  0  0  0
 11 12  1  0  0  0  0
 11 13  1  0  0  0  0
 11 14  1  0  0  0  0
  9 10  1  0  0  0  0
  9 11  1  0  0  0  0
  9 15  1  0  0  0  0
  7  8  1  0  0  0  0
  7  9  1  0  0  0  0
 19 20  1  0  0  0  0
 19 21  1  0  0  0  0
 19 22  1  0  0  0  0
 17 18  1  0  0  0  0
 17 19  1  0  0  0  0
 27 28  2  0  0  0  0
 27 29  1  0  0  0  0
 24 25  1  0  0  0  0
 24 26  1  0  0  0  0
 24 27  1  0  0  0  0
 23 24  1  0  0  0  0
 37 38  2  0  0  0  0
 37 39  1  0  0  0  0
 33 34  1  0  0  0  0
 33 35  1  0  0  0  0
 33 36  1  0  0  0  0
 31 32  1  0  0  0  0
 31 33  1  0  0  0  0
 31 37  1  0  0  0  0
 29 30  1  0  0  0  0
 29 31  1  0  0  0  0
 41 42  1  0  0  0  0
 41 43  1  0  0  0  0
 41 44  1  0  0  0  0
 39 40  1  0  0  0  0
 39 41  1  0  0  0  0
M  END
$$$$
default_name
  -OEChem-01062215323D

 44 43  0     1  0  0  0  0  0999 V2000
    2.4488   -3.0448    2.0990 H   0  0  0  0  0  0  0  0  0  0  0  0
    2.2788   -2.0018    2.3640 C   0  0  0  0  0  0  0  0  0  0  0  0
    2.9228   -1.7258    3.1960 H   0  0  0  0  0  0  0  0  0  0  0  0
    1.2358   -1.8618    2.6430 H   0  0  0  0  0  0  0  0  0  0  0  0
    2.6018   -1.1318    1.1730 C   0  0  0  0  0  0  0  0  0  0  0  0
    3.0048   -1.6348    0.1320 O   0  0  0  0  0  0  0  0  0  0  0  0
    2.4088    0.1752    1.3190 N   0  0  0  0  0  0  0  0  0  0  0  0
    2.0708    0.5242    2.2050 H   0  0  0  0  0  0  0  0  0  0  0  0
    2.6638    1.1782    0.2840 C   0  0  1  0  0  0  0  0  0  0  0  0
    3.3854    1.8961    0.6774 H   0  0  0  0  0  0  0  0  0  0  0  0
    3.2868    0.5024   -0.9501 C   0  0  0  0  0  0  0  0  0  0  0  0
    3.3217    1.2255   -1.7658 H   0  0  0  0  0  0  0  0  0  0  0  0
    2.6126   -0.2910   -1.2715 H   0  0  0  0  0  0  0  0  0  0  0  0
    4.9335   -0.2450   -0.7697 S   0  0  0  0  0  0  0  0  0  0  0  0
    1.3783    1.9496   -0.0692 C   0  0  0  0  0  0  0  0  0  0  0  0
    1.3977    3.1744   -0.1906 O   0  0  0  0  0  0  0  0  0  0  0  0
    0.2612    1.2303   -0.2406 N   0  0  0  0  0  0  0  0  0  0  0  0
    0.3171    0.2308   -0.1289 H   0  0  0  0  0  0  0  0  0  0  0  0
   -1.0360    1.8141   -0.5756 C   0  0  0  0  0  0  0  0  0  0  0  0
   -1.3569    2.4808    0.2276 H   0  0  0  0  0  0  0  0  0  0  0  0
   -0.9529    2.3961   -1.4953 H   0  0  0  0  0  0  0  0  0  0  0  0
   -1.7812    1.0293   -0.7120 H   0  0  0  0  0  0  0  0  0  0  0  0
    8.1026    5.7785   -5.1853 H   0  0  0  0  0  0  0  0  0  0  0  0
    7.5525    4.8454   -5.2973 C   0  0  0  0  0  0  0  0  0  0  0  0
    7.9114    4.3106   -6.1753 H   0  0  0  0  0  0  0  0  0  0  0  0
    6.4903    5.0579   -5.4027 H   0  0  0  0  0  0  0  0  0  0  0  0
    7.7734    3.9952   -4.0682 C   0  0  0  0  0  0  0  0  0  0  0  0
    8.4710    4.4052   -3.1504 O   0  0  0  0  0  0  0  0  0  0  0  0
    7.1688    2.8104   -4.0496 N   0  0  0  0  0  0  0  0  0  0  0  0
    6.6161    2.5328   -4.8476 H   0  0  0  0  0  0  0  0  0  0  0  0
    7.2567    1.8513   -2.9484 C   0  0  1  0  0  0  0  0  0  0  0  0
    8.2650    1.8797   -2.5315 H   0  0  0  0  0  0  0  0  0  0  0  0
    6.2704    2.2890   -1.8566 C   0  0  0  0  0  0  0  0  0  0  0  0
    6.5400    3.3030   -1.5578 H   0  0  0  0  0  0  0  0  0  0  0  0
    5.2687    2.3355   -2.2843 H   0  0  0  0  0  0  0  0  0  0  0  0
    6.2050    1.2941   -0.3423 S   0  0  0  0  0  0  0  0  0  0  0  0
    6.9873    0.4234   -3.4553 C   0  0  0  0  0  0  0  0  0  0  0  0
    6.2306    0.2427   -4.4103 O   0  0  0  0  0  0  0  0  0  0  0  0
    7.6086   -0.5821   -2.8255 N   0  0  0  0  0  0  0  0  0  0  0  0
    8.1855   -0.3540   -2.0314 H   0  0  0  0  0  0  0  0  0  0  0  0
    7.4540   -1.9932   -3.1765 C   0  0  0  0  0  0  0  0  0  0  0  0
    6.4791   -2.3511   -2.8412 H   0  0  0  0  0  0  0  0  0  0  0  0
    7.5170   -2.1178   -4.2601 H   0  0  0  0  0  0  0  0  0  0  0  0
    8.2365   -2.5870   -2.7037 H   0  0  0  0  0  0  0  0  0  0  0  0
  5  6  2  0  0  0  0
  5  7  1  0  0  0  0
  2  3  1  0  0  0  0
  2  4  1  0  0  0  0
  2  5  1  0  0  0  0
  1  2  1  0  0  0  0
 15 16  2  0  0  0  0
 15 17  1  0  0  0  0
 14 36  1  0  0  0  0
 11 12  1  0  0  0  0
 11 13  1  0  0  0  0
 11 14  1  0  0  0  0
  9 10  1  0  0  0  0
  9 11  1  0  0  0  0
  9 15  1  0  0  0  0
  7  8  1  0  0  0  0
  7  9  1  0  0  0  0
 19 20  1  0  0  0  0
 19 21  1  0  0  0  0
 19 22  1  0  0  0  0
 17 18  1  0  0  0  0
 17 19  1  0  0  0  0
 27 28  2  0  0  0  0
 27 29  1  0  0  0  0
 24 25  1  0  0  0  0
 24 26  1  0  0  0  0
 24 27  1  0  0  0  0
 23 24  1  0  0  0  0
 37 38  2  0  0  0  0
 37 39  1  0  0  0  0
 33 34  1  0  0  0  0
 33 35  1  0  0  0  0
 33 36  1  0  0  0  0
 31 32  1  0  0  0  0
 31 33  1  0  0  0  0
 31 37  1  0  0  0  0
 29 30  1  0  0  0  0
 29 31  1  0  0  0  0
 41 42  1  0  0  0  0
 41 43  1  0  0  0  0
 41 44  1  0  0  0  0
 39 40  1  0  0  0  0
 39 41  1  0  0  0  0
M  END
$$$$
default_name
  -OEChem-01062215323D

 44 43  0     1  0  0  0  0  0999 V2000
    2.4488   -3.0448    2.0990 H   0  0  0  0  0  0  0  0  0  0  0  0
    2.2788   -2.0018    2.3640 C   0  0  0  0  0  0  0  0  0  0  0  0
    2.9228   -1.7258    3.1960 H   0  0  0  0  0  0  0  0  0  0  0  0
    1.2358   -1.8618    2.6430 H   0  0  0  0  0  0  0  0  0  0  0  0
    2.6018   -1.1318    1.1730 C   0  0  0  0  0  0  0  0  0  0  0  0
    3.0048   -1.6348    0.1320 O   0  0  0  0  0  0  0  0  0  0  0  0
    2.4088    0.1752    1.3190 N   0  0  0  0  0  0  0  0  0  0  0  0
    2.0708    0.5242    2.2050 H   0  0  0  0  0  0  0  0  0  0  0  0
    2.6638    1.1782    0.2840 C   0  0  1  0  0  0  0  0  0  0  0  0
    3.3854    1.8961    0.6774 H   0  0  0  0  0  0  0  0  0  0  0  0
    3.2868    0.5024   -0.9501 C   0  0  0  0  0  0  0  0  0  0  0  0
    3.3217    1.2255   -1.7658 H   0  0  0  0  0  0  0  0  0  0  0  0
    2.6126   -0.2910   -1.2715 H   0  0  0  0  0  0  0  0  0  0  0  0
    4.9335   -0.2450   -0.7697 S   0  0  0  0  0  0  0  0  0  0  0  0
    1.3783    1.9496   -0.0692 C   0  0  0  0  0  0  0  0  0  0  0  0
    1.4362    3.1159   -0.4584 O   0  0  0  0  0  0  0  0  0  0  0  0
    0.2170    1.2945    0.0606 N   0  0  0  0  0  0  0  0  0  0  0  0
    0.2424    0.3401    0.3817 H   0  0  0  0  0  0  0  0  0  0  0  0
   -1.0861    1.8878   -0.2322 C   0  0  0  0  0  0  0  0  0  0  0  0
   -1.2643    2.7315    0.4380 H   0  0  0  0  0  0  0  0  0  0  0  0
   -1.1028    2.2538   -1.2604 H   0  0  0  0  0  0  0  0  0  0  0  0
   -1.8775    1.1490   -0.0999 H   0  0  0  0  0  0  0  0  0  0  0  0
    8.1026    5.7785   -5.1853 H   0  0  0  0  0  0  0  0  0  0  0  0
    7.5525    4.8454   -5.2973 C   0  0  0  0  0  0  0  0  0  0  0  0
    7.9114    4.3106   -6.1753 H   0  0  0  0  0  0  0  0  0  0  0  0
    6.4903    5.0579   -5.4027 H   0  0  0  0  0  0  0  0  0  0  0  0
    7.7734    3.9952   -4.0682 C   0  0  0  0  0  0  0  0  0  0  0  0
    8.4710    4.4052   -3.1504 O   0  0  0  0  0  0  0  0  0  0  0  0
    7.1688    2.8104   -4.0496 N   0  0  0  0  0  0  0  0  0  0  0  0
    6.6161    2.5328   -4.8476 H   0  0  0  0  0  0  0  0  0  0  0  0
    7.2567    1.8513   -2.9484 C   0  0  1  0  0  0  0  0  0  0  0  0
    8.2650    1.8797   -2.5315 H   0  0  0  0  0  0  0  0  0  0  0  0
    6.2704    2.2890   -1.8566 C   0  0  0  0  0  0  0  0  0  0  0  0
    6.5400    3.3030   -1.5578 H   0  0  0  0  0  0  0  0  0  0  0  0
    5.2687    2.3355   -2.2843 H   0  0  0  0  0  0  0  0  0  0  0  0
    6.2050    1.2941   -0.3423 S   0  0  0  0  0  0  0  0  0  0  0  0
    6.9873    0.4234   -3.4553 C   0  0  0  0  0  0  0  0  0  0  0  0
    6.2306    0.2427   -4.4103 O   0  0  0  0  0  0  0  0  0  0  0  0
    7.6086   -0.5821   -2.8255 N   0  0  0  0  0  0  0  0  0  0  0  0
    8.1855   -0.3540   -2.0314 H   0  0  0  0  0  0  0  0  0  0  0  0
    7.4540   -1.9932   -3.1765 C   0  0  0  0  0  0  0  0  0  0  0  0
    6.4791   -2.3511   -2.8412 H   0  0  0  0  0  0  0  0  0  0  0  0
    7.5170   -2.1178   -4.2601 H   0  0  0  0  0  0  0  0  0  0  0  0
    8.2365   -2.5870   -2.7037 H   0  0  0  0  0  0  0  0  0  0  0  0
  5  6  2  0  0  0  0
  5  7  1  0  0  0  0
  2  3  1  0  0  0  0
  2  4  1  0  0  0  0
  2  5  1  0  0  0  0
  1  2  1  0  0  0  0
 15 16  2  0  0  0  0
 15 17  1  0  0  0  0
 14 36  1  0  0  0  0
 11 12  1  0  0  0  0
 11 13  1  0  0  0  0
 11 14  1  0  0  0  0
  9 10  1  0  0  0  0
  9 11  1  0  0  0  0
  9 15  1  0  0  0  0
  7  8  1  0  0  0  0
  7  9  1  0  0  0  0
 19 20  1  0  0  0  0
 19 21  1  0  0  0  0
 19 22  1  0  0  0  0
 17 18  1  0  0  0  0
 17 19  1  0  0  0  0
 27 28  2  0  0  0  0
 27 29  1  0  0  0  0
 24 25  1  0  0  0  0
 24 26  1  0  0  0  0
 24 27  1  0  0  0  0
 23 24  1  0  0  0  0
 37 38  2  0  0  0  0
 37 39  1  0  0  0  0
 33 34  1  0  0  0  0
 33 35  1  0  0  0  0
 33 36  1  0  0  0  0
 31 32  1  0  0  0  0
 31 33  1  0  0  0  0
 31 37  1  0  0  0  0
 29 30  1  0  0  0  0
 29 31  1  0  0  0  0
 41 42  1  0  0  0  0
 41 43  1  0  0  0  0
 41 44  1  0  0  0  0
 39 40  1  0  0  0  0
 39 41  1  0  0  0  0
M  END
$$$$
default_name
  -OEChem-01062215323D

 44 43  0     1  0  0  0  0  0999 V2000
    2.4488   -3.0448    2.0990 H   0  0  0  0  0  0  0  0  0  0  0  0
    2.2788   -2.0018    2.3640 C   0  0  0  0  0  0  0  0  0  0  0  0
    2.9228   -1.7258    3.1960 H   0  0  0  0  0  0  0  0  0  0  0  0
    1.2358   -1.8618    2.6430 H   0  0  0  0  0  0  0  0  0  0  0  0
    2.6018   -1.1318    1.1730 C   0  0  0  0  0  0  0  0  0  0  0  0
    3.0048   -1.6348    0.1320 O   0  0  0  0  0  0  0  0  0  0  0  0
    2.4088    0.1752    1.3190 N   0  0  0  0  0  0  0  0  0  0  0  0
    2.0708    0.5242    2.2050 H   0  0  0  0  0  0  0  0  0  0  0  0
    2.6638    1.1782    0.2840 C   0  0  1  0  0  0  0  0  0  0  0  0
    3.3854    1.8961    0.6774 H   0  0  0  0  0  0  0  0  0  0  0  0
    3.2868    0.5024   -0.9501 C   0  0  0  0  0  0  0  0  0  0  0  0
    3.3217    1.2255   -1.7658 H   0  0  0  0  0  0  0  0  0  0  0  0
    2.6126   -0.2910   -1.2715 H   0  0  0  0  0  0  0  0  0  0  0  0
    4.9335   -0.2450   -0.7697 S   0  0  0  0  0  0  0  0  0  0  0  0
    1.3783    1.9496   -0.0692 C   0  0  0  0  0  0  0  0  0  0  0  0
    1.4352    2.9994   -0.7095 O   0  0  0  0  0  0  0  0  0  0  0  0
    0.2171    1.4242    0.3435 N   0  0  0  0  0  0  0  0  0  0  0  0
    0.2430    0.5604    0.8610 H   0  0  0  0  0  0  0  0  0  0  0  0
   -1.0856    2.0362    0.0901 C   0  0  0  0  0  0  0  0  0  0  0  0
   -1.1326    3.0136    0.5750 H   0  0  0  0  0  0  0  0  0  0  0  0
   -1.2256    2.1759   -0.9834 H   0  0  0  0  0  0  0  0  0  0  0  0
   -1.8842    1.4025    0.4780 H   0  0  0  0  0  0  0  0  0  0  0  0
    8.1026    5.7785   -5.1853 H   0  0  0  0  0  0  0  0  0  0  0  0
    7.5525    4.8454   -5.2973 C   0  0  0  0  0  0  0  0  0  0  0  0
    7.9114    4.3106   -6.1753 H   0  0  0  0  0  0  0  0  0  0  0  0
    6.4903    5.0579   -5.4027 H   0  0  0  0  0  0  0  0  0  0  0  0
    7.7734    3.9952   -4.0682 C   0  0  0  0  0  0  0  0  0  0  0  0
    8.4710    4.4052   -3.1504 O   0  0  0  0  0  0  0  0  0  0  0  0
    7.1688    2.8104   -4.0496 N   0  0  0  0  0  0  0  0  0  0  0  0
    6.6161    2.5328   -4.8476 H   0  0  0  0  0  0  0  0  0  0  0  0
    7.2567    1.8513   -2.9484 C   0  0  1  0  0  0  0  0  0  0  0  0
    8.2650    1.8797   -2.5315 H   0  0  0  0  0  0  0  0  0  0  0  0
    6.2704    2.2890   -1.8566 C   0  0  0  0  0  0  0  0  0  0  0  0
    6.5400    3.3030   -1.5578 H   0  0  0  0  0  0  0  0  0  0  0  0
    5.2687    2.3355   -2.2843 H   0  0  0  0  0  0  0  0  0  0  0  0
    6.2050    1.2941   -0.3423 S   0  0  0  0  0  0  0  0  0  0  0  0
    6.9873    0.4234   -3.4553 C   0  0  0  0  0  0  0  0  0  0  0  0
    6.2306    0.2427   -4.4103 O   0  0  0  0  0  0  0  0  0  0  0  0
    7.6086   -0.5821   -2.8255 N   0  0  0  0  0  0  0  0  0  0  0  0
    8.1855   -0.3540   -2.0314 H   0  0  0  0  0  0  0  0  0  0  0  0
    7.4540   -1.9932   -3.1765 C   0  0  0  0  0  0  0  0  0  0  0  0
    6.4791   -2.3511   -2.8412 H   0  0  0  0  0  0  0  0  0  0  0  0
    7.5170   -2.1178   -4.2601 H   0  0  0  0  0  0  0  0  0  0  0  0
    8.2365   -2.5870   -2.7037 H   0  0  0  0  0  0  0  0  0  0  0  0
  5  6  2  0  0  0  0
  5  7  1  0  0  0  0
  2  3  1  0  0  0  0
  2  4  1  0  0  0  0
  2  5  1  0  0  0  0
  1  2  1  0  0  0  0
 15 16  2  0  0  0  0
 15 17  1  0  0  0  0
 14 36  1  0  0  0  0
 11 12  1  0  0  0  0
 11 13  1  0  0  0  0
 11 14  1  0  0  0  0
  9 10  1  0  0  0  0
  9 11  1  0  0  0  0
  9 15  1  0  0  0  0
  7  8  1  0  0  0  0
  7  9  1  0  0  0  0
 19 20  1  0  0  0  0
 19 21  1  0  0  0  0
 19 22  1  0  0  0  0
 17 18  1  0  0  0  0
 17 19  1  0  0  0  0
 27 28  2  0  0  0  0
 27 29  1  0  0  0  0
 24 25  1  0  0  0  0
 24 26  1  0  0  0  0
 24 27  1  0  0  0  0
 23 24  1  0  0  0  0
 37 38  2  0  0  0  0
 37 39  1  0  0  0  0
 33 34  1  0  0  0  0
 33 35  1  0  0  0  0
 33 36  1  0  0  0  0
 31 32  1  0  0  0  0
 31 33  1  0  0  0  0
 31 37  1  0  0  0  0
 29 30  1  0  0  0  0
 29 31  1  0  0  0  0
 41 42  1  0  0  0  0
 41 43  1  0  0  0  0
 41 44  1  0  0  0  0
 39 40  1  0  0  0  0
 39 41  1  0  0  0  0
M  END
$$$$
default_name
  -OEChem-01062215323D

 44 43  0     1  0  0  0  0  0999 V2000
    2.4488   -3.0448    2.0990 H   0  0  0  0  0  0  0  0  0  0  0  0
    2.2788   -2.0018    2.3640 C   0  0  0  0  0  0  0  0  0  0  0  0
    2.9228   -1.7258    3.1960 H   0  0  0  0  0  0  0  0  0  0  0  0
    1.2358   -1.8618    2.6430 H   0  0  0  0  0  0  0  0  0  0  0  0
    2.6018   -1.1318    1.1730 C   0  0  0  0  0  0  0  0  0  0  0  0
    3.0048   -1.6348    0.1320 O   0  0  0  0  0  0  0  0  0  0  0  0
    2.4088    0.1752    1.3190 N   0  0  0  0  0  0  0  0  0  0  0  0
    2.0708    0.5242    2.2050 H   0  0  0  0  0  0  0  0  0  0  0  0
    2.6638    1.1782    0.2840 C   0  0  1  0  0  0  0  0  0  0  0  0
    3.3854    1.8961    0.6774 H   0  0  0  0  0  0  0  0  0  0  0  0
    3.2868    0.5024   -0.9501 C   0  0  0  0  0  0  0  0  0  0  0  0
    3.3217    1.2255   -1.7658 H   0  0  0  0  0  0  0  0  0  0  0  0
    2.6126   -0.2910   -1.2715 H   0  0  0  0  0  0  0  0  0  0  0  0
    4.9335   -0.2450   -0.7697 S   0  0  0  0  0  0  0  0  0  0  0  0
    1.3783    1.9496   -0.0692 C   0  0  0  0  0  0  0  0  0  0  0  0
    1.3948    2.8326   -0.9267 O   0  0  0  0  0  0  0  0  0  0  0  0
    0.2616    1.6106    0.5887 N   0  0  0  0  0  0  0  0  0  0  0  0
    0.3187    0.8767    1.2762 H   0  0  0  0  0  0  0  0  0  0  0  0
   -1.0346    2.2491    0.3692 C   0  0  0  0  0  0  0  0  0  0  0  0
   -0.9710    3.3078    0.6293 H   0  0  0  0  0  0  0  0  0  0  0  0
   -1.3130    2.1679   -0.6831 H   0  0  0  0  0  0  0  0  0  0  0  0
   -1.8006    1.7726    0.9823 H   0  0  0  0  0  0  0  0  0  0  0  0
    8.1026    5.7785   -5.1853 H   0  0  0  0  0  0  0  0  0  0  0  0
    7.5525    4.8454   -5.2973 C   0  0  0  0  0  0  0  0  0  0  0  0
    7.9114    4.3106   -6.1753 H   0  0  0  0  0  0  0  0  0  0  0  0
    6.4903    5.0579   -5.4027 H   0  0  0  0  0  0  0  0  0  0  0  0
    7.7734    3.9952   -4.0682 C   0  0  0  0  0  0  0  0  0  0  0  0
    8.4710    4.4052   -3.1504 O   0  0  0  0  0  0  0  0  0  0  0  0
    7.1688    2.8104   -4.0496 N   0  0  0  0  0  0  0  0  0  0  0  0
    6.6161    2.5328   -4.8476 H   0  0  0  0  0  0  0  0  0  0  0  0
    7.2567    1.8513   -2.9484 C   0  0  1  0  0  0  0  0  0  0  0  0
    8.2650    1.8797   -2.5315 H   0  0  0  0  0  0  0  0  0  0  0  0
    6.2704    2.2890   -1.8566 C   0  0  0  0  0  0  0  0  0  0  0  0
    6.5400    3.3030   -1.5578 H   0  0  0  0  0  0  0  0  0  0  0  0
    5.2687    2.3355   -2.2843 H   0  0  0  0  0  0  0  0  0  0  0  0
    6.2050    1.2941   -0.3423 S   0  0  0  0  0  0  0  0  0  0  0  0
    6.9873    0.4234   -3.4553 C   0  0  0  0  0  0  0  0  0  0  0  0
    6.2306    0.2427   -4.4103 O   0  0  0  0  0  0  0  0  0  0  0  0
    7.6086   -0.5821   -2.8255 N   0  0  0  0  0  0  0  0  0  0  0  0
    8.1855   -0.3540   -2.0314 H   0  0  0  0  0  0  0  0  0  0  0  0
    7.4540   -1.9932   -3.1765 C   0  0  0  0  0  0  0  0  0  0  0  0
    6.4791   -2.3511   -2.8412 H   0  0  0  0  0  0  0  0  0  0  0  0
    7.5170   -2.1178   -4.2601 H   0  0  0  0  0  0  0  0  0  0  0  0
    8.2365   -2.5870   -2.7037 H   0  0  0  0  0  0  0  0  0  0  0  0
  5  6  2  0  0  0  0
  5  7  1  0  0  0  0
  2  3  1  0  0  0  0
  2  4  1  0  0  0  0
  2  5  1  0  0  0  0
  1  2  1  0  0  0  0
 15 16  2  0  0  0  0
 15 17  1  0  0  0  0
 14 36  1  0  0  0  0
 11 12  1  0  0  0  0
 11 13  1  0  0  0  0
 11 14  1  0  0  0  0
  9 10  1  0  0  0  0
  9 11  1  0  0  0  0
  9 15  1  0  0  0  0
  7  8  1  0  0  0  0
  7  9  1  0  0  0  0
 19 20  1  0  0  0  0
 19 21  1  0  0  0  0
 19 22  1  0  0  0  0
 17 18  1  0  0  0  0
 17 19  1  0  0  0  0
 27 28  2  0  0  0  0
 27 29  1  0  0  0  0
 24 25  1  0  0  0  0
 24 26  1  0  0  0  0
 24 27  1  0  0  0  0
 23 24  1  0  0  0  0
 37 38  2  0  0  0  0
 37 39  1  0  0  0  0
 33 34  1  0  0  0  0
 33 35  1  0  0  0  0
 33 36  1  0  0  0  0
 31 32  1  0  0  0  0
 31 33  1  0  0  0  0
 31 37  1  0  0  0  0
 29 30  1  0  0  0  0
 29 31  1  0  0  0  0
 41 42  1  0  0  0  0
 41 43  1  0  0  0  0
 41 44  1  0  0  0  0
 39 40  1  0  0  0  0
 39 41  1  0  0  0  0
M  END
$$$$
default_name
  -OEChem-01062215323D

 44 43  0     1  0  0  0  0  0999 V2000
    2.4488   -3.0448    2.0990 H   0  0  0  0  0  0  0  0  0  0  0  0
    2.2788   -2.0018    2.3640 C   0  0  0  0  0  0  0  0  0  0  0  0
    2.9228   -1.7258    3.1960 H   0  0  0  0  0  0  0  0  0  0  0  0
    1.2358   -1.8618    2.6430 H   0  0  0  0  0  0  0  0  0  0  0  0
    2.6018   -1.1318    1.1730 C   0  0  0  0  0  0  0  0  0  0  0  0
    3.0048   -1.6348    0.1320 O   0  0  0  0  0  0  0  0  0  0  0  0
    2.4088    0.1752    1.3190 N   0  0  0  0  0  0  0  0  0  0  0  0
    2.0708    0.5242    2.2050 H   0  0  0  0  0  0  0  0  0  0  0  0
    2.6638    1.1782    0.2840 C   0  0  1  0  0  0  0  0  0  0  0  0
    3.3854    1.8961    0.6774 H   0  0  0  0  0  0  0  0  0  0  0  0
    3.2868    0.5024   -0.9501 C   0  0  0  0  0  0  0  0  0  0  0  0
    3.3217    1.2255   -1.7658 H   0  0  0  0  0  0  0  0  0  0  0  0
    2.6126   -0.2910   -1.2715 H   0  0  0  0  0  0  0  0  0  0  0  0
    4.9335   -0.2450   -0.7697 S   0  0  0  0  0  0  0  0  0  0  0  0
    1.3783    1.9496   -0.0692 C   0  0  0  0  0  0  0  0  0  0  0  0
    1.3177    2.6270   -1.0952 O   0  0  0  0  0  0  0  0  0  0  0  0
    0.3474    1.8410    0.7795 N   0  0  0  0  0  0  0  0  0  0  0  0
    0.4644    1.2674    1.5992 H   0  0  0  0  0  0  0  0  0  0  0  0
   -0.9364    2.5120    0.5863 C   0  0  0  0  0  0  0  0  0  0  0  0
   -0.7903    3.5942    0.5973 H   0  0  0  0  0  0  0  0  0  0  0  0
   -1.3589    2.2302   -0.3799 H   0  0  0  0  0  0  0  0  0  0  0  0
   -1.6326    2.2341    1.3787 H   0  0  0  0  0  0  0  0  0  0  0  0
    8.1026    5.7785   -5.1853 H   0  0  0  0  0  0  0  0  0  0  0  0
    7.5525    4.8454   -5.2973 C   0  0  0  0  0  0  0  0  0  0  0  0
    7.9114    4.3106   -6.1753 H   0  0  0  0  0  0  0  0  0  0  0  0
    6.4903    5.0579   -5.4027 H   0  0  0  0  0  0  0  0  0  0  0  0
    7.7734    3.9952   -4.0682 C   0  0  0  0  0  0  0  0  0  0  0  0
    8.4710    4.4052   -3.1504 O   0  0  0  0  0  0  0  0  0  0  0  0
    7.1688    2.8104   -4.0496 N   0  0  0  0  0  0  0  0  0  0  0  0
    6.6161    2.5328   -4.8476 H   0  0  0  0  0  0  0  0  0  0  0  0
    7.2567    1.8513   -2.9484 C   0  0  1  0  0  0  0  0  0  0  0  0
    8.2650    1.8797   -2.5315 H   0  0  0  0  0  0  0  0  0  0  0  0
    6.2704    2.2890   -1.8566 C   0  0  0  0  0  0  0  0  0  0  0  0
    6.5400    3.3030   -1.5578 H   0  0  0  0  0  0  0  0  0  0  0  0
    5.2687    2.3355   -2.2843 H   0  0  0  0  0  0  0  0  0  0  0  0
    6.2050    1.2941   -0.3423 S   0  0  0  0  0  0  0  0  0  0  0  0
    6.9873    0.4234   -3.4553 C   0  0  0  0  0  0  0  0  0  0  0  0
    6.2306    0.2427   -4.4103 O   0  0  0  0  0  0  0  0  0  0  0  0
    7.6086   -0.5821   -2.8255 N   0  0  0  0  0  0  0  0  0  0  0  0
    8.1855   -0.3540   -2.0314 H   0  0  0  0  0  0  0  0  0  0  0  0
    7.4540   -1.9932   -3.1765 C   0  0  0  0  0  0  0  0  0  0  0  0
    6.4791   -2.3511   -2.8412 H   0  0  0  0  0  0  0  0  0  0  0  0
    7.5170   -2.1178   -4.2601 H   0  0  0  0  0  0  0  0  0  0  0  0
    8.2365   -2.5870   -2.7037 H   0  0  0  0  0  0  0  0  0  0  0  0
  5  6  2  0  0  0  0
  5  7  1  0  0  0  0
  2  3  1  0  0  0  0
  2  4  1  0  0  0  0
  2  5  1  0  0  0  0
  1  2  1  0  0  0  0
 15 16  2  0  0  0  0
 15 17  1  0  0  0  0
 14 36  1  0  0  0  0
 11 12  1  0  0  0  0
 11 13  1  0  0  0  0
 11 14  1  0  0  0  0
  9 10  1  0  0  0  0
  9 11  1  0  0  0  0
  9 15  1  0  0  0  0
  7  8  1  0  0  0  0
  7  9  1  0  0  0  0
 19 20  1  0  0  0  0
 19 21  1  0  0  0  0
 19 22  1  0  0  0  0
 17 18  1  0  0  0  0
 17 19  1  0  0  0  0
 27 28  2  0  0  0  0
 27 29  1  0  0  0  0
 24 25  1  0  0  0  0
 24 26  1  0  0  0  0
 24 27  1  0  0  0  0
 23 24  1  0  0  0  0
 37 38  2  0  0  0  0
 37 39  1  0  0  0  0
 33 34  1  0  0  0  0
 33 35  1  0  0  0  0
 33 36  1  0  0  0  0
 31 32  1  0  0  0  0
 31 33  1  0  0  0  0
 31 37  1  0  0  0  0
 29 30  1  0  0  0  0
 29 31  1  0  0  0  0
 41 42  1  0  0  0  0
 41 43  1  0  0  0  0
 41 44  1  0  0  0  0
 39 40  1  0  0  0  0
 39 41  1  0  0  0  0
M  END
$$$$
default_name
  -OEChem-01062215323D

 44 43  0     1  0  0  0  0  0999 V2000
    2.4488   -3.0448    2.0990 H   0  0  0  0  0  0  0  0  0  0  0  0
    2.2788   -2.0018    2.3640 C   0  0  0  0  0  0  0  0  0  0  0  0
    2.9228   -1.7258    3.1960 H   0  0  0  0  0  0  0  0  0  0  0  0
    1.2358   -1.8618    2.6430 H   0  0  0  0  0  0  0  0  0  0  0  0
    2.6018   -1.1318    1.1730 C   0  0  0  0  0  0  0  0  0  0  0  0
    3.0048   -1.6348    0.1320 O   0  0  0  0  0  0  0  0  0  0  0  0
    2.4088    0.1752    1.3190 N   0  0  0  0  0  0  0  0  0  0  0  0
    2.0708    0.5242    2.2050 H   0  0  0  0  0  0  0  0  0  0  0  0
    2.6638    1.1782    0.2840 C   0  0  1  0  0  0  0  0  0  0  0  0
    3.3854    1.8961    0.6774 H   0  0  0  0  0  0  0  0  0  0  0  0
    3.2868    0.5024   -0.9501 C   0  0  0  0  0  0  0  0  0  0  0  0
    3.3217    1.2255   -1.7658 H   0  0  0  0  0  0  0  0  0  0  0  0
    2.6126   -0.2910   -1.2715 H   0  0  0  0  0  0  0  0  0  0  0  0
    4.9335   -0.2450   -0.7697 S   0  0  0  0  0  0  0  0  0  0  0  0
    1.3783    1.9496   -0.0692 C   0  0  0  0  0  0  0  0  0  0  0  0
    1.2092    2.3965   -1.2036 O   0  0  0  0  0  0  0  0  0  0  0  0
    0.4687    2.0996    0.9029 N   0  0  0  0  0  0  0  0  0  0  0  0
    0.6703    1.7059    1.8079 H   0  0  0  0  0  0  0  0  0  0  0  0
   -0.7979    2.8070    0.7264 C   0  0  0  0  0  0  0  0  0  0  0  0
   -0.6030    3.8532    0.4811 H   0  0  0  0  0  0  0  0  0  0  0  0
   -1.3602    2.3585   -0.0946 H   0  0  0  0  0  0  0  0  0  0  0  0
   -1.3915    2.7555    1.6401 H   0  0  0  0  0  0  0  0  0  0  0  0
    8.1026    5.7785   -5.1853 H   0  0  0  0  0  0  0  0  0  0  0  0
    7.5525    4.8454   -5.2973 C   0  0  0  0  0  0  0  0  0  0  0  0
    7.9114    4.3106   -6.1753 H   0  0  0  0  0  0  0  0  0  0  0  0
    6.4903    5.0579   -5.4027 H   0  0  0  0  0  0  0  0  0  0  0  0
    7.7734    3.9952   -4.0682 C   0  0  0  0  0  0  0  0  0  0  0  0
    8.4710    4.4052   -3.1504 O   0  0  0  0  0  0  0  0  0  0  0  0
    7.1688    2.8104   -4.0496 N   0  0  0  0  0  0  0  0  0  0  0  0
    6.6161    2.5328   -4.8476 H   0  0  0  0  0  0  0  0  0  0  0  0
    7.2567    1.8513   -2.9484 C   0  0  1  0  0  0  0  0  0  0  0  0
    8.2650    1.8797   -2.5315 H   0  0  0  0  0  0  0  0  0  0  0  0
    6.2704    2.2890   -1.8566 C   0  0  0  0  0  0  0  0  0  0  0  0
    6.5400    3.3030   -1.5578 H   0  0  0  0  0  0  0  0  0  0  0  0
    5.2687    2.3355   -2.2843 H   0  0  0  0  0  0  0  0  0  0  0  0
    6.2050    1.2941   -0.3423 S   0  0  0  0  0  0  0  0  0  0  0  0
    6.9873    0.4234   -3.4553 C   0  0  0  0  0  0  0  0  0  0  0  0
    6.2306    0.2427   -4.4103 O   0  0  0  0  0  0  0  0  0  0  0  0
    7.6086   -0.5821   -2.8255 N   0  0  0  0  0  0  0  0  0  0  0  0
    8.1855   -0.3540   -2.0314 H   0  0  0  0  0  0  0  0  0  0  0  0
    7.4540   -1.9932   -3.1765 C   0  0  0  0  0  0  0  0  0  0  0  0
    6.4791   -2.3511   -2.8412 H   0  0  0  0  0  0  0  0  0  0  0  0
    7.5170   -2.1178   -4.2601 H   0  0  0  0  0  0  0  0  0  0  0  0
    8.2365   -2.5870   -2.7037 H   0  0  0  0  0  0  0  0  0  0  0  0
  5  6  2  0  0  0  0
  5  7  1  0  0  0  0
  2  3  1  0  0  0  0
  2  4  1  0  0  0  0
  2  5  1  0  0  0  0
  1  2  1  0  0  0  0
 15 16  2  0  0  0  0
 15 17  1  0  0  0  0
 14 36  1  0  0  0  0
 11 12  1  0  0  0  0
 11 13  1  0  0  0  0
 11 14  1  0  0  0  0
  9 10  1  0  0  0  0
  9 11  1  0  0  0  0
  9 15  1  0  0  0  0
  7  8  1  0  0  0  0
  7  9  1  0  0  0  0
 19 20  1  0  0  0  0
 19 21  1  0  0  0  0
 19 22  1  0  0  0  0
 17 18  1  0  0  0  0
 17 19  1  0  0  0  0
 27 28  2  0  0  0  0
 27 29  1  0  0  0  0
 24 25  1  0  0  0  0
 24 26  1  0  0  0  0
 24 27  1  0  0  0  0
 23 24  1  0  0  0  0
 37 38  2  0  0  0  0
 37 39  1  0  0  0  0
 33 34  1  0  0  0  0
 33 35  1  0  0  0  0
 33 36  1  0  0  0  0
 31 32  1  0  0  0  0
 31 33  1  0  0  0  0
 31 37  1  0  0  0  0
 29 30  1  0  0  0  0
 29 31  1  0  0  0  0
 41 42  1  0  0  0  0
 41 43  1  0  0  0  0
 41 44  1  0  0  0  0
 39 40  1  0  0  0  0
 39 41  1  0  0  0  0
M  END
$$$$
default_name
  -OEChem-01062215323D

 44 43  0     1  0  0  0  0  0999 V2000
    2.4488   -3.0448    2.0990 H   0  0  0  0  0  0  0  0  0  0  0  0
    2.2788   -2.0018    2.3640 C   0  0  0  0  0  0  0  0  0  0  0  0
    2.9228   -1.7258    3.1960 H   0  0  0  0  0  0  0  0  0  0  0  0
    1.2358   -1.8618    2.6430 H   0  0  0  0  0  0  0  0  0  0  0  0
    2.6018   -1.1318    1.1730 C   0  0  0  0  0  0  0  0  0  0  0  0
    3.0048   -1.6348    0.1320 O   0  0  0  0  0  0  0  0  0  0  0  0
    2.4088    0.1752    1.3190 N   0  0  0  0  0  0  0  0  0  0  0  0
    2.0708    0.5242    2.2050 H   0  0  0  0  0  0  0  0  0  0  0  0
    2.6638    1.1782    0.2840 C   0  0  1  0  0  0  0  0  0  0  0  0
    3.3854    1.8961    0.6774 H   0  0  0  0  0  0  0  0  0  0  0  0
    3.2868    0.5024   -0.9501 C   0  0  0  0  0  0  0  0  0  0  0  0
    3.3217    1.2255   -1.7658 H   0  0  0  0  0  0  0  0  0  0  0  0
    2.6126   -0.2910   -1.2715 H   0  0  0  0  0  0  0  0  0  0  0  0
    4.9335   -0.2450   -0.7697 S   0  0  0  0  0  0  0  0  0  0  0  0
    1.3783    1.9496   -0.0692 C   0  0  0  0  0  0  0  0  0  0  0  0
    1.0766    2.1570   -1.2444 O   0  0  0  0  0  0  0  0  0  0  0  0
    0.6173    2.3689    0.9505 N   0  0  0  0  0  0  0  0  0  0  0  0
    0.9222    2.1624    1.8881 H   0  0  0  0  0  0  0  0  0  0  0  0
   -0.6284    3.1140    0.7801 C   0  0  0  0  0  0  0  0  0  0  0  0
   -0.4217    4.0671    0.2886 H   0  0  0  0  0  0  0  0  0  0  0  0
   -1.3169    2.5442    0.1535 H   0  0  0  0  0  0  0  0  0  0  0  0
   -1.0937    3.3013    1.7487 H   0  0  0  0  0  0  0  0  0  0  0  0
    8.1026    5.7785   -5.1853 H   0  0  0  0  0  0  0  0  0  0  0  0
    7.5525    4.8454   -5.2973 C   0  0  0  0  0  0  0  0  0  0  0  0
    7.9114    4.3106   -6.1753 H   0  0  0  0  0  0  0  0  0  0  0  0
    6.4903    5.0579   -5.4027 H   0  0  0  0  0  0  0  0  0  0  0  0
    7.7734    3.9952   -4.0682 C   0  0  0  0  0  0  0  0  0  0  0  0
    8.4710    4.4052   -3.1504 O   0  0  0  0  0  0  0  0  0  0  0  0
    7.1688    2.8104   -4.0496 N   0  0  0  0  0  0  0  0  0  0  0  0
    6.6161    2.5328   -4.8476 H   0  0  0  0  0  0  0  0  0  0  0  0
    7.2567    1.8513   -2.9484 C   0  0  1  0  0  0  0  0  0  0  0  0
    8.2650    1.8797   -2.5315 H   0  0  0  0  0  0  0  0  0  0  0  0
    6.2704    2.2890   -1.8566 C   0  0  0  0  0  0  0  0  0  0  0  0
    6.5400    3.3030   -1.5578 H   0  0  0  0  0  0  0  0  0  0  0  0
    5.2687    2.3355   -2.2843 H   0  0  0  0  0  0  0  0  0  0  0  0
    6.2050    1.2941   -0.3423 S   0  0  0  0  0  0  0  0  0  0  0  0
    6.9873    0.4234   -3.4553 C   0  0  0  0  0  0  0  0  0  0  0  0
    6.2306    0.2427   -4.4103 O   0  0  0  0  0  0  0  0  0  0  0  0
    7.6086   -0.5821   -2.8255 N   0  0  0  0  0  0  0  0  0  0  0  0
    8.1855   -0.3540   -2.0314 H   0  0  0  0  0  0  0  0  0  0  0  0
    7.4540   -1.9932   -3.1765 C   0  0  0  0  0  0  0  0  0  0  0  0
    6.4791   -2.3511   -2.8412 H   0  0  0  0  0  0  0  0  0  0  0  0
    7.5170   -2.1178   -4.2601 H   0  0  0  0  0  0  0  0  0  0  0  0
    8.2365   -2.5870   -2.7037 H   0  0  0  0  0  0  0  0  0  0  0  0
  5  6  2  0  0  0  0
  5  7  1  0  0  0  0
  2  3  1  0  0  0  0
  2  4  1  0  0  0  0
  2  5  1  0  0  0  0
  1  2  1  0  0  0  0
 15 16  2  0  0  0  0
 15 17  1  0  0  0  0
 14 36  1  0  0  0  0
 11 12  1  0  0  0  0
 11 13  1  0  0  0  0
 11 14  1  0  0  0  0
  9 10  1  0  0  0  0
  9 11  1  0  0  0  0
  9 15  1  0  0  0  0
  7  8  1  0  0  0  0
  7  9  1  0  0  0  0
 19 20  1  0  0  0  0
 19 21  1  0  0  0  0
 19 22  1  0  0  0  0
 17 18  1  0  0  0  0
 17 19  1  0  0  0  0
 27 28  2  0  0  0  0
 27 29  1  0  0  0  0
 24 25  1  0  0  0  0
 24 26  1  0  0  0  0
 24 27  1  0  0  0  0
 23 24  1  0  0  0  0
 37 38  2  0  0  0  0
 37 39  1  0  0  0  0
 33 34  1  0  0  0  0
 33 35  1  0  0  0  0
 33 36  1  0  0  0  0
 31 32  1  0  0  0  0
 31 33  1  0  0  0  0
 31 37  1  0  0  0  0
 29 30  1  0  0  0  0
 29 31  1  0  0  0  0
 41 42  1  0  0  0  0
 41 43  1  0  0  0  0
 41 44  1  0  0  0  0
 39 40  1  0  0  0  0
 39 41  1  0  0  0  0
M  END
$$$$
default_name
  -OEChem-01062215323D

 44 43  0     1  0  0  0  0  0999 V2000
    2.4488   -3.0448    2.0990 H   0  0  0  0  0  0  0  0  0  0  0  0
    2.2788   -2.0018    2.3640 C   0  0  0  0  0  0  0  0  0  0  0  0
    2.9228   -1.7258    3.1960 H   0  0  0  0  0  0  0  0  0  0  0  0
    1.2358   -1.8618    2.6430 H   0  0  0  0  0  0  0  0  0  0  0  0
    2.6018   -1.1318    1.1730 C   0  0  0  0  0  0  0  0  0  0  0  0
    3.0048   -1.6348    0.1320 O   0  0  0  0  0  0  0  0  0  0  0  0
    2.4088    0.1752    1.3190 N   0  0  0  0  0  0  0  0  0  0  0  0
    2.0708    0.5242    2.2050 H   0  0  0  0  0  0  0  0  0  0  0  0
    2.6638    1.1782    0.2840 C   0  0  1  0  0  0  0  0  0  0  0  0
    3.3854    1.8961    0.6774 H   0  0  0  0  0  0  0  0  0  0  0  0
    3.2868    0.5024   -0.9501 C   0  0  0  0  0  0  0  0  0  0  0  0
    3.3217    1.2255   -1.7658 H   0  0  0  0  0  0  0  0  0  0  0  0
    2.6126   -0.2910   -1.2715 H   0  0  0  0  0  0  0  0  0  0  0  0
    4.9335   -0.2450   -0.7697 S   0  0  0  0  0  0  0  0  0  0  0  0
    1.3783    1.9496   -0.0692 C   0  0  0  0  0  0  0  0  0  0  0  0
    0.9291    1.9246   -1.2149 O   0  0  0  0  0  0  0  0  0  0  0  0
    0.7829    2.6305    0.9191 N   0  0  0  0  0  0  0  0  0  0  0  0
    1.2030    2.6057    1.8343 H   0  0  0  0  0  0  0  0  0  0  0  0
   -0.4395    3.4121    0.7437 C   0  0  0  0  0  0  0  0  0  0  0  0
   -0.2589    4.2214    0.0330 H   0  0  0  0  0  0  0  0  0  0  0  0
   -1.2319    2.7746    0.3473 H   0  0  0  0  0  0  0  0  0  0  0  0
   -0.7597    3.8342    1.6971 H   0  0  0  0  0  0  0  0  0  0  0  0
    8.1026    5.7785   -5.1853 H   0  0  0  0  0  0  0  0  0  0  0  0
    7.5525    4.8454   -5.2973 C   0  0  0  0  0  0  0  0  0  0  0  0
    7.9114    4.3106   -6.1753 H   0  0  0  0  0  0  0  0  0  0  0  0
    6.4903    5.0579   -5.4027 H   0  0  0  0  0  0  0  0  0  0  0  0
    7.7734    3.9952   -4.0682 C   0  0  0  0  0  0  0  0  0  0  0  0
    8.4710    4.4052   -3.1504 O   0  0  0  0  0  0  0  0  0  0  0  0
    7.1688    2.8104   -4.0496 N   0  0  0  0  0  0  0  0  0  0  0  0
    6.6161    2.5328   -4.8476 H   0  0  0  0  0  0  0  0  0  0  0  0
    7.2567    1.8513   -2.9484 C   0  0  1  0  0  0  0  0  0  0  0  0
    8.2650    1.8797   -2.5315 H   0  0  0  0  0  0  0  0  0  0  0  0
    6.2704    2.2890   -1.8566 C   0  0  0  0  0  0  0  0  0  0  0  0
    6.5400    3.3030   -1.5578 H   0  0  0  0  0  0  0  0  0  0  0  0
    5.2687    2.3355   -2.2843 H   0  0  0  0  0  0  0  0  0  0  0  0
    6.2050    1.2941   -0.3423 S   0  0  0  0  0  0  0  0  0  0  0  0
    6.9873    0.4234   -3.4553 C   0  0  0  0  0  0  0  0  0  0  0  0
    6.2306    0.2427   -4.4103 O   0  0  0  0  0  0  0  0  0  0  0  0
    7.6086   -0.5821   -2.8255 N   0  0  0  0  0  0  0  0  0  0  0  0
    8.1855   -0.3540   -2.0314 H   0  0  0  0  0  0  0  0  0  0  0  0
    7.4540   -1.9932   -3.1765 C   0  0  0  0  0  0  0  0  0  0  0  0
    6.4791   -2.3511   -2.8412 H   0  0  0  0  0  0  0  0  0  0  0  0
    7.5170   -2.1178   -4.2601 H   0  0  0  0  0  0  0  0  0  0  0  0
    8.2365   -2.5870   -2.7037 H   0  0  0  0  0  0  0  0  0  0  0  0
  5  6  2  0  0  0  0
  5  7  1  0  0  0  0
  2  3  1  0  0  0  0
  2  4  1  0  0  0  0
  2  5  1  0  0  0  0
  1  2  1  0  0  0  0
 15 16  2  0  0  0  0
 15 17  1  0  0  0  0
 14 36  1  0  0  0  0
 11 12  1  0  0  0  0
 11 13  1  0  0  0  0
 11 14  1  0  0  0  0
  9 10  1  0  0  0  0
  9 11  1  0  0  0  0
  9 15  1  0  0  0  0
  7  8  1  0  0  0  0
  7  9  1  0  0  0  0
 19 20  1  0  0  0  0
 19 21  1  0  0  0  0
 19 22  1  0  0  0  0
 17 18  1  0  0  0  0
 17 19  1  0  0  0  0
 27 28  2  0  0  0  0
 27 29  1  0  0  0  0
 24 25  1  0  0  0  0
 24 26  1  0  0  0  0
 24 27  1  0  0  0  0
 23 24  1  0  0  0  0
 37 38  2  0  0  0  0
 37 39  1  0  0  0  0
 33 34  1  0  0  0  0
 33 35  1  0  0  0  0
 33 36  1  0  0  0  0
 31 32  1  0  0  0  0
 31 33  1  0  0  0  0
 31 37  1  0  0  0  0
 29 30  1  0  0  0  0
 29 31  1  0  0  0  0
 41 42  1  0  0  0  0
 41 43  1  0  0  0  0
 41 44  1  0  0  0  0
 39 40  1  0  0  0  0
 39 41  1  0  0  0  0
M  END
$$$$
default_name
  -OEChem-01062215323D

 44 43  0     1  0  0  0  0  0999 V2000
    2.4488   -3.0448    2.0990 H   0  0  0  0  0  0  0  0  0  0  0  0
    2.2788   -2.0018    2.3640 C   0  0  0  0  0  0  0  0  0  0  0  0
    2.9228   -1.7258    3.1960 H   0  0  0  0  0  0  0  0  0  0  0  0
    1.2358   -1.8618    2.6430 H   0  0  0  0  0  0  0  0  0  0  0  0
    2.6018   -1.1318    1.1730 C   0  0  0  0  0  0  0  0  0  0  0  0
    3.0048   -1.6348    0.1320 O   0  0  0  0  0  0  0  0  0  0  0  0
    2.4088    0.1752    1.3190 N   0  0  0  0  0  0  0  0  0  0  0  0
    2.0708    0.5242    2.2050 H   0  0  0  0  0  0  0  0  0  0  0  0
    2.6638    1.1782    0.2840 C   0  0  1  0  0  0  0  0  0  0  0  0
    3.3854    1.8961    0.6774 H   0  0  0  0  0  0  0  0  0  0  0  0
    3.2868    0.5024   -0.9501 C   0  0  0  0  0  0  0  0  0  0  0  0
    3.3217    1.2255   -1.7658 H   0  0  0  0  0  0  0  0  0  0  0  0
    2.6126   -0.2910   -1.2715 H   0  0  0  0  0  0  0  0  0  0  0  0
    4.9335   -0.2450   -0.7697 S   0  0  0  0  0  0  0  0  0  0  0  0
    1.3783    1.9496   -0.0692 C   0  0  0  0  0  0  0  0  0  0  0  0
    0.7766    1.7153   -1.1171 O   0  0  0  0  0  0  0  0  0  0  0  0
    0.9543    2.8665    0.8107 N   0  0  0  0  0  0  0  0  0  0  0  0
    1.4936    3.0055    1.6501 H   0  0  0  0  0  0  0  0  0  0  0  0
   -0.2440    3.6809    0.6196 C   0  0  0  0  0  0  0  0  0  0  0  0
   -0.1256    4.3056   -0.2683 H   0  0  0  0  0  0  0  0  0  0  0  0
   -1.1110    3.0340    0.4738 H   0  0  0  0  0  0  0  0  0  0  0  0
   -0.4121    4.3181    1.4888 H   0  0  0  0  0  0  0  0  0  0  0  0
    8.1026    5.7785   -5.1853 H   0  0  0  0  0  0  0  0  0  0  0  0
    7.5525    4.8454   -5.2973 C   0  0  0  0  0  0  0  0  0  0  0  0
    7.9114    4.3106   -6.1753 H   0  0  0  0  0  0  0  0  0  0  0  0
    6.4903    5.0579   -5.4027 H   0  0  0  0  0  0  0  0  0  0  0  0
    7.7734    3.9952   -4.0682 C   0  0  0  0  0  0  0  0  0  0  0  0
    8.4710    4.4052   -3.1504 O   0  0  0  0  0  0  0  0  0  0  0  0
    7.1688    2.8104   -4.0496 N   0  0  0  0  0  0  0  0  0  0  0  0
    6.6161    2.5328   -4.8476 H   0  0  0  0  0  0  0  0  0  0  0  0
    7.2567    1.8513   -2.9484 C   0  0  1  0  0  0  0  0  0  0  0  0
    8.2650    1.8797   -2.5315 H   0  0  0  0  0  0  0  0  0  0  0  0
    6.2704    2.2890   -1.8566 C   0  0  0  0  0  0  0  0  0  0  0  0
    6.5400    3.3030   -1.5578 H   0  0  0  0  0  0  0  0  0  0  0  0
    5.2687    2.3355   -2.2843 H   0  0  0  0  0  0  0  0  0  0  0  0
    6.2050    1.2941   -0.3423 S   0  0  0  0  0  0  0  0  0  0  0  0
    6.9873    0.4234   -3.4553 C   0  0  0  0  0  0  0  0  0  0  0  0
    6.2306    0.2427   -4.4103 O   0  0  0  0  0  0  0  0  0  0  0  0
    7.6086   -0.5821   -2.8255 N   0  0  0  0  0  0  0  0  0  0  0  0
    8.1855   -0.3540   -2.0314 H   0  0  0  0  0  0  0  0  0  0  0  0
    7.4540   -1.9932   -3.1765 C   0  0  0  0  0  0  0  0  0  0  0  0
    6.4791   -2.3511   -2.8412 H   0  0  0  0  0  0  0  0  0  0  0  0
    7.5170   -2.1178   -4.2601 H   0  0  0  0  0  0  0  0  0  0  0  0
    8.2365   -2.5870   -2.7037 H   0  0  0  0  0  0  0  0  0  0  0  0
  5  6  2  0  0  0  0
  5  7  1  0  0  0  0
  2  3  1  0  0  0  0
  2  4  1  0  0  0  0
  2  5  1  0  0  0  0
  1  2  1  0  0  0  0
 15 16  2  0  0  0  0
 15 17  1  0  0  0  0
 14 36  1  0  0  0  0
 11 12  1  0  0  0  0
 11 13  1  0  0  0  0
 11 14  1  0  0  0  0
  9 10  1  0  0  0  0
  9 11  1  0  0  0  0
  9 15  1  0  0  0  0
  7  8  1  0  0  0  0
  7  9  1  0  0  0  0
 19 20  1  0  0  0  0
 19 21  1  0  0  0  0
 19 22  1  0  0  0  0
 17 18  1  0  0  0  0
 17 19  1  0  0  0  0
 27 28  2  0  0  0  0
 27 29  1  0  0  0  0
 24 25  1  0  0  0  0
 24 26  1  0  0  0  0
 24 27  1  0  0  0  0
 23 24  1  0  0  0  0
 37 38  2  0  0  0  0
 37 39  1  0  0  0  0
 33 34  1  0  0  0  0
 33 35  1  0  0  0  0
 33 36  1  0  0  0  0
 31 32  1  0  0  0  0
 31 33  1  0  0  0  0
 31 37  1  0  0  0  0
 29 30  1  0  0  0  0
 29 31  1  0  0  0  0
 41 42  1  0  0  0  0
 41 43  1  0  0  0  0
 41 44  1  0  0  0  0
 39 40  1  0  0  0  0
 39 41  1  0  0  0  0
M  END
$$$$
default_name
  -OEChem-01062215323D

 44 43  0     1  0  0  0  0  0999 V2000
    2.4488   -3.0448    2.0990 H   0  0  0  0  0  0  0  0  0  0  0  0
    2.2788   -2.0018    2.3640 C   0  0  0  0  0  0  0  0  0  0  0  0
    2.9228   -1.7258    3.1960 H   0  0  0  0  0  0  0  0  0  0  0  0
    1.2358   -1.8618    2.6430 H   0  0  0  0  0  0  0  0  0  0  0  0
    2.6018   -1.1318    1.1730 C   0  0  0  0  0  0  0  0  0  0  0  0
    3.0048   -1.6348    0.1320 O   0  0  0  0  0  0  0  0  0  0  0  0
    2.4088    0.1752    1.3190 N   0  0  0  0  0  0  0  0  0  0  0  0
    2.0708    0.5242    2.2050 H   0  0  0  0  0  0  0  0  0  0  0  0
    2.6638    1.1782    0.2840 C   0  0  1  0  0  0  0  0  0  0  0  0
    3.3854    1.8961    0.6774 H   0  0  0  0  0  0  0  0  0  0  0  0
    3.2868    0.5024   -0.9501 C   0  0  0  0  0  0  0  0  0  0  0  0
    3.3217    1.2255   -1.7658 H   0  0  0  0  0  0  0  0  0  0  0  0
    2.6126   -0.2910   -1.2715 H   0  0  0  0  0  0  0  0  0  0  0  0
    4.9335   -0.2450   -0.7697 S   0  0  0  0  0  0  0  0  0  0  0  0
    1.3783    1.9496   -0.0692 C   0  0  0  0  0  0  0  0  0  0  0  0
    0.6296    1.5433   -0.9577 O   0  0  0  0  0  0  0  0  0  0  0  0
    1.1199    3.0610    0.6329 N   0  0  0  0  0  0  0  0  0  0  0  0
    1.7741    3.3348    1.3482 H   0  0  0  0  0  0  0  0  0  0  0  0
   -0.0554    3.9022    0.4163 C   0  0  0  0  0  0  0  0  0  0  0  0
   -0.0309    4.3139   -0.5949 H   0  0  0  0  0  0  0  0  0  0  0  0
   -0.9625    3.3047    0.5243 H   0  0  0  0  0  0  0  0  0  0  0  0
   -0.0747    4.7198    1.1380 H   0  0  0  0  0  0  0  0  0  0  0  0
    8.1026    5.7785   -5.1853 H   0  0  0  0  0  0  0  0  0  0  0  0
    7.5525    4.8454   -5.2973 C   0  0  0  0  0  0  0  0  0  0  0  0
    7.9114    4.3106   -6.1753 H   0  0  0  0  0  0  0  0  0  0  0  0
    6.4903    5.0579   -5.4027 H   0  0  0  0  0  0  0  0  0  0  0  0
    7.7734    3.9952   -4.0682 C   0  0  0  0  0  0  0  0  0  0  0  0
    8.4710    4.4052   -3.1504 O   0  0  0  0  0  0  0  0  0  0  0  0
    7.1688    2.8104   -4.0496 N   0  0  0  0  0  0  0  0  0  0  0  0
    6.6161    2.5328   -4.8476 H   0  0  0  0  0  0  0  0  0  0  0  0
    7.2567    1.8513   -2.9484 C   0  0  1  0  0  0  0  0  0  0  0  0
    8.2650    1.8797   -2.5315 H   0  0  0  0  0  0  0  0  0  0  0  0
    6.2704    2.2890   -1.8566 C   0  0  0  0  0  0  0  0  0  0  0  0
    6.5400    3.3030   -1.5578 H   0  0  0  0  0  0  0  0  0  0  0  0
    5.2687    2.3355   -2.2843 H   0  0  0  0  0  0  0  0  0  0  0  0
    6.2050    1.2941   -0.3423 S   0  0  0  0  0  0  0  0  0  0  0  0
    6.9873    0.4234   -3.4553 C   0  0  0  0  0  0  0  0  0  0  0  0
    6.2306    0.2427   -4.4103 O   0  0  0  0  0  0  0  0  0  0  0  0
    7.6086   -0.5821   -2.8255 N   0  0  0  0  0  0  0  0  0  0  0  0
    8.1855   -0.3540   -2.0314 H   0  0  0  0  0  0  0  0  0  0  0  0
    7.4540   -1.9932   -3.1765 C   0  0  0  0  0  0  0  0  0  0  0  0
    6.4791   -2.3511   -2.8412 H   0  0  0  0  0  0  0  0  0  0  0  0
    7.5170   -2.1178   -4.2601 H   0  0  0  0  0  0  0  0  0  0  0  0
    8.2365   -2.5870   -2.7037 H   0  0  0  0  0  0  0  0  0  0  0  0
  5  6  2  0  0  0  0
  5  7  1  0  0  0  0
  2  3  1  0  0  0  0
  2  4  1  0  0  0  0
  2  5  1  0  0  0  0
  1  2  1  0  0  0  0
 15 16  2  0  0  0  0
 15 17  1  0  0  0  0
 14 36  1  0  0  0  0
 11 12  1  0  0  0  0
 11 13  1  0  0  0  0
 11 14  1  0  0  0  0
  9 10  1  0  0  0  0
  9 11  1  0  0  0  0
  9 15  1  0  0  0  0
  7  8  1  0  0  0  0
  7  9  1  0  0  0  0
 19 20  1  0  0  0  0
 19 21  1  0  0  0  0
 19 22  1  0  0  0  0
 17 18  1  0  0  0  0
 17 19  1  0  0  0  0
 27 28  2  0  0  0  0
 27 29  1  0  0  0  0
 24 25  1  0  0  0  0
 24 26  1  0  0  0  0
 24 27  1  0  0  0  0
 23 24  1  0  0  0  0
 37 38  2  0  0  0  0
 37 39  1  0  0  0  0
 33 34  1  0  0  0  0
 33 35  1  0  0  0  0
 33 36  1  0  0  0  0
 31 32  1  0  0  0  0
 31 33  1  0  0  0  0
 31 37  1  0  0  0  0
 29 30  1  0  0  0  0
 29 31  1  0  0  0  0
 41 42  1  0  0  0  0
 41 43  1  0  0  0  0
 41 44  1  0  0  0  0
 39 40  1  0  0  0  0
 39 41  1  0  0  0  0
M  END
$$$$
default_name
  -OEChem-01062215323D

 44 43  0     1  0  0  0  0  0999 V2000
    2.4488   -3.0448    2.0990 H   0  0  0  0  0  0  0  0  0  0  0  0
    2.2788   -2.0018    2.3640 C   0  0  0  0  0  0  0  0  0  0  0  0
    2.9228   -1.7258    3.1960 H   0  0  0  0  0  0  0  0  0  0  0  0
    1.2358   -1.8618    2.6430 H   0  0  0  0  0  0  0  0  0  0  0  0
    2.6018   -1.1318    1.1730 C   0  0  0  0  0  0  0  0  0  0  0  0
    3.0048   -1.6348    0.1320 O   0  0  0  0  0  0  0  0  0  0  0  0
    2.4088    0.1752    1.3190 N   0  0  0  0  0  0  0  0  0  0  0  0
    2.0708    0.5242    2.2050 H   0  0  0  0  0  0  0  0  0  0  0  0
    2.6638    1.1782    0.2840 C   0  0  1  0  0  0  0  0  0  0  0  0
    3.3854    1.8961    0.6774 H   0  0  0  0  0  0  0  0  0  0  0  0
    3.2868    0.5024   -0.9501 C   0  0  0  0  0  0  0  0  0  0  0  0
    3.3217    1.2255   -1.7658 H   0  0  0  0  0  0  0  0  0  0  0  0
    2.6126   -0.2910   -1.2715 H   0  0  0  0  0  0  0  0  0  0  0  0
    4.9335   -0.2450   -0.7697 S   0  0  0  0  0  0  0  0  0  0  0  0
    1.3783    1.9496   -0.0692 C   0  0  0  0  0  0  0  0  0  0  0  0
    0.4980    1.4203   -0.7475 O   0  0  0  0  0  0  0  0  0  0  0  0
    1.2683    3.2005    0.3976 N   0  0  0  0  0  0  0  0  0  0  0  0
    2.0255    3.5709    0.9491 H   0  0  0  0  0  0  0  0  0  0  0  0
    0.1136    4.0609    0.1478 C   0  0  0  0  0  0  0  0  0  0  0  0
    0.0188    4.2457   -0.9244 H   0  0  0  0  0  0  0  0  0  0  0  0
   -0.7963    3.5682    0.4953 H   0  0  0  0  0  0  0  0  0  0  0  0
    0.2297    5.0121    0.6687 H   0  0  0  0  0  0  0  0  0  0  0  0
    8.1026    5.7785   -5.1853 H   0  0  0  0  0  0  0  0  0  0  0  0
    7.5525    4.8454   -5.2973 C   0  0  0  0  0  0  0  0  0  0  0  0
    7.9114    4.3106   -6.1753 H   0  0  0  0  0  0  0  0  0  0  0  0
    6.4903    5.0579   -5.4027 H   0  0  0  0  0  0  0  0  0  0  0  0
    7.7734    3.9952   -4.0682 C   0  0  0  0  0  0  0  0  0  0  0  0
    8.4710    4.4052   -3.1504 O   0  0  0  0  0  0  0  0  0  0  0  0
    7.1688    2.8104   -4.0496 N   0  0  0  0  0  0  0  0  0  0  0  0
    6.6161    2.5328   -4.8476 H   0  0  0  0  0  0  0  0  0  0  0  0
    7.2567    1.8513   -2.9484 C   0  0  1  0  0  0  0  0  0  0  0  0
    8.2650    1.8797   -2.5315 H   0  0  0  0  0  0  0  0  0  0  0  0
    6.2704    2.2890   -1.8566 C   0  0  0  0  0  0  0  0  0  0  0  0
    6.5400    3.3030   -1.5578 H   0  0  0  0  0  0  0  0  0  0  0  0
    5.2687    2.3355   -2.2843 H   0  0  0  0  0  0  0  0  0  0  0  0
    6.2050    1.2941   -0.3423 S   0  0  0  0  0  0  0  0  0  0  0  0
    6.9873    0.4234   -3.4553 C   0  0  0  0  0  0  0  0  0  0  0  0
    6.2306    0.2427   -4.4103 O   0  0  0  0  0  0  0  0  0  0  0  0
    7.6086   -0.5821   -2.8255 N   0  0  0  0  0  0  0  0  0  0  0  0
    8.1855   -0.3540   -2.0314 H   0  0  0  0  0  0  0  0  0  0  0  0
    7.4540   -1.9932   -3.1765 C   0  0  0  0  0  0  0  0  0  0  0  0
    6.4791   -2.3511   -2.8412 H   0  0  0  0  0  0  0  0  0  0  0  0
    7.5170   -2.1178   -4.2601 H   0  0  0  0  0  0  0  0  0  0  0  0
    8.2365   -2.5870   -2.7037 H   0  0  0  0  0  0  0  0  0  0  0  0
  5  6  2  0  0  0  0
  5  7  1  0  0  0  0
  2  3  1  0  0  0  0
  2  4  1  0  0  0  0
  2  5  1  0  0  0  0
  1  2  1  0  0  0  0
 15 16  2  0  0  0  0
 15 17  1  0  0  0  0
 14 36  1  0  0  0  0
 11 12  1  0  0  0  0
 11 13  1  0  0  0  0
 11 14  1  0  0  0  0
  9 10  1  0  0  0  0
  9 11  1  0  0  0  0
  9 15  1  0  0  0  0
  7  8  1  0  0  0  0
  7  9  1  0  0  0  0
 19 20  1  0  0  0  0
 19 21  1  0  0  0  0
 19 22  1  0  0  0  0
 17 18  1  0  0  0  0
 17 19  1  0  0  0  0
 27 28  2  0  0  0  0
 27 29  1  0  0  0  0
 24 25  1  0  0  0  0
 24 26  1  0  0  0  0
 24 27  1  0  0  0  0
 23 24  1  0  0  0  0
 37 38  2  0  0  0  0
 37 39  1  0  0  0  0
 33 34  1  0  0  0  0
 33 35  1  0  0  0  0
 33 36  1  0  0  0  0
 31 32  1  0  0  0  0
 31 33  1  0  0  0  0
 31 37  1  0  0  0  0
 29 30  1  0  0  0  0
 29 31  1  0  0  0  0
 41 42  1  0  0  0  0
 41 43  1  0  0  0  0
 41 44  1  0  0  0  0
 39 40  1  0  0  0  0
 39 41  1  0  0  0  0
M  END
$$$$
default_name
  -OEChem-01062215323D

 44 43  0     1  0  0  0  0  0999 V2000
    2.4488   -3.0448    2.0990 H   0  0  0  0  0  0  0  0  0  0  0  0
    2.2788   -2.0018    2.3640 C   0  0  0  0  0  0  0  0  0  0  0  0
    2.9228   -1.7258    3.1960 H   0  0  0  0  0  0  0  0  0  0  0  0
    1.2358   -1.8618    2.6430 H   0  0  0  0  0  0  0  0  0  0  0  0
    2.6018   -1.1318    1.1730 C   0  0  0  0  0  0  0  0  0  0  0  0
    3.0048   -1.6348    0.1320 O   0  0  0  0  0  0  0  0  0  0  0  0
    2.4088    0.1752    1.3190 N   0  0  0  0  0  0  0  0  0  0  0  0
    2.0708    0.5242    2.2050 H   0  0  0  0  0  0  0  0  0  0  0  0
    2.6638    1.1782    0.2840 C   0  0  1  0  0  0  0  0  0  0  0  0
    3.3854    1.8961    0.6774 H   0  0  0  0  0  0  0  0  0  0  0  0
    3.2868    0.5024   -0.9501 C   0  0  0  0  0  0  0  0  0  0  0  0
    3.3217    1.2255   -1.7658 H   0  0  0  0  0  0  0  0  0  0  0  0
    2.6126   -0.2910   -1.2715 H   0  0  0  0  0  0  0  0  0  0  0  0
    4.9335   -0.2450   -0.7697 S   0  0  0  0  0  0  0  0  0  0  0  0
    1.3783    1.9496   -0.0692 C   0  0  0  0  0  0  0  0  0  0  0  0
    0.3909    1.3548   -0.5008 O   0  0  0  0  0  0  0  0  0  0  0  0
    1.3894    3.2757    0.1210 N   0  0  0  0  0  0  0  0  0  0  0  0
    2.2306    3.6979    0.4800 H   0  0  0  0  0  0  0  0  0  0  0  0
    0.2514    4.1461   -0.1679 C   0  0  0  0  0  0  0  0  0  0  0  0
    0.0199    4.1058   -1.2344 H   0  0  0  0  0  0  0  0  0  0  0  0
   -0.6240    3.8067    0.3888 H   0  0  0  0  0  0  0  0  0  0  0  0
    0.4801    5.1750    0.1128 H   0  0  0  0  0  0  0  0  0  0  0  0
    8.1026    5.7785   -5.1853 H   0  0  0  0  0  0  0  0  0  0  0  0
    7.5525    4.8454   -5.2973 C   0  0  0  0  0  0  0  0  0  0  0  0
    7.9114    4.3106   -6.1753 H   0  0  0  0  0  0  0  0  0  0  0  0
    6.4903    5.0579   -5.4027 H   0  0  0  0  0  0  0  0  0  0  0  0
    7.7734    3.9952   -4.0682 C   0  0  0  0  0  0  0  0  0  0  0  0
    8.4710    4.4052   -3.1504 O   0  0  0  0  0  0  0  0  0  0  0  0
    7.1688    2.8104   -4.0496 N   0  0  0  0  0  0  0  0  0  0  0  0
    6.6161    2.5328   -4.8476 H   0  0  0  0  0  0  0  0  0  0  0  0
    7.2567    1.8513   -2.9484 C   0  0  1  0  0  0  0  0  0  0  0  0
    8.2650    1.8797   -2.5315 H   0  0  0  0  0  0  0  0  0  0  0  0
    6.2704    2.2890   -1.8566 C   0  0  0  0  0  0  0  0  0  0  0  0
    6.5400    3.3030   -1.5578 H   0  0  0  0  0  0  0  0  0  0  0  0
    5.2687    2.3355   -2.2843 H   0  0  0  0  0  0  0  0  0  0  0  0
    6.2050    1.2941   -0.3423 S   0  0  0  0  0  0  0  0  0  0  0  0
    6.9873    0.4234   -3.4553 C   0  0  0  0  0  0  0  0  0  0  0  0
    6.2306    0.2427   -4.4103 O   0  0  0  0  0  0  0  0  0  0  0  0
    7.6086   -0.5821   -2.8255 N   0  0  0  0  0  0  0  0  0  0  0  0
    8.1855   -0.3540   -2.0314 H   0  0  0  0  0  0  0  0  0  0  0  0
    7.4540   -1.9932   -3.1765 C   0  0  0  0  0  0  0  0  0  0  0  0
    6.4791   -2.3511   -2.8412 H   0  0  0  0  0  0  0  0  0  0  0  0
    7.5170   -2.1178   -4.2601 H   0  0  0  0  0  0  0  0  0  0  0  0
    8.2365   -2.5870   -2.7037 H   0  0  0  0  0  0  0  0  0  0  0  0
  5  6  2  0  0  0  0
  5  7  1  0  0  0  0
  2  3  1  0  0  0  0
  2  4  1  0  0  0  0
  2  5  1  0  0  0  0
  1  2  1  0  0  0  0
 15 16  2  0  0  0  0
 15 17  1  0  0  0  0
 14 36  1  0  0  0  0
 11 12  1  0  0  0  0
 11 13  1  0  0  0  0
 11 14  1  0  0  0  0
  9 10  1  0  0  0  0
  9 11  1  0  0  0  0
  9 15  1  0  0  0  0
  7  8  1  0  0  0  0
  7  9  1  0  0  0  0
 19 20  1  0  0  0  0
 19 21  1  0  0  0  0
 19 22  1  0  0  0  0
 17 18  1  0  0  0  0
 17 19  1  0  0  0  0
 27 28  2  0  0  0  0
 27 29  1  0  0  0  0
 24 25  1  0  0  0  0
 24 26  1  0  0  0  0
 24 27  1  0  0  0  0
 23 24  1  0  0  0  0
 37 38  2  0  0  0  0
 37 39  1  0  0  0  0
 33 34  1  0  0  0  0
 33 35  1  0  0  0  0
 33 36  1  0  0  0  0
 31 32  1  0  0  0  0
 31 33  1  0  0  0  0
 31 37  1  0  0  0  0
 29 30  1  0  0  0  0
 29 31  1  0  0  0  0
 41 42  1  0  0  0  0
 41 43  1  0  0  0  0
 41 44  1  0  0  0  0
 39 40  1  0  0  0  0
 39 41  1  0  0  0  0
M  END
$$$$
default_name
  -OEChem-01062215323D

 44 43  0     1  0  0  0  0  0999 V2000
    2.4488   -3.0448    2.0990 H   0  0  0  0  0  0  0  0  0  0  0  0
    2.2788   -2.0018    2.3640 C   0  0  0  0  0  0  0  0  0  0  0  0
    2.9228   -1.7258    3.1960 H   0  0  0  0  0  0  0  0  0  0  0  0
    1.2358   -1.8618    2.6430 H   0  0  0  0  0  0  0  0  0  0  0  0
    2.6018   -1.1318    1.1730 C   0  0  0  0  0  0  0  0  0  0  0  0
    3.0048   -1.6348    0.1320 O   0  0  0  0  0  0  0  0  0  0  0  0
    2.4088    0.1752    1.3190 N   0  0  0  0  0  0  0  0  0  0  0  0
    2.0708    0.5242    2.2050 H   0  0  0  0  0  0  0  0  0  0  0  0
    2.6638    1.1782    0.2840 C   0  0  1  0  0  0  0  0  0  0  0  0
    3.3854    1.8961    0.6774 H   0  0  0  0  0  0  0  0  0  0  0  0
    3.2868    0.5024   -0.9501 C   0  0  0  0  0  0  0  0  0  0  0  0
    3.3217    1.2255   -1.7658 H   0  0  0  0  0  0  0  0  0  0  0  0
    2.6126   -0.2910   -1.2715 H   0  0  0  0  0  0  0  0  0  0  0  0
    4.9335   -0.2450   -0.7697 S   0  0  0  0  0  0  0  0  0  0  0  0
    1.3783    1.9496   -0.0692 C   0  0  0  0  0  0  0  0  0  0  0  0
    0.3155    1.3511   -0.2345 O   0  0  0  0  0  0  0  0  0  0  0  0
    1.4750    3.2814   -0.1781 N   0  0  0  0  0  0  0  0  0  0  0  0
    2.3754    3.7070   -0.0271 H   0  0  0  0  0  0  0  0  0  0  0  0
    0.3487    4.1520   -0.5090 C   0  0  0  0  0  0  0  0  0  0  0  0
   -0.0274    3.9036   -1.5037 H   0  0  0  0  0  0  0  0  0  0  0  0
   -0.4572    4.0038    0.2121 H   0  0  0  0  0  0  0  0  0  0  0  0
    0.6597    5.1973   -0.4918 H   0  0  0  0  0  0  0  0  0  0  0  0
    8.1026    5.7785   -5.1853 H   0  0  0  0  0  0  0  0  0  0  0  0
    7.5525    4.8454   -5.2973 C   0  0  0  0  0  0  0  0  0  0  0  0
    7.9114    4.3106   -6.1753 H   0  0  0  0  0  0  0  0  0  0  0  0
    6.4903    5.0579   -5.4027 H   0  0  0  0  0  0  0  0  0  0  0  0
    7.7734    3.9952   -4.0682 C   0  0  0  0  0  0  0  0  0  0  0  0
    8.4710    4.4052   -3.1504 O   0  0  0  0  0  0  0  0  0  0  0  0
    7.1688    2.8104   -4.0496 N   0  0  0  0  0  0  0  0  0  0  0  0
    6.6161    2.5328   -4.8476 H   0  0  0  0  0  0  0  0  0  0  0  0
    7.2567    1.8513   -2.9484 C   0  0  1  0  0  0  0  0  0  0  0  0
    8.2650    1.8797   -2.5315 H   0  0  0  0  0  0  0  0  0  0  0  0
    6.2704    2.2890   -1.8566 C   0  0  0  0  0  0  0  0  0  0  0  0
    6.5400    3.3030   -1.5578 H   0  0  0  0  0  0  0  0  0  0  0  0
    5.2687    2.3355   -2.2843 H   0  0  0  0  0  0  0  0  0  0  0  0
    6.2050    1.2941   -0.3423 S   0  0  0  0  0  0  0  0  0  0  0  0
    6.9873    0.4234   -3.4553 C   0  0  0  0  0  0  0  0  0  0  0  0
    6.2306    0.2427   -4.4103 O   0  0  0  0  0  0  0  0  0  0  0  0
    7.6086   -0.5821   -2.8255 N   0  0  0  0  0  0  0  0  0  0  0  0
    8.1855   -0.3540   -2.0314 H   0  0  0  0  0  0  0  0  0  0  0  0
    7.4540   -1.9932   -3.1765 C   0  0  0  0  0  0  0  0  0  0  0  0
    6.4791   -2.3511   -2.8412 H   0  0  0  0  0  0  0  0  0  0  0  0
    7.5170   -2.1178   -4.2601 H   0  0  0  0  0  0  0  0  0  0  0  0
    8.2365   -2.5870   -2.7037 H   0  0  0  0  0  0  0  0  0  0  0  0
  5  6  2  0  0  0  0
  5  7  1  0  0  0  0
  2  3  1  0  0  0  0
  2  4  1  0  0  0  0
  2  5  1  0  0  0  0
  1  2  1  0  0  0  0
 15 16  2  0  0  0  0
 15 17  1  0  0  0  0
 14 36  1  0  0  0  0
 11 12  1  0  0  0  0
 11 13  1  0  0  0  0
 11 14  1  0  0  0  0
  9 10  1  0  0  0  0
  9 11  1  0  0  0  0
  9 15  1  0  0  0  0
  7  8  1  0  0  0  0
  7  9  1  0  0  0  0
 19 20  1  0  0  0  0
 19 21  1  0  0  0  0
 19 22  1  0  0  0  0
 17 18  1  0  0  0  0
 17 19  1  0  0  0  0
 27 28  2  0  0  0  0
 27 29  1  0  0  0  0
 24 25  1  0  0  0  0
 24 26  1  0  0  0  0
 24 27  1  0  0  0  0
 23 24  1  0  0  0  0
 37 38  2  0  0  0  0
 37 39  1  0  0  0  0
 33 34  1  0  0  0  0
 33 35  1  0  0  0  0
 33 36  1  0  0  0  0
 31 32  1  0  0  0  0
 31 33  1  0  0  0  0
 31 37  1  0  0  0  0
 29 30  1  0  0  0  0
 29 31  1  0  0  0  0
 41 42  1  0  0  0  0
 41 43  1  0  0  0  0
 41 44  1  0  0  0  0
 39 40  1  0  0  0  0
 39 41  1  0  0  0  0
M  END
$$$$
default_name
  -OEChem-01062215323D

 44 43  0     1  0  0  0  0  0999 V2000
    2.4488   -3.0448    2.0990 H   0  0  0  0  0  0  0  0  0  0  0  0
    2.2788   -2.0018    2.3640 C   0  0  0  0  0  0  0  0  0  0  0  0
    2.9228   -1.7258    3.1960 H   0  0  0  0  0  0  0  0  0  0  0  0
    1.2358   -1.8618    2.6430 H   0  0  0  0  0  0  0  0  0  0  0  0
    2.6018   -1.1318    1.1730 C   0  0  0  0  0  0  0  0  0  0  0  0
    3.0048   -1.6348    0.1320 O   0  0  0  0  0  0  0  0  0  0  0  0
    2.4088    0.1752    1.3190 N   0  0  0  0  0  0  0  0  0  0  0  0
    2.0708    0.5242    2.2050 H   0  0  0  0  0  0  0  0  0  0  0  0
    2.6638    1.1782    0.2840 C   0  0  1  0  0  0  0  0  0  0  0  0
    3.3854    1.8961    0.6774 H   0  0  0  0  0  0  0  0  0  0  0  0
    3.2868    0.5024   -0.9501 C   0  0  0  0  0  0  0  0  0  0  0  0
    3.3217    1.2255   -1.7658 H   0  0  0  0  0  0  0  0  0  0  0  0
    2.6126   -0.2910   -1.2715 H   0  0  0  0  0  0  0  0  0  0  0  0
    4.9335   -0.2450   -0.7697 S   0  0  0  0  0  0  0  0  0  0  0  0
    1.3783    1.9496   -0.0692 C   0  0  0  0  0  0  0  0  0  0  0  0
    0.2770    1.4095    0.0334 O   0  0  0  0  0  0  0  0  0  0  0  0
    1.5192    3.2172   -0.4794 N   0  0  0  0  0  0  0  0  0  0  0  0
    2.4500    3.5977   -0.5377 H   0  0  0  0  0  0  0  0  0  0  0  0
    0.3988    4.0783   -0.8524 C   0  0  0  0  0  0  0  0  0  0  0  0
   -0.1201    3.6529   -1.7140 H   0  0  0  0  0  0  0  0  0  0  0  0
   -0.3072    4.1461   -0.0227 H   0  0  0  0  0  0  0  0  0  0  0  0
    0.7560    5.0777   -1.1039 H   0  0  0  0  0  0  0  0  0  0  0  0
    8.1026    5.7785   -5.1853 H   0  0  0  0  0  0  0  0  0  0  0  0
    7.5525    4.8454   -5.2973 C   0  0  0  0  0  0  0  0  0  0  0  0
    7.9114    4.3106   -6.1753 H   0  0  0  0  0  0  0  0  0  0  0  0
    6.4903    5.0579   -5.4027 H   0  0  0  0  0  0  0  0  0  0  0  0
    7.7734    3.9952   -4.0682 C   0  0  0  0  0  0  0  0  0  0  0  0
    8.4710    4.4052   -3.1504 O   0  0  0  0  0  0  0  0  0  0  0  0
    7.1688    2.8104   -4.0496 N   0  0  0  0  0  0  0  0  0  0  0  0
    6.6161    2.5328   -4.8476 H   0  0  0  0  0  0  0  0  0  0  0  0
    7.2567    1.8513   -2.9484 C   0  0  1  0  0  0  0  0  0  0  0  0
    8.2650    1.8797   -2.5315 H   0  0  0  0  0  0  0  0  0  0  0  0
    6.2704    2.2890   -1.8566 C   0  0  0  0  0  0  0  0  0  0  0  0
    6.5400    3.3030   -1.5578 H   0  0  0  0  0  0  0  0  0  0  0  0
    5.2687    2.3355   -2.2843 H   0  0  0  0  0  0  0  0  0  0  0  0
    6.2050    1.2941   -0.3423 S   0  0  0  0  0  0  0  0  0  0  0  0
    6.9873    0.4234   -3.4553 C   0  0  0  0  0  0  0  0  0  0  0  0
    6.2306    0.2427   -4.4103 O   0  0  0  0  0  0  0  0  0  0  0  0
    7.6086   -0.5821   -2.8255 N   0  0  0  0  0  0  0  0  0  0  0  0
    8.1855   -0.3540   -2.0314 H   0  0  0  0  0  0  0  0  0  0  0  0
    7.4540   -1.9932   -3.1765 C   0  0  0  0  0  0  0  0  0  0  0  0
    6.4791   -2.3511   -2.8412 H   0  0  0  0  0  0  0  0  0  0  0  0
    7.5170   -2.1178   -4.2601 H   0  0  0  0  0  0  0  0  0  0  0  0
    8.2365   -2.5870   -2.7037 H   0  0  0  0  0  0  0  0  0  0  0  0
  5  6  2  0  0  0  0
  5  7  1  0  0  0  0
  2  3  1  0  0  0  0
  2  4  1  0  0  0  0
  2  5  1  0  0  0  0
  1  2  1  0  0  0  0
 15 16  2  0  0  0  0
 15 17  1  0  0  0  0
 14 36  1  0  0  0  0
 11 12  1  0  0  0  0
 11 13  1  0  0  0  0
 11 14  1  0  0  0  0
  9 10  1  0  0  0  0
  9 11  1  0  0  0  0
  9 15  1  0  0  0  0
  7  8  1  0  0  0  0
  7  9  1  0  0  0  0
 19 20  1  0  0  0  0
 19 21  1  0  0  0  0
 19 22  1  0  0  0  0
 17 18  1  0  0  0  0
 17 19  1  0  0  0  0
 27 28  2  0  0  0  0
 27 29  1  0  0  0  0
 24 25  1  0  0  0  0
 24 26  1  0  0  0  0
 24 27  1  0  0  0  0
 23 24  1  0  0  0  0
 37 38  2  0  0  0  0
 37 39  1  0  0  0  0
 33 34  1  0  0  0  0
 33 35  1  0  0  0  0
 33 36  1  0  0  0  0
 31 32  1  0  0  0  0
 31 33  1  0  0  0  0
 31 37  1  0  0  0  0
 29 30  1  0  0  0  0
 29 31  1  0  0  0  0
 41 42  1  0  0  0  0
 41 43  1  0  0  0  0
 41 44  1  0  0  0  0
 39 40  1  0  0  0  0
 39 41  1  0  0  0  0
M  END
$$$$
default_name
  -OEChem-01062215323D

 44 43  0     1  0  0  0  0  0999 V2000
    2.4488   -3.0448    2.0990 H   0  0  0  0  0  0  0  0  0  0  0  0
    2.2788   -2.0018    2.3640 C   0  0  0  0  0  0  0  0  0  0  0  0
    2.9228   -1.7258    3.1960 H   0  0  0  0  0  0  0  0  0  0  0  0
    1.2358   -1.8618    2.6430 H   0  0  0  0  0  0  0  0  0  0  0  0
    2.6018   -1.1318    1.1730 C   0  0  0  0  0  0  0  0  0  0  0  0
    3.0048   -1.6348    0.1320 O   0  0  0  0  0  0  0  0  0  0  0  0
    2.4088    0.1752    1.3190 N   0  0  0  0  0  0  0  0  0  0  0  0
    2.0708    0.5242    2.2050 H   0  0  0  0  0  0  0  0  0  0  0  0
    2.6638    1.1782    0.2840 C   0  0  1  0  0  0  0  0  0  0  0  0
    3.3854    1.8961    0.6774 H   0  0  0  0  0  0  0  0  0  0  0  0
    3.2868    0.5024   -0.9501 C   0  0  0  0  0  0  0  0  0  0  0  0
    3.3217    1.2255   -1.7658 H   0  0  0  0  0  0  0  0  0  0  0  0
    2.6126   -0.2910   -1.2715 H   0  0  0  0  0  0  0  0  0  0  0  0
    4.9335   -0.2450   -0.7697 S   0  0  0  0  0  0  0  0  0  0  0  0
    1.3783    1.9496   -0.0692 C   0  0  0  0  0  0  0  0  0  0  0  0
    0.2780    1.5261    0.2844 O   0  0  0  0  0  0  0  0  0  0  0  0
    1.5191    3.0875   -0.7623 N   0  0  0  0  0  0  0  0  0  0  0  0
    2.4495    3.3774   -1.0170 H   0  0  0  0  0  0  0  0  0  0  0  0
    0.3983    3.9299   -1.1746 C   0  0  0  0  0  0  0  0  0  0  0  0
   -0.2517    3.3708   -1.8511 H   0  0  0  0  0  0  0  0  0  0  0  0
   -0.1844    4.2239   -0.2997 H   0  0  0  0  0  0  0  0  0  0  0  0
    0.7627    4.8242   -1.6819 H   0  0  0  0  0  0  0  0  0  0  0  0
    8.1026    5.7785   -5.1853 H   0  0  0  0  0  0  0  0  0  0  0  0
    7.5525    4.8454   -5.2973 C   0  0  0  0  0  0  0  0  0  0  0  0
    7.9114    4.3106   -6.1753 H   0  0  0  0  0  0  0  0  0  0  0  0
    6.4903    5.0579   -5.4027 H   0  0  0  0  0  0  0  0  0  0  0  0
    7.7734    3.9952   -4.0682 C   0  0  0  0  0  0  0  0  0  0  0  0
    8.4710    4.4052   -3.1504 O   0  0  0  0  0  0  0  0  0  0  0  0
    7.1688    2.8104   -4.0496 N   0  0  0  0  0  0  0  0  0  0  0  0
    6.6161    2.5328   -4.8476 H   0  0  0  0  0  0  0  0  0  0  0  0
    7.2567    1.8513   -2.9484 C   0  0  1  0  0  0  0  0  0  0  0  0
    8.2650    1.8797   -2.5315 H   0  0  0  0  0  0  0  0  0  0  0  0
    6.2704    2.2890   -1.8566 C   0  0  0  0  0  0  0  0  0  0  0  0
    6.5400    3.3030   -1.5578 H   0  0  0  0  0  0  0  0  0  0  0  0
    5.2687    2.3355   -2.2843 H   0  0  0  0  0  0  0  0  0  0  0  0
    6.2050    1.2941   -0.3423 S   0  0  0  0  0  0  0  0  0  0  0  0
    6.9873    0.4234   -3.4553 C   0  0  0  0  0  0  0  0  0  0  0  0
    6.2306    0.2427   -4.4103 O   0  0  0  0  0  0  0  0  0  0  0  0
    7.6086   -0.5821   -2.8255 N   0  0  0  0  0  0  0  0  0  0  0  0
    8.1855   -0.3540   -2.0314 H   0  0  0  0  0  0  0  0  0  0  0  0
    7.4540   -1.9932   -3.1765 C   0  0  0  0  0  0  0  0  0  0  0  0
    6.4791   -2.3511   -2.8412 H   0  0  0  0  0  0  0  0  0  0  0  0
    7.5170   -2.1178   -4.2601 H   0  0  0  0  0  0  0  0  0  0  0  0
    8.2365   -2.5870   -2.7037 H   0  0  0  0  0  0  0  0  0  0  0  0
  5  6  2  0  0  0  0
  5  7  1  0  0  0  0
  2  3  1  0  0  0  0
  2  4  1  0  0  0  0
  2  5  1  0  0  0  0
  1  2  1  0  0  0  0
 15 16  2  0  0  0  0
 15 17  1  0  0  0  0
 14 36  1  0  0  0  0
 11 12  1  0  0  0  0
 11 13  1  0  0  0  0
 11 14  1  0  0  0  0
  9 10  1  0  0  0  0
  9 11  1  0  0  0  0
  9 15  1  0  0  0  0
  7  8  1  0  0  0  0
  7  9  1  0  0  0  0
 19 20  1  0  0  0  0
 19 21  1  0  0  0  0
 19 22  1  0  0  0  0
 17 18  1  0  0  0  0
 17 19  1  0  0  0  0
 27 28  2  0  0  0  0
 27 29  1  0  0  0  0
 24 25  1  0  0  0  0
 24 26  1  0  0  0  0
 24 27  1  0  0  0  0
 23 24  1  0  0  0  0
 37 38  2  0  0  0  0
 37 39  1  0  0  0  0
 33 34  1  0  0  0  0
 33 35  1  0  0  0  0
 33 36  1  0  0  0  0
 31 32  1  0  0  0  0
 31 33  1  0  0  0  0
 31 37  1  0  0  0  0
 29 30  1  0  0  0  0
 29 31  1  0  0  0  0
 41 42  1  0  0  0  0
 41 43  1  0  0  0  0
 41 44  1  0  0  0  0
 39 40  1  0  0  0  0
 39 41  1  0  0  0  0
M  END
$$$$
default_name
  -OEChem-01062215323D

 44 43  0     1  0  0  0  0  0999 V2000
    2.4488   -3.0448    2.0990 H   0  0  0  0  0  0  0  0  0  0  0  0
    2.2788   -2.0018    2.3640 C   0  0  0  0  0  0  0  0  0  0  0  0
    2.9228   -1.7258    3.1960 H   0  0  0  0  0  0  0  0  0  0  0  0
    1.2358   -1.8618    2.6430 H   0  0  0  0  0  0  0  0  0  0  0  0
    2.6018   -1.1318    1.1730 C   0  0  0  0  0  0  0  0  0  0  0  0
    3.0048   -1.6348    0.1320 O   0  0  0  0  0  0  0  0  0  0  0  0
    2.4088    0.1752    1.3190 N   0  0  0  0  0  0  0  0  0  0  0  0
    2.0708    0.5242    2.2050 H   0  0  0  0  0  0  0  0  0  0  0  0
    2.6638    1.1782    0.2840 C   0  0  1  0  0  0  0  0  0  0  0  0
    3.5640    1.7297    0.5602 H   0  0  0  0  0  0  0  0  0  0  0  0
    2.9261    0.4792   -1.0615 C   0  0  0  0  0  0  0  0  0  0  0  0
    2.9538    1.2332   -1.8490 H   0  0  0  0  0  0  0  0  0  0  0  0
    2.0701   -0.1594   -1.2777 H   0  0  0  0  0  0  0  0  0  0  0  0
    4.4098   -0.5606   -1.2045 S   0  0  0  0  0  0  0  0  0  0  0  0
    1.5040    2.1875    0.1923 C   0  0  0  0  0  0  0  0  0  0  0  0
    0.5299    2.0899    0.9384 O   0  0  0  0  0  0  0  0  0  0  0  0
    1.6126    3.1623   -0.7203 N   0  0  0  0  0  0  0  0  0  0  0  0
    2.4384    3.1847   -1.2966 H   0  0  0  0  0  0  0  0  0  0  0  0
    0.5979    4.1927   -0.9311 C   0  0  0  0  0  0  0  0  0  0  0  0
   -0.3356    3.7278   -1.2552 H   0  0  0  0  0  0  0  0  0  0  0  0
    0.4124    4.7253    0.0035 H   0  0  0  0  0  0  0  0  0  0  0  0
    0.9298    4.9022   -1.6901 H   0  0  0  0  0  0  0  0  0  0  0  0
    7.8365    5.0590   -5.9481 H   0  0  0  0  0  0  0  0  0  0  0  0
    7.1106    4.2481   -5.9850 C   0  0  0  0  0  0  0  0  0  0  0  0
    7.2055    3.7129   -6.9285 H   0  0  0  0  0  0  0  0  0  0  0  0
    6.1050    4.6533   -5.8897 H   0  0  0  0  0  0  0  0  0  0  0  0
    7.3780    3.2980   -4.8413 C   0  0  0  0  0  0  0  0  0  0  0  0
    8.2881    3.5192   -4.0540 O   0  0  0  0  0  0  0  0  0  0  0  0
    6.5749    2.2417   -4.7470 N   0  0  0  0  0  0  0  0  0  0  0  0
    5.8503    2.1172   -5.4390 H   0  0  0  0  0  0  0  0  0  0  0  0
    6.6711    1.2163   -3.7080 C   0  0  1  0  0  0  0  0  0  0  0  0
    7.7236    1.0381   -3.4804 H   0  0  0  0  0  0  0  0  0  0  0  0
    5.9884    1.7554   -2.4432 C   0  0  0  0  0  0  0  0  0  0  0  0
    6.4905    2.6844   -2.1695 H   0  0  0  0  0  0  0  0  0  0  0  0
    4.9544    2.0067   -2.6804 H   0  0  0  0  0  0  0  0  0  0  0  0
    6.0013    0.6969   -0.9713 S   0  0  0  0  0  0  0  0  0  0  0  0
    6.0557   -0.1063   -4.1981 C   0  0  0  0  0  0  0  0  0  0  0  0
    5.1248   -0.0895   -5.0047 O   0  0  0  0  0  0  0  0  0  0  0  0
    6.5774   -1.2436   -3.7206 N   0  0  0  0  0  0  0  0  0  0  0  0
    7.3155   -1.1718   -3.0383 H   0  0  0  0  0  0  0  0  0  0  0  0
    6.1032   -2.5800   -4.0779 C   0  0  0  0  0  0  0  0  0  0  0  0
    5.1516   -2.7775   -3.5815 H   0  0  0  0  0  0  0  0  0  0  0  0
    5.9532   -2.6468   -5.1581 H   0  0  0  0  0  0  0  0  0  0  0  0
    6.8306   -3.3322   -3.7722 H   0  0  0  0  0  0  0  0  0  0  0  0
  5  6  2  0  0  0  0
  5  7  1  0  0  0  0
  2  3  1  0  0  0  0
  2  4  1  0  0  0  0
  2  5  1  0  0  0  0
  1  2  1  0  0  0  0
 15 16  2  0  0  0  0
 15 17  1  0  0  0  0
 14 36  1  0  0  0  0
 11 12  1  0  0  0  0
 11 13  1  0  0  0  0
 11 14  1  0  0  0  0
  9 10  1  0  0  0  0
  9 11  1  0  0  0  0
  9 15  1  0  0  0  0
  7  8  1  0  0  0  0
  7  9  1  0  0  0  0
 19 20  1  0  0  0  0
 19 21  1  0  0  0  0
 19 22  1  0  0  0  0
 17 18  1  0  0  0  0
 17 19  1  0  0  0  0
 27 28  2  0  0  0  0
 27 29  1  0  0  0  0
 24 25  1  0  0  0  0
 24 26  1  0  0  0  0
 24 27  1  0  0  0  0
 23 24  1  0  0  0  0
 37 38  2  0  0  0  0
 37 39  1  0  0  0  0
 33 34  1  0  0  0  0
 33 35  1  0  0  0  0
 33 36  1  0  0  0  0
 31 32  1  0  0  0  0
 31 33  1  0  0  0  0
 31 37  1  0  0  0  0
 29 30  1  0  0  0  0
 29 31  1  0  0  0  0
 41 42  1  0  0  0  0
 41 43  1  0  0  0  0
 41 44  1  0  0  0  0
 39 40  1  0  0  0  0
 39 41  1  0  0  0  0
M  END
$$$$
default_name
  -OEChem-01062215323D

 44 43  0     1  0  0  0  0  0999 V2000
    2.4488   -3.0448    2.0990 H   0  0  0  0  0  0  0  0  0  0  0  0
    2.2788   -2.0018    2.3640 C   0  0  0  0  0  0  0  0  0  0  0  0
    2.9228   -1.7258    3.1960 H   0  0  0  0  0  0  0  0  0  0  0  0
    1.2358   -1.8618    2.6430 H   0  0  0  0  0  0  0  0  0  0  0  0
    2.6018   -1.1318    1.1730 C   0  0  0  0  0  0  0  0  0  0  0  0
    3.0048   -1.6348    0.1320 O   0  0  0  0  0  0  0  0  0  0  0  0
    2.4088    0.1752    1.3190 N   0  0  0  0  0  0  0  0  0  0  0  0
    2.0708    0.5242    2.2050 H   0  0  0  0  0  0  0  0  0  0  0  0
    2.6638    1.1782    0.2840 C   0  0  1  0  0  0  0  0  0  0  0  0
    3.5640    1.7297    0.5602 H   0  0  0  0  0  0  0  0  0  0  0  0
    2.9261    0.4792   -1.0615 C   0  0  0  0  0  0  0  0  0  0  0  0
    2.9538    1.2332   -1.8490 H   0  0  0  0  0  0  0  0  0  0  0  0
    2.0701   -0.1594   -1.2777 H   0  0  0  0  0  0  0  0  0  0  0  0
    4.4098   -0.5606   -1.2045 S   0  0  0  0  0  0  0  0  0  0  0  0
    1.5040    2.1875    0.1923 C   0  0  0  0  0  0  0  0  0  0  0  0
    0.6721    2.2676    1.0960 O   0  0  0  0  0  0  0  0  0  0  0  0
    1.4534    2.9632   -0.8988 N   0  0  0  0  0  0  0  0  0  0  0  0
    2.1685    2.8470   -1.5988 H   0  0  0  0  0  0  0  0  0  0  0  0
    0.4162    3.9655   -1.1341 C   0  0  0  0  0  0  0  0  0  0  0  0
   -0.5584    3.4770   -1.1991 H   0  0  0  0  0  0  0  0  0  0  0  0
    0.3926    4.6746   -0.3046 H   0  0  0  0  0  0  0  0  0  0  0  0
    0.6124    4.5035   -2.0624 H   0  0  0  0  0  0  0  0  0  0  0  0
    7.8365    5.0590   -5.9481 H   0  0  0  0  0  0  0  0  0  0  0  0
    7.1106    4.2481   -5.9850 C   0  0  0  0  0  0  0  0  0  0  0  0
    7.2055    3.7129   -6.9285 H   0  0  0  0  0  0  0  0  0  0  0  0
    6.1050    4.6533   -5.8897 H   0  0  0  0  0  0  0  0  0  0  0  0
    7.3780    3.2980   -4.8413 C   0  0  0  0  0  0  0  0  0  0  0  0
    8.2881    3.5192   -4.0540 O   0  0  0  0  0  0  0  0  0  0  0  0
    6.5749    2.2417   -4.7470 N   0  0  0  0  0  0  0  0  0  0  0  0
    5.8503    2.1172   -5.4390 H   0  0  0  0  0  0  0  0  0  0  0  0
    6.6711    1.2163   -3.7080 C   0  0  1  0  0  0  0  0  0  0  0  0
    7.7236    1.0381   -3.4804 H   0  0  0  0  0  0  0  0  0  0  0  0
    5.9884    1.7554   -2.4432 C   0  0  0  0  0  0  0  0  0  0  0  0
    6.4905    2.6844   -2.1695 H   0  0  0  0  0  0  0  0  0  0  0  0
    4.9544    2.0067   -2.6804 H   0  0  0  0  0  0  0  0  0  0  0  0
    6.0013    0.6969   -0.9713 S   0  0  0  0  0  0  0  0  0  0  0  0
    6.0557   -0.1063   -4.1981 C   0  0  0  0  0  0  0  0  0  0  0  0
    5.1248   -0.0895   -5.0047 O   0  0  0  0  0  0  0  0  0  0  0  0
    6.5774   -1.2436   -3.7206 N   0  0  0  0  0  0  0  0  0  0  0  0
    7.3155   -1.1718   -3.0383 H   0  0  0  0  0  0  0  0  0  0  0  0
    6.1032   -2.5800   -4.0779 C   0  0  0  0  0  0  0  0  0  0  0  0
    5.1516   -2.7775   -3.5815 H   0  0  0  0  0  0  0  0  0  0  0  0
    5.9532   -2.6468   -5.1581 H   0  0  0  0  0  0  0  0  0  0  0  0
    6.8306   -3.3322   -3.7722 H   0  0  0  0  0  0  0  0  0  0  0  0
  5  6  2  0  0  0  0
  5  7  1  0  0  0  0
  2  3  1  0  0  0  0
  2  4  1  0  0  0  0
  2  5  1  0  0  0  0
  1  2  1  0  0  0  0
 15 16  2  0  0  0  0
 15 17  1  0  0  0  0
 14 36  1  0  0  0  0
 11 12  1  0  0  0  0
 11 13  1  0  0  0  0
 11 14  1  0  0  0  0
  9 10  1  0  0  0  0
  9 11  1  0  0  0  0
  9 15  1  0  0  0  0
  7  8  1  0  0  0  0
  7  9  1  0  0  0  0
 19 20  1  0  0  0  0
 19 21  1  0  0  0  0
 19 22  1  0  0  0  0
 17 18  1  0  0  0  0
 17 19  1  0  0  0  0
 27 28  2  0  0  0  0
 27 29  1  0  0  0  0
 24 25  1  0  0  0  0
 24 26  1  0  0  0  0
 24 27  1  0  0  0  0
 23 24  1  0  0  0  0
 37 38  2  0  0  0  0
 37 39  1  0  0  0  0
 33 34  1  0  0  0  0
 33 35  1  0  0  0  0
 33 36  1  0  0  0  0
 31 32  1  0  0  0  0
 31 33  1  0  0  0  0
 31 37  1  0  0  0  0
 29 30  1  0  0  0  0
 29 31  1  0  0  0  0
 41 42  1  0  0  0  0
 41 43  1  0  0  0  0
 41 44  1  0  0  0  0
 39 40  1  0  0  0  0
 39 41  1  0  0  0  0
M  END
$$$$
default_name
  -OEChem-01062215323D

 44 43  0     1  0  0  0  0  0999 V2000
    2.4488   -3.0448    2.0990 H   0  0  0  0  0  0  0  0  0  0  0  0
    2.2788   -2.0018    2.3640 C   0  0  0  0  0  0  0  0  0  0  0  0
    2.9228   -1.7258    3.1960 H   0  0  0  0  0  0  0  0  0  0  0  0
    1.2358   -1.8618    2.6430 H   0  0  0  0  0  0  0  0  0  0  0  0
    2.6018   -1.1318    1.1730 C   0  0  0  0  0  0  0  0  0  0  0  0
    3.0048   -1.6348    0.1320 O   0  0  0  0  0  0  0  0  0  0  0  0
    2.4088    0.1752    1.3190 N   0  0  0  0  0  0  0  0  0  0  0  0
    2.0708    0.5242    2.2050 H   0  0  0  0  0  0  0  0  0  0  0  0
    2.6638    1.1782    0.2840 C   0  0  1  0  0  0  0  0  0  0  0  0
    3.5640    1.7297    0.5602 H   0  0  0  0  0  0  0  0  0  0  0  0
    2.9261    0.4792   -1.0615 C   0  0  0  0  0  0  0  0  0  0  0  0
    2.9538    1.2332   -1.8490 H   0  0  0  0  0  0  0  0  0  0  0  0
    2.0701   -0.1594   -1.2777 H   0  0  0  0  0  0  0  0  0  0  0  0
    4.4098   -0.5606   -1.2045 S   0  0  0  0  0  0  0  0  0  0  0  0
    1.5040    2.1875    0.1923 C   0  0  0  0  0  0  0  0  0  0  0  0
    0.8389    2.4678    1.1894 O   0  0  0  0  0  0  0  0  0  0  0  0
    1.2664    2.7386   -1.0055 N   0  0  0  0  0  0  0  0  0  0  0  0
    1.8512    2.4661   -1.7791 H   0  0  0  0  0  0  0  0  0  0  0  0
    0.2028    3.7093   -1.2551 C   0  0  0  0  0  0  0  0  0  0  0  0
   -0.7678    3.2490   -1.0582 H   0  0  0  0  0  0  0  0  0  0  0  0
    0.3205    4.5659   -0.5889 H   0  0  0  0  0  0  0  0  0  0  0  0
    0.2364    4.0508   -2.2905 H   0  0  0  0  0  0  0  0  0  0  0  0
    7.8365    5.0590   -5.9481 H   0  0  0  0  0  0  0  0  0  0  0  0
    7.1106    4.2481   -5.9850 C   0  0  0  0  0  0  0  0  0  0  0  0
    7.2055    3.7129   -6.9285 H   0  0  0  0  0  0  0  0  0  0  0  0
    6.1050    4.6533   -5.8897 H   0  0  0  0  0  0  0  0  0  0  0  0
    7.3780    3.2980   -4.8413 C   0  0  0  0  0  0  0  0  0  0  0  0
    8.2881    3.5192   -4.0540 O   0  0  0  0  0  0  0  0  0  0  0  0
    6.5749    2.2417   -4.7470 N   0  0  0  0  0  0  0  0  0  0  0  0
    5.8503    2.1172   -5.4390 H   0  0  0  0  0  0  0  0  0  0  0  0
    6.6711    1.2163   -3.7080 C   0  0  1  0  0  0  0  0  0  0  0  0
    7.7236    1.0381   -3.4804 H   0  0  0  0  0  0  0  0  0  0  0  0
    5.9884    1.7554   -2.4432 C   0  0  0  0  0  0  0  0  0  0  0  0
    6.4905    2.6844   -2.1695 H   0  0  0  0  0  0  0  0  0  0  0  0
    4.9544    2.0067   -2.6804 H   0  0  0  0  0  0  0  0  0  0  0  0
    6.0013    0.6969   -0.9713 S   0  0  0  0  0  0  0  0  0  0  0  0
    6.0557   -0.1063   -4.1981 C   0  0  0  0  0  0  0  0  0  0  0  0
    5.1248   -0.0895   -5.0047 O   0  0  0  0  0  0  0  0  0  0  0  0
    6.5774   -1.2436   -3.7206 N   0  0  0  0  0  0  0  0  0  0  0  0
    7.3155   -1.1718   -3.0383 H   0  0  0  0  0  0  0  0  0  0  0  0
    6.1032   -2.5800   -4.0779 C   0  0  0  0  0  0  0  0  0  0  0  0
    5.1516   -2.7775   -3.5815 H   0  0  0  0  0  0  0  0  0  0  0  0
    5.9532   -2.6468   -5.1581 H   0  0  0  0  0  0  0  0  0  0  0  0
    6.8306   -3.3322   -3.7722 H   0  0  0  0  0  0  0  0  0  0  0  0
  5  6  2  0  0  0  0
  5  7  1  0  0  0  0
  2  3  1  0  0  0  0
  2  4  1  0  0  0  0
  2  5  1  0  0  0  0
  1  2  1  0  0  0  0
 15 16  2  0  0  0  0
 15 17  1  0  0  0  0
 14 36  1  0  0  0  0
 11 12  1  0  0  0  0
 11 13  1  0  0  0  0
 11 14  1  0  0  0  0
  9 10  1  0  0  0  0
  9 11  1  0  0  0  0
  9 15  1  0  0  0  0
  7  8  1  0  0  0  0
  7  9  1  0  0  0  0
 19 20  1  0  0  0  0
 19 21  1  0  0  0  0
 19 22  1  0  0  0  0
 17 18  1  0  0  0  0
 17 19  1  0  0  0  0
 27 28  2  0  0  0  0
 27 29  1  0  0  0  0
 24 25  1  0  0  0  0
 24 26  1  0  0  0  0
 24 27  1  0  0  0  0
 23 24  1  0  0  0  0
 37 38  2  0  0  0  0
 37 39  1  0  0  0  0
 33 34  1  0  0  0  0
 33 35  1  0  0  0  0
 33 36  1  0  0  0  0
 31 32  1  0  0  0  0
 31 33  1  0  0  0  0
 31 37  1  0  0  0  0
 29 30  1  0  0  0  0
 29 31  1  0  0  0  0
 41 42  1  0  0  0  0
 41 43  1  0  0  0  0
 41 44  1  0  0  0  0
 39 40  1  0  0  0  0
 39 41  1  0  0  0  0
M  END
$$$$
default_name
  -OEChem-01062215323D

 44 43  0     1  0  0  0  0  0999 V2000
    2.4488   -3.0448    2.0990 H   0  0  0  0  0  0  0  0  0  0  0  0
    2.2788   -2.0018    2.3640 C   0  0  0  0  0  0  0  0  0  0  0  0
    2.9228   -1.7258    3.1960 H   0  0  0  0  0  0  0  0  0  0  0  0
    1.2358   -1.8618    2.6430 H   0  0  0  0  0  0  0  0  0  0  0  0
    2.6018   -1.1318    1.1730 C   0  0  0  0  0  0  0  0  0  0  0  0
    3.0048   -1.6348    0.1320 O   0  0  0  0  0  0  0  0  0  0  0  0
    2.4088    0.1752    1.3190 N   0  0  0  0  0  0  0  0  0  0  0  0
    2.0708    0.5242    2.2050 H   0  0  0  0  0  0  0  0  0  0  0  0
    2.6638    1.1782    0.2840 C   0  0  1  0  0  0  0  0  0  0  0  0
    3.5640    1.7297    0.5602 H   0  0  0  0  0  0  0  0  0  0  0  0
    2.9261    0.4792   -1.0615 C   0  0  0  0  0  0  0  0  0  0  0  0
    2.9538    1.2332   -1.8490 H   0  0  0  0  0  0  0  0  0  0  0  0
    2.0701   -0.1594   -1.2777 H   0  0  0  0  0  0  0  0  0  0  0  0
    4.4098   -0.5606   -1.2045 S   0  0  0  0  0  0  0  0  0  0  0  0
    1.5040    2.1875    0.1923 C   0  0  0  0  0  0  0  0  0  0  0  0
    1.0190    2.6768    1.2123 O   0  0  0  0  0  0  0  0  0  0  0  0
    1.0641    2.5037   -1.0331 N   0  0  0  0  0  0  0  0  0  0  0  0
    1.5084    2.0679   -1.8252 H   0  0  0  0  0  0  0  0  0  0  0  0
   -0.0279    3.4414   -1.2859 C   0  0  0  0  0  0  0  0  0  0  0  0
   -0.9498    3.0596   -0.8422 H   0  0  0  0  0  0  0  0  0  0  0  0
    0.2009    4.4066   -0.8302 H   0  0  0  0  0  0  0  0  0  0  0  0
   -0.1724    3.5749   -2.3588 H   0  0  0  0  0  0  0  0  0  0  0  0
    7.8365    5.0590   -5.9481 H   0  0  0  0  0  0  0  0  0  0  0  0
    7.1106    4.2481   -5.9850 C   0  0  0  0  0  0  0  0  0  0  0  0
    7.2055    3.7129   -6.9285 H   0  0  0  0  0  0  0  0  0  0  0  0
    6.1050    4.6533   -5.8897 H   0  0  0  0  0  0  0  0  0  0  0  0
    7.3780    3.2980   -4.8413 C   0  0  0  0  0  0  0  0  0  0  0  0
    8.2881    3.5192   -4.0540 O   0  0  0  0  0  0  0  0  0  0  0  0
    6.5749    2.2417   -4.7470 N   0  0  0  0  0  0  0  0  0  0  0  0
    5.8503    2.1172   -5.4390 H   0  0  0  0  0  0  0  0  0  0  0  0
    6.6711    1.2163   -3.7080 C   0  0  1  0  0  0  0  0  0  0  0  0
    7.7236    1.0381   -3.4804 H   0  0  0  0  0  0  0  0  0  0  0  0
    5.9884    1.7554   -2.4432 C   0  0  0  0  0  0  0  0  0  0  0  0
    6.4905    2.6844   -2.1695 H   0  0  0  0  0  0  0  0  0  0  0  0
    4.9544    2.0067   -2.6804 H   0  0  0  0  0  0  0  0  0  0  0  0
    6.0013    0.6969   -0.9713 S   0  0  0  0  0  0  0  0  0  0  0  0
    6.0557   -0.1063   -4.1981 C   0  0  0  0  0  0  0  0  0  0  0  0
    5.1248   -0.0895   -5.0047 O   0  0  0  0  0  0  0  0  0  0  0  0
    6.5774   -1.2436   -3.7206 N   0  0  0  0  0  0  0  0  0  0  0  0
    7.3155   -1.1718   -3.0383 H   0  0  0  0  0  0  0  0  0  0  0  0
    6.1032   -2.5800   -4.0779 C   0  0  0  0  0  0  0  0  0  0  0  0
    5.1516   -2.7775   -3.5815 H   0  0  0  0  0  0  0  0  0  0  0  0
    5.9532   -2.6468   -5.1581 H   0  0  0  0  0  0  0  0  0  0  0  0
    6.8306   -3.3322   -3.7722 H   0  0  0  0  0  0  0  0  0  0  0  0
  5  6  2  0  0  0  0
  5  7  1  0  0  0  0
  2  3  1  0  0  0  0
  2  4  1  0  0  0  0
  2  5  1  0  0  0  0
  1  2  1  0  0  0  0
 15 16  2  0  0  0  0
 15 17  1  0  0  0  0
 14 36  1  0  0  0  0
 11 12  1  0  0  0  0
 11 13  1  0  0  0  0
 11 14  1  0  0  0  0
  9 10  1  0  0  0  0
  9 11  1  0  0  0  0
  9 15  1  0  0  0  0
  7  8  1  0  0  0  0
  7  9  1  0  0  0  0
 19 20  1  0  0  0  0
 19 21  1  0  0  0  0
 19 22  1  0  0  0  0
 17 18  1  0  0  0  0
 17 19  1  0  0  0  0
 27 28  2  0  0  0  0
 27 29  1  0  0  0  0
 24 25  1  0  0  0  0
 24 26  1  0  0  0  0
 24 27  1  0  0  0  0
 23 24  1  0  0  0  0
 37 38  2  0  0  0  0
 37 39  1  0  0  0  0
 33 34  1  0  0  0  0
 33 35  1  0  0  0  0
 33 36  1  0  0  0  0
 31 32  1  0  0  0  0
 31 33  1  0  0  0  0
 31 37  1  0  0  0  0
 29 30  1  0  0  0  0
 29 31  1  0  0  0  0
 41 42  1  0  0  0  0
 41 43  1  0  0  0  0
 41 44  1  0  0  0  0
 39 40  1  0  0  0  0
 39 41  1  0  0  0  0
M  END
$$$$
default_name
  -OEChem-01062215323D

 44 43  0     1  0  0  0  0  0999 V2000
    2.4488   -3.0448    2.0990 H   0  0  0  0  0  0  0  0  0  0  0  0
    2.2788   -2.0018    2.3640 C   0  0  0  0  0  0  0  0  0  0  0  0
    2.9228   -1.7258    3.1960 H   0  0  0  0  0  0  0  0  0  0  0  0
    1.2358   -1.8618    2.6430 H   0  0  0  0  0  0  0  0  0  0  0  0
    2.6018   -1.1318    1.1730 C   0  0  0  0  0  0  0  0  0  0  0  0
    3.0048   -1.6348    0.1320 O   0  0  0  0  0  0  0  0  0  0  0  0
    2.4088    0.1752    1.3190 N   0  0  0  0  0  0  0  0  0  0  0  0
    2.0708    0.5242    2.2050 H   0  0  0  0  0  0  0  0  0  0  0  0
    2.6638    1.1782    0.2840 C   0  0  1  0  0  0  0  0  0  0  0  0
    3.5640    1.7297    0.5602 H   0  0  0  0  0  0  0  0  0  0  0  0
    2.9261    0.4792   -1.0615 C   0  0  0  0  0  0  0  0  0  0  0  0
    2.9538    1.2332   -1.8490 H   0  0  0  0  0  0  0  0  0  0  0  0
    2.0701   -0.1594   -1.2777 H   0  0  0  0  0  0  0  0  0  0  0  0
    4.4098   -0.5606   -1.2045 S   0  0  0  0  0  0  0  0  0  0  0  0
    1.5040    2.1875    0.1923 C   0  0  0  0  0  0  0  0  0  0  0  0
    1.2000    2.8803    1.1632 O   0  0  0  0  0  0  0  0  0  0  0  0
    0.8605    2.2745   -0.9796 N   0  0  0  0  0  0  0  0  0  0  0  0
    1.1632    1.6796   -1.7339 H   0  0  0  0  0  0  0  0  0  0  0  0
   -0.2600    3.1803   -1.2243 C   0  0  0  0  0  0  0  0  0  0  0  0
   -1.0919    2.9214   -0.5658 H   0  0  0  0  0  0  0  0  0  0  0  0
    0.0421    4.2075   -1.0119 H   0  0  0  0  0  0  0  0  0  0  0  0
   -0.5862    3.1081   -2.2626 H   0  0  0  0  0  0  0  0  0  0  0  0
    7.8365    5.0590   -5.9481 H   0  0  0  0  0  0  0  0  0  0  0  0
    7.1106    4.2481   -5.9850 C   0  0  0  0  0  0  0  0  0  0  0  0
    7.2055    3.7129   -6.9285 H   0  0  0  0  0  0  0  0  0  0  0  0
    6.1050    4.6533   -5.8897 H   0  0  0  0  0  0  0  0  0  0  0  0
    7.3780    3.2980   -4.8413 C   0  0  0  0  0  0  0  0  0  0  0  0
    8.2881    3.5192   -4.0540 O   0  0  0  0  0  0  0  0  0  0  0  0
    6.5749    2.2417   -4.7470 N   0  0  0  0  0  0  0  0  0  0  0  0
    5.8503    2.1172   -5.4390 H   0  0  0  0  0  0  0  0  0  0  0  0
    6.6711    1.2163   -3.7080 C   0  0  1  0  0  0  0  0  0  0  0  0
    7.7236    1.0381   -3.4804 H   0  0  0  0  0  0  0  0  0  0  0  0
    5.9884    1.7554   -2.4432 C   0  0  0  0  0  0  0  0  0  0  0  0
    6.4905    2.6844   -2.1695 H   0  0  0  0  0  0  0  0  0  0  0  0
    4.9544    2.0067   -2.6804 H   0  0  0  0  0  0  0  0  0  0  0  0
    6.0013    0.6969   -0.9713 S   0  0  0  0  0  0  0  0  0  0  0  0
    6.0557   -0.1063   -4.1981 C   0  0  0  0  0  0  0  0  0  0  0  0
    5.1248   -0.0895   -5.0047 O   0  0  0  0  0  0  0  0  0  0  0  0
    6.5774   -1.2436   -3.7206 N   0  0  0  0  0  0  0  0  0  0  0  0
    7.3155   -1.1718   -3.0383 H   0  0  0  0  0  0  0  0  0  0  0  0
    6.1032   -2.5800   -4.0779 C   0  0  0  0  0  0  0  0  0  0  0  0
    5.1516   -2.7775   -3.5815 H   0  0  0  0  0  0  0  0  0  0  0  0
    5.9532   -2.6468   -5.1581 H   0  0  0  0  0  0  0  0  0  0  0  0
    6.8306   -3.3322   -3.7722 H   0  0  0  0  0  0  0  0  0  0  0  0
  5  6  2  0  0  0  0
  5  7  1  0  0  0  0
  2  3  1  0  0  0  0
  2  4  1  0  0  0  0
  2  5  1  0  0  0  0
  1  2  1  0  0  0  0
 15 16  2  0  0  0  0
 15 17  1  0  0  0  0
 14 36  1  0  0  0  0
 11 12  1  0  0  0  0
 11 13  1  0  0  0  0
 11 14  1  0  0  0  0
  9 10  1  0  0  0  0
  9 11  1  0  0  0  0
  9 15  1  0  0  0  0
  7  8  1  0  0  0  0
  7  9  1  0  0  0  0
 19 20  1  0  0  0  0
 19 21  1  0  0  0  0
 19 22  1  0  0  0  0
 17 18  1  0  0  0  0
 17 19  1  0  0  0  0
 27 28  2  0  0  0  0
 27 29  1  0  0  0  0
 24 25  1  0  0  0  0
 24 26  1  0  0  0  0
 24 27  1  0  0  0  0
 23 24  1  0  0  0  0
 37 38  2  0  0  0  0
 37 39  1  0  0  0  0
 33 34  1  0  0  0  0
 33 35  1  0  0  0  0
 33 36  1  0  0  0  0
 31 32  1  0  0  0  0
 31 33  1  0  0  0  0
 31 37  1  0  0  0  0
 29 30  1  0  0  0  0
 29 31  1  0  0  0  0
 41 42  1  0  0  0  0
 41 43  1  0  0  0  0
 41 44  1  0  0  0  0
 39 40  1  0  0  0  0
 39 41  1  0  0  0  0
M  END
$$$$
default_name
  -OEChem-01062215323D

 44 43  0     1  0  0  0  0  0999 V2000
    2.4488   -3.0448    2.0990 H   0  0  0  0  0  0  0  0  0  0  0  0
    2.2788   -2.0018    2.3640 C   0  0  0  0  0  0  0  0  0  0  0  0
    2.9228   -1.7258    3.1960 H   0  0  0  0  0  0  0  0  0  0  0  0
    1.2358   -1.8618    2.6430 H   0  0  0  0  0  0  0  0  0  0  0  0
    2.6018   -1.1318    1.1730 C   0  0  0  0  0  0  0  0  0  0  0  0
    3.0048   -1.6348    0.1320 O   0  0  0  0  0  0  0  0  0  0  0  0
    2.4088    0.1752    1.3190 N   0  0  0  0  0  0  0  0  0  0  0  0
    2.0708    0.5242    2.2050 H   0  0  0  0  0  0  0  0  0  0  0  0
    2.6638    1.1782    0.2840 C   0  0  1  0  0  0  0  0  0  0  0  0
    3.5640    1.7297    0.5602 H   0  0  0  0  0  0  0  0  0  0  0  0
    2.9261    0.4792   -1.0615 C   0  0  0  0  0  0  0  0  0  0  0  0
    2.9538    1.2332   -1.8490 H   0  0  0  0  0  0  0  0  0  0  0  0
    2.0701   -0.1594   -1.2777 H   0  0  0  0  0  0  0  0  0  0  0  0
    4.4098   -0.5606   -1.2045 S   0  0  0  0  0  0  0  0  0  0  0  0
    1.5040    2.1875    0.1923 C   0  0  0  0  0  0  0  0  0  0  0  0
    1.3697    3.0646    1.0453 O   0  0  0  0  0  0  0  0  0  0  0  0
    0.6693    2.0667   -0.8487 N   0  0  0  0  0  0  0  0  0  0  0  0
    0.8393    1.3276   -1.5116 H   0  0  0  0  0  0  0  0  0  0  0  0
   -0.4778    2.9437   -1.0745 C   0  0  0  0  0  0  0  0  0  0  0  0
   -1.1843    2.8441   -0.2478 H   0  0  0  0  0  0  0  0  0  0  0  0
   -0.1453    3.9822   -1.1217 H   0  0  0  0  0  0  0  0  0  0  0  0
   -0.9767    2.6824   -2.0086 H   0  0  0  0  0  0  0  0  0  0  0  0
    7.8365    5.0590   -5.9481 H   0  0  0  0  0  0  0  0  0  0  0  0
    7.1106    4.2481   -5.9850 C   0  0  0  0  0  0  0  0  0  0  0  0
    7.2055    3.7129   -6.9285 H   0  0  0  0  0  0  0  0  0  0  0  0
    6.1050    4.6533   -5.8897 H   0  0  0  0  0  0  0  0  0  0  0  0
    7.3780    3.2980   -4.8413 C   0  0  0  0  0  0  0  0  0  0  0  0
    8.2881    3.5192   -4.0540 O   0  0  0  0  0  0  0  0  0  0  0  0
    6.5749    2.2417   -4.7470 N   0  0  0  0  0  0  0  0  0  0  0  0
    5.8503    2.1172   -5.4390 H   0  0  0  0  0  0  0  0  0  0  0  0
    6.6711    1.2163   -3.7080 C   0  0  1  0  0  0  0  0  0  0  0  0
    7.7236    1.0381   -3.4804 H   0  0  0  0  0  0  0  0  0  0  0  0
    5.9884    1.7554   -2.4432 C   0  0  0  0  0  0  0  0  0  0  0  0
    6.4905    2.6844   -2.1695 H   0  0  0  0  0  0  0  0  0  0  0  0
    4.9544    2.0067   -2.6804 H   0  0  0  0  0  0  0  0  0  0  0  0
    6.0013    0.6969   -0.9713 S   0  0  0  0  0  0  0  0  0  0  0  0
    6.0557   -0.1063   -4.1981 C   0  0  0  0  0  0  0  0  0  0  0  0
    5.1248   -0.0895   -5.0047 O   0  0  0  0  0  0  0  0  0  0  0  0
    6.5774   -1.2436   -3.7206 N   0  0  0  0  0  0  0  0  0  0  0  0
    7.3155   -1.1718   -3.0383 H   0  0  0  0  0  0  0  0  0  0  0  0
    6.1032   -2.5800   -4.0779 C   0  0  0  0  0  0  0  0  0  0  0  0
    5.1516   -2.7775   -3.5815 H   0  0  0  0  0  0  0  0  0  0  0  0
    5.9532   -2.6468   -5.1581 H   0  0  0  0  0  0  0  0  0  0  0  0
    6.8306   -3.3322   -3.7722 H   0  0  0  0  0  0  0  0  0  0  0  0
  5  6  2  0  0  0  0
  5  7  1  0  0  0  0
  2  3  1  0  0  0  0
  2  4  1  0  0  0  0
  2  5  1  0  0  0  0
  1  2  1  0  0  0  0
 15 16  2  0  0  0  0
 15 17  1  0  0  0  0
 14 36  1  0  0  0  0
 11 12  1  0  0  0  0
 11 13  1  0  0  0  0
 11 14  1  0  0  0  0
  9 10  1  0  0  0  0
  9 11  1  0  0  0  0
  9 15  1  0  0  0  0
  7  8  1  0  0  0  0
  7  9  1  0  0  0  0
 19 20  1  0  0  0  0
 19 21  1  0  0  0  0
 19 22  1  0  0  0  0
 17 18  1  0  0  0  0
 17 19  1  0  0  0  0
 27 28  2  0  0  0  0
 27 29  1  0  0  0  0
 24 25  1  0  0  0  0
 24 26  1  0  0  0  0
 24 27  1  0  0  0  0
 23 24  1  0  0  0  0
 37 38  2  0  0  0  0
 37 39  1  0  0  0  0
 33 34  1  0  0  0  0
 33 35  1  0  0  0  0
 33 36  1  0  0  0  0
 31 32  1  0  0  0  0
 31 33  1  0  0  0  0
 31 37  1  0  0  0  0
 29 30  1  0  0  0  0
 29 31  1  0  0  0  0
 41 42  1  0  0  0  0
 41 43  1  0  0  0  0
 41 44  1  0  0  0  0
 39 40  1  0  0  0  0
 39 41  1  0  0  0  0
M  END
$$$$
default_name
  -OEChem-01062215323D

 44 43  0     1  0  0  0  0  0999 V2000
    2.4488   -3.0448    2.0990 H   0  0  0  0  0  0  0  0  0  0  0  0
    2.2788   -2.0018    2.3640 C   0  0  0  0  0  0  0  0  0  0  0  0
    2.9228   -1.7258    3.1960 H   0  0  0  0  0  0  0  0  0  0  0  0
    1.2358   -1.8618    2.6430 H   0  0  0  0  0  0  0  0  0  0  0  0
    2.6018   -1.1318    1.1730 C   0  0  0  0  0  0  0  0  0  0  0  0
    3.0048   -1.6348    0.1320 O   0  0  0  0  0  0  0  0  0  0  0  0
    2.4088    0.1752    1.3190 N   0  0  0  0  0  0  0  0  0  0  0  0
    2.0708    0.5242    2.2050 H   0  0  0  0  0  0  0  0  0  0  0  0
    2.6638    1.1782    0.2840 C   0  0  1  0  0  0  0  0  0  0  0  0
    3.5640    1.7297    0.5602 H   0  0  0  0  0  0  0  0  0  0  0  0
    2.9261    0.4792   -1.0615 C   0  0  0  0  0  0  0  0  0  0  0  0
    2.9538    1.2332   -1.8490 H   0  0  0  0  0  0  0  0  0  0  0  0
    2.0701   -0.1594   -1.2777 H   0  0  0  0  0  0  0  0  0  0  0  0
    4.4098   -0.5606   -1.2045 S   0  0  0  0  0  0  0  0  0  0  0  0
    1.5040    2.1875    0.1923 C   0  0  0  0  0  0  0  0  0  0  0  0
    1.5164    3.2170    0.8668 O   0  0  0  0  0  0  0  0  0  0  0  0
    0.5037    1.8945   -0.6494 N   0  0  0  0  0  0  0  0  0  0  0  0
    0.5588    1.0359   -1.1733 H   0  0  0  0  0  0  0  0  0  0  0  0
   -0.6664    2.7476   -0.8468 C   0  0  0  0  0  0  0  0  0  0  0  0
   -1.2209    2.8328    0.0901 H   0  0  0  0  0  0  0  0  0  0  0  0
   -0.3483    3.7462   -1.1521 H   0  0  0  0  0  0  0  0  0  0  0  0
   -1.3175    2.3267   -1.6141 H   0  0  0  0  0  0  0  0  0  0  0  0
    7.8365    5.0590   -5.9481 H   0  0  0  0  0  0  0  0  0  0  0  0
    7.1106    4.2481   -5.9850 C   0  0  0  0  0  0  0  0  0  0  0  0
    7.2055    3.7129   -6.9285 H   0  0  0  0  0  0  0  0  0  0  0  0
    6.1050    4.6533   -5.8897 H   0  0  0  0  0  0  0  0  0  0  0  0
    7.3780    3.2980   -4.8413 C   0  0  0  0  0  0  0  0  0  0  0  0
    8.2881    3.5192   -4.0540 O   0  0  0  0  0  0  0  0  0  0  0  0
    6.5749    2.2417   -4.7470 N   0  0  0  0  0  0  0  0  0  0  0  0
    5.8503    2.1172   -5.4390 H   0  0  0  0  0  0  0  0  0  0  0  0
    6.6711    1.2163   -3.7080 C   0  0  1  0  0  0  0  0  0  0  0  0
    7.7236    1.0381   -3.4804 H   0  0  0  0  0  0  0  0  0  0  0  0
    5.9884    1.7554   -2.4432 C   0  0  0  0  0  0  0  0  0  0  0  0
    6.4905    2.6844   -2.1695 H   0  0  0  0  0  0  0  0  0  0  0  0
    4.9544    2.0067   -2.6804 H   0  0  0  0  0  0  0  0  0  0  0  0
    6.0013    0.6969   -0.9713 S   0  0  0  0  0  0  0  0  0  0  0  0
    6.0557   -0.1063   -4.1981 C   0  0  0  0  0  0  0  0  0  0  0  0
    5.1248   -0.0895   -5.0047 O   0  0  0  0  0  0  0  0  0  0  0  0
    6.5774   -1.2436   -3.7206 N   0  0  0  0  0  0  0  0  0  0  0  0
    7.3155   -1.1718   -3.0383 H   0  0  0  0  0  0  0  0  0  0  0  0
    6.1032   -2.5800   -4.0779 C   0  0  0  0  0  0  0  0  0  0  0  0
    5.1516   -2.7775   -3.5815 H   0  0  0  0  0  0  0  0  0  0  0  0
    5.9532   -2.6468   -5.1581 H   0  0  0  0  0  0  0  0  0  0  0  0
    6.8306   -3.3322   -3.7722 H   0  0  0  0  0  0  0  0  0  0  0  0
  5  6  2  0  0  0  0
  5  7  1  0  0  0  0
  2  3  1  0  0  0  0
  2  4  1  0  0  0  0
  2  5  1  0  0  0  0
  1  2  1  0  0  0  0
 15 16  2  0  0  0  0
 15 17  1  0  0  0  0
 14 36  1  0  0  0  0
 11 12  1  0  0  0  0
 11 13  1  0  0  0  0
 11 14  1  0  0  0  0
  9 10  1  0  0  0  0
  9 11  1  0  0  0  0
  9 15  1  0  0  0  0
  7  8  1  0  0  0  0
  7  9  1  0  0  0  0
 19 20  1  0  0  0  0
 19 21  1  0  0  0  0
 19 22  1  0  0  0  0
 17 18  1  0  0  0  0
 17 19  1  0  0  0  0
 27 28  2  0  0  0  0
 27 29  1  0  0  0  0
 24 25  1  0  0  0  0
 24 26  1  0  0  0  0
 24 27  1  0  0  0  0
 23 24  1  0  0  0  0
 37 38  2  0  0  0  0
 37 39  1  0  0  0  0
 33 34  1  0  0  0  0
 33 35  1  0  0  0  0
 33 36  1  0  0  0  0
 31 32  1  0  0  0  0
 31 33  1  0  0  0  0
 31 37  1  0  0  0  0
 29 30  1  0  0  0  0
 29 31  1  0  0  0  0
 41 42  1  0  0  0  0
 41 43  1  0  0  0  0
 41 44  1  0  0  0  0
 39 40  1  0  0  0  0
 39 41  1  0  0  0  0
M  END
$$$$
default_name
  -OEChem-01062215323D

 44 43  0     1  0  0  0  0  0999 V2000
    2.4488   -3.0448    2.0990 H   0  0  0  0  0  0  0  0  0  0  0  0
    2.2788   -2.0018    2.3640 C   0  0  0  0  0  0  0  0  0  0  0  0
    2.9228   -1.7258    3.1960 H   0  0  0  0  0  0  0  0  0  0  0  0
    1.2358   -1.8618    2.6430 H   0  0  0  0  0  0  0  0  0  0  0  0
    2.6018   -1.1318    1.1730 C   0  0  0  0  0  0  0  0  0  0  0  0
    3.0048   -1.6348    0.1320 O   0  0  0  0  0  0  0  0  0  0  0  0
    2.4088    0.1752    1.3190 N   0  0  0  0  0  0  0  0  0  0  0  0
    2.0708    0.5242    2.2050 H   0  0  0  0  0  0  0  0  0  0  0  0
    2.6638    1.1782    0.2840 C   0  0  1  0  0  0  0  0  0  0  0  0
    3.5640    1.7297    0.5602 H   0  0  0  0  0  0  0  0  0  0  0  0
    2.9261    0.4792   -1.0615 C   0  0  0  0  0  0  0  0  0  0  0  0
    2.9538    1.2332   -1.8490 H   0  0  0  0  0  0  0  0  0  0  0  0
    2.0701   -0.1594   -1.2777 H   0  0  0  0  0  0  0  0  0  0  0  0
    4.4098   -0.5606   -1.2045 S   0  0  0  0  0  0  0  0  0  0  0  0
    1.5040    2.1875    0.1923 C   0  0  0  0  0  0  0  0  0  0  0  0
    1.6302    3.3272    0.6398 O   0  0  0  0  0  0  0  0  0  0  0  0
    0.3748    1.7695   -0.3952 N   0  0  0  0  0  0  0  0  0  0  0  0
    0.3406    0.8244   -0.7421 H   0  0  0  0  0  0  0  0  0  0  0  0
   -0.8130    2.6055   -0.5567 C   0  0  0  0  0  0  0  0  0  0  0  0
   -1.1991    2.8883    0.4250 H   0  0  0  0  0  0  0  0  0  0  0  0
   -0.5532    3.5153   -1.1010 H   0  0  0  0  0  0  0  0  0  0  0  0
   -1.5851    2.0653   -1.1058 H   0  0  0  0  0  0  0  0  0  0  0  0
    7.8365    5.0590   -5.9481 H   0  0  0  0  0  0  0  0  0  0  0  0
    7.1106    4.2481   -5.9850 C   0  0  0  0  0  0  0  0  0  0  0  0
    7.2055    3.7129   -6.9285 H   0  0  0  0  0  0  0  0  0  0  0  0
    6.1050    4.6533   -5.8897 H   0  0  0  0  0  0  0  0  0  0  0  0
    7.3780    3.2980   -4.8413 C   0  0  0  0  0  0  0  0  0  0  0  0
    8.2881    3.5192   -4.0540 O   0  0  0  0  0  0  0  0  0  0  0  0
    6.5749    2.2417   -4.7470 N   0  0  0  0  0  0  0  0  0  0  0  0
    5.8503    2.1172   -5.4390 H   0  0  0  0  0  0  0  0  0  0  0  0
    6.6711    1.2163   -3.7080 C   0  0  1  0  0  0  0  0  0  0  0  0
    7.7236    1.0381   -3.4804 H   0  0  0  0  0  0  0  0  0  0  0  0
    5.9884    1.7554   -2.4432 C   0  0  0  0  0  0  0  0  0  0  0  0
    6.4905    2.6844   -2.1695 H   0  0  0  0  0  0  0  0  0  0  0  0
    4.9544    2.0067   -2.6804 H   0  0  0  0  0  0  0  0  0  0  0  0
    6.0013    0.6969   -0.9713 S   0  0  0  0  0  0  0  0  0  0  0  0
    6.0557   -0.1063   -4.1981 C   0  0  0  0  0  0  0  0  0  0  0  0
    5.1248   -0.0895   -5.0047 O   0  0  0  0  0  0  0  0  0  0  0  0
    6.5774   -1.2436   -3.7206 N   0  0  0  0  0  0  0  0  0  0  0  0
    7.3155   -1.1718   -3.0383 H   0  0  0  0  0  0  0  0  0  0  0  0
    6.1032   -2.5800   -4.0779 C   0  0  0  0  0  0  0  0  0  0  0  0
    5.1516   -2.7775   -3.5815 H   0  0  0  0  0  0  0  0  0  0  0  0
    5.9532   -2.6468   -5.1581 H   0  0  0  0  0  0  0  0  0  0  0  0
    6.8306   -3.3322   -3.7722 H   0  0  0  0  0  0  0  0  0  0  0  0
  5  6  2  0  0  0  0
  5  7  1  0  0  0  0
  2  3  1  0  0  0  0
  2  4  1  0  0  0  0
  2  5  1  0  0  0  0
  1  2  1  0  0  0  0
 15 16  2  0  0  0  0
 15 17  1  0  0  0  0
 14 36  1  0  0  0  0
 11 12  1  0  0  0  0
 11 13  1  0  0  0  0
 11 14  1  0  0  0  0
  9 10  1  0  0  0  0
  9 11  1  0  0  0  0
  9 15  1  0  0  0  0
  7  8  1  0  0  0  0
  7  9  1  0  0  0  0
 19 20  1  0  0  0  0
 19 21  1  0  0  0  0
 19 22  1  0  0  0  0
 17 18  1  0  0  0  0
 17 19  1  0  0  0  0
 27 28  2  0  0  0  0
 27 29  1  0  0  0  0
 24 25  1  0  0  0  0
 24 26  1  0  0  0  0
 24 27  1  0  0  0  0
 23 24  1  0  0  0  0
 37 38  2  0  0  0  0
 37 39  1  0  0  0  0
 33 34  1  0  0  0  0
 33 35  1  0  0  0  0
 33 36  1  0  0  0  0
 31 32  1  0  0  0  0
 31 33  1  0  0  0  0
 31 37  1  0  0  0  0
 29 30  1  0  0  0  0
 29 31  1  0  0  0  0
 41 42  1  0  0  0  0
 41 43  1  0  0  0  0
 41 44  1  0  0  0  0
 39 40  1  0  0  0  0
 39 41  1  0  0  0  0
M  END
$$$$
default_name
  -OEChem-01062215323D

 44 43  0     1  0  0  0  0  0999 V2000
    2.4488   -3.0448    2.0990 H   0  0  0  0  0  0  0  0  0  0  0  0
    2.2788   -2.0018    2.3640 C   0  0  0  0  0  0  0  0  0  0  0  0
    2.9228   -1.7258    3.1960 H   0  0  0  0  0  0  0  0  0  0  0  0
    1.2358   -1.8618    2.6430 H   0  0  0  0  0  0  0  0  0  0  0  0
    2.6018   -1.1318    1.1730 C   0  0  0  0  0  0  0  0  0  0  0  0
    3.0048   -1.6348    0.1320 O   0  0  0  0  0  0  0  0  0  0  0  0
    2.4088    0.1752    1.3190 N   0  0  0  0  0  0  0  0  0  0  0  0
    2.0708    0.5242    2.2050 H   0  0  0  0  0  0  0  0  0  0  0  0
    2.6638    1.1782    0.2840 C   0  0  1  0  0  0  0  0  0  0  0  0
    3.5640    1.7297    0.5602 H   0  0  0  0  0  0  0  0  0  0  0  0
    2.9261    0.4792   -1.0615 C   0  0  0  0  0  0  0  0  0  0  0  0
    2.9538    1.2332   -1.8490 H   0  0  0  0  0  0  0  0  0  0  0  0
    2.0701   -0.1594   -1.2777 H   0  0  0  0  0  0  0  0  0  0  0  0
    4.4098   -0.5606   -1.2045 S   0  0  0  0  0  0  0  0  0  0  0  0
    1.5040    2.1875    0.1923 C   0  0  0  0  0  0  0  0  0  0  0  0
    1.7034    3.3876    0.3798 O   0  0  0  0  0  0  0  0  0  0  0  0
    0.2915    1.7003   -0.1034 N   0  0  0  0  0  0  0  0  0  0  0  0
    0.1998    0.7076   -0.2474 H   0  0  0  0  0  0  0  0  0  0  0  0
   -0.9076    2.5271   -0.2238 C   0  0  0  0  0  0  0  0  0  0  0  0
   -1.1204    3.0068    0.7339 H   0  0  0  0  0  0  0  0  0  0  0  0
   -0.7461    3.3055   -0.9718 H   0  0  0  0  0  0  0  0  0  0  0  0
   -1.7615    1.9159   -0.5186 H   0  0  0  0  0  0  0  0  0  0  0  0
    7.8365    5.0590   -5.9481 H   0  0  0  0  0  0  0  0  0  0  0  0
    7.1106    4.2481   -5.9850 C   0  0  0  0  0  0  0  0  0  0  0  0
    7.2055    3.7129   -6.9285 H   0  0  0  0  0  0  0  0  0  0  0  0
    6.1050    4.6533   -5.8897 H   0  0  0  0  0  0  0  0  0  0  0  0
    7.3780    3.2980   -4.8413 C   0  0  0  0  0  0  0  0  0  0  0  0
    8.2881    3.5192   -4.0540 O   0  0  0  0  0  0  0  0  0  0  0  0
    6.5749    2.2417   -4.7470 N   0  0  0  0  0  0  0  0  0  0  0  0
    5.8503    2.1172   -5.4390 H   0  0  0  0  0  0  0  0  0  0  0  0
    6.6711    1.2163   -3.7080 C   0  0  1  0  0  0  0  0  0  0  0  0
    7.7236    1.0381   -3.4804 H   0  0  0  0  0  0  0  0  0  0  0  0
    5.9884    1.7554   -2.4432 C   0  0  0  0  0  0  0  0  0  0  0  0
    6.4905    2.6844   -2.1695 H   0  0  0  0  0  0  0  0  0  0  0  0
    4.9544    2.0067   -2.6804 H   0  0  0  0  0  0  0  0  0  0  0  0
    6.0013    0.6969   -0.9713 S   0  0  0  0  0  0  0  0  0  0  0  0
    6.0557   -0.1063   -4.1981 C   0  0  0  0  0  0  0  0  0  0  0  0
    5.1248   -0.0895   -5.0047 O   0  0  0  0  0  0  0  0  0  0  0  0
    6.5774   -1.2436   -3.7206 N   0  0  0  0  0  0  0  0  0  0  0  0
    7.3155   -1.1718   -3.0383 H   0  0  0  0  0  0  0  0  0  0  0  0
    6.1032   -2.5800   -4.0779 C   0  0  0  0  0  0  0  0  0  0  0  0
    5.1516   -2.7775   -3.5815 H   0  0  0  0  0  0  0  0  0  0  0  0
    5.9532   -2.6468   -5.1581 H   0  0  0  0  0  0  0  0  0  0  0  0
    6.8306   -3.3322   -3.7722 H   0  0  0  0  0  0  0  0  0  0  0  0
  5  6  2  0  0  0  0
  5  7  1  0  0  0  0
  2  3  1  0  0  0  0
  2  4  1  0  0  0  0
  2  5  1  0  0  0  0
  1  2  1  0  0  0  0
 15 16  2  0  0  0  0
 15 17  1  0  0  0  0
 14 36  1  0  0  0  0
 11 12  1  0  0  0  0
 11 13  1  0  0  0  0
 11 14  1  0  0  0  0
  9 10  1  0  0  0  0
  9 11  1  0  0  0  0
  9 15  1  0  0  0  0
  7  8  1  0  0  0  0
  7  9  1  0  0  0  0
 19 20  1  0  0  0  0
 19 21  1  0  0  0  0
 19 22  1  0  0  0  0
 17 18  1  0  0  0  0
 17 19  1  0  0  0  0
 27 28  2  0  0  0  0
 27 29  1  0  0  0  0
 24 25  1  0  0  0  0
 24 26  1  0  0  0  0
 24 27  1  0  0  0  0
 23 24  1  0  0  0  0
 37 38  2  0  0  0  0
 37 39  1  0  0  0  0
 33 34  1  0  0  0  0
 33 35  1  0  0  0  0
 33 36  1  0  0  0  0
 31 32  1  0  0  0  0
 31 33  1  0  0  0  0
 31 37  1  0  0  0  0
 29 30  1  0  0  0  0
 29 31  1  0  0  0  0
 41 42  1  0  0  0  0
 41 43  1  0  0  0  0
 41 44  1  0  0  0  0
 39 40  1  0  0  0  0
 39 41  1  0  0  0  0
M  END
$$$$
default_name
  -OEChem-01062215323D

 44 43  0     1  0  0  0  0  0999 V2000
    2.4488   -3.0448    2.0990 H   0  0  0  0  0  0  0  0  0  0  0  0
    2.2788   -2.0018    2.3640 C   0  0  0  0  0  0  0  0  0  0  0  0
    2.9228   -1.7258    3.1960 H   0  0  0  0  0  0  0  0  0  0  0  0
    1.2358   -1.8618    2.6430 H   0  0  0  0  0  0  0  0  0  0  0  0
    2.6018   -1.1318    1.1730 C   0  0  0  0  0  0  0  0  0  0  0  0
    3.0048   -1.6348    0.1320 O   0  0  0  0  0  0  0  0  0  0  0  0
    2.4088    0.1752    1.3190 N   0  0  0  0  0  0  0  0  0  0  0  0
    2.0708    0.5242    2.2050 H   0  0  0  0  0  0  0  0  0  0  0  0
    2.6638    1.1782    0.2840 C   0  0  1  0  0  0  0  0  0  0  0  0
    3.5640    1.7297    0.5602 H   0  0  0  0  0  0  0  0  0  0  0  0
    2.9261    0.4792   -1.0615 C   0  0  0  0  0  0  0  0  0  0  0  0
    2.9538    1.2332   -1.8490 H   0  0  0  0  0  0  0  0  0  0  0  0
    2.0701   -0.1594   -1.2777 H   0  0  0  0  0  0  0  0  0  0  0  0
    4.4098   -0.5606   -1.2045 S   0  0  0  0  0  0  0  0  0  0  0  0
    1.5040    2.1875    0.1923 C   0  0  0  0  0  0  0  0  0  0  0  0
    1.7308    3.3941    0.1044 O   0  0  0  0  0  0  0  0  0  0  0  0
    0.2595    1.6916    0.2060 N   0  0  0  0  0  0  0  0  0  0  0  0
    0.1459    0.6933    0.2771 H   0  0  0  0  0  0  0  0  0  0  0  0
   -0.9437    2.5177    0.1290 C   0  0  0  0  0  0  0  0  0  0  0  0
   -0.9901    3.1803    0.9958 H   0  0  0  0  0  0  0  0  0  0  0  0
   -0.9136    3.1309   -0.7735 H   0  0  0  0  0  0  0  0  0  0  0  0
   -1.8346    1.8888    0.1077 H   0  0  0  0  0  0  0  0  0  0  0  0
    7.8365    5.0590   -5.9481 H   0  0  0  0  0  0  0  0  0  0  0  0
    7.1106    4.2481   -5.9850 C   0  0  0  0  0  0  0  0  0  0  0  0
    7.2055    3.7129   -6.9285 H   0  0  0  0  0  0  0  0  0  0  0  0
    6.1050    4.6533   -5.8897 H   0  0  0  0  0  0  0  0  0  0  0  0
    7.3780    3.2980   -4.8413 C   0  0  0  0  0  0  0  0  0  0  0  0
    8.2881    3.5192   -4.0540 O   0  0  0  0  0  0  0  0  0  0  0  0
    6.5749    2.2417   -4.7470 N   0  0  0  0  0  0  0  0  0  0  0  0
    5.8503    2.1172   -5.4390 H   0  0  0  0  0  0  0  0  0  0  0  0
    6.6711    1.2163   -3.7080 C   0  0  1  0  0  0  0  0  0  0  0  0
    7.7236    1.0381   -3.4804 H   0  0  0  0  0  0  0  0  0  0  0  0
    5.9884    1.7554   -2.4432 C   0  0  0  0  0  0  0  0  0  0  0  0
    6.4905    2.6844   -2.1695 H   0  0  0  0  0  0  0  0  0  0  0  0
    4.9544    2.0067   -2.6804 H   0  0  0  0  0  0  0  0  0  0  0  0
    6.0013    0.6969   -0.9713 S   0  0  0  0  0  0  0  0  0  0  0  0
    6.0557   -0.1063   -4.1981 C   0  0  0  0  0  0  0  0  0  0  0  0
    5.1248   -0.0895   -5.0047 O   0  0  0  0  0  0  0  0  0  0  0  0
    6.5774   -1.2436   -3.7206 N   0  0  0  0  0  0  0  0  0  0  0  0
    7.3155   -1.1718   -3.0383 H   0  0  0  0  0  0  0  0  0  0  0  0
    6.1032   -2.5800   -4.0779 C   0  0  0  0  0  0  0  0  0  0  0  0
    5.1516   -2.7775   -3.5815 H   0  0  0  0  0  0  0  0  0  0  0  0
    5.9532   -2.6468   -5.1581 H   0  0  0  0  0  0  0  0  0  0  0  0
    6.8306   -3.3322   -3.7722 H   0  0  0  0  0  0  0  0  0  0  0  0
  5  6  2  0  0  0  0
  5  7  1  0  0  0  0
  2  3  1  0  0  0  0
  2  4  1  0  0  0  0
  2  5  1  0  0  0  0
  1  2  1  0  0  0  0
 15 16  2  0  0  0  0
 15 17  1  0  0  0  0
 14 36  1  0  0  0  0
 11 12  1  0  0  0  0
 11 13  1  0  0  0  0
 11 14  1  0  0  0  0
  9 10  1  0  0  0  0
  9 11  1  0  0  0  0
  9 15  1  0  0  0  0
  7  8  1  0  0  0  0
  7  9  1  0  0  0  0
 19 20  1  0  0  0  0
 19 21  1  0  0  0  0
 19 22  1  0  0  0  0
 17 18  1  0  0  0  0
 17 19  1  0  0  0  0
 27 28  2  0  0  0  0
 27 29  1  0  0  0  0
 24 25  1  0  0  0  0
 24 26  1  0  0  0  0
 24 27  1  0  0  0  0
 23 24  1  0  0  0  0
 37 38  2  0  0  0  0
 37 39  1  0  0  0  0
 33 34  1  0  0  0  0
 33 35  1  0  0  0  0
 33 36  1  0  0  0  0
 31 32  1  0  0  0  0
 31 33  1  0  0  0  0
 31 37  1  0  0  0  0
 29 30  1  0  0  0  0
 29 31  1  0  0  0  0
 41 42  1  0  0  0  0
 41 43  1  0  0  0  0
 41 44  1  0  0  0  0
 39 40  1  0  0  0  0
 39 41  1  0  0  0  0
M  END
$$$$
default_name
  -OEChem-01062215323D

 44 43  0     1  0  0  0  0  0999 V2000
    2.4488   -3.0448    2.0990 H   0  0  0  0  0  0  0  0  0  0  0  0
    2.2788   -2.0018    2.3640 C   0  0  0  0  0  0  0  0  0  0  0  0
    2.9228   -1.7258    3.1960 H   0  0  0  0  0  0  0  0  0  0  0  0
    1.2358   -1.8618    2.6430 H   0  0  0  0  0  0  0  0  0  0  0  0
    2.6018   -1.1318    1.1730 C   0  0  0  0  0  0  0  0  0  0  0  0
    3.0048   -1.6348    0.1320 O   0  0  0  0  0  0  0  0  0  0  0  0
    2.4088    0.1752    1.3190 N   0  0  0  0  0  0  0  0  0  0  0  0
    2.0708    0.5242    2.2050 H   0  0  0  0  0  0  0  0  0  0  0  0
    2.6638    1.1782    0.2840 C   0  0  1  0  0  0  0  0  0  0  0  0
    3.5640    1.7297    0.5602 H   0  0  0  0  0  0  0  0  0  0  0  0
    2.9261    0.4792   -1.0615 C   0  0  0  0  0  0  0  0  0  0  0  0
    2.9538    1.2332   -1.8490 H   0  0  0  0  0  0  0  0  0  0  0  0
    2.0701   -0.1594   -1.2777 H   0  0  0  0  0  0  0  0  0  0  0  0
    4.4098   -0.5606   -1.2045 S   0  0  0  0  0  0  0  0  0  0  0  0
    1.5040    2.1875    0.1923 C   0  0  0  0  0  0  0  0  0  0  0  0
    1.7108    3.3463   -0.1675 O   0  0  0  0  0  0  0  0  0  0  0  0
    0.2809    1.7440    0.5120 N   0  0  0  0  0  0  0  0  0  0  0  0
    0.1825    0.7825    0.7957 H   0  0  0  0  0  0  0  0  0  0  0  0
   -0.9188    2.5779    0.4777 C   0  0  0  0  0  0  0  0  0  0  0  0
   -0.8172    3.3969    1.1929 H   0  0  0  0  0  0  0  0  0  0  0  0
   -1.0446    3.0035   -0.5195 H   0  0  0  0  0  0  0  0  0  0  0  0
   -1.7994    1.9858    0.7303 H   0  0  0  0  0  0  0  0  0  0  0  0
    7.8365    5.0590   -5.9481 H   0  0  0  0  0  0  0  0  0  0  0  0
    7.1106    4.2481   -5.9850 C   0  0  0  0  0  0  0  0  0  0  0  0
    7.2055    3.7129   -6.9285 H   0  0  0  0  0  0  0  0  0  0  0  0
    6.1050    4.6533   -5.8897 H   0  0  0  0  0  0  0  0  0  0  0  0
    7.3780    3.2980   -4.8413 C   0  0  0  0  0  0  0  0  0  0  0  0
    8.2881    3.5192   -4.0540 O   0  0  0  0  0  0  0  0  0  0  0  0
    6.5749    2.2417   -4.7470 N   0  0  0  0  0  0  0  0  0  0  0  0
    5.8503    2.1172   -5.4390 H   0  0  0  0  0  0  0  0  0  0  0  0
    6.6711    1.2163   -3.7080 C   0  0  1  0  0  0  0  0  0  0  0  0
    7.7236    1.0381   -3.4804 H   0  0  0  0  0  0  0  0  0  0  0  0
    5.9884    1.7554   -2.4432 C   0  0  0  0  0  0  0  0  0  0  0  0
    6.4905    2.6844   -2.1695 H   0  0  0  0  0  0  0  0  0  0  0  0
    4.9544    2.0067   -2.6804 H   0  0  0  0  0  0  0  0  0  0  0  0
    6.0013    0.6969   -0.9713 S   0  0  0  0  0  0  0  0  0  0  0  0
    6.0557   -0.1063   -4.1981 C   0  0  0  0  0  0  0  0  0  0  0  0
    5.1248   -0.0895   -5.0047 O   0  0  0  0  0  0  0  0  0  0  0  0
    6.5774   -1.2436   -3.7206 N   0  0  0  0  0  0  0  0  0  0  0  0
    7.3155   -1.1718   -3.0383 H   0  0  0  0  0  0  0  0  0  0  0  0
    6.1032   -2.5800   -4.0779 C   0  0  0  0  0  0  0  0  0  0  0  0
    5.1516   -2.7775   -3.5815 H   0  0  0  0  0  0  0  0  0  0  0  0
    5.9532   -2.6468   -5.1581 H   0  0  0  0  0  0  0  0  0  0  0  0
    6.8306   -3.3322   -3.7722 H   0  0  0  0  0  0  0  0  0  0  0  0
  5  6  2  0  0  0  0
  5  7  1  0  0  0  0
  2  3  1  0  0  0  0
  2  4  1  0  0  0  0
  2  5  1  0  0  0  0
  1  2  1  0  0  0  0
 15 16  2  0  0  0  0
 15 17  1  0  0  0  0
 14 36  1  0  0  0  0
 11 12  1  0  0  0  0
 11 13  1  0  0  0  0
 11 14  1  0  0  0  0
  9 10  1  0  0  0  0
  9 11  1  0  0  0  0
  9 15  1  0  0  0  0
  7  8  1  0  0  0  0
  7  9  1  0  0  0  0
 19 20  1  0  0  0  0
 19 21  1  0  0  0  0
 19 22  1  0  0  0  0
 17 18  1  0  0  0  0
 17 19  1  0  0  0  0
 27 28  2  0  0  0  0
 27 29  1  0  0  0  0
 24 25  1  0  0  0  0
 24 26  1  0  0  0  0
 24 27  1  0  0  0  0
 23 24  1  0  0  0  0
 37 38  2  0  0  0  0
 37 39  1  0  0  0  0
 33 34  1  0  0  0  0
 33 35  1  0  0  0  0
 33 36  1  0  0  0  0
 31 32  1  0  0  0  0
 31 33  1  0  0  0  0
 31 37  1  0  0  0  0
 29 30  1  0  0  0  0
 29 31  1  0  0  0  0
 41 42  1  0  0  0  0
 41 43  1  0  0  0  0
 41 44  1  0  0  0  0
 39 40  1  0  0  0  0
 39 41  1  0  0  0  0
M  END
$$$$
default_name
  -OEChem-01062215323D

 44 43  0     1  0  0  0  0  0999 V2000
    2.4488   -3.0448    2.0990 H   0  0  0  0  0  0  0  0  0  0  0  0
    2.2788   -2.0018    2.3640 C   0  0  0  0  0  0  0  0  0  0  0  0
    2.9228   -1.7258    3.1960 H   0  0  0  0  0  0  0  0  0  0  0  0
    1.2358   -1.8618    2.6430 H   0  0  0  0  0  0  0  0  0  0  0  0
    2.6018   -1.1318    1.1730 C   0  0  0  0  0  0  0  0  0  0  0  0
    3.0048   -1.6348    0.1320 O   0  0  0  0  0  0  0  0  0  0  0  0
    2.4088    0.1752    1.3190 N   0  0  0  0  0  0  0  0  0  0  0  0
    2.0708    0.5242    2.2050 H   0  0  0  0  0  0  0  0  0  0  0  0
    2.6638    1.1782    0.2840 C   0  0  1  0  0  0  0  0  0  0  0  0
    3.5640    1.7297    0.5602 H   0  0  0  0  0  0  0  0  0  0  0  0
    2.9261    0.4792   -1.0615 C   0  0  0  0  0  0  0  0  0  0  0  0
    2.9538    1.2332   -1.8490 H   0  0  0  0  0  0  0  0  0  0  0  0
    2.0701   -0.1594   -1.2777 H   0  0  0  0  0  0  0  0  0  0  0  0
    4.4098   -0.5606   -1.2045 S   0  0  0  0  0  0  0  0  0  0  0  0
    1.5040    2.1875    0.1923 C   0  0  0  0  0  0  0  0  0  0  0  0
    1.6445    3.2475   -0.4175 O   0  0  0  0  0  0  0  0  0  0  0  0
    0.3543    1.8540    0.7937 N   0  0  0  0  0  0  0  0  0  0  0  0
    0.3073    0.9692    1.2730 H   0  0  0  0  0  0  0  0  0  0  0  0
   -0.8348    2.7036    0.7986 C   0  0  0  0  0  0  0  0  0  0  0  0
   -0.6134    3.6419    1.3118 H   0  0  0  0  0  0  0  0  0  0  0  0
   -1.1299    2.9320   -0.2271 H   0  0  0  0  0  0  0  0  0  0  0  0
   -1.6583    2.2004    1.3068 H   0  0  0  0  0  0  0  0  0  0  0  0
    7.8365    5.0590   -5.9481 H   0  0  0  0  0  0  0  0  0  0  0  0
    7.1106    4.2481   -5.9850 C   0  0  0  0  0  0  0  0  0  0  0  0
    7.2055    3.7129   -6.9285 H   0  0  0  0  0  0  0  0  0  0  0  0
    6.1050    4.6533   -5.8897 H   0  0  0  0  0  0  0  0  0  0  0  0
    7.3780    3.2980   -4.8413 C   0  0  0  0  0  0  0  0  0  0  0  0
    8.2881    3.5192   -4.0540 O   0  0  0  0  0  0  0  0  0  0  0  0
    6.5749    2.2417   -4.7470 N   0  0  0  0  0  0  0  0  0  0  0  0
    5.8503    2.1172   -5.4390 H   0  0  0  0  0  0  0  0  0  0  0  0
    6.6711    1.2163   -3.7080 C   0  0  1  0  0  0  0  0  0  0  0  0
    7.7236    1.0381   -3.4804 H   0  0  0  0  0  0  0  0  0  0  0  0
    5.9884    1.7554   -2.4432 C   0  0  0  0  0  0  0  0  0  0  0  0
    6.4905    2.6844   -2.1695 H   0  0  0  0  0  0  0  0  0  0  0  0
    4.9544    2.0067   -2.6804 H   0  0  0  0  0  0  0  0  0  0  0  0
    6.0013    0.6969   -0.9713 S   0  0  0  0  0  0  0  0  0  0  0  0
    6.0557   -0.1063   -4.1981 C   0  0  0  0  0  0  0  0  0  0  0  0
    5.1248   -0.0895   -5.0047 O   0  0  0  0  0  0  0  0  0  0  0  0
    6.5774   -1.2436   -3.7206 N   0  0  0  0  0  0  0  0  0  0  0  0
    7.3155   -1.1718   -3.0383 H   0  0  0  0  0  0  0  0  0  0  0  0
    6.1032   -2.5800   -4.0779 C   0  0  0  0  0  0  0  0  0  0  0  0
    5.1516   -2.7775   -3.5815 H   0  0  0  0  0  0  0  0  0  0  0  0
    5.9532   -2.6468   -5.1581 H   0  0  0  0  0  0  0  0  0  0  0  0
    6.8306   -3.3322   -3.7722 H   0  0  0  0  0  0  0  0  0  0  0  0
  5  6  2  0  0  0  0
  5  7  1  0  0  0  0
  2  3  1  0  0  0  0
  2  4  1  0  0  0  0
  2  5  1  0  0  0  0
  1  2  1  0  0  0  0
 15 16  2  0  0  0  0
 15 17  1  0  0  0  0
 14 36  1  0  0  0  0
 11 12  1  0  0  0  0
 11 13  1  0  0  0  0
 11 14  1  0  0  0  0
  9 10  1  0  0  0  0
  9 11  1  0  0  0  0
  9 15  1  0  0  0  0
  7  8  1  0  0  0  0
  7  9  1  0  0  0  0
 19 20  1  0  0  0  0
 19 21  1  0  0  0  0
 19 22  1  0  0  0  0
 17 18  1  0  0  0  0
 17 19  1  0  0  0  0
 27 28  2  0  0  0  0
 27 29  1  0  0  0  0
 24 25  1  0  0  0  0
 24 26  1  0  0  0  0
 24 27  1  0  0  0  0
 23 24  1  0  0  0  0
 37 38  2  0  0  0  0
 37 39  1  0  0  0  0
 33 34  1  0  0  0  0
 33 35  1  0  0  0  0
 33 36  1  0  0  0  0
 31 32  1  0  0  0  0
 31 33  1  0  0  0  0
 31 37  1  0  0  0  0
 29 30  1  0  0  0  0
 29 31  1  0  0  0  0
 41 42  1  0  0  0  0
 41 43  1  0  0  0  0
 41 44  1  0  0  0  0
 39 40  1  0  0  0  0
 39 41  1  0  0  0  0
M  END
$$$$
default_name
  -OEChem-01062215323D

 44 43  0     1  0  0  0  0  0999 V2000
    2.4488   -3.0448    2.0990 H   0  0  0  0  0  0  0  0  0  0  0  0
    2.2788   -2.0018    2.3640 C   0  0  0  0  0  0  0  0  0  0  0  0
    2.9228   -1.7258    3.1960 H   0  0  0  0  0  0  0  0  0  0  0  0
    1.2358   -1.8618    2.6430 H   0  0  0  0  0  0  0  0  0  0  0  0
    2.6018   -1.1318    1.1730 C   0  0  0  0  0  0  0  0  0  0  0  0
    3.0048   -1.6348    0.1320 O   0  0  0  0  0  0  0  0  0  0  0  0
    2.4088    0.1752    1.3190 N   0  0  0  0  0  0  0  0  0  0  0  0
    2.0708    0.5242    2.2050 H   0  0  0  0  0  0  0  0  0  0  0  0
    2.6638    1.1782    0.2840 C   0  0  1  0  0  0  0  0  0  0  0  0
    3.5640    1.7297    0.5602 H   0  0  0  0  0  0  0  0  0  0  0  0
    2.9261    0.4792   -1.0615 C   0  0  0  0  0  0  0  0  0  0  0  0
    2.9538    1.2332   -1.8490 H   0  0  0  0  0  0  0  0  0  0  0  0
    2.0701   -0.1594   -1.2777 H   0  0  0  0  0  0  0  0  0  0  0  0
    4.4098   -0.5606   -1.2045 S   0  0  0  0  0  0  0  0  0  0  0  0
    1.5040    2.1875    0.1923 C   0  0  0  0  0  0  0  0  0  0  0  0
    1.5366    3.1043   -0.6284 O   0  0  0  0  0  0  0  0  0  0  0  0
    0.4746    2.0139    1.0320 N   0  0  0  0  0  0  0  0  0  0  0  0
    0.5116    1.2407    1.6765 H   0  0  0  0  0  0  0  0  0  0  0  0
   -0.6972    2.8863    1.0699 C   0  0  0  0  0  0  0  0  0  0  0  0
   -0.3926    3.8985    1.3442 H   0  0  0  0  0  0  0  0  0  0  0  0
   -1.1639    2.9212    0.0837 H   0  0  0  0  0  0  0  0  0  0  0  0
   -1.4210    2.5178    1.7980 H   0  0  0  0  0  0  0  0  0  0  0  0
    7.8365    5.0590   -5.9481 H   0  0  0  0  0  0  0  0  0  0  0  0
    7.1106    4.2481   -5.9850 C   0  0  0  0  0  0  0  0  0  0  0  0
    7.2055    3.7129   -6.9285 H   0  0  0  0  0  0  0  0  0  0  0  0
    6.1050    4.6533   -5.8897 H   0  0  0  0  0  0  0  0  0  0  0  0
    7.3780    3.2980   -4.8413 C   0  0  0  0  0  0  0  0  0  0  0  0
    8.2881    3.5192   -4.0540 O   0  0  0  0  0  0  0  0  0  0  0  0
    6.5749    2.2417   -4.7470 N   0  0  0  0  0  0  0  0  0  0  0  0
    5.8503    2.1172   -5.4390 H   0  0  0  0  0  0  0  0  0  0  0  0
    6.6711    1.2163   -3.7080 C   0  0  1  0  0  0  0  0  0  0  0  0
    7.7236    1.0381   -3.4804 H   0  0  0  0  0  0  0  0  0  0  0  0
    5.9884    1.7554   -2.4432 C   0  0  0  0  0  0  0  0  0  0  0  0
    6.4905    2.6844   -2.1695 H   0  0  0  0  0  0  0  0  0  0  0  0
    4.9544    2.0067   -2.6804 H   0  0  0  0  0  0  0  0  0  0  0  0
    6.0013    0.6969   -0.9713 S   0  0  0  0  0  0  0  0  0  0  0  0
    6.0557   -0.1063   -4.1981 C   0  0  0  0  0  0  0  0  0  0  0  0
    5.1248   -0.0895   -5.0047 O   0  0  0  0  0  0  0  0  0  0  0  0
    6.5774   -1.2436   -3.7206 N   0  0  0  0  0  0  0  0  0  0  0  0
    7.3155   -1.1718   -3.0383 H   0  0  0  0  0  0  0  0  0  0  0  0
    6.1032   -2.5800   -4.0779 C   0  0  0  0  0  0  0  0  0  0  0  0
    5.1516   -2.7775   -3.5815 H   0  0  0  0  0  0  0  0  0  0  0  0
    5.9532   -2.6468   -5.1581 H   0  0  0  0  0  0  0  0  0  0  0  0
    6.8306   -3.3322   -3.7722 H   0  0  0  0  0  0  0  0  0  0  0  0
  5  6  2  0  0  0  0
  5  7  1  0  0  0  0
  2  3  1  0  0  0  0
  2  4  1  0  0  0  0
  2  5  1  0  0  0  0
  1  2  1  0  0  0  0
 15 16  2  0  0  0  0
 15 17  1  0  0  0  0
 14 36  1  0  0  0  0
 11 12  1  0  0  0  0
 11 13  1  0  0  0  0
 11 14  1  0  0  0  0
  9 10  1  0  0  0  0
  9 11  1  0  0  0  0
  9 15  1  0  0  0  0
  7  8  1  0  0  0  0
  7  9  1  0  0  0  0
 19 20  1  0  0  0  0
 19 21  1  0  0  0  0
 19 22  1  0  0  0  0
 17 18  1  0  0  0  0
 17 19  1  0  0  0  0
 27 28  2  0  0  0  0
 27 29  1  0  0  0  0
 24 25  1  0  0  0  0
 24 26  1  0  0  0  0
 24 27  1  0  0  0  0
 23 24  1  0  0  0  0
 37 38  2  0  0  0  0
 37 39  1  0  0  0  0
 33 34  1  0  0  0  0
 33 35  1  0  0  0  0
 33 36  1  0  0  0  0
 31 32  1  0  0  0  0
 31 33  1  0  0  0  0
 31 37  1  0  0  0  0
 29 30  1  0  0  0  0
 29 31  1  0  0  0  0
 41 42  1  0  0  0  0
 41 43  1  0  0  0  0
 41 44  1  0  0  0  0
 39 40  1  0  0  0  0
 39 41  1  0  0  0  0
M  END
$$$$
default_name
  -OEChem-01062215323D

 44 43  0     1  0  0  0  0  0999 V2000
    2.4488   -3.0448    2.0990 H   0  0  0  0  0  0  0  0  0  0  0  0
    2.2788   -2.0018    2.3640 C   0  0  0  0  0  0  0  0  0  0  0  0
    2.9228   -1.7258    3.1960 H   0  0  0  0  0  0  0  0  0  0  0  0
    1.2358   -1.8618    2.6430 H   0  0  0  0  0  0  0  0  0  0  0  0
    2.6018   -1.1318    1.1730 C   0  0  0  0  0  0  0  0  0  0  0  0
    3.0048   -1.6348    0.1320 O   0  0  0  0  0  0  0  0  0  0  0  0
    2.4088    0.1752    1.3190 N   0  0  0  0  0  0  0  0  0  0  0  0
    2.0708    0.5242    2.2050 H   0  0  0  0  0  0  0  0  0  0  0  0
    2.6638    1.1782    0.2840 C   0  0  1  0  0  0  0  0  0  0  0  0
    3.5640    1.7297    0.5602 H   0  0  0  0  0  0  0  0  0  0  0  0
    2.9261    0.4792   -1.0615 C   0  0  0  0  0  0  0  0  0  0  0  0
    2.9538    1.2332   -1.8490 H   0  0  0  0  0  0  0  0  0  0  0  0
    2.0701   -0.1594   -1.2777 H   0  0  0  0  0  0  0  0  0  0  0  0
    4.4098   -0.5606   -1.2045 S   0  0  0  0  0  0  0  0  0  0  0  0
    1.5040    2.1875    0.1923 C   0  0  0  0  0  0  0  0  0  0  0  0
    1.3944    2.9266   -0.7859 O   0  0  0  0  0  0  0  0  0  0  0  0
    0.6338    2.2130    1.2105 N   0  0  0  0  0  0  0  0  0  0  0  0
    0.7816    1.5783    1.9787 H   0  0  0  0  0  0  0  0  0  0  0  0
   -0.5156    3.1135    1.2729 C   0  0  0  0  0  0  0  0  0  0  0  0
   -0.1699    4.1493    1.2882 H   0  0  0  0  0  0  0  0  0  0  0  0
   -1.1441    2.9719    0.3918 H   0  0  0  0  0  0  0  0  0  0  0  0
   -1.1035    2.9164    2.1703 H   0  0  0  0  0  0  0  0  0  0  0  0
    7.8365    5.0590   -5.9481 H   0  0  0  0  0  0  0  0  0  0  0  0
    7.1106    4.2481   -5.9850 C   0  0  0  0  0  0  0  0  0  0  0  0
    7.2055    3.7129   -6.9285 H   0  0  0  0  0  0  0  0  0  0  0  0
    6.1050    4.6533   -5.8897 H   0  0  0  0  0  0  0  0  0  0  0  0
    7.3780    3.2980   -4.8413 C   0  0  0  0  0  0  0  0  0  0  0  0
    8.2881    3.5192   -4.0540 O   0  0  0  0  0  0  0  0  0  0  0  0
    6.5749    2.2417   -4.7470 N   0  0  0  0  0  0  0  0  0  0  0  0
    5.8503    2.1172   -5.4390 H   0  0  0  0  0  0  0  0  0  0  0  0
    6.6711    1.2163   -3.7080 C   0  0  1  0  0  0  0  0  0  0  0  0
    7.7236    1.0381   -3.4804 H   0  0  0  0  0  0  0  0  0  0  0  0
    5.9884    1.7554   -2.4432 C   0  0  0  0  0  0  0  0  0  0  0  0
    6.4905    2.6844   -2.1695 H   0  0  0  0  0  0  0  0  0  0  0  0
    4.9544    2.0067   -2.6804 H   0  0  0  0  0  0  0  0  0  0  0  0
    6.0013    0.6969   -0.9713 S   0  0  0  0  0  0  0  0  0  0  0  0
    6.0557   -0.1063   -4.1981 C   0  0  0  0  0  0  0  0  0  0  0  0
    5.1248   -0.0895   -5.0047 O   0  0  0  0  0  0  0  0  0  0  0  0
    6.5774   -1.2436   -3.7206 N   0  0  0  0  0  0  0  0  0  0  0  0
    7.3155   -1.1718   -3.0383 H   0  0  0  0  0  0  0  0  0  0  0  0
    6.1032   -2.5800   -4.0779 C   0  0  0  0  0  0  0  0  0  0  0  0
    5.1516   -2.7775   -3.5815 H   0  0  0  0  0  0  0  0  0  0  0  0
    5.9532   -2.6468   -5.1581 H   0  0  0  0  0  0  0  0  0  0  0  0
    6.8306   -3.3322   -3.7722 H   0  0  0  0  0  0  0  0  0  0  0  0
  5  6  2  0  0  0  0
  5  7  1  0  0  0  0
  2  3  1  0  0  0  0
  2  4  1  0  0  0  0
  2  5  1  0  0  0  0
  1  2  1  0  0  0  0
 15 16  2  0  0  0  0
 15 17  1  0  0  0  0
 14 36  1  0  0  0  0
 11 12  1  0  0  0  0
 11 13  1  0  0  0  0
 11 14  1  0  0  0  0
  9 10  1  0  0  0  0
  9 11  1  0  0  0  0
  9 15  1  0  0  0  0
  7  8  1  0  0  0  0
  7  9  1  0  0  0  0
 19 20  1  0  0  0  0
 19 21  1  0  0  0  0
 19 22  1  0  0  0  0
 17 18  1  0  0  0  0
 17 19  1  0  0  0  0
 27 28  2  0  0  0  0
 27 29  1  0  0  0  0
 24 25  1  0  0  0  0
 24 26  1  0  0  0  0
 24 27  1  0  0  0  0
 23 24  1  0  0  0  0
 37 38  2  0  0  0  0
 37 39  1  0  0  0  0
 33 34  1  0  0  0  0
 33 35  1  0  0  0  0
 33 36  1  0  0  0  0
 31 32  1  0  0  0  0
 31 33  1  0  0  0  0
 31 37  1  0  0  0  0
 29 30  1  0  0  0  0
 29 31  1  0  0  0  0
 41 42  1  0  0  0  0
 41 43  1  0  0  0  0
 41 44  1  0  0  0  0
 39 40  1  0  0  0  0
 39 41  1  0  0  0  0
M  END
$$$$
default_name
  -OEChem-01062215323D

 44 43  0     1  0  0  0  0  0999 V2000
    2.4488   -3.0448    2.0990 H   0  0  0  0  0  0  0  0  0  0  0  0
    2.2788   -2.0018    2.3640 C   0  0  0  0  0  0  0  0  0  0  0  0
    2.9228   -1.7258    3.1960 H   0  0  0  0  0  0  0  0  0  0  0  0
    1.2358   -1.8618    2.6430 H   0  0  0  0  0  0  0  0  0  0  0  0
    2.6018   -1.1318    1.1730 C   0  0  0  0  0  0  0  0  0  0  0  0
    3.0048   -1.6348    0.1320 O   0  0  0  0  0  0  0  0  0  0  0  0
    2.4088    0.1752    1.3190 N   0  0  0  0  0  0  0  0  0  0  0  0
    2.0708    0.5242    2.2050 H   0  0  0  0  0  0  0  0  0  0  0  0
    2.6638    1.1782    0.2840 C   0  0  1  0  0  0  0  0  0  0  0  0
    3.5640    1.7297    0.5602 H   0  0  0  0  0  0  0  0  0  0  0  0
    2.9261    0.4792   -1.0615 C   0  0  0  0  0  0  0  0  0  0  0  0
    2.9538    1.2332   -1.8490 H   0  0  0  0  0  0  0  0  0  0  0  0
    2.0701   -0.1594   -1.2777 H   0  0  0  0  0  0  0  0  0  0  0  0
    4.4098   -0.5606   -1.2045 S   0  0  0  0  0  0  0  0  0  0  0  0
    1.5040    2.1875    0.1923 C   0  0  0  0  0  0  0  0  0  0  0  0
    1.2276    2.7264   -0.8793 O   0  0  0  0  0  0  0  0  0  0  0  0
    0.8208    2.4377    1.3172 N   0  0  0  0  0  0  0  0  0  0  0  0
    1.0988    1.9593    2.1590 H   0  0  0  0  0  0  0  0  0  0  0  0
   -0.3021    3.3698    1.3939 C   0  0  0  0  0  0  0  0  0  0  0  0
    0.0396    4.3773    1.1473 H   0  0  0  0  0  0  0  0  0  0  0  0
   -1.0720    3.0806    0.6762 H   0  0  0  0  0  0  0  0  0  0  0  0
   -0.7275    3.3691    2.3983 H   0  0  0  0  0  0  0  0  0  0  0  0
    7.8365    5.0590   -5.9481 H   0  0  0  0  0  0  0  0  0  0  0  0
    7.1106    4.2481   -5.9850 C   0  0  0  0  0  0  0  0  0  0  0  0
    7.2055    3.7129   -6.9285 H   0  0  0  0  0  0  0  0  0  0  0  0
    6.1050    4.6533   -5.8897 H   0  0  0  0  0  0  0  0  0  0  0  0
    7.3780    3.2980   -4.8413 C   0  0  0  0  0  0  0  0  0  0  0  0
    8.2881    3.5192   -4.0540 O   0  0  0  0  0  0  0  0  0  0  0  0
    6.5749    2.2417   -4.7470 N   0  0  0  0  0  0  0  0  0  0  0  0
    5.8503    2.1172   -5.4390 H   0  0  0  0  0  0  0  0  0  0  0  0
    6.6711    1.2163   -3.7080 C   0  0  1  0  0  0  0  0  0  0  0  0
    7.7236    1.0381   -3.4804 H   0  0  0  0  0  0  0  0  0  0  0  0
    5.9884    1.7554   -2.4432 C   0  0  0  0  0  0  0  0  0  0  0  0
    6.4905    2.6844   -2.1695 H   0  0  0  0  0  0  0  0  0  0  0  0
    4.9544    2.0067   -2.6804 H   0  0  0  0  0  0  0  0  0  0  0  0
    6.0013    0.6969   -0.9713 S   0  0  0  0  0  0  0  0  0  0  0  0
    6.0557   -0.1063   -4.1981 C   0  0  0  0  0  0  0  0  0  0  0  0
    5.1248   -0.0895   -5.0047 O   0  0  0  0  0  0  0  0  0  0  0  0
    6.5774   -1.2436   -3.7206 N   0  0  0  0  0  0  0  0  0  0  0  0
    7.3155   -1.1718   -3.0383 H   0  0  0  0  0  0  0  0  0  0  0  0
    6.1032   -2.5800   -4.0779 C   0  0  0  0  0  0  0  0  0  0  0  0
    5.1516   -2.7775   -3.5815 H   0  0  0  0  0  0  0  0  0  0  0  0
    5.9532   -2.6468   -5.1581 H   0  0  0  0  0  0  0  0  0  0  0  0
    6.8306   -3.3322   -3.7722 H   0  0  0  0  0  0  0  0  0  0  0  0
  5  6  2  0  0  0  0
  5  7  1  0  0  0  0
  2  3  1  0  0  0  0
  2  4  1  0  0  0  0
  2  5  1  0  0  0  0
  1  2  1  0  0  0  0
 15 16  2  0  0  0  0
 15 17  1  0  0  0  0
 14 36  1  0  0  0  0
 11 12  1  0  0  0  0
 11 13  1  0  0  0  0
 11 14  1  0  0  0  0
  9 10  1  0  0  0  0
  9 11  1  0  0  0  0
  9 15  1  0  0  0  0
  7  8  1  0  0  0  0
  7  9  1  0  0  0  0
 19 20  1  0  0  0  0
 19 21  1  0  0  0  0
 19 22  1  0  0  0  0
 17 18  1  0  0  0  0
 17 19  1  0  0  0  0
 27 28  2  0  0  0  0
 27 29  1  0  0  0  0
 24 25  1  0  0  0  0
 24 26  1  0  0  0  0
 24 27  1  0  0  0  0
 23 24  1  0  0  0  0
 37 38  2  0  0  0  0
 37 39  1  0  0  0  0
 33 34  1  0  0  0  0
 33 35  1  0  0  0  0
 33 36  1  0  0  0  0
 31 32  1  0  0  0  0
 31 33  1  0  0  0  0
 31 37  1  0  0  0  0
 29 30  1  0  0  0  0
 29 31  1  0  0  0  0
 41 42  1  0  0  0  0
 41 43  1  0  0  0  0
 41 44  1  0  0  0  0
 39 40  1  0  0  0  0
 39 41  1  0  0  0  0
M  END
$$$$
default_name
  -OEChem-01062215323D

 44 43  0     1  0  0  0  0  0999 V2000
    2.4488   -3.0448    2.0990 H   0  0  0  0  0  0  0  0  0  0  0  0
    2.2788   -2.0018    2.3640 C   0  0  0  0  0  0  0  0  0  0  0  0
    2.9228   -1.7258    3.1960 H   0  0  0  0  0  0  0  0  0  0  0  0
    1.2358   -1.8618    2.6430 H   0  0  0  0  0  0  0  0  0  0  0  0
    2.6018   -1.1318    1.1730 C   0  0  0  0  0  0  0  0  0  0  0  0
    3.0048   -1.6348    0.1320 O   0  0  0  0  0  0  0  0  0  0  0  0
    2.4088    0.1752    1.3190 N   0  0  0  0  0  0  0  0  0  0  0  0
    2.0708    0.5242    2.2050 H   0  0  0  0  0  0  0  0  0  0  0  0
    2.6638    1.1782    0.2840 C   0  0  1  0  0  0  0  0  0  0  0  0
    3.5640    1.7297    0.5602 H   0  0  0  0  0  0  0  0  0  0  0  0
    2.9261    0.4792   -1.0615 C   0  0  0  0  0  0  0  0  0  0  0  0
    2.9538    1.2332   -1.8490 H   0  0  0  0  0  0  0  0  0  0  0  0
    2.0701   -0.1594   -1.2777 H   0  0  0  0  0  0  0  0  0  0  0  0
    4.4098   -0.5606   -1.2045 S   0  0  0  0  0  0  0  0  0  0  0  0
    1.5040    2.1875    0.1923 C   0  0  0  0  0  0  0  0  0  0  0  0
    1.0475    2.5175   -0.9022 O   0  0  0  0  0  0  0  0  0  0  0  0
    1.0231    2.6726    1.3448 N   0  0  0  0  0  0  0  0  0  0  0  0
    1.4417    2.3575    2.2051 H   0  0  0  0  0  0  0  0  0  0  0  0
   -0.0715    3.6376    1.4247 C   0  0  0  0  0  0  0  0  0  0  0  0
    0.2215    4.5668    0.9313 H   0  0  0  0  0  0  0  0  0  0  0  0
   -0.9524    3.2400    0.9175 H   0  0  0  0  0  0  0  0  0  0  0  0
   -0.3188    3.8451    2.4666 H   0  0  0  0  0  0  0  0  0  0  0  0
    7.8365    5.0590   -5.9481 H   0  0  0  0  0  0  0  0  0  0  0  0
    7.1106    4.2481   -5.9850 C   0  0  0  0  0  0  0  0  0  0  0  0
    7.2055    3.7129   -6.9285 H   0  0  0  0  0  0  0  0  0  0  0  0
    6.1050    4.6533   -5.8897 H   0  0  0  0  0  0  0  0  0  0  0  0
    7.3780    3.2980   -4.8413 C   0  0  0  0  0  0  0  0  0  0  0  0
    8.2881    3.5192   -4.0540 O   0  0  0  0  0  0  0  0  0  0  0  0
    6.5749    2.2417   -4.7470 N   0  0  0  0  0  0  0  0  0  0  0  0
    5.8503    2.1172   -5.4390 H   0  0  0  0  0  0  0  0  0  0  0  0
    6.6711    1.2163   -3.7080 C   0  0  1  0  0  0  0  0  0  0  0  0
    7.7236    1.0381   -3.4804 H   0  0  0  0  0  0  0  0  0  0  0  0
    5.9884    1.7554   -2.4432 C   0  0  0  0  0  0  0  0  0  0  0  0
    6.4905    2.6844   -2.1695 H   0  0  0  0  0  0  0  0  0  0  0  0
    4.9544    2.0067   -2.6804 H   0  0  0  0  0  0  0  0  0  0  0  0
    6.0013    0.6969   -0.9713 S   0  0  0  0  0  0  0  0  0  0  0  0
    6.0557   -0.1063   -4.1981 C   0  0  0  0  0  0  0  0  0  0  0  0
    5.1248   -0.0895   -5.0047 O   0  0  0  0  0  0  0  0  0  0  0  0
    6.5774   -1.2436   -3.7206 N   0  0  0  0  0  0  0  0  0  0  0  0
    7.3155   -1.1718   -3.0383 H   0  0  0  0  0  0  0  0  0  0  0  0
    6.1032   -2.5800   -4.0779 C   0  0  0  0  0  0  0  0  0  0  0  0
    5.1516   -2.7775   -3.5815 H   0  0  0  0  0  0  0  0  0  0  0  0
    5.9532   -2.6468   -5.1581 H   0  0  0  0  0  0  0  0  0  0  0  0
    6.8306   -3.3322   -3.7722 H   0  0  0  0  0  0  0  0  0  0  0  0
  5  6  2  0  0  0  0
  5  7  1  0  0  0  0
  2  3  1  0  0  0  0
  2  4  1  0  0  0  0
  2  5  1  0  0  0  0
  1  2  1  0  0  0  0
 15 16  2  0  0  0  0
 15 17  1  0  0  0  0
 14 36  1  0  0  0  0
 11 12  1  0  0  0  0
 11 13  1  0  0  0  0
 11 14  1  0  0  0  0
  9 10  1  0  0  0  0
  9 11  1  0  0  0  0
  9 15  1  0  0  0  0
  7  8  1  0  0  0  0
  7  9  1  0  0  0  0
 19 20  1  0  0  0  0
 19 21  1  0  0  0  0
 19 22  1  0  0  0  0
 17 18  1  0  0  0  0
 17 19  1  0  0  0  0
 27 28  2  0  0  0  0
 27 29  1  0  0  0  0
 24 25  1  0  0  0  0
 24 26  1  0  0  0  0
 24 27  1  0  0  0  0
 23 24  1  0  0  0  0
 37 38  2  0  0  0  0
 37 39  1  0  0  0  0
 33 34  1  0  0  0  0
 33 35  1  0  0  0  0
 33 36  1  0  0  0  0
 31 32  1  0  0  0  0
 31 33  1  0  0  0  0
 31 37  1  0  0  0  0
 29 30  1  0  0  0  0
 29 31  1  0  0  0  0
 41 42  1  0  0  0  0
 41 43  1  0  0  0  0
 41 44  1  0  0  0  0
 39 40  1  0  0  0  0
 39 41  1  0  0  0  0
M  END
$$$$
default_name
  -OEChem-01062215323D

 44 43  0     1  0  0  0  0  0999 V2000
    2.4488   -3.0448    2.0990 H   0  0  0  0  0  0  0  0  0  0  0  0
    2.2788   -2.0018    2.3640 C   0  0  0  0  0  0  0  0  0  0  0  0
    2.9228   -1.7258    3.1960 H   0  0  0  0  0  0  0  0  0  0  0  0
    1.2358   -1.8618    2.6430 H   0  0  0  0  0  0  0  0  0  0  0  0
    2.6018   -1.1318    1.1730 C   0  0  0  0  0  0  0  0  0  0  0  0
    3.0048   -1.6348    0.1320 O   0  0  0  0  0  0  0  0  0  0  0  0
    2.4088    0.1752    1.3190 N   0  0  0  0  0  0  0  0  0  0  0  0
    2.0708    0.5242    2.2050 H   0  0  0  0  0  0  0  0  0  0  0  0
    2.6638    1.1782    0.2840 C   0  0  1  0  0  0  0  0  0  0  0  0
    3.5640    1.7297    0.5602 H   0  0  0  0  0  0  0  0  0  0  0  0
    2.9261    0.4792   -1.0615 C   0  0  0  0  0  0  0  0  0  0  0  0
    2.9538    1.2332   -1.8490 H   0  0  0  0  0  0  0  0  0  0  0  0
    2.0701   -0.1594   -1.2777 H   0  0  0  0  0  0  0  0  0  0  0  0
    4.4098   -0.5606   -1.2045 S   0  0  0  0  0  0  0  0  0  0  0  0
    1.5040    2.1875    0.1923 C   0  0  0  0  0  0  0  0  0  0  0  0
    0.8665    2.3139   -0.8531 O   0  0  0  0  0  0  0  0  0  0  0  0
    1.2267    2.9017    1.2913 N   0  0  0  0  0  0  0  0  0  0  0  0
    1.7868    2.7458    2.1139 H   0  0  0  0  0  0  0  0  0  0  0  0
    0.1606    3.8987    1.3631 C   0  0  0  0  0  0  0  0  0  0  0  0
    0.3636    4.7049    0.6549 H   0  0  0  0  0  0  0  0  0  0  0  0
   -0.7936    3.4390    1.0992 H   0  0  0  0  0  0  0  0  0  0  0  0
    0.0950    4.3118    2.3705 H   0  0  0  0  0  0  0  0  0  0  0  0
    7.8365    5.0590   -5.9481 H   0  0  0  0  0  0  0  0  0  0  0  0
    7.1106    4.2481   -5.9850 C   0  0  0  0  0  0  0  0  0  0  0  0
    7.2055    3.7129   -6.9285 H   0  0  0  0  0  0  0  0  0  0  0  0
    6.1050    4.6533   -5.8897 H   0  0  0  0  0  0  0  0  0  0  0  0
    7.3780    3.2980   -4.8413 C   0  0  0  0  0  0  0  0  0  0  0  0
    8.2881    3.5192   -4.0540 O   0  0  0  0  0  0  0  0  0  0  0  0
    6.5749    2.2417   -4.7470 N   0  0  0  0  0  0  0  0  0  0  0  0
    5.8503    2.1172   -5.4390 H   0  0  0  0  0  0  0  0  0  0  0  0
    6.6711    1.2163   -3.7080 C   0  0  1  0  0  0  0  0  0  0  0  0
    7.7236    1.0381   -3.4804 H   0  0  0  0  0  0  0  0  0  0  0  0
    5.9884    1.7554   -2.4432 C   0  0  0  0  0  0  0  0  0  0  0  0
    6.4905    2.6844   -2.1695 H   0  0  0  0  0  0  0  0  0  0  0  0
    4.9544    2.0067   -2.6804 H   0  0  0  0  0  0  0  0  0  0  0  0
    6.0013    0.6969   -0.9713 S   0  0  0  0  0  0  0  0  0  0  0  0
    6.0557   -0.1063   -4.1981 C   0  0  0  0  0  0  0  0  0  0  0  0
    5.1248   -0.0895   -5.0047 O   0  0  0  0  0  0  0  0  0  0  0  0
    6.5774   -1.2436   -3.7206 N   0  0  0  0  0  0  0  0  0  0  0  0
    7.3155   -1.1718   -3.0383 H   0  0  0  0  0  0  0  0  0  0  0  0
    6.1032   -2.5800   -4.0779 C   0  0  0  0  0  0  0  0  0  0  0  0
    5.1516   -2.7775   -3.5815 H   0  0  0  0  0  0  0  0  0  0  0  0
    5.9532   -2.6468   -5.1581 H   0  0  0  0  0  0  0  0  0  0  0  0
    6.8306   -3.3322   -3.7722 H   0  0  0  0  0  0  0  0  0  0  0  0
  5  6  2  0  0  0  0
  5  7  1  0  0  0  0
  2  3  1  0  0  0  0
  2  4  1  0  0  0  0
  2  5  1  0  0  0  0
  1  2  1  0  0  0  0
 15 16  2  0  0  0  0
 15 17  1  0  0  0  0
 14 36  1  0  0  0  0
 11 12  1  0  0  0  0
 11 13  1  0  0  0  0
 11 14  1  0  0  0  0
  9 10  1  0  0  0  0
  9 11  1  0  0  0  0
  9 15  1  0  0  0  0
  7  8  1  0  0  0  0
  7  9  1  0  0  0  0
 19 20  1  0  0  0  0
 19 21  1  0  0  0  0
 19 22  1  0  0  0  0
 17 18  1  0  0  0  0
 17 19  1  0  0  0  0
 27 28  2  0  0  0  0
 27 29  1  0  0  0  0
 24 25  1  0  0  0  0
 24 26  1  0  0  0  0
 24 27  1  0  0  0  0
 23 24  1  0  0  0  0
 37 38  2  0  0  0  0
 37 39  1  0  0  0  0
 33 34  1  0  0  0  0
 33 35  1  0  0  0  0
 33 36  1  0  0  0  0
 31 32  1  0  0  0  0
 31 33  1  0  0  0  0
 31 37  1  0  0  0  0
 29 30  1  0  0  0  0
 29 31  1  0  0  0  0
 41 42  1  0  0  0  0
 41 43  1  0  0  0  0
 41 44  1  0  0  0  0
 39 40  1  0  0  0  0
 39 41  1  0  0  0  0
M  END
$$$$
default_name
  -OEChem-01062215323D

 44 43  0     1  0  0  0  0  0999 V2000
    2.4488   -3.0448    2.0990 H   0  0  0  0  0  0  0  0  0  0  0  0
    2.2788   -2.0018    2.3640 C   0  0  0  0  0  0  0  0  0  0  0  0
    2.9228   -1.7258    3.1960 H   0  0  0  0  0  0  0  0  0  0  0  0
    1.2358   -1.8618    2.6430 H   0  0  0  0  0  0  0  0  0  0  0  0
    2.6018   -1.1318    1.1730 C   0  0  0  0  0  0  0  0  0  0  0  0
    3.0048   -1.6348    0.1320 O   0  0  0  0  0  0  0  0  0  0  0  0
    2.4088    0.1752    1.3190 N   0  0  0  0  0  0  0  0  0  0  0  0
    2.0708    0.5242    2.2050 H   0  0  0  0  0  0  0  0  0  0  0  0
    2.6638    1.1782    0.2840 C   0  0  1  0  0  0  0  0  0  0  0  0
    3.5640    1.7297    0.5602 H   0  0  0  0  0  0  0  0  0  0  0  0
    2.9261    0.4792   -1.0615 C   0  0  0  0  0  0  0  0  0  0  0  0
    2.9538    1.2332   -1.8490 H   0  0  0  0  0  0  0  0  0  0  0  0
    2.0701   -0.1594   -1.2777 H   0  0  0  0  0  0  0  0  0  0  0  0
    4.4098   -0.5606   -1.2045 S   0  0  0  0  0  0  0  0  0  0  0  0
    1.5040    2.1875    0.1923 C   0  0  0  0  0  0  0  0  0  0  0  0
    0.6968    2.1296   -0.7353 O   0  0  0  0  0  0  0  0  0  0  0  0
    1.4179    3.1095    1.1604 N   0  0  0  0  0  0  0  0  0  0  0  0
    2.1107    3.0978    1.8915 H   0  0  0  0  0  0  0  0  0  0  0  0
    0.3784    4.1354    1.2134 C   0  0  0  0  0  0  0  0  0  0  0  0
    0.4561    4.7822    0.3369 H   0  0  0  0  0  0  0  0  0  0  0  0
   -0.6062    3.6643    1.2090 H   0  0  0  0  0  0  0  0  0  0  0  0
    0.4856    4.7376    2.1165 H   0  0  0  0  0  0  0  0  0  0  0  0
    7.8365    5.0590   -5.9481 H   0  0  0  0  0  0  0  0  0  0  0  0
    7.1106    4.2481   -5.9850 C   0  0  0  0  0  0  0  0  0  0  0  0
    7.2055    3.7129   -6.9285 H   0  0  0  0  0  0  0  0  0  0  0  0
    6.1050    4.6533   -5.8897 H   0  0  0  0  0  0  0  0  0  0  0  0
    7.3780    3.2980   -4.8413 C   0  0  0  0  0  0  0  0  0  0  0  0
    8.2881    3.5192   -4.0540 O   0  0  0  0  0  0  0  0  0  0  0  0
    6.5749    2.2417   -4.7470 N   0  0  0  0  0  0  0  0  0  0  0  0
    5.8503    2.1172   -5.4390 H   0  0  0  0  0  0  0  0  0  0  0  0
    6.6711    1.2163   -3.7080 C   0  0  1  0  0  0  0  0  0  0  0  0
    7.7236    1.0381   -3.4804 H   0  0  0  0  0  0  0  0  0  0  0  0
    5.9884    1.7554   -2.4432 C   0  0  0  0  0  0  0  0  0  0  0  0
    6.4905    2.6844   -2.1695 H   0  0  0  0  0  0  0  0  0  0  0  0
    4.9544    2.0067   -2.6804 H   0  0  0  0  0  0  0  0  0  0  0  0
    6.0013    0.6969   -0.9713 S   0  0  0  0  0  0  0  0  0  0  0  0
    6.0557   -0.1063   -4.1981 C   0  0  0  0  0  0  0  0  0  0  0  0
    5.1248   -0.0895   -5.0047 O   0  0  0  0  0  0  0  0  0  0  0  0
    6.5774   -1.2436   -3.7206 N   0  0  0  0  0  0  0  0  0  0  0  0
    7.3155   -1.1718   -3.0383 H   0  0  0  0  0  0  0  0  0  0  0  0
    6.1032   -2.5800   -4.0779 C   0  0  0  0  0  0  0  0  0  0  0  0
    5.1516   -2.7775   -3.5815 H   0  0  0  0  0  0  0  0  0  0  0  0
    5.9532   -2.6468   -5.1581 H   0  0  0  0  0  0  0  0  0  0  0  0
    6.8306   -3.3322   -3.7722 H   0  0  0  0  0  0  0  0  0  0  0  0
  5  6  2  0  0  0  0
  5  7  1  0  0  0  0
  2  3  1  0  0  0  0
  2  4  1  0  0  0  0
  2  5  1  0  0  0  0
  1  2  1  0  0  0  0
 15 16  2  0  0  0  0
 15 17  1  0  0  0  0
 14 36  1  0  0  0  0
 11 12  1  0  0  0  0
 11 13  1  0  0  0  0
 11 14  1  0  0  0  0
  9 10  1  0  0  0  0
  9 11  1  0  0  0  0
  9 15  1  0  0  0  0
  7  8  1  0  0  0  0
  7  9  1  0  0  0  0
 19 20  1  0  0  0  0
 19 21  1  0  0  0  0
 19 22  1  0  0  0  0
 17 18  1  0  0  0  0
 17 19  1  0  0  0  0
 27 28  2  0  0  0  0
 27 29  1  0  0  0  0
 24 25  1  0  0  0  0
 24 26  1  0  0  0  0
 24 27  1  0  0  0  0
 23 24  1  0  0  0  0
 37 38  2  0  0  0  0
 37 39  1  0  0  0  0
 33 34  1  0  0  0  0
 33 35  1  0  0  0  0
 33 36  1  0  0  0  0
 31 32  1  0  0  0  0
 31 33  1  0  0  0  0
 31 37  1  0  0  0  0
 29 30  1  0  0  0  0
 29 31  1  0  0  0  0
 41 42  1  0  0  0  0
 41 43  1  0  0  0  0
 41 44  1  0  0  0  0
 39 40  1  0  0  0  0
 39 41  1  0  0  0  0
M  END
$$$$
default_name
  -OEChem-01062215323D

 44 43  0     1  0  0  0  0  0999 V2000
    2.4488   -3.0448    2.0990 H   0  0  0  0  0  0  0  0  0  0  0  0
    2.2788   -2.0018    2.3640 C   0  0  0  0  0  0  0  0  0  0  0  0
    2.9228   -1.7258    3.1960 H   0  0  0  0  0  0  0  0  0  0  0  0
    1.2358   -1.8618    2.6430 H   0  0  0  0  0  0  0  0  0  0  0  0
    2.6018   -1.1318    1.1730 C   0  0  0  0  0  0  0  0  0  0  0  0
    3.0048   -1.6348    0.1320 O   0  0  0  0  0  0  0  0  0  0  0  0
    2.4088    0.1752    1.3190 N   0  0  0  0  0  0  0  0  0  0  0  0
    2.0708    0.5242    2.2050 H   0  0  0  0  0  0  0  0  0  0  0  0
    2.6638    1.1782    0.2840 C   0  0  1  0  0  0  0  0  0  0  0  0
    3.5640    1.7297    0.5602 H   0  0  0  0  0  0  0  0  0  0  0  0
    2.9261    0.4792   -1.0615 C   0  0  0  0  0  0  0  0  0  0  0  0
    2.9538    1.2332   -1.8490 H   0  0  0  0  0  0  0  0  0  0  0  0
    2.0701   -0.1594   -1.2777 H   0  0  0  0  0  0  0  0  0  0  0  0
    4.4098   -0.5606   -1.2045 S   0  0  0  0  0  0  0  0  0  0  0  0
    1.5040    2.1875    0.1923 C   0  0  0  0  0  0  0  0  0  0  0  0
    0.5501    1.9772   -0.5568 O   0  0  0  0  0  0  0  0  0  0  0  0
    1.5835    3.2817    0.9611 N   0  0  0  0  0  0  0  0  0  0  0  0
    2.3913    3.3894    1.5532 H   0  0  0  0  0  0  0  0  0  0  0  0
    0.5670    4.3314    0.9856 C   0  0  0  0  0  0  0  0  0  0  0  0
    0.4926    4.7936   -0.0011 H   0  0  0  0  0  0  0  0  0  0  0  0
   -0.4032    3.9004    1.2393 H   0  0  0  0  0  0  0  0  0  0  0  0
    0.8263    5.0933    1.7219 H   0  0  0  0  0  0  0  0  0  0  0  0
    7.8365    5.0590   -5.9481 H   0  0  0  0  0  0  0  0  0  0  0  0
    7.1106    4.2481   -5.9850 C   0  0  0  0  0  0  0  0  0  0  0  0
    7.2055    3.7129   -6.9285 H   0  0  0  0  0  0  0  0  0  0  0  0
    6.1050    4.6533   -5.8897 H   0  0  0  0  0  0  0  0  0  0  0  0
    7.3780    3.2980   -4.8413 C   0  0  0  0  0  0  0  0  0  0  0  0
    8.2881    3.5192   -4.0540 O   0  0  0  0  0  0  0  0  0  0  0  0
    6.5749    2.2417   -4.7470 N   0  0  0  0  0  0  0  0  0  0  0  0
    5.8503    2.1172   -5.4390 H   0  0  0  0  0  0  0  0  0  0  0  0
    6.6711    1.2163   -3.7080 C   0  0  1  0  0  0  0  0  0  0  0  0
    7.7236    1.0381   -3.4804 H   0  0  0  0  0  0  0  0  0  0  0  0
    5.9884    1.7554   -2.4432 C   0  0  0  0  0  0  0  0  0  0  0  0
    6.4905    2.6844   -2.1695 H   0  0  0  0  0  0  0  0  0  0  0  0
    4.9544    2.0067   -2.6804 H   0  0  0  0  0  0  0  0  0  0  0  0
    6.0013    0.6969   -0.9713 S   0  0  0  0  0  0  0  0  0  0  0  0
    6.0557   -0.1063   -4.1981 C   0  0  0  0  0  0  0  0  0  0  0  0
    5.1248   -0.0895   -5.0047 O   0  0  0  0  0  0  0  0  0  0  0  0
    6.5774   -1.2436   -3.7206 N   0  0  0  0  0  0  0  0  0  0  0  0
    7.3155   -1.1718   -3.0383 H   0  0  0  0  0  0  0  0  0  0  0  0
    6.1032   -2.5800   -4.0779 C   0  0  0  0  0  0  0  0  0  0  0  0
    5.1516   -2.7775   -3.5815 H   0  0  0  0  0  0  0  0  0  0  0  0
    5.9532   -2.6468   -5.1581 H   0  0  0  0  0  0  0  0  0  0  0  0
    6.8306   -3.3322   -3.7722 H   0  0  0  0  0  0  0  0  0  0  0  0
  5  6  2  0  0  0  0
  5  7  1  0  0  0  0
  2  3  1  0  0  0  0
  2  4  1  0  0  0  0
  2  5  1  0  0  0  0
  1  2  1  0  0  0  0
 15 16  2  0  0  0  0
 15 17  1  0  0  0  0
 14 36  1  0  0  0  0
 11 12  1  0  0  0  0
 11 13  1  0  0  0  0
 11 14  1  0  0  0  0
  9 10  1  0  0  0  0
  9 11  1  0  0  0  0
  9 15  1  0  0  0  0
  7  8  1  0  0  0  0
  7  9  1  0  0  0  0
 19 20  1  0  0  0  0
 19 21  1  0  0  0  0
 19 22  1  0  0  0  0
 17 18  1  0  0  0  0
 17 19  1  0  0  0  0
 27 28  2  0  0  0  0
 27 29  1  0  0  0  0
 24 25  1  0  0  0  0
 24 26  1  0  0  0  0
 24 27  1  0  0  0  0
 23 24  1  0  0  0  0
 37 38  2  0  0  0  0
 37 39  1  0  0  0  0
 33 34  1  0  0  0  0
 33 35  1  0  0  0  0
 33 36  1  0  0  0  0
 31 32  1  0  0  0  0
 31 33  1  0  0  0  0
 31 37  1  0  0  0  0
 29 30  1  0  0  0  0
 29 31  1  0  0  0  0
 41 42  1  0  0  0  0
 41 43  1  0  0  0  0
 41 44  1  0  0  0  0
 39 40  1  0  0  0  0
 39 41  1  0  0  0  0
M  END
$$$$
default_name
  -OEChem-01062215323D

 44 43  0     1  0  0  0  0  0999 V2000
    2.4488   -3.0448    2.0990 H   0  0  0  0  0  0  0  0  0  0  0  0
    2.2788   -2.0018    2.3640 C   0  0  0  0  0  0  0  0  0  0  0  0
    2.9228   -1.7258    3.1960 H   0  0  0  0  0  0  0  0  0  0  0  0
    1.2358   -1.8618    2.6430 H   0  0  0  0  0  0  0  0  0  0  0  0
    2.6018   -1.1318    1.1730 C   0  0  0  0  0  0  0  0  0  0  0  0
    3.0048   -1.6348    0.1320 O   0  0  0  0  0  0  0  0  0  0  0  0
    2.4088    0.1752    1.3190 N   0  0  0  0  0  0  0  0  0  0  0  0
    2.0708    0.5242    2.2050 H   0  0  0  0  0  0  0  0  0  0  0  0
    2.6638    1.1782    0.2840 C   0  0  1  0  0  0  0  0  0  0  0  0
    3.5640    1.7297    0.5602 H   0  0  0  0  0  0  0  0  0  0  0  0
    2.9261    0.4792   -1.0615 C   0  0  0  0  0  0  0  0  0  0  0  0
    2.9538    1.2332   -1.8490 H   0  0  0  0  0  0  0  0  0  0  0  0
    2.0701   -0.1594   -1.2777 H   0  0  0  0  0  0  0  0  0  0  0  0
    4.4098   -0.5606   -1.2045 S   0  0  0  0  0  0  0  0  0  0  0  0
    1.5040    2.1875    0.1923 C   0  0  0  0  0  0  0  0  0  0  0  0
    0.4363    1.8671   -0.3298 O   0  0  0  0  0  0  0  0  0  0  0  0
    1.7124    3.4067    0.7069 N   0  0  0  0  0  0  0  0  0  0  0  0
    2.6094    3.6009    1.1220 H   0  0  0  0  0  0  0  0  0  0  0  0
    0.7136    4.4735    0.6955 C   0  0  0  0  0  0  0  0  0  0  0  0
    0.4708    4.7381   -0.3359 H   0  0  0  0  0  0  0  0  0  0  0  0
   -0.1983    4.1312    1.1882 H   0  0  0  0  0  0  0  0  0  0  0  0
    1.0940    5.3547    1.2137 H   0  0  0  0  0  0  0  0  0  0  0  0
    7.8365    5.0590   -5.9481 H   0  0  0  0  0  0  0  0  0  0  0  0
    7.1106    4.2481   -5.9850 C   0  0  0  0  0  0  0  0  0  0  0  0
    7.2055    3.7129   -6.9285 H   0  0  0  0  0  0  0  0  0  0  0  0
    6.1050    4.6533   -5.8897 H   0  0  0  0  0  0  0  0  0  0  0  0
    7.3780    3.2980   -4.8413 C   0  0  0  0  0  0  0  0  0  0  0  0
    8.2881    3.5192   -4.0540 O   0  0  0  0  0  0  0  0  0  0  0  0
    6.5749    2.2417   -4.7470 N   0  0  0  0  0  0  0  0  0  0  0  0
    5.8503    2.1172   -5.4390 H   0  0  0  0  0  0  0  0  0  0  0  0
    6.6711    1.2163   -3.7080 C   0  0  1  0  0  0  0  0  0  0  0  0
    7.7236    1.0381   -3.4804 H   0  0  0  0  0  0  0  0  0  0  0  0
    5.9884    1.7554   -2.4432 C   0  0  0  0  0  0  0  0  0  0  0  0
    6.4905    2.6844   -2.1695 H   0  0  0  0  0  0  0  0  0  0  0  0
    4.9544    2.0067   -2.6804 H   0  0  0  0  0  0  0  0  0  0  0  0
    6.0013    0.6969   -0.9713 S   0  0  0  0  0  0  0  0  0  0  0  0
    6.0557   -0.1063   -4.1981 C   0  0  0  0  0  0  0  0  0  0  0  0
    5.1248   -0.0895   -5.0047 O   0  0  0  0  0  0  0  0  0  0  0  0
    6.5774   -1.2436   -3.7206 N   0  0  0  0  0  0  0  0  0  0  0  0
    7.3155   -1.1718   -3.0383 H   0  0  0  0  0  0  0  0  0  0  0  0
    6.1032   -2.5800   -4.0779 C   0  0  0  0  0  0  0  0  0  0  0  0
    5.1516   -2.7775   -3.5815 H   0  0  0  0  0  0  0  0  0  0  0  0
    5.9532   -2.6468   -5.1581 H   0  0  0  0  0  0  0  0  0  0  0  0
    6.8306   -3.3322   -3.7722 H   0  0  0  0  0  0  0  0  0  0  0  0
  5  6  2  0  0  0  0
  5  7  1  0  0  0  0
  2  3  1  0  0  0  0
  2  4  1  0  0  0  0
  2  5  1  0  0  0  0
  1  2  1  0  0  0  0
 15 16  2  0  0  0  0
 15 17  1  0  0  0  0
 14 36  1  0  0  0  0
 11 12  1  0  0  0  0
 11 13  1  0  0  0  0
 11 14  1  0  0  0  0
  9 10  1  0  0  0  0
  9 11  1  0  0  0  0
  9 15  1  0  0  0  0
  7  8  1  0  0  0  0
  7  9  1  0  0  0  0
 19 20  1  0  0  0  0
 19 21  1  0  0  0  0
 19 22  1  0  0  0  0
 17 18  1  0  0  0  0
 17 19  1  0  0  0  0
 27 28  2  0  0  0  0
 27 29  1  0  0  0  0
 24 25  1  0  0  0  0
 24 26  1  0  0  0  0
 24 27  1  0  0  0  0
 23 24  1  0  0  0  0
 37 38  2  0  0  0  0
 37 39  1  0  0  0  0
 33 34  1  0  0  0  0
 33 35  1  0  0  0  0
 33 36  1  0  0  0  0
 31 32  1  0  0  0  0
 31 33  1  0  0  0  0
 31 37  1  0  0  0  0
 29 30  1  0  0  0  0
 29 31  1  0  0  0  0
 41 42  1  0  0  0  0
 41 43  1  0  0  0  0
 41 44  1  0  0  0  0
 39 40  1  0  0  0  0
 39 41  1  0  0  0  0
M  END
$$$$
default_name
  -OEChem-01062215323D

 44 43  0     1  0  0  0  0  0999 V2000
    2.4488   -3.0448    2.0990 H   0  0  0  0  0  0  0  0  0  0  0  0
    2.2788   -2.0018    2.3640 C   0  0  0  0  0  0  0  0  0  0  0  0
    2.9228   -1.7258    3.1960 H   0  0  0  0  0  0  0  0  0  0  0  0
    1.2358   -1.8618    2.6430 H   0  0  0  0  0  0  0  0  0  0  0  0
    2.6018   -1.1318    1.1730 C   0  0  0  0  0  0  0  0  0  0  0  0
    3.0048   -1.6348    0.1320 O   0  0  0  0  0  0  0  0  0  0  0  0
    2.4088    0.1752    1.3190 N   0  0  0  0  0  0  0  0  0  0  0  0
    2.0708    0.5242    2.2050 H   0  0  0  0  0  0  0  0  0  0  0  0
    2.6638    1.1782    0.2840 C   0  0  1  0  0  0  0  0  0  0  0  0
    3.5640    1.7297    0.5602 H   0  0  0  0  0  0  0  0  0  0  0  0
    2.9261    0.4792   -1.0615 C   0  0  0  0  0  0  0  0  0  0  0  0
    2.9538    1.2332   -1.8490 H   0  0  0  0  0  0  0  0  0  0  0  0
    2.0701   -0.1594   -1.2777 H   0  0  0  0  0  0  0  0  0  0  0  0
    4.4098   -0.5606   -1.2045 S   0  0  0  0  0  0  0  0  0  0  0  0
    1.5040    2.1875    0.1923 C   0  0  0  0  0  0  0  0  0  0  0  0
    0.3632    1.8066   -0.0697 O   0  0  0  0  0  0  0  0  0  0  0  0
    1.7957    3.4759    0.4151 N   0  0  0  0  0  0  0  0  0  0  0  0
    2.7502    3.7178    0.6273 H   0  0  0  0  0  0  0  0  0  0  0  0
    0.8082    4.5520    0.3627 C   0  0  0  0  0  0  0  0  0  0  0  0
    0.3921    4.6195   -0.6448 H   0  0  0  0  0  0  0  0  0  0  0  0
   -0.0054    4.3411    1.0591 H   0  0  0  0  0  0  0  0  0  0  0  0
    1.2704    5.5041    0.6264 H   0  0  0  0  0  0  0  0  0  0  0  0
    7.8365    5.0590   -5.9481 H   0  0  0  0  0  0  0  0  0  0  0  0
    7.1106    4.2481   -5.9850 C   0  0  0  0  0  0  0  0  0  0  0  0
    7.2055    3.7129   -6.9285 H   0  0  0  0  0  0  0  0  0  0  0  0
    6.1050    4.6533   -5.8897 H   0  0  0  0  0  0  0  0  0  0  0  0
    7.3780    3.2980   -4.8413 C   0  0  0  0  0  0  0  0  0  0  0  0
    8.2881    3.5192   -4.0540 O   0  0  0  0  0  0  0  0  0  0  0  0
    6.5749    2.2417   -4.7470 N   0  0  0  0  0  0  0  0  0  0  0  0
    5.8503    2.1172   -5.4390 H   0  0  0  0  0  0  0  0  0  0  0  0
    6.6711    1.2163   -3.7080 C   0  0  1  0  0  0  0  0  0  0  0  0
    7.7236    1.0381   -3.4804 H   0  0  0  0  0  0  0  0  0  0  0  0
    5.9884    1.7554   -2.4432 C   0  0  0  0  0  0  0  0  0  0  0  0
    6.4905    2.6844   -2.1695 H   0  0  0  0  0  0  0  0  0  0  0  0
    4.9544    2.0067   -2.6804 H   0  0  0  0  0  0  0  0  0  0  0  0
    6.0013    0.6969   -0.9713 S   0  0  0  0  0  0  0  0  0  0  0  0
    6.0557   -0.1063   -4.1981 C   0  0  0  0  0  0  0  0  0  0  0  0
    5.1248   -0.0895   -5.0047 O   0  0  0  0  0  0  0  0  0  0  0  0
    6.5774   -1.2436   -3.7206 N   0  0  0  0  0  0  0  0  0  0  0  0
    7.3155   -1.1718   -3.0383 H   0  0  0  0  0  0  0  0  0  0  0  0
    6.1032   -2.5800   -4.0779 C   0  0  0  0  0  0  0  0  0  0  0  0
    5.1516   -2.7775   -3.5815 H   0  0  0  0  0  0  0  0  0  0  0  0
    5.9532   -2.6468   -5.1581 H   0  0  0  0  0  0  0  0  0  0  0  0
    6.8306   -3.3322   -3.7722 H   0  0  0  0  0  0  0  0  0  0  0  0
  5  6  2  0  0  0  0
  5  7  1  0  0  0  0
  2  3  1  0  0  0  0
  2  4  1  0  0  0  0
  2  5  1  0  0  0  0
  1  2  1  0  0  0  0
 15 16  2  0  0  0  0
 15 17  1  0  0  0  0
 14 36  1  0  0  0  0
 11 12  1  0  0  0  0
 11 13  1  0  0  0  0
 11 14  1  0  0  0  0
  9 10  1  0  0  0  0
  9 11  1  0  0  0  0
  9 15  1  0  0  0  0
  7  8  1  0  0  0  0
  7  9  1  0  0  0  0
 19 20  1  0  0  0  0
 19 21  1  0  0  0  0
 19 22  1  0  0  0  0
 17 18  1  0  0  0  0
 17 19  1  0  0  0  0
 27 28  2  0  0  0  0
 27 29  1  0  0  0  0
 24 25  1  0  0  0  0
 24 26  1  0  0  0  0
 24 27  1  0  0  0  0
 23 24  1  0  0  0  0
 37 38  2  0  0  0  0
 37 39  1  0  0  0  0
 33 34  1  0  0  0  0
 33 35  1  0  0  0  0
 33 36  1  0  0  0  0
 31 32  1  0  0  0  0
 31 33  1  0  0  0  0
 31 37  1  0  0  0  0
 29 30  1  0  0  0  0
 29 31  1  0  0  0  0
 41 42  1  0  0  0  0
 41 43  1  0  0  0  0
 41 44  1  0  0  0  0
 39 40  1  0  0  0  0
 39 41  1  0  0  0  0
M  END
$$$$
default_name
  -OEChem-01062215323D

 44 43  0     1  0  0  0  0  0999 V2000
    2.4488   -3.0448    2.0990 H   0  0  0  0  0  0  0  0  0  0  0  0
    2.2788   -2.0018    2.3640 C   0  0  0  0  0  0  0  0  0  0  0  0
    2.9228   -1.7258    3.1960 H   0  0  0  0  0  0  0  0  0  0  0  0
    1.2358   -1.8618    2.6430 H   0  0  0  0  0  0  0  0  0  0  0  0
    2.6018   -1.1318    1.1730 C   0  0  0  0  0  0  0  0  0  0  0  0
    3.0048   -1.6348    0.1320 O   0  0  0  0  0  0  0  0  0  0  0  0
    2.4088    0.1752    1.3190 N   0  0  0  0  0  0  0  0  0  0  0  0
    2.0708    0.5242    2.2050 H   0  0  0  0  0  0  0  0  0  0  0  0
    2.6638    1.1782    0.2840 C   0  0  1  0  0  0  0  0  0  0  0  0
    3.5640    1.7297    0.5602 H   0  0  0  0  0  0  0  0  0  0  0  0
    2.9261    0.4792   -1.0615 C   0  0  0  0  0  0  0  0  0  0  0  0
    2.9538    1.2332   -1.8490 H   0  0  0  0  0  0  0  0  0  0  0  0
    2.0701   -0.1594   -1.2777 H   0  0  0  0  0  0  0  0  0  0  0  0
    4.4098   -0.5606   -1.2045 S   0  0  0  0  0  0  0  0  0  0  0  0
    1.5040    2.1875    0.1923 C   0  0  0  0  0  0  0  0  0  0  0  0
    0.3357    1.8001    0.2057 O   0  0  0  0  0  0  0  0  0  0  0  0
    1.8277    3.4846    0.1057 N   0  0  0  0  0  0  0  0  0  0  0  0
    2.8041    3.7321    0.1028 H   0  0  0  0  0  0  0  0  0  0  0  0
    0.8443    4.5614    0.0098 C   0  0  0  0  0  0  0  0  0  0  0  0
    0.2618    4.4461   -0.9067 H   0  0  0  0  0  0  0  0  0  0  0  0
    0.1621    4.5156    0.8608 H   0  0  0  0  0  0  0  0  0  0  0  0
    1.3435    5.5311    0.0001 H   0  0  0  0  0  0  0  0  0  0  0  0
    7.8365    5.0590   -5.9481 H   0  0  0  0  0  0  0  0  0  0  0  0
    7.1106    4.2481   -5.9850 C   0  0  0  0  0  0  0  0  0  0  0  0
    7.2055    3.7129   -6.9285 H   0  0  0  0  0  0  0  0  0  0  0  0
    6.1050    4.6533   -5.8897 H   0  0  0  0  0  0  0  0  0  0  0  0
    7.3780    3.2980   -4.8413 C   0  0  0  0  0  0  0  0  0  0  0  0
    8.2881    3.5192   -4.0540 O   0  0  0  0  0  0  0  0  0  0  0  0
    6.5749    2.2417   -4.7470 N   0  0  0  0  0  0  0  0  0  0  0  0
    5.8503    2.1172   -5.4390 H   0  0  0  0  0  0  0  0  0  0  0  0
    6.6711    1.2163   -3.7080 C   0  0  1  0  0  0  0  0  0  0  0  0
    7.7236    1.0381   -3.4804 H   0  0  0  0  0  0  0  0  0  0  0  0
    5.9884    1.7554   -2.4432 C   0  0  0  0  0  0  0  0  0  0  0  0
    6.4905    2.6844   -2.1695 H   0  0  0  0  0  0  0  0  0  0  0  0
    4.9544    2.0067   -2.6804 H   0  0  0  0  0  0  0  0  0  0  0  0
    6.0013    0.6969   -0.9713 S   0  0  0  0  0  0  0  0  0  0  0  0
    6.0557   -0.1063   -4.1981 C   0  0  0  0  0  0  0  0  0  0  0  0
    5.1248   -0.0895   -5.0047 O   0  0  0  0  0  0  0  0  0  0  0  0
    6.5774   -1.2436   -3.7206 N   0  0  0  0  0  0  0  0  0  0  0  0
    7.3155   -1.1718   -3.0383 H   0  0  0  0  0  0  0  0  0  0  0  0
    6.1032   -2.5800   -4.0779 C   0  0  0  0  0  0  0  0  0  0  0  0
    5.1516   -2.7775   -3.5815 H   0  0  0  0  0  0  0  0  0  0  0  0
    5.9532   -2.6468   -5.1581 H   0  0  0  0  0  0  0  0  0  0  0  0
    6.8306   -3.3322   -3.7722 H   0  0  0  0  0  0  0  0  0  0  0  0
  5  6  2  0  0  0  0
  5  7  1  0  0  0  0
  2  3  1  0  0  0  0
  2  4  1  0  0  0  0
  2  5  1  0  0  0  0
  1  2  1  0  0  0  0
 15 16  2  0  0  0  0
 15 17  1  0  0  0  0
 14 36  1  0  0  0  0
 11 12  1  0  0  0  0
 11 13  1  0  0  0  0
 11 14  1  0  0  0  0
  9 10  1  0  0  0  0
  9 11  1  0  0  0  0
  9 15  1  0  0  0  0
  7  8  1  0  0  0  0
  7  9  1  0  0  0  0
 19 20  1  0  0  0  0
 19 21  1  0  0  0  0
 19 22  1  0  0  0  0
 17 18  1  0  0  0  0
 17 19  1  0  0  0  0
 27 28  2  0  0  0  0
 27 29  1  0  0  0  0
 24 25  1  0  0  0  0
 24 26  1  0  0  0  0
 24 27  1  0  0  0  0
 23 24  1  0  0  0  0
 37 38  2  0  0  0  0
 37 39  1  0  0  0  0
 33 34  1  0  0  0  0
 33 35  1  0  0  0  0
 33 36  1  0  0  0  0
 31 32  1  0  0  0  0
 31 33  1  0  0  0  0
 31 37  1  0  0  0  0
 29 30  1  0  0  0  0
 29 31  1  0  0  0  0
 41 42  1  0  0  0  0
 41 43  1  0  0  0  0
 41 44  1  0  0  0  0
 39 40  1  0  0  0  0
 39 41  1  0  0  0  0
M  END
$$$$
default_name
  -OEChem-01062215323D

 44 43  0     1  0  0  0  0  0999 V2000
    2.4488   -3.0448    2.0990 H   0  0  0  0  0  0  0  0  0  0  0  0
    2.2788   -2.0018    2.3640 C   0  0  0  0  0  0  0  0  0  0  0  0
    2.9228   -1.7258    3.1960 H   0  0  0  0  0  0  0  0  0  0  0  0
    1.2358   -1.8618    2.6430 H   0  0  0  0  0  0  0  0  0  0  0  0
    2.6018   -1.1318    1.1730 C   0  0  0  0  0  0  0  0  0  0  0  0
    3.0048   -1.6348    0.1320 O   0  0  0  0  0  0  0  0  0  0  0  0
    2.4088    0.1752    1.3190 N   0  0  0  0  0  0  0  0  0  0  0  0
    2.0708    0.5242    2.2050 H   0  0  0  0  0  0  0  0  0  0  0  0
    2.6638    1.1782    0.2840 C   0  0  1  0  0  0  0  0  0  0  0  0
    3.5640    1.7297    0.5602 H   0  0  0  0  0  0  0  0  0  0  0  0
    2.9261    0.4792   -1.0615 C   0  0  0  0  0  0  0  0  0  0  0  0
    2.9538    1.2332   -1.8490 H   0  0  0  0  0  0  0  0  0  0  0  0
    2.0701   -0.1594   -1.2777 H   0  0  0  0  0  0  0  0  0  0  0  0
    4.4098   -0.5606   -1.2045 S   0  0  0  0  0  0  0  0  0  0  0  0
    1.5040    2.1875    0.1923 C   0  0  0  0  0  0  0  0  0  0  0  0
    0.3558    1.8479    0.4776 O   0  0  0  0  0  0  0  0  0  0  0  0
    1.8063    3.4322   -0.2003 N   0  0  0  0  0  0  0  0  0  0  0  0
    2.7675    3.6429   -0.4158 H   0  0  0  0  0  0  0  0  0  0  0  0
    0.8195    4.5012   -0.3389 C   0  0  0  0  0  0  0  0  0  0  0  0
    0.0889    4.2294   -1.1038 H   0  0  0  0  0  0  0  0  0  0  0  0
    0.2931    4.6430    0.6068 H   0  0  0  0  0  0  0  0  0  0  0  0
    1.3083    5.4341   -0.6225 H   0  0  0  0  0  0  0  0  0  0  0  0
    7.8365    5.0590   -5.9481 H   0  0  0  0  0  0  0  0  0  0  0  0
    7.1106    4.2481   -5.9850 C   0  0  0  0  0  0  0  0  0  0  0  0
    7.2055    3.7129   -6.9285 H   0  0  0  0  0  0  0  0  0  0  0  0
    6.1050    4.6533   -5.8897 H   0  0  0  0  0  0  0  0  0  0  0  0
    7.3780    3.2980   -4.8413 C   0  0  0  0  0  0  0  0  0  0  0  0
    8.2881    3.5192   -4.0540 O   0  0  0  0  0  0  0  0  0  0  0  0
    6.5749    2.2417   -4.7470 N   0  0  0  0  0  0  0  0  0  0  0  0
    5.8503    2.1172   -5.4390 H   0  0  0  0  0  0  0  0  0  0  0  0
    6.6711    1.2163   -3.7080 C   0  0  1  0  0  0  0  0  0  0  0  0
    7.7236    1.0381   -3.4804 H   0  0  0  0  0  0  0  0  0  0  0  0
    5.9884    1.7554   -2.4432 C   0  0  0  0  0  0  0  0  0  0  0  0
    6.4905    2.6844   -2.1695 H   0  0  0  0  0  0  0  0  0  0  0  0
    4.9544    2.0067   -2.6804 H   0  0  0  0  0  0  0  0  0  0  0  0
    6.0013    0.6969   -0.9713 S   0  0  0  0  0  0  0  0  0  0  0  0
    6.0557   -0.1063   -4.1981 C   0  0  0  0  0  0  0  0  0  0  0  0
    5.1248   -0.0895   -5.0047 O   0  0  0  0  0  0  0  0  0  0  0  0
    6.5774   -1.2436   -3.7206 N   0  0  0  0  0  0  0  0  0  0  0  0
    7.3155   -1.1718   -3.0383 H   0  0  0  0  0  0  0  0  0  0  0  0
    6.1032   -2.5800   -4.0779 C   0  0  0  0  0  0  0  0  0  0  0  0
    5.1516   -2.7775   -3.5815 H   0  0  0  0  0  0  0  0  0  0  0  0
    5.9532   -2.6468   -5.1581 H   0  0  0  0  0  0  0  0  0  0  0  0
    6.8306   -3.3322   -3.7722 H   0  0  0  0  0  0  0  0  0  0  0  0
  5  6  2  0  0  0  0
  5  7  1  0  0  0  0
  2  3  1  0  0  0  0
  2  4  1  0  0  0  0
  2  5  1  0  0  0  0
  1  2  1  0  0  0  0
 15 16  2  0  0  0  0
 15 17  1  0  0  0  0
 14 36  1  0  0  0  0
 11 12  1  0  0  0  0
 11 13  1  0  0  0  0
 11 14  1  0  0  0  0
  9 10  1  0  0  0  0
  9 11  1  0  0  0  0
  9 15  1  0  0  0  0
  7  8  1  0  0  0  0
  7  9  1  0  0  0  0
 19 20  1  0  0  0  0
 19 21  1  0  0  0  0
 19 22  1  0  0  0  0
 17 18  1  0  0  0  0
 17 19  1  0  0  0  0
 27 28  2  0  0  0  0
 27 29  1  0  0  0  0
 24 25  1  0  0  0  0
 24 26  1  0  0  0  0
 24 27  1  0  0  0  0
 23 24  1  0  0  0  0
 37 38  2  0  0  0  0
 37 39  1  0  0  0  0
 33 34  1  0  0  0  0
 33 35  1  0  0  0  0
 33 36  1  0  0  0  0
 31 32  1  0  0  0  0
 31 33  1  0  0  0  0
 31 37  1  0  0  0  0
 29 30  1  0  0  0  0
 29 31  1  0  0  0  0
 41 42  1  0  0  0  0
 41 43  1  0  0  0  0
 41 44  1  0  0  0  0
 39 40  1  0  0  0  0
 39 41  1  0  0  0  0
M  END
$$$$
default_name
  -OEChem-01062215323D

 44 43  0     1  0  0  0  0  0999 V2000
    2.4488   -3.0448    2.0990 H   0  0  0  0  0  0  0  0  0  0  0  0
    2.2788   -2.0018    2.3640 C   0  0  0  0  0  0  0  0  0  0  0  0
    2.9228   -1.7258    3.1960 H   0  0  0  0  0  0  0  0  0  0  0  0
    1.2358   -1.8618    2.6430 H   0  0  0  0  0  0  0  0  0  0  0  0
    2.6018   -1.1318    1.1730 C   0  0  0  0  0  0  0  0  0  0  0  0
    3.0048   -1.6348    0.1320 O   0  0  0  0  0  0  0  0  0  0  0  0
    2.4088    0.1752    1.3190 N   0  0  0  0  0  0  0  0  0  0  0  0
    2.0708    0.5242    2.2050 H   0  0  0  0  0  0  0  0  0  0  0  0
    2.6638    1.1782    0.2840 C   0  0  1  0  0  0  0  0  0  0  0  0
    3.5640    1.7297    0.5602 H   0  0  0  0  0  0  0  0  0  0  0  0
    2.9261    0.4792   -1.0615 C   0  0  0  0  0  0  0  0  0  0  0  0
    2.9538    1.2332   -1.8490 H   0  0  0  0  0  0  0  0  0  0  0  0
    2.0701   -0.1594   -1.2777 H   0  0  0  0  0  0  0  0  0  0  0  0
    4.4098   -0.5606   -1.2045 S   0  0  0  0  0  0  0  0  0  0  0  0
    1.5040    2.1875    0.1923 C   0  0  0  0  0  0  0  0  0  0  0  0
    0.4220    1.9467    0.7275 O   0  0  0  0  0  0  0  0  0  0  0  0
    1.7329    3.3223   -0.4820 N   0  0  0  0  0  0  0  0  0  0  0  0
    2.6427    3.4562   -0.8931 H   0  0  0  0  0  0  0  0  0  0  0  0
    0.7354    4.3755   -0.6598 C   0  0  0  0  0  0  0  0  0  0  0  0
   -0.1149    3.9845   -1.2227 H   0  0  0  0  0  0  0  0  0  0  0  0
    0.3784    4.7145    0.3144 H   0  0  0  0  0  0  0  0  0  0  0  0
    1.1672    5.2196   -1.1990 H   0  0  0  0  0  0  0  0  0  0  0  0
    7.8365    5.0590   -5.9481 H   0  0  0  0  0  0  0  0  0  0  0  0
    7.1106    4.2481   -5.9850 C   0  0  0  0  0  0  0  0  0  0  0  0
    7.2055    3.7129   -6.9285 H   0  0  0  0  0  0  0  0  0  0  0  0
    6.1050    4.6533   -5.8897 H   0  0  0  0  0  0  0  0  0  0  0  0
    7.3780    3.2980   -4.8413 C   0  0  0  0  0  0  0  0  0  0  0  0
    8.2881    3.5192   -4.0540 O   0  0  0  0  0  0  0  0  0  0  0  0
    6.5749    2.2417   -4.7470 N   0  0  0  0  0  0  0  0  0  0  0  0
    5.8503    2.1172   -5.4390 H   0  0  0  0  0  0  0  0  0  0  0  0
    6.6711    1.2163   -3.7080 C   0  0  1  0  0  0  0  0  0  0  0  0
    7.7236    1.0381   -3.4804 H   0  0  0  0  0  0  0  0  0  0  0  0
    5.9884    1.7554   -2.4432 C   0  0  0  0  0  0  0  0  0  0  0  0
    6.4905    2.6844   -2.1695 H   0  0  0  0  0  0  0  0  0  0  0  0
    4.9544    2.0067   -2.6804 H   0  0  0  0  0  0  0  0  0  0  0  0
    6.0013    0.6969   -0.9713 S   0  0  0  0  0  0  0  0  0  0  0  0
    6.0557   -0.1063   -4.1981 C   0  0  0  0  0  0  0  0  0  0  0  0
    5.1248   -0.0895   -5.0047 O   0  0  0  0  0  0  0  0  0  0  0  0
    6.5774   -1.2436   -3.7206 N   0  0  0  0  0  0  0  0  0  0  0  0
    7.3155   -1.1718   -3.0383 H   0  0  0  0  0  0  0  0  0  0  0  0
    6.1032   -2.5800   -4.0779 C   0  0  0  0  0  0  0  0  0  0  0  0
    5.1516   -2.7775   -3.5815 H   0  0  0  0  0  0  0  0  0  0  0  0
    5.9532   -2.6468   -5.1581 H   0  0  0  0  0  0  0  0  0  0  0  0
    6.8306   -3.3322   -3.7722 H   0  0  0  0  0  0  0  0  0  0  0  0
  5  6  2  0  0  0  0
  5  7  1  0  0  0  0
  2  3  1  0  0  0  0
  2  4  1  0  0  0  0
  2  5  1  0  0  0  0
  1  2  1  0  0  0  0
 15 16  2  0  0  0  0
 15 17  1  0  0  0  0
 14 36  1  0  0  0  0
 11 12  1  0  0  0  0
 11 13  1  0  0  0  0
 11 14  1  0  0  0  0
  9 10  1  0  0  0  0
  9 11  1  0  0  0  0
  9 15  1  0  0  0  0
  7  8  1  0  0  0  0
  7  9  1  0  0  0  0
 19 20  1  0  0  0  0
 19 21  1  0  0  0  0
 19 22  1  0  0  0  0
 17 18  1  0  0  0  0
 17 19  1  0  0  0  0
 27 28  2  0  0  0  0
 27 29  1  0  0  0  0
 24 25  1  0  0  0  0
 24 26  1  0  0  0  0
 24 27  1  0  0  0  0
 23 24  1  0  0  0  0
 37 38  2  0  0  0  0
 37 39  1  0  0  0  0
 33 34  1  0  0  0  0
 33 35  1  0  0  0  0
 33 36  1  0  0  0  0
 31 32  1  0  0  0  0
 31 33  1  0  0  0  0
 31 37  1  0  0  0  0
 29 30  1  0  0  0  0
 29 31  1  0  0  0  0
 41 42  1  0  0  0  0
 41 43  1  0  0  0  0
 41 44  1  0  0  0  0
 39 40  1  0  0  0  0
 39 41  1  0  0  0  0
M  END
$$$$
default_name
  -OEChem-01062215323D

 44 43  0     1  0  0  0  0  0999 V2000
    2.4488   -3.0448    2.0990 H   0  0  0  0  0  0  0  0  0  0  0  0
    2.2788   -2.0018    2.3640 C   0  0  0  0  0  0  0  0  0  0  0  0
    2.9228   -1.7258    3.1960 H   0  0  0  0  0  0  0  0  0  0  0  0
    1.2358   -1.8618    2.6430 H   0  0  0  0  0  0  0  0  0  0  0  0
    2.6018   -1.1318    1.1730 C   0  0  0  0  0  0  0  0  0  0  0  0
    3.0048   -1.6348    0.1320 O   0  0  0  0  0  0  0  0  0  0  0  0
    2.4088    0.1752    1.3190 N   0  0  0  0  0  0  0  0  0  0  0  0
    2.0708    0.5242    2.2050 H   0  0  0  0  0  0  0  0  0  0  0  0
    2.6638    1.1782    0.2840 C   0  0  1  0  0  0  0  0  0  0  0  0
    3.6853    1.5416    0.4079 H   0  0  0  0  0  0  0  0  0  0  0  0
    2.5537    0.5277   -1.1061 C   0  0  0  0  0  0  0  0  0  0  0  0
    2.5852    1.3117   -1.8637 H   0  0  0  0  0  0  0  0  0  0  0  0
    1.5690    0.0672   -1.1815 H   0  0  0  0  0  0  0  0  0  0  0  0
    3.7691   -0.7499   -1.5459 S   0  0  0  0  0  0  0  0  0  0  0  0
    1.7153    2.3824    0.4332 C   0  0  0  0  0  0  0  0  0  0  0  0
    0.8843    2.4149    1.3408 O   0  0  0  0  0  0  0  0  0  0  0  0
    1.8446    3.3764   -0.4556 N   0  0  0  0  0  0  0  0  0  0  0  0
    2.5476    3.2861   -1.1714 H   0  0  0  0  0  0  0  0  0  0  0  0
    1.0197    4.5828   -0.4491 C   0  0  0  0  0  0  0  0  0  0  0  0
   -0.0261    4.3133   -0.6115 H   0  0  0  0  0  0  0  0  0  0  0  0
    1.1018    5.0814    0.5185 H   0  0  0  0  0  0  0  0  0  0  0  0
    1.3420    5.2668   -1.2353 H   0  0  0  0  0  0  0  0  0  0  0  0
    7.3125    4.4471   -6.6702 H   0  0  0  0  0  0  0  0  0  0  0  0
    6.4525    3.7830   -6.5979 C   0  0  0  0  0  0  0  0  0  0  0  0
    6.2807    3.2986   -7.5578 H   0  0  0  0  0  0  0  0  0  0  0  0
    5.5724    4.3550   -6.3100 H   0  0  0  0  0  0  0  0  0  0  0  0
    6.7314    2.7318   -5.5493 C   0  0  0  0  0  0  0  0  0  0  0  0
    7.7891    2.7376   -4.9343 O   0  0  0  0  0  0  0  0  0  0  0  0
    5.7735    1.8325   -5.3410 N   0  0  0  0  0  0  0  0  0  0  0  0
    4.9297    1.8826   -5.8932 H   0  0  0  0  0  0  0  0  0  0  0  0
    5.8546    0.7444   -4.3665 C   0  0  1  0  0  0  0  0  0  0  0  0
    6.8784    0.3671   -4.3390 H   0  0  0  0  0  0  0  0  0  0  0  0
    5.5143    1.3180   -2.9838 C   0  0  0  0  0  0  0  0  0  0  0  0
    6.2211    2.1235   -2.7794 H   0  0  0  0  0  0  0  0  0  0  0  0
    4.5204    1.7644   -3.0221 H   0  0  0  0  0  0  0  0  0  0  0  0
    5.5836    0.1857   -1.5696 S   0  0  0  0  0  0  0  0  0  0  0  0
    4.9272   -0.4140   -4.7743 C   0  0  0  0  0  0  0  0  0  0  0  0
    3.8906   -0.1812   -5.3977 O   0  0  0  0  0  0  0  0  0  0  0  0
    5.3016   -1.6535   -4.4322 N   0  0  0  0  0  0  0  0  0  0  0  0
    6.1468   -1.7571   -3.8934 H   0  0  0  0  0  0  0  0  0  0  0  0
    4.5311   -2.8588   -4.7354 C   0  0  0  0  0  0  0  0  0  0  0  0
    3.6600   -2.9131   -4.0804 H   0  0  0  0  0  0  0  0  0  0  0  0
    4.1865   -2.8311   -5.7719 H   0  0  0  0  0  0  0  0  0  0  0  0
    5.1467   -3.7464   -4.5885 H   0  0  0  0  0  0  0  0  0  0  0  0
  5  6  2  0  0  0  0
  5  7  1  0  0  0  0
  2  3  1  0  0  0  0
  2  4  1  0  0  0  0
  2  5  1  0  0  0  0
  1  2  1  0  0  0  0
 15 16  2  0  0  0  0
 15 17  1  0  0  0  0
 14 36  1  0  0  0  0
 11 12  1  0  0  0  0
 11 13  1  0  0  0  0
 11 14  1  0  0  0  0
  9 10  1  0  0  0  0
  9 11  1  0  0  0  0
  9 15  1  0  0  0  0
  7  8  1  0  0  0  0
  7  9  1  0  0  0  0
 19 20  1  0  0  0  0
 19 21  1  0  0  0  0
 19 22  1  0  0  0  0
 17 18  1  0  0  0  0
 17 19  1  0  0  0  0
 27 28  2  0  0  0  0
 27 29  1  0  0  0  0
 24 25  1  0  0  0  0
 24 26  1  0  0  0  0
 24 27  1  0  0  0  0
 23 24  1  0  0  0  0
 37 38  2  0  0  0  0
 37 39  1  0  0  0  0
 33 34  1  0  0  0  0
 33 35  1  0  0  0  0
 33 36  1  0  0  0  0
 31 32  1  0  0  0  0
 31 33  1  0  0  0  0
 31 37  1  0  0  0  0
 29 30  1  0  0  0  0
 29 31  1  0  0  0  0
 41 42  1  0  0  0  0
 41 43  1  0  0  0  0
 41 44  1  0  0  0  0
 39 40  1  0  0  0  0
 39 41  1  0  0  0  0
M  END
$$$$
default_name
  -OEChem-01062215323D

 44 43  0     1  0  0  0  0  0999 V2000
    2.4488   -3.0448    2.0990 H   0  0  0  0  0  0  0  0  0  0  0  0
    2.2788   -2.0018    2.3640 C   0  0  0  0  0  0  0  0  0  0  0  0
    2.9228   -1.7258    3.1960 H   0  0  0  0  0  0  0  0  0  0  0  0
    1.2358   -1.8618    2.6430 H   0  0  0  0  0  0  0  0  0  0  0  0
    2.6018   -1.1318    1.1730 C   0  0  0  0  0  0  0  0  0  0  0  0
    3.0048   -1.6348    0.1320 O   0  0  0  0  0  0  0  0  0  0  0  0
    2.4088    0.1752    1.3190 N   0  0  0  0  0  0  0  0  0  0  0  0
    2.0708    0.5242    2.2050 H   0  0  0  0  0  0  0  0  0  0  0  0
    2.6638    1.1782    0.2840 C   0  0  1  0  0  0  0  0  0  0  0  0
    3.6853    1.5416    0.4079 H   0  0  0  0  0  0  0  0  0  0  0  0
    2.5537    0.5277   -1.1061 C   0  0  0  0  0  0  0  0  0  0  0  0
    2.5852    1.3117   -1.8637 H   0  0  0  0  0  0  0  0  0  0  0  0
    1.5690    0.0672   -1.1815 H   0  0  0  0  0  0  0  0  0  0  0  0
    3.7691   -0.7499   -1.5459 S   0  0  0  0  0  0  0  0  0  0  0  0
    1.7153    2.3824    0.4332 C   0  0  0  0  0  0  0  0  0  0  0  0
    1.0823    2.5543    1.4749 O   0  0  0  0  0  0  0  0  0  0  0  0
    1.6226    3.2204   -0.6079 N   0  0  0  0  0  0  0  0  0  0  0  0
    2.1710    3.0215   -1.4291 H   0  0  0  0  0  0  0  0  0  0  0  0
    0.7664    4.4047   -0.6222 C   0  0  0  0  0  0  0  0  0  0  0  0
   -0.2786    4.1034   -0.5231 H   0  0  0  0  0  0  0  0  0  0  0  0
    1.0199    5.0541    0.2177 H   0  0  0  0  0  0  0  0  0  0  0  0
    0.8960    4.9551   -1.5549 H   0  0  0  0  0  0  0  0  0  0  0  0
    7.3125    4.4471   -6.6702 H   0  0  0  0  0  0  0  0  0  0  0  0
    6.4525    3.7830   -6.5979 C   0  0  0  0  0  0  0  0  0  0  0  0
    6.2807    3.2986   -7.5578 H   0  0  0  0  0  0  0  0  0  0  0  0
    5.5724    4.3550   -6.3100 H   0  0  0  0  0  0  0  0  0  0  0  0
    6.7314    2.7318   -5.5493 C   0  0  0  0  0  0  0  0  0  0  0  0
    7.7891    2.7376   -4.9343 O   0  0  0  0  0  0  0  0  0  0  0  0
    5.7735    1.8325   -5.3410 N   0  0  0  0  0  0  0  0  0  0  0  0
    4.9297    1.8826   -5.8932 H   0  0  0  0  0  0  0  0  0  0  0  0
    5.8546    0.7444   -4.3665 C   0  0  1  0  0  0  0  0  0  0  0  0
    6.8784    0.3671   -4.3390 H   0  0  0  0  0  0  0  0  0  0  0  0
    5.5143    1.3180   -2.9838 C   0  0  0  0  0  0  0  0  0  0  0  0
    6.2211    2.1235   -2.7794 H   0  0  0  0  0  0  0  0  0  0  0  0
    4.5204    1.7644   -3.0221 H   0  0  0  0  0  0  0  0  0  0  0  0
    5.5836    0.1857   -1.5696 S   0  0  0  0  0  0  0  0  0  0  0  0
    4.9272   -0.4140   -4.7743 C   0  0  0  0  0  0  0  0  0  0  0  0
    3.8906   -0.1812   -5.3977 O   0  0  0  0  0  0  0  0  0  0  0  0
    5.3016   -1.6535   -4.4322 N   0  0  0  0  0  0  0  0  0  0  0  0
    6.1468   -1.7571   -3.8934 H   0  0  0  0  0  0  0  0  0  0  0  0
    4.5311   -2.8588   -4.7354 C   0  0  0  0  0  0  0  0  0  0  0  0
    3.6600   -2.9131   -4.0804 H   0  0  0  0  0  0  0  0  0  0  0  0
    4.1865   -2.8311   -5.7719 H   0  0  0  0  0  0  0  0  0  0  0  0
    5.1467   -3.7464   -4.5885 H   0  0  0  0  0  0  0  0  0  0  0  0
  5  6  2  0  0  0  0
  5  7  1  0  0  0  0
  2  3  1  0  0  0  0
  2  4  1  0  0  0  0
  2  5  1  0  0  0  0
  1  2  1  0  0  0  0
 15 16  2  0  0  0  0
 15 17  1  0  0  0  0
 14 36  1  0  0  0  0
 11 12  1  0  0  0  0
 11 13  1  0  0  0  0
 11 14  1  0  0  0  0
  9 10  1  0  0  0  0
  9 11  1  0  0  0  0
  9 15  1  0  0  0  0
  7  8  1  0  0  0  0
  7  9  1  0  0  0  0
 19 20  1  0  0  0  0
 19 21  1  0  0  0  0
 19 22  1  0  0  0  0
 17 18  1  0  0  0  0
 17 19  1  0  0  0  0
 27 28  2  0  0  0  0
 27 29  1  0  0  0  0
 24 25  1  0  0  0  0
 24 26  1  0  0  0  0
 24 27  1  0  0  0  0
 23 24  1  0  0  0  0
 37 38  2  0  0  0  0
 37 39  1  0  0  0  0
 33 34  1  0  0  0  0
 33 35  1  0  0  0  0
 33 36  1  0  0  0  0
 31 32  1  0  0  0  0
 31 33  1  0  0  0  0
 31 37  1  0  0  0  0
 29 30  1  0  0  0  0
 29 31  1  0  0  0  0
 41 42  1  0  0  0  0
 41 43  1  0  0  0  0
 41 44  1  0  0  0  0
 39 40  1  0  0  0  0
 39 41  1  0  0  0  0
M  END
$$$$
default_name
  -OEChem-01062215323D

 44 43  0     1  0  0  0  0  0999 V2000
    2.4488   -3.0448    2.0990 H   0  0  0  0  0  0  0  0  0  0  0  0
    2.2788   -2.0018    2.3640 C   0  0  0  0  0  0  0  0  0  0  0  0
    2.9228   -1.7258    3.1960 H   0  0  0  0  0  0  0  0  0  0  0  0
    1.2358   -1.8618    2.6430 H   0  0  0  0  0  0  0  0  0  0  0  0
    2.6018   -1.1318    1.1730 C   0  0  0  0  0  0  0  0  0  0  0  0
    3.0048   -1.6348    0.1320 O   0  0  0  0  0  0  0  0  0  0  0  0
    2.4088    0.1752    1.3190 N   0  0  0  0  0  0  0  0  0  0  0  0
    2.0708    0.5242    2.2050 H   0  0  0  0  0  0  0  0  0  0  0  0
    2.6638    1.1782    0.2840 C   0  0  1  0  0  0  0  0  0  0  0  0
    3.6853    1.5416    0.4079 H   0  0  0  0  0  0  0  0  0  0  0  0
    2.5537    0.5277   -1.1061 C   0  0  0  0  0  0  0  0  0  0  0  0
    2.5852    1.3117   -1.8637 H   0  0  0  0  0  0  0  0  0  0  0  0
    1.5690    0.0672   -1.1815 H   0  0  0  0  0  0  0  0  0  0  0  0
    3.7691   -0.7499   -1.5459 S   0  0  0  0  0  0  0  0  0  0  0  0
    1.7153    2.3824    0.4332 C   0  0  0  0  0  0  0  0  0  0  0  0
    1.2973    2.7153    1.5421 O   0  0  0  0  0  0  0  0  0  0  0  0
    1.3812    3.0399   -0.6852 N   0  0  0  0  0  0  0  0  0  0  0  0
    1.7618    2.7153   -1.5596 H   0  0  0  0  0  0  0  0  0  0  0  0
    0.4911    4.1987   -0.7098 C   0  0  0  0  0  0  0  0  0  0  0  0
   -0.4994    3.9084   -0.3531 H   0  0  0  0  0  0  0  0  0  0  0  0
    0.8806    4.9778   -0.0518 H   0  0  0  0  0  0  0  0  0  0  0  0
    0.4082    4.5919   -1.7238 H   0  0  0  0  0  0  0  0  0  0  0  0
    7.3125    4.4471   -6.6702 H   0  0  0  0  0  0  0  0  0  0  0  0
    6.4525    3.7830   -6.5979 C   0  0  0  0  0  0  0  0  0  0  0  0
    6.2807    3.2986   -7.5578 H   0  0  0  0  0  0  0  0  0  0  0  0
    5.5724    4.3550   -6.3100 H   0  0  0  0  0  0  0  0  0  0  0  0
    6.7314    2.7318   -5.5493 C   0  0  0  0  0  0  0  0  0  0  0  0
    7.7891    2.7376   -4.9343 O   0  0  0  0  0  0  0  0  0  0  0  0
    5.7735    1.8325   -5.3410 N   0  0  0  0  0  0  0  0  0  0  0  0
    4.9297    1.8826   -5.8932 H   0  0  0  0  0  0  0  0  0  0  0  0
    5.8546    0.7444   -4.3665 C   0  0  1  0  0  0  0  0  0  0  0  0
    6.8784    0.3671   -4.3390 H   0  0  0  0  0  0  0  0  0  0  0  0
    5.5143    1.3180   -2.9838 C   0  0  0  0  0  0  0  0  0  0  0  0
    6.2211    2.1235   -2.7794 H   0  0  0  0  0  0  0  0  0  0  0  0
    4.5204    1.7644   -3.0221 H   0  0  0  0  0  0  0  0  0  0  0  0
    5.5836    0.1857   -1.5696 S   0  0  0  0  0  0  0  0  0  0  0  0
    4.9272   -0.4140   -4.7743 C   0  0  0  0  0  0  0  0  0  0  0  0
    3.8906   -0.1812   -5.3977 O   0  0  0  0  0  0  0  0  0  0  0  0
    5.3016   -1.6535   -4.4322 N   0  0  0  0  0  0  0  0  0  0  0  0
    6.1468   -1.7571   -3.8934 H   0  0  0  0  0  0  0  0  0  0  0  0
    4.5311   -2.8588   -4.7354 C   0  0  0  0  0  0  0  0  0  0  0  0
    3.6600   -2.9131   -4.0804 H   0  0  0  0  0  0  0  0  0  0  0  0
    4.1865   -2.8311   -5.7719 H   0  0  0  0  0  0  0  0  0  0  0  0
    5.1467   -3.7464   -4.5885 H   0  0  0  0  0  0  0  0  0  0  0  0
  5  6  2  0  0  0  0
  5  7  1  0  0  0  0
  2  3  1  0  0  0  0
  2  4  1  0  0  0  0
  2  5  1  0  0  0  0
  1  2  1  0  0  0  0
 15 16  2  0  0  0  0
 15 17  1  0  0  0  0
 14 36  1  0  0  0  0
 11 12  1  0  0  0  0
 11 13  1  0  0  0  0
 11 14  1  0  0  0  0
  9 10  1  0  0  0  0
  9 11  1  0  0  0  0
  9 15  1  0  0  0  0
  7  8  1  0  0  0  0
  7  9  1  0  0  0  0
 19 20  1  0  0  0  0
 19 21  1  0  0  0  0
 19 22  1  0  0  0  0
 17 18  1  0  0  0  0
 17 19  1  0  0  0  0
 27 28  2  0  0  0  0
 27 29  1  0  0  0  0
 24 25  1  0  0  0  0
 24 26  1  0  0  0  0
 24 27  1  0  0  0  0
 23 24  1  0  0  0  0
 37 38  2  0  0  0  0
 37 39  1  0  0  0  0
 33 34  1  0  0  0  0
 33 35  1  0  0  0  0
 33 36  1  0  0  0  0
 31 32  1  0  0  0  0
 31 33  1  0  0  0  0
 31 37  1  0  0  0  0
 29 30  1  0  0  0  0
 29 31  1  0  0  0  0
 41 42  1  0  0  0  0
 41 43  1  0  0  0  0
 41 44  1  0  0  0  0
 39 40  1  0  0  0  0
 39 41  1  0  0  0  0
M  END
$$$$
default_name
  -OEChem-01062215323D

 44 43  0     1  0  0  0  0  0999 V2000
    2.4488   -3.0448    2.0990 H   0  0  0  0  0  0  0  0  0  0  0  0
    2.2788   -2.0018    2.3640 C   0  0  0  0  0  0  0  0  0  0  0  0
    2.9228   -1.7258    3.1960 H   0  0  0  0  0  0  0  0  0  0  0  0
    1.2358   -1.8618    2.6430 H   0  0  0  0  0  0  0  0  0  0  0  0
    2.6018   -1.1318    1.1730 C   0  0  0  0  0  0  0  0  0  0  0  0
    3.0048   -1.6348    0.1320 O   0  0  0  0  0  0  0  0  0  0  0  0
    2.4088    0.1752    1.3190 N   0  0  0  0  0  0  0  0  0  0  0  0
    2.0708    0.5242    2.2050 H   0  0  0  0  0  0  0  0  0  0  0  0
    2.6638    1.1782    0.2840 C   0  0  1  0  0  0  0  0  0  0  0  0
    3.6853    1.5416    0.4079 H   0  0  0  0  0  0  0  0  0  0  0  0
    2.5537    0.5277   -1.1061 C   0  0  0  0  0  0  0  0  0  0  0  0
    2.5852    1.3117   -1.8637 H   0  0  0  0  0  0  0  0  0  0  0  0
    1.5690    0.0672   -1.1815 H   0  0  0  0  0  0  0  0  0  0  0  0
    3.7691   -0.7499   -1.5459 S   0  0  0  0  0  0  0  0  0  0  0  0
    1.7153    2.3824    0.4332 C   0  0  0  0  0  0  0  0  0  0  0  0
    1.5145    2.8868    1.5380 O   0  0  0  0  0  0  0  0  0  0  0  0
    1.1369    2.8471   -0.6823 N   0  0  0  0  0  0  0  0  0  0  0  0
    1.3478    2.3885   -1.5540 H   0  0  0  0  0  0  0  0  0  0  0  0
    0.2126    3.9789   -0.7058 C   0  0  0  0  0  0  0  0  0  0  0  0
   -0.6735    3.7416   -0.1132 H   0  0  0  0  0  0  0  0  0  0  0  0
    0.6934    4.8576   -0.2718 H   0  0  0  0  0  0  0  0  0  0  0  0
   -0.0879    4.2019   -1.7303 H   0  0  0  0  0  0  0  0  0  0  0  0
    7.3125    4.4471   -6.6702 H   0  0  0  0  0  0  0  0  0  0  0  0
    6.4525    3.7830   -6.5979 C   0  0  0  0  0  0  0  0  0  0  0  0
    6.2807    3.2986   -7.5578 H   0  0  0  0  0  0  0  0  0  0  0  0
    5.5724    4.3550   -6.3100 H   0  0  0  0  0  0  0  0  0  0  0  0
    6.7314    2.7318   -5.5493 C   0  0  0  0  0  0  0  0  0  0  0  0
    7.7891    2.7376   -4.9343 O   0  0  0  0  0  0  0  0  0  0  0  0
    5.7735    1.8325   -5.3410 N   0  0  0  0  0  0  0  0  0  0  0  0
    4.9297    1.8826   -5.8932 H   0  0  0  0  0  0  0  0  0  0  0  0
    5.8546    0.7444   -4.3665 C   0  0  1  0  0  0  0  0  0  0  0  0
    6.8784    0.3671   -4.3390 H   0  0  0  0  0  0  0  0  0  0  0  0
    5.5143    1.3180   -2.9838 C   0  0  0  0  0  0  0  0  0  0  0  0
    6.2211    2.1235   -2.7794 H   0  0  0  0  0  0  0  0  0  0  0  0
    4.5204    1.7644   -3.0221 H   0  0  0  0  0  0  0  0  0  0  0  0
    5.5836    0.1857   -1.5696 S   0  0  0  0  0  0  0  0  0  0  0  0
    4.9272   -0.4140   -4.7743 C   0  0  0  0  0  0  0  0  0  0  0  0
    3.8906   -0.1812   -5.3977 O   0  0  0  0  0  0  0  0  0  0  0  0
    5.3016   -1.6535   -4.4322 N   0  0  0  0  0  0  0  0  0  0  0  0
    6.1468   -1.7571   -3.8934 H   0  0  0  0  0  0  0  0  0  0  0  0
    4.5311   -2.8588   -4.7354 C   0  0  0  0  0  0  0  0  0  0  0  0
    3.6600   -2.9131   -4.0804 H   0  0  0  0  0  0  0  0  0  0  0  0
    4.1865   -2.8311   -5.7719 H   0  0  0  0  0  0  0  0  0  0  0  0
    5.1467   -3.7464   -4.5885 H   0  0  0  0  0  0  0  0  0  0  0  0
  5  6  2  0  0  0  0
  5  7  1  0  0  0  0
  2  3  1  0  0  0  0
  2  4  1  0  0  0  0
  2  5  1  0  0  0  0
  1  2  1  0  0  0  0
 15 16  2  0  0  0  0
 15 17  1  0  0  0  0
 14 36  1  0  0  0  0
 11 12  1  0  0  0  0
 11 13  1  0  0  0  0
 11 14  1  0  0  0  0
  9 10  1  0  0  0  0
  9 11  1  0  0  0  0
  9 15  1  0  0  0  0
  7  8  1  0  0  0  0
  7  9  1  0  0  0  0
 19 20  1  0  0  0  0
 19 21  1  0  0  0  0
 19 22  1  0  0  0  0
 17 18  1  0  0  0  0
 17 19  1  0  0  0  0
 27 28  2  0  0  0  0
 27 29  1  0  0  0  0
 24 25  1  0  0  0  0
 24 26  1  0  0  0  0
 24 27  1  0  0  0  0
 23 24  1  0  0  0  0
 37 38  2  0  0  0  0
 37 39  1  0  0  0  0
 33 34  1  0  0  0  0
 33 35  1  0  0  0  0
 33 36  1  0  0  0  0
 31 32  1  0  0  0  0
 31 33  1  0  0  0  0
 31 37  1  0  0  0  0
 29 30  1  0  0  0  0
 29 31  1  0  0  0  0
 41 42  1  0  0  0  0
 41 43  1  0  0  0  0
 41 44  1  0  0  0  0
 39 40  1  0  0  0  0
 39 41  1  0  0  0  0
M  END
$$$$
default_name
  -OEChem-01062215323D

 44 43  0     1  0  0  0  0  0999 V2000
    2.4488   -3.0448    2.0990 H   0  0  0  0  0  0  0  0  0  0  0  0
    2.2788   -2.0018    2.3640 C   0  0  0  0  0  0  0  0  0  0  0  0
    2.9228   -1.7258    3.1960 H   0  0  0  0  0  0  0  0  0  0  0  0
    1.2358   -1.8618    2.6430 H   0  0  0  0  0  0  0  0  0  0  0  0
    2.6018   -1.1318    1.1730 C   0  0  0  0  0  0  0  0  0  0  0  0
    3.0048   -1.6348    0.1320 O   0  0  0  0  0  0  0  0  0  0  0  0
    2.4088    0.1752    1.3190 N   0  0  0  0  0  0  0  0  0  0  0  0
    2.0708    0.5242    2.2050 H   0  0  0  0  0  0  0  0  0  0  0  0
    2.6638    1.1782    0.2840 C   0  0  1  0  0  0  0  0  0  0  0  0
    3.6853    1.5416    0.4079 H   0  0  0  0  0  0  0  0  0  0  0  0
    2.5537    0.5277   -1.1061 C   0  0  0  0  0  0  0  0  0  0  0  0
    2.5852    1.3117   -1.8637 H   0  0  0  0  0  0  0  0  0  0  0  0
    1.5690    0.0672   -1.1815 H   0  0  0  0  0  0  0  0  0  0  0  0
    3.7691   -0.7499   -1.5459 S   0  0  0  0  0  0  0  0  0  0  0  0
    1.7153    2.3824    0.4332 C   0  0  0  0  0  0  0  0  0  0  0  0
    1.7191    3.0574    1.4626 O   0  0  0  0  0  0  0  0  0  0  0  0
    0.9064    2.6552   -0.5993 N   0  0  0  0  0  0  0  0  0  0  0  0
    0.9572    2.0634   -1.4128 H   0  0  0  0  0  0  0  0  0  0  0  0
   -0.0500    3.7603   -0.6105 C   0  0  0  0  0  0  0  0  0  0  0  0
   -0.7888    3.6144    0.1804 H   0  0  0  0  0  0  0  0  0  0  0  0
    0.4711    4.7017   -0.4273 H   0  0  0  0  0  0  0  0  0  0  0  0
   -0.5587    3.8117   -1.5740 H   0  0  0  0  0  0  0  0  0  0  0  0
    7.3125    4.4471   -6.6702 H   0  0  0  0  0  0  0  0  0  0  0  0
    6.4525    3.7830   -6.5979 C   0  0  0  0  0  0  0  0  0  0  0  0
    6.2807    3.2986   -7.5578 H   0  0  0  0  0  0  0  0  0  0  0  0
    5.5724    4.3550   -6.3100 H   0  0  0  0  0  0  0  0  0  0  0  0
    6.7314    2.7318   -5.5493 C   0  0  0  0  0  0  0  0  0  0  0  0
    7.7891    2.7376   -4.9343 O   0  0  0  0  0  0  0  0  0  0  0  0
    5.7735    1.8325   -5.3410 N   0  0  0  0  0  0  0  0  0  0  0  0
    4.9297    1.8826   -5.8932 H   0  0  0  0  0  0  0  0  0  0  0  0
    5.8546    0.7444   -4.3665 C   0  0  1  0  0  0  0  0  0  0  0  0
    6.8784    0.3671   -4.3390 H   0  0  0  0  0  0  0  0  0  0  0  0
    5.5143    1.3180   -2.9838 C   0  0  0  0  0  0  0  0  0  0  0  0
    6.2211    2.1235   -2.7794 H   0  0  0  0  0  0  0  0  0  0  0  0
    4.5204    1.7644   -3.0221 H   0  0  0  0  0  0  0  0  0  0  0  0
    5.5836    0.1857   -1.5696 S   0  0  0  0  0  0  0  0  0  0  0  0
    4.9272   -0.4140   -4.7743 C   0  0  0  0  0  0  0  0  0  0  0  0
    3.8906   -0.1812   -5.3977 O   0  0  0  0  0  0  0  0  0  0  0  0
    5.3016   -1.6535   -4.4322 N   0  0  0  0  0  0  0  0  0  0  0  0
    6.1468   -1.7571   -3.8934 H   0  0  0  0  0  0  0  0  0  0  0  0
    4.5311   -2.8588   -4.7354 C   0  0  0  0  0  0  0  0  0  0  0  0
    3.6600   -2.9131   -4.0804 H   0  0  0  0  0  0  0  0  0  0  0  0
    4.1865   -2.8311   -5.7719 H   0  0  0  0  0  0  0  0  0  0  0  0
    5.1467   -3.7464   -4.5885 H   0  0  0  0  0  0  0  0  0  0  0  0
  5  6  2  0  0  0  0
  5  7  1  0  0  0  0
  2  3  1  0  0  0  0
  2  4  1  0  0  0  0
  2  5  1  0  0  0  0
  1  2  1  0  0  0  0
 15 16  2  0  0  0  0
 15 17  1  0  0  0  0
 14 36  1  0  0  0  0
 11 12  1  0  0  0  0
 11 13  1  0  0  0  0
 11 14  1  0  0  0  0
  9 10  1  0  0  0  0
  9 11  1  0  0  0  0
  9 15  1  0  0  0  0
  7  8  1  0  0  0  0
  7  9  1  0  0  0  0
 19 20  1  0  0  0  0
 19 21  1  0  0  0  0
 19 22  1  0  0  0  0
 17 18  1  0  0  0  0
 17 19  1  0  0  0  0
 27 28  2  0  0  0  0
 27 29  1  0  0  0  0
 24 25  1  0  0  0  0
 24 26  1  0  0  0  0
 24 27  1  0  0  0  0
 23 24  1  0  0  0  0
 37 38  2  0  0  0  0
 37 39  1  0  0  0  0
 33 34  1  0  0  0  0
 33 35  1  0  0  0  0
 33 36  1  0  0  0  0
 31 32  1  0  0  0  0
 31 33  1  0  0  0  0
 31 37  1  0  0  0  0
 29 30  1  0  0  0  0
 29 31  1  0  0  0  0
 41 42  1  0  0  0  0
 41 43  1  0  0  0  0
 41 44  1  0  0  0  0
 39 40  1  0  0  0  0
 39 41  1  0  0  0  0
M  END
$$$$
default_name
  -OEChem-01062215323D

 44 43  0     1  0  0  0  0  0999 V2000
    2.4488   -3.0448    2.0990 H   0  0  0  0  0  0  0  0  0  0  0  0
    2.2788   -2.0018    2.3640 C   0  0  0  0  0  0  0  0  0  0  0  0
    2.9228   -1.7258    3.1960 H   0  0  0  0  0  0  0  0  0  0  0  0
    1.2358   -1.8618    2.6430 H   0  0  0  0  0  0  0  0  0  0  0  0
    2.6018   -1.1318    1.1730 C   0  0  0  0  0  0  0  0  0  0  0  0
    3.0048   -1.6348    0.1320 O   0  0  0  0  0  0  0  0  0  0  0  0
    2.4088    0.1752    1.3190 N   0  0  0  0  0  0  0  0  0  0  0  0
    2.0708    0.5242    2.2050 H   0  0  0  0  0  0  0  0  0  0  0  0
    2.6638    1.1782    0.2840 C   0  0  1  0  0  0  0  0  0  0  0  0
    3.6853    1.5416    0.4079 H   0  0  0  0  0  0  0  0  0  0  0  0
    2.5537    0.5277   -1.1061 C   0  0  0  0  0  0  0  0  0  0  0  0
    2.5852    1.3117   -1.8637 H   0  0  0  0  0  0  0  0  0  0  0  0
    1.5690    0.0672   -1.1815 H   0  0  0  0  0  0  0  0  0  0  0  0
    3.7691   -0.7499   -1.5459 S   0  0  0  0  0  0  0  0  0  0  0  0
    1.7153    2.3824    0.4332 C   0  0  0  0  0  0  0  0  0  0  0  0
    1.8972    3.2152    1.3212 O   0  0  0  0  0  0  0  0  0  0  0  0
    0.7053    2.4774   -0.4419 N   0  0  0  0  0  0  0  0  0  0  0  0
    0.6166    1.7620   -1.1455 H   0  0  0  0  0  0  0  0  0  0  0  0
   -0.2789    3.5576   -0.4306 C   0  0  0  0  0  0  0  0  0  0  0  0
   -0.8376    3.5354    0.5075 H   0  0  0  0  0  0  0  0  0  0  0  0
    0.2287    4.5208   -0.5076 H   0  0  0  0  0  0  0  0  0  0  0  0
   -0.9720    3.4479   -1.2656 H   0  0  0  0  0  0  0  0  0  0  0  0
    7.3125    4.4471   -6.6702 H   0  0  0  0  0  0  0  0  0  0  0  0
    6.4525    3.7830   -6.5979 C   0  0  0  0  0  0  0  0  0  0  0  0
    6.2807    3.2986   -7.5578 H   0  0  0  0  0  0  0  0  0  0  0  0
    5.5724    4.3550   -6.3100 H   0  0  0  0  0  0  0  0  0  0  0  0
    6.7314    2.7318   -5.5493 C   0  0  0  0  0  0  0  0  0  0  0  0
    7.7891    2.7376   -4.9343 O   0  0  0  0  0  0  0  0  0  0  0  0
    5.7735    1.8325   -5.3410 N   0  0  0  0  0  0  0  0  0  0  0  0
    4.9297    1.8826   -5.8932 H   0  0  0  0  0  0  0  0  0  0  0  0
    5.8546    0.7444   -4.3665 C   0  0  1  0  0  0  0  0  0  0  0  0
    6.8784    0.3671   -4.3390 H   0  0  0  0  0  0  0  0  0  0  0  0
    5.5143    1.3180   -2.9838 C   0  0  0  0  0  0  0  0  0  0  0  0
    6.2211    2.1235   -2.7794 H   0  0  0  0  0  0  0  0  0  0  0  0
    4.5204    1.7644   -3.0221 H   0  0  0  0  0  0  0  0  0  0  0  0
    5.5836    0.1857   -1.5696 S   0  0  0  0  0  0  0  0  0  0  0  0
    4.9272   -0.4140   -4.7743 C   0  0  0  0  0  0  0  0  0  0  0  0
    3.8906   -0.1812   -5.3977 O   0  0  0  0  0  0  0  0  0  0  0  0
    5.3016   -1.6535   -4.4322 N   0  0  0  0  0  0  0  0  0  0  0  0
    6.1468   -1.7571   -3.8934 H   0  0  0  0  0  0  0  0  0  0  0  0
    4.5311   -2.8588   -4.7354 C   0  0  0  0  0  0  0  0  0  0  0  0
    3.6600   -2.9131   -4.0804 H   0  0  0  0  0  0  0  0  0  0  0  0
    4.1865   -2.8311   -5.7719 H   0  0  0  0  0  0  0  0  0  0  0  0
    5.1467   -3.7464   -4.5885 H   0  0  0  0  0  0  0  0  0  0  0  0
  5  6  2  0  0  0  0
  5  7  1  0  0  0  0
  2  3  1  0  0  0  0
  2  4  1  0  0  0  0
  2  5  1  0  0  0  0
  1  2  1  0  0  0  0
 15 16  2  0  0  0  0
 15 17  1  0  0  0  0
 14 36  1  0  0  0  0
 11 12  1  0  0  0  0
 11 13  1  0  0  0  0
 11 14  1  0  0  0  0
  9 10  1  0  0  0  0
  9 11  1  0  0  0  0
  9 15  1  0  0  0  0
  7  8  1  0  0  0  0
  7  9  1  0  0  0  0
 19 20  1  0  0  0  0
 19 21  1  0  0  0  0
 19 22  1  0  0  0  0
 17 18  1  0  0  0  0
 17 19  1  0  0  0  0
 27 28  2  0  0  0  0
 27 29  1  0  0  0  0
 24 25  1  0  0  0  0
 24 26  1  0  0  0  0
 24 27  1  0  0  0  0
 23 24  1  0  0  0  0
 37 38  2  0  0  0  0
 37 39  1  0  0  0  0
 33 34  1  0  0  0  0
 33 35  1  0  0  0  0
 33 36  1  0  0  0  0
 31 32  1  0  0  0  0
 31 33  1  0  0  0  0
 31 37  1  0  0  0  0
 29 30  1  0  0  0  0
 29 31  1  0  0  0  0
 41 42  1  0  0  0  0
 41 43  1  0  0  0  0
 41 44  1  0  0  0  0
 39 40  1  0  0  0  0
 39 41  1  0  0  0  0
M  END
$$$$
default_name
  -OEChem-01062215323D

 44 43  0     1  0  0  0  0  0999 V2000
    2.4488   -3.0448    2.0990 H   0  0  0  0  0  0  0  0  0  0  0  0
    2.2788   -2.0018    2.3640 C   0  0  0  0  0  0  0  0  0  0  0  0
    2.9228   -1.7258    3.1960 H   0  0  0  0  0  0  0  0  0  0  0  0
    1.2358   -1.8618    2.6430 H   0  0  0  0  0  0  0  0  0  0  0  0
    2.6018   -1.1318    1.1730 C   0  0  0  0  0  0  0  0  0  0  0  0
    3.0048   -1.6348    0.1320 O   0  0  0  0  0  0  0  0  0  0  0  0
    2.4088    0.1752    1.3190 N   0  0  0  0  0  0  0  0  0  0  0  0
    2.0708    0.5242    2.2050 H   0  0  0  0  0  0  0  0  0  0  0  0
    2.6638    1.1782    0.2840 C   0  0  1  0  0  0  0  0  0  0  0  0
    3.6853    1.5416    0.4079 H   0  0  0  0  0  0  0  0  0  0  0  0
    2.5537    0.5277   -1.1061 C   0  0  0  0  0  0  0  0  0  0  0  0
    2.5852    1.3117   -1.8637 H   0  0  0  0  0  0  0  0  0  0  0  0
    1.5690    0.0672   -1.1815 H   0  0  0  0  0  0  0  0  0  0  0  0
    3.7691   -0.7499   -1.5459 S   0  0  0  0  0  0  0  0  0  0  0  0
    1.7153    2.3824    0.4332 C   0  0  0  0  0  0  0  0  0  0  0  0
    2.0367    3.3496    1.1235 O   0  0  0  0  0  0  0  0  0  0  0  0
    0.5474    2.3256   -0.2208 N   0  0  0  0  0  0  0  0  0  0  0  0
    0.3494    1.5050   -0.7704 H   0  0  0  0  0  0  0  0  0  0  0  0
   -0.4586    3.3848   -0.1781 C   0  0  0  0  0  0  0  0  0  0  0  0
   -0.8166    3.5100    0.8460 H   0  0  0  0  0  0  0  0  0  0  0  0
   -0.0170    4.3272   -0.5074 H   0  0  0  0  0  0  0  0  0  0  0  0
   -1.2997    3.1353   -0.8261 H   0  0  0  0  0  0  0  0  0  0  0  0
    7.3125    4.4471   -6.6702 H   0  0  0  0  0  0  0  0  0  0  0  0
    6.4525    3.7830   -6.5979 C   0  0  0  0  0  0  0  0  0  0  0  0
    6.2807    3.2986   -7.5578 H   0  0  0  0  0  0  0  0  0  0  0  0
    5.5724    4.3550   -6.3100 H   0  0  0  0  0  0  0  0  0  0  0  0
    6.7314    2.7318   -5.5493 C   0  0  0  0  0  0  0  0  0  0  0  0
    7.7891    2.7376   -4.9343 O   0  0  0  0  0  0  0  0  0  0  0  0
    5.7735    1.8325   -5.3410 N   0  0  0  0  0  0  0  0  0  0  0  0
    4.9297    1.8826   -5.8932 H   0  0  0  0  0  0  0  0  0  0  0  0
    5.8546    0.7444   -4.3665 C   0  0  1  0  0  0  0  0  0  0  0  0
    6.8784    0.3671   -4.3390 H   0  0  0  0  0  0  0  0  0  0  0  0
    5.5143    1.3180   -2.9838 C   0  0  0  0  0  0  0  0  0  0  0  0
    6.2211    2.1235   -2.7794 H   0  0  0  0  0  0  0  0  0  0  0  0
    4.5204    1.7644   -3.0221 H   0  0  0  0  0  0  0  0  0  0  0  0
    5.5836    0.1857   -1.5696 S   0  0  0  0  0  0  0  0  0  0  0  0
    4.9272   -0.4140   -4.7743 C   0  0  0  0  0  0  0  0  0  0  0  0
    3.8906   -0.1812   -5.3977 O   0  0  0  0  0  0  0  0  0  0  0  0
    5.3016   -1.6535   -4.4322 N   0  0  0  0  0  0  0  0  0  0  0  0
    6.1468   -1.7571   -3.8934 H   0  0  0  0  0  0  0  0  0  0  0  0
    4.5311   -2.8588   -4.7354 C   0  0  0  0  0  0  0  0  0  0  0  0
    3.6600   -2.9131   -4.0804 H   0  0  0  0  0  0  0  0  0  0  0  0
    4.1865   -2.8311   -5.7719 H   0  0  0  0  0  0  0  0  0  0  0  0
    5.1467   -3.7464   -4.5885 H   0  0  0  0  0  0  0  0  0  0  0  0
  5  6  2  0  0  0  0
  5  7  1  0  0  0  0
  2  3  1  0  0  0  0
  2  4  1  0  0  0  0
  2  5  1  0  0  0  0
  1  2  1  0  0  0  0
 15 16  2  0  0  0  0
 15 17  1  0  0  0  0
 14 36  1  0  0  0  0
 11 12  1  0  0  0  0
 11 13  1  0  0  0  0
 11 14  1  0  0  0  0
  9 10  1  0  0  0  0
  9 11  1  0  0  0  0
  9 15  1  0  0  0  0
  7  8  1  0  0  0  0
  7  9  1  0  0  0  0
 19 20  1  0  0  0  0
 19 21  1  0  0  0  0
 19 22  1  0  0  0  0
 17 18  1  0  0  0  0
 17 19  1  0  0  0  0
 27 28  2  0  0  0  0
 27 29  1  0  0  0  0
 24 25  1  0  0  0  0
 24 26  1  0  0  0  0
 24 27  1  0  0  0  0
 23 24  1  0  0  0  0
 37 38  2  0  0  0  0
 37 39  1  0  0  0  0
 33 34  1  0  0  0  0
 33 35  1  0  0  0  0
 33 36  1  0  0  0  0
 31 32  1  0  0  0  0
 31 33  1  0  0  0  0
 31 37  1  0  0  0  0
 29 30  1  0  0  0  0
 29 31  1  0  0  0  0
 41 42  1  0  0  0  0
 41 43  1  0  0  0  0
 41 44  1  0  0  0  0
 39 40  1  0  0  0  0
 39 41  1  0  0  0  0
M  END
$$$$
default_name
  -OEChem-01062215323D

 44 43  0     1  0  0  0  0  0999 V2000
    2.4488   -3.0448    2.0990 H   0  0  0  0  0  0  0  0  0  0  0  0
    2.2788   -2.0018    2.3640 C   0  0  0  0  0  0  0  0  0  0  0  0
    2.9228   -1.7258    3.1960 H   0  0  0  0  0  0  0  0  0  0  0  0
    1.2358   -1.8618    2.6430 H   0  0  0  0  0  0  0  0  0  0  0  0
    2.6018   -1.1318    1.1730 C   0  0  0  0  0  0  0  0  0  0  0  0
    3.0048   -1.6348    0.1320 O   0  0  0  0  0  0  0  0  0  0  0  0
    2.4088    0.1752    1.3190 N   0  0  0  0  0  0  0  0  0  0  0  0
    2.0708    0.5242    2.2050 H   0  0  0  0  0  0  0  0  0  0  0  0
    2.6638    1.1782    0.2840 C   0  0  1  0  0  0  0  0  0  0  0  0
    3.6853    1.5416    0.4079 H   0  0  0  0  0  0  0  0  0  0  0  0
    2.5537    0.5277   -1.1061 C   0  0  0  0  0  0  0  0  0  0  0  0
    2.5852    1.3117   -1.8637 H   0  0  0  0  0  0  0  0  0  0  0  0
    1.5690    0.0672   -1.1815 H   0  0  0  0  0  0  0  0  0  0  0  0
    3.7691   -0.7499   -1.5459 S   0  0  0  0  0  0  0  0  0  0  0  0
    1.7153    2.3824    0.4332 C   0  0  0  0  0  0  0  0  0  0  0  0
    2.1281    3.4514    0.8828 O   0  0  0  0  0  0  0  0  0  0  0  0
    0.4435    2.2103    0.0489 N   0  0  0  0  0  0  0  0  0  0  0  0
    0.1735    1.3098   -0.3130 H   0  0  0  0  0  0  0  0  0  0  0  0
   -0.5766    3.2537    0.1297 C   0  0  0  0  0  0  0  0  0  0  0  0
   -0.7271    3.5399    1.1728 H   0  0  0  0  0  0  0  0  0  0  0  0
   -0.2495    4.1341   -0.4265 H   0  0  0  0  0  0  0  0  0  0  0  0
   -1.5195    2.8952   -0.2854 H   0  0  0  0  0  0  0  0  0  0  0  0
    7.3125    4.4471   -6.6702 H   0  0  0  0  0  0  0  0  0  0  0  0
    6.4525    3.7830   -6.5979 C   0  0  0  0  0  0  0  0  0  0  0  0
    6.2807    3.2986   -7.5578 H   0  0  0  0  0  0  0  0  0  0  0  0
    5.5724    4.3550   -6.3100 H   0  0  0  0  0  0  0  0  0  0  0  0
    6.7314    2.7318   -5.5493 C   0  0  0  0  0  0  0  0  0  0  0  0
    7.7891    2.7376   -4.9343 O   0  0  0  0  0  0  0  0  0  0  0  0
    5.7735    1.8325   -5.3410 N   0  0  0  0  0  0  0  0  0  0  0  0
    4.9297    1.8826   -5.8932 H   0  0  0  0  0  0  0  0  0  0  0  0
    5.8546    0.7444   -4.3665 C   0  0  1  0  0  0  0  0  0  0  0  0
    6.8784    0.3671   -4.3390 H   0  0  0  0  0  0  0  0  0  0  0  0
    5.5143    1.3180   -2.9838 C   0  0  0  0  0  0  0  0  0  0  0  0
    6.2211    2.1235   -2.7794 H   0  0  0  0  0  0  0  0  0  0  0  0
    4.5204    1.7644   -3.0221 H   0  0  0  0  0  0  0  0  0  0  0  0
    5.5836    0.1857   -1.5696 S   0  0  0  0  0  0  0  0  0  0  0  0
    4.9272   -0.4140   -4.7743 C   0  0  0  0  0  0  0  0  0  0  0  0
    3.8906   -0.1812   -5.3977 O   0  0  0  0  0  0  0  0  0  0  0  0
    5.3016   -1.6535   -4.4322 N   0  0  0  0  0  0  0  0  0  0  0  0
    6.1468   -1.7571   -3.8934 H   0  0  0  0  0  0  0  0  0  0  0  0
    4.5311   -2.8588   -4.7354 C   0  0  0  0  0  0  0  0  0  0  0  0
    3.6600   -2.9131   -4.0804 H   0  0  0  0  0  0  0  0  0  0  0  0
    4.1865   -2.8311   -5.7719 H   0  0  0  0  0  0  0  0  0  0  0  0
    5.1467   -3.7464   -4.5885 H   0  0  0  0  0  0  0  0  0  0  0  0
  5  6  2  0  0  0  0
  5  7  1  0  0  0  0
  2  3  1  0  0  0  0
  2  4  1  0  0  0  0
  2  5  1  0  0  0  0
  1  2  1  0  0  0  0
 15 16  2  0  0  0  0
 15 17  1  0  0  0  0
 14 36  1  0  0  0  0
 11 12  1  0  0  0  0
 11 13  1  0  0  0  0
 11 14  1  0  0  0  0
  9 10  1  0  0  0  0
  9 11  1  0  0  0  0
  9 15  1  0  0  0  0
  7  8  1  0  0  0  0
  7  9  1  0  0  0  0
 19 20  1  0  0  0  0
 19 21  1  0  0  0  0
 19 22  1  0  0  0  0
 17 18  1  0  0  0  0
 17 19  1  0  0  0  0
 27 28  2  0  0  0  0
 27 29  1  0  0  0  0
 24 25  1  0  0  0  0
 24 26  1  0  0  0  0
 24 27  1  0  0  0  0
 23 24  1  0  0  0  0
 37 38  2  0  0  0  0
 37 39  1  0  0  0  0
 33 34  1  0  0  0  0
 33 35  1  0  0  0  0
 33 36  1  0  0  0  0
 31 32  1  0  0  0  0
 31 33  1  0  0  0  0
 31 37  1  0  0  0  0
 29 30  1  0  0  0  0
 29 31  1  0  0  0  0
 41 42  1  0  0  0  0
 41 43  1  0  0  0  0
 41 44  1  0  0  0  0
 39 40  1  0  0  0  0
 39 41  1  0  0  0  0
M  END
$$$$
default_name
  -OEChem-01062215323D

 44 43  0     1  0  0  0  0  0999 V2000
    2.4488   -3.0448    2.0990 H   0  0  0  0  0  0  0  0  0  0  0  0
    2.2788   -2.0018    2.3640 C   0  0  0  0  0  0  0  0  0  0  0  0
    2.9228   -1.7258    3.1960 H   0  0  0  0  0  0  0  0  0  0  0  0
    1.2358   -1.8618    2.6430 H   0  0  0  0  0  0  0  0  0  0  0  0
    2.6018   -1.1318    1.1730 C   0  0  0  0  0  0  0  0  0  0  0  0
    3.0048   -1.6348    0.1320 O   0  0  0  0  0  0  0  0  0  0  0  0
    2.4088    0.1752    1.3190 N   0  0  0  0  0  0  0  0  0  0  0  0
    2.0708    0.5242    2.2050 H   0  0  0  0  0  0  0  0  0  0  0  0
    2.6638    1.1782    0.2840 C   0  0  1  0  0  0  0  0  0  0  0  0
    3.6853    1.5416    0.4079 H   0  0  0  0  0  0  0  0  0  0  0  0
    2.5537    0.5277   -1.1061 C   0  0  0  0  0  0  0  0  0  0  0  0
    2.5852    1.3117   -1.8637 H   0  0  0  0  0  0  0  0  0  0  0  0
    1.5690    0.0672   -1.1815 H   0  0  0  0  0  0  0  0  0  0  0  0
    3.7691   -0.7499   -1.5459 S   0  0  0  0  0  0  0  0  0  0  0  0
    1.7153    2.3824    0.4332 C   0  0  0  0  0  0  0  0  0  0  0  0
    2.1650    3.5136    0.6157 O   0  0  0  0  0  0  0  0  0  0  0  0
    0.4005    2.1393    0.3488 N   0  0  0  0  0  0  0  0  0  0  0  0
    0.1012    1.1897    0.1956 H   0  0  0  0  0  0  0  0  0  0  0  0
   -0.6251    3.1731    0.4718 C   0  0  0  0  0  0  0  0  0  0  0  0
   -0.5753    3.6232    1.4655 H   0  0  0  0  0  0  0  0  0  0  0  0
   -0.4529    3.9546   -0.2706 H   0  0  0  0  0  0  0  0  0  0  0  0
   -1.6163    2.7439    0.3196 H   0  0  0  0  0  0  0  0  0  0  0  0
    7.3125    4.4471   -6.6702 H   0  0  0  0  0  0  0  0  0  0  0  0
    6.4525    3.7830   -6.5979 C   0  0  0  0  0  0  0  0  0  0  0  0
    6.2807    3.2986   -7.5578 H   0  0  0  0  0  0  0  0  0  0  0  0
    5.5724    4.3550   -6.3100 H   0  0  0  0  0  0  0  0  0  0  0  0
    6.7314    2.7318   -5.5493 C   0  0  0  0  0  0  0  0  0  0  0  0
    7.7891    2.7376   -4.9343 O   0  0  0  0  0  0  0  0  0  0  0  0
    5.7735    1.8325   -5.3410 N   0  0  0  0  0  0  0  0  0  0  0  0
    4.9297    1.8826   -5.8932 H   0  0  0  0  0  0  0  0  0  0  0  0
    5.8546    0.7444   -4.3665 C   0  0  1  0  0  0  0  0  0  0  0  0
    6.8784    0.3671   -4.3390 H   0  0  0  0  0  0  0  0  0  0  0  0
    5.5143    1.3180   -2.9838 C   0  0  0  0  0  0  0  0  0  0  0  0
    6.2211    2.1235   -2.7794 H   0  0  0  0  0  0  0  0  0  0  0  0
    4.5204    1.7644   -3.0221 H   0  0  0  0  0  0  0  0  0  0  0  0
    5.5836    0.1857   -1.5696 S   0  0  0  0  0  0  0  0  0  0  0  0
    4.9272   -0.4140   -4.7743 C   0  0  0  0  0  0  0  0  0  0  0  0
    3.8906   -0.1812   -5.3977 O   0  0  0  0  0  0  0  0  0  0  0  0
    5.3016   -1.6535   -4.4322 N   0  0  0  0  0  0  0  0  0  0  0  0
    6.1468   -1.7571   -3.8934 H   0  0  0  0  0  0  0  0  0  0  0  0
    4.5311   -2.8588   -4.7354 C   0  0  0  0  0  0  0  0  0  0  0  0
    3.6600   -2.9131   -4.0804 H   0  0  0  0  0  0  0  0  0  0  0  0
    4.1865   -2.8311   -5.7719 H   0  0  0  0  0  0  0  0  0  0  0  0
    5.1467   -3.7464   -4.5885 H   0  0  0  0  0  0  0  0  0  0  0  0
  5  6  2  0  0  0  0
  5  7  1  0  0  0  0
  2  3  1  0  0  0  0
  2  4  1  0  0  0  0
  2  5  1  0  0  0  0
  1  2  1  0  0  0  0
 15 16  2  0  0  0  0
 15 17  1  0  0  0  0
 14 36  1  0  0  0  0
 11 12  1  0  0  0  0
 11 13  1  0  0  0  0
 11 14  1  0  0  0  0
  9 10  1  0  0  0  0
  9 11  1  0  0  0  0
  9 15  1  0  0  0  0
  7  8  1  0  0  0  0
  7  9  1  0  0  0  0
 19 20  1  0  0  0  0
 19 21  1  0  0  0  0
 19 22  1  0  0  0  0
 17 18  1  0  0  0  0
 17 19  1  0  0  0  0
 27 28  2  0  0  0  0
 27 29  1  0  0  0  0
 24 25  1  0  0  0  0
 24 26  1  0  0  0  0
 24 27  1  0  0  0  0
 23 24  1  0  0  0  0
 37 38  2  0  0  0  0
 37 39  1  0  0  0  0
 33 34  1  0  0  0  0
 33 35  1  0  0  0  0
 33 36  1  0  0  0  0
 31 32  1  0  0  0  0
 31 33  1  0  0  0  0
 31 37  1  0  0  0  0
 29 30  1  0  0  0  0
 29 31  1  0  0  0  0
 41 42  1  0  0  0  0
 41 43  1  0  0  0  0
 41 44  1  0  0  0  0
 39 40  1  0  0  0  0
 39 41  1  0  0  0  0
M  END
$$$$
default_name
  -OEChem-01062215323D

 44 43  0     1  0  0  0  0  0999 V2000
    2.4488   -3.0448    2.0990 H   0  0  0  0  0  0  0  0  0  0  0  0
    2.2788   -2.0018    2.3640 C   0  0  0  0  0  0  0  0  0  0  0  0
    2.9228   -1.7258    3.1960 H   0  0  0  0  0  0  0  0  0  0  0  0
    1.2358   -1.8618    2.6430 H   0  0  0  0  0  0  0  0  0  0  0  0
    2.6018   -1.1318    1.1730 C   0  0  0  0  0  0  0  0  0  0  0  0
    3.0048   -1.6348    0.1320 O   0  0  0  0  0  0  0  0  0  0  0  0
    2.4088    0.1752    1.3190 N   0  0  0  0  0  0  0  0  0  0  0  0
    2.0708    0.5242    2.2050 H   0  0  0  0  0  0  0  0  0  0  0  0
    2.6638    1.1782    0.2840 C   0  0  1  0  0  0  0  0  0  0  0  0
    3.6853    1.5416    0.4079 H   0  0  0  0  0  0  0  0  0  0  0  0
    2.5537    0.5277   -1.1061 C   0  0  0  0  0  0  0  0  0  0  0  0
    2.5852    1.3117   -1.8637 H   0  0  0  0  0  0  0  0  0  0  0  0
    1.5690    0.0672   -1.1815 H   0  0  0  0  0  0  0  0  0  0  0  0
    3.7691   -0.7499   -1.5459 S   0  0  0  0  0  0  0  0  0  0  0  0
    1.7153    2.3824    0.4332 C   0  0  0  0  0  0  0  0  0  0  0  0
    2.1451    3.5321    0.3402 O   0  0  0  0  0  0  0  0  0  0  0  0
    0.4215    2.1174    0.6585 N   0  0  0  0  0  0  0  0  0  0  0  0
    0.1372    1.1530    0.7205 H   0  0  0  0  0  0  0  0  0  0  0  0
   -0.6007    3.1486    0.8249 C   0  0  0  0  0  0  0  0  0  0  0  0
   -0.3716    3.7541    1.7043 H   0  0  0  0  0  0  0  0  0  0  0  0
   -0.6132    3.8010   -0.0502 H   0  0  0  0  0  0  0  0  0  0  0  0
   -1.5836    2.6918    0.9477 H   0  0  0  0  0  0  0  0  0  0  0  0
    7.3125    4.4471   -6.6702 H   0  0  0  0  0  0  0  0  0  0  0  0
    6.4525    3.7830   -6.5979 C   0  0  0  0  0  0  0  0  0  0  0  0
    6.2807    3.2986   -7.5578 H   0  0  0  0  0  0  0  0  0  0  0  0
    5.5724    4.3550   -6.3100 H   0  0  0  0  0  0  0  0  0  0  0  0
    6.7314    2.7318   -5.5493 C   0  0  0  0  0  0  0  0  0  0  0  0
    7.7891    2.7376   -4.9343 O   0  0  0  0  0  0  0  0  0  0  0  0
    5.7735    1.8325   -5.3410 N   0  0  0  0  0  0  0  0  0  0  0  0
    4.9297    1.8826   -5.8932 H   0  0  0  0  0  0  0  0  0  0  0  0
    5.8546    0.7444   -4.3665 C   0  0  1  0  0  0  0  0  0  0  0  0
    6.8784    0.3671   -4.3390 H   0  0  0  0  0  0  0  0  0  0  0  0
    5.5143    1.3180   -2.9838 C   0  0  0  0  0  0  0  0  0  0  0  0
    6.2211    2.1235   -2.7794 H   0  0  0  0  0  0  0  0  0  0  0  0
    4.5204    1.7644   -3.0221 H   0  0  0  0  0  0  0  0  0  0  0  0
    5.5836    0.1857   -1.5696 S   0  0  0  0  0  0  0  0  0  0  0  0
    4.9272   -0.4140   -4.7743 C   0  0  0  0  0  0  0  0  0  0  0  0
    3.8906   -0.1812   -5.3977 O   0  0  0  0  0  0  0  0  0  0  0  0
    5.3016   -1.6535   -4.4322 N   0  0  0  0  0  0  0  0  0  0  0  0
    6.1468   -1.7571   -3.8934 H   0  0  0  0  0  0  0  0  0  0  0  0
    4.5311   -2.8588   -4.7354 C   0  0  0  0  0  0  0  0  0  0  0  0
    3.6600   -2.9131   -4.0804 H   0  0  0  0  0  0  0  0  0  0  0  0
    4.1865   -2.8311   -5.7719 H   0  0  0  0  0  0  0  0  0  0  0  0
    5.1467   -3.7464   -4.5885 H   0  0  0  0  0  0  0  0  0  0  0  0
  5  6  2  0  0  0  0
  5  7  1  0  0  0  0
  2  3  1  0  0  0  0
  2  4  1  0  0  0  0
  2  5  1  0  0  0  0
  1  2  1  0  0  0  0
 15 16  2  0  0  0  0
 15 17  1  0  0  0  0
 14 36  1  0  0  0  0
 11 12  1  0  0  0  0
 11 13  1  0  0  0  0
 11 14  1  0  0  0  0
  9 10  1  0  0  0  0
  9 11  1  0  0  0  0
  9 15  1  0  0  0  0
  7  8  1  0  0  0  0
  7  9  1  0  0  0  0
 19 20  1  0  0  0  0
 19 21  1  0  0  0  0
 19 22  1  0  0  0  0
 17 18  1  0  0  0  0
 17 19  1  0  0  0  0
 27 28  2  0  0  0  0
 27 29  1  0  0  0  0
 24 25  1  0  0  0  0
 24 26  1  0  0  0  0
 24 27  1  0  0  0  0
 23 24  1  0  0  0  0
 37 38  2  0  0  0  0
 37 39  1  0  0  0  0
 33 34  1  0  0  0  0
 33 35  1  0  0  0  0
 33 36  1  0  0  0  0
 31 32  1  0  0  0  0
 31 33  1  0  0  0  0
 31 37  1  0  0  0  0
 29 30  1  0  0  0  0
 29 31  1  0  0  0  0
 41 42  1  0  0  0  0
 41 43  1  0  0  0  0
 41 44  1  0  0  0  0
 39 40  1  0  0  0  0
 39 41  1  0  0  0  0
M  END
$$$$
default_name
  -OEChem-01062215323D

 44 43  0     1  0  0  0  0  0999 V2000
    2.4488   -3.0448    2.0990 H   0  0  0  0  0  0  0  0  0  0  0  0
    2.2788   -2.0018    2.3640 C   0  0  0  0  0  0  0  0  0  0  0  0
    2.9228   -1.7258    3.1960 H   0  0  0  0  0  0  0  0  0  0  0  0
    1.2358   -1.8618    2.6430 H   0  0  0  0  0  0  0  0  0  0  0  0
    2.6018   -1.1318    1.1730 C   0  0  0  0  0  0  0  0  0  0  0  0
    3.0048   -1.6348    0.1320 O   0  0  0  0  0  0  0  0  0  0  0  0
    2.4088    0.1752    1.3190 N   0  0  0  0  0  0  0  0  0  0  0  0
    2.0708    0.5242    2.2050 H   0  0  0  0  0  0  0  0  0  0  0  0
    2.6638    1.1782    0.2840 C   0  0  1  0  0  0  0  0  0  0  0  0
    3.6853    1.5416    0.4079 H   0  0  0  0  0  0  0  0  0  0  0  0
    2.5537    0.5277   -1.1061 C   0  0  0  0  0  0  0  0  0  0  0  0
    2.5852    1.3117   -1.8637 H   0  0  0  0  0  0  0  0  0  0  0  0
    1.5690    0.0672   -1.1815 H   0  0  0  0  0  0  0  0  0  0  0  0
    3.7691   -0.7499   -1.5459 S   0  0  0  0  0  0  0  0  0  0  0  0
    1.7153    2.3824    0.4332 C   0  0  0  0  0  0  0  0  0  0  0  0
    2.0697    3.5055    0.0752 O   0  0  0  0  0  0  0  0  0  0  0  0
    0.5050    2.1462    0.9569 N   0  0  0  0  0  0  0  0  0  0  0  0
    0.2791    1.2022    1.2262 H   0  0  0  0  0  0  0  0  0  0  0  0
   -0.5051    3.1817    1.1649 C   0  0  0  0  0  0  0  0  0  0  0  0
   -0.1297    3.9237    1.8728 H   0  0  0  0  0  0  0  0  0  0  0  0
   -0.7197    3.6837    0.2196 H   0  0  0  0  0  0  0  0  0  0  0  0
   -1.4236    2.7425    1.5561 H   0  0  0  0  0  0  0  0  0  0  0  0
    7.3125    4.4471   -6.6702 H   0  0  0  0  0  0  0  0  0  0  0  0
    6.4525    3.7830   -6.5979 C   0  0  0  0  0  0  0  0  0  0  0  0
    6.2807    3.2986   -7.5578 H   0  0  0  0  0  0  0  0  0  0  0  0
    5.5724    4.3550   -6.3100 H   0  0  0  0  0  0  0  0  0  0  0  0
    6.7314    2.7318   -5.5493 C   0  0  0  0  0  0  0  0  0  0  0  0
    7.7891    2.7376   -4.9343 O   0  0  0  0  0  0  0  0  0  0  0  0
    5.7735    1.8325   -5.3410 N   0  0  0  0  0  0  0  0  0  0  0  0
    4.9297    1.8826   -5.8932 H   0  0  0  0  0  0  0  0  0  0  0  0
    5.8546    0.7444   -4.3665 C   0  0  1  0  0  0  0  0  0  0  0  0
    6.8784    0.3671   -4.3390 H   0  0  0  0  0  0  0  0  0  0  0  0
    5.5143    1.3180   -2.9838 C   0  0  0  0  0  0  0  0  0  0  0  0
    6.2211    2.1235   -2.7794 H   0  0  0  0  0  0  0  0  0  0  0  0
    4.5204    1.7644   -3.0221 H   0  0  0  0  0  0  0  0  0  0  0  0
    5.5836    0.1857   -1.5696 S   0  0  0  0  0  0  0  0  0  0  0  0
    4.9272   -0.4140   -4.7743 C   0  0  0  0  0  0  0  0  0  0  0  0
    3.8906   -0.1812   -5.3977 O   0  0  0  0  0  0  0  0  0  0  0  0
    5.3016   -1.6535   -4.4322 N   0  0  0  0  0  0  0  0  0  0  0  0
    6.1468   -1.7571   -3.8934 H   0  0  0  0  0  0  0  0  0  0  0  0
    4.5311   -2.8588   -4.7354 C   0  0  0  0  0  0  0  0  0  0  0  0
    3.6600   -2.9131   -4.0804 H   0  0  0  0  0  0  0  0  0  0  0  0
    4.1865   -2.8311   -5.7719 H   0  0  0  0  0  0  0  0  0  0  0  0
    5.1467   -3.7464   -4.5885 H   0  0  0  0  0  0  0  0  0  0  0  0
  5  6  2  0  0  0  0
  5  7  1  0  0  0  0
  2  3  1  0  0  0  0
  2  4  1  0  0  0  0
  2  5  1  0  0  0  0
  1  2  1  0  0  0  0
 15 16  2  0  0  0  0
 15 17  1  0  0  0  0
 14 36  1  0  0  0  0
 11 12  1  0  0  0  0
 11 13  1  0  0  0  0
 11 14  1  0  0  0  0
  9 10  1  0  0  0  0
  9 11  1  0  0  0  0
  9 15  1  0  0  0  0
  7  8  1  0  0  0  0
  7  9  1  0  0  0  0
 19 20  1  0  0  0  0
 19 21  1  0  0  0  0
 19 22  1  0  0  0  0
 17 18  1  0  0  0  0
 17 19  1  0  0  0  0
 27 28  2  0  0  0  0
 27 29  1  0  0  0  0
 24 25  1  0  0  0  0
 24 26  1  0  0  0  0
 24 27  1  0  0  0  0
 23 24  1  0  0  0  0
 37 38  2  0  0  0  0
 37 39  1  0  0  0  0
 33 34  1  0  0  0  0
 33 35  1  0  0  0  0
 33 36  1  0  0  0  0
 31 32  1  0  0  0  0
 31 33  1  0  0  0  0
 31 37  1  0  0  0  0
 29 30  1  0  0  0  0
 29 31  1  0  0  0  0
 41 42  1  0  0  0  0
 41 43  1  0  0  0  0
 41 44  1  0  0  0  0
 39 40  1  0  0  0  0
 39 41  1  0  0  0  0
M  END
$$$$
default_name
  -OEChem-01062215323D

 44 43  0     1  0  0  0  0  0999 V2000
    2.4488   -3.0448    2.0990 H   0  0  0  0  0  0  0  0  0  0  0  0
    2.2788   -2.0018    2.3640 C   0  0  0  0  0  0  0  0  0  0  0  0
    2.9228   -1.7258    3.1960 H   0  0  0  0  0  0  0  0  0  0  0  0
    1.2358   -1.8618    2.6430 H   0  0  0  0  0  0  0  0  0  0  0  0
    2.6018   -1.1318    1.1730 C   0  0  0  0  0  0  0  0  0  0  0  0
    3.0048   -1.6348    0.1320 O   0  0  0  0  0  0  0  0  0  0  0  0
    2.4088    0.1752    1.3190 N   0  0  0  0  0  0  0  0  0  0  0  0
    2.0708    0.5242    2.2050 H   0  0  0  0  0  0  0  0  0  0  0  0
    2.6638    1.1782    0.2840 C   0  0  1  0  0  0  0  0  0  0  0  0
    3.6853    1.5416    0.4079 H   0  0  0  0  0  0  0  0  0  0  0  0
    2.5537    0.5277   -1.1061 C   0  0  0  0  0  0  0  0  0  0  0  0
    2.5852    1.3117   -1.8637 H   0  0  0  0  0  0  0  0  0  0  0  0
    1.5690    0.0672   -1.1815 H   0  0  0  0  0  0  0  0  0  0  0  0
    3.7691   -0.7499   -1.5459 S   0  0  0  0  0  0  0  0  0  0  0  0
    1.7153    2.3824    0.4332 C   0  0  0  0  0  0  0  0  0  0  0  0
    1.9439    3.4357   -0.1613 O   0  0  0  0  0  0  0  0  0  0  0  0
    0.6453    2.2236    1.2237 N   0  0  0  0  0  0  0  0  0  0  0  0
    0.5173    1.3338    1.6780 H   0  0  0  0  0  0  0  0  0  0  0  0
   -0.3447    3.2704    1.4687 C   0  0  0  0  0  0  0  0  0  0  0  0
    0.1338    4.1205    1.9597 H   0  0  0  0  0  0  0  0  0  0  0  0
   -0.7650    3.6107    0.5205 H   0  0  0  0  0  0  0  0  0  0  0  0
   -1.1472    2.8923    2.1033 H   0  0  0  0  0  0  0  0  0  0  0  0
    7.3125    4.4471   -6.6702 H   0  0  0  0  0  0  0  0  0  0  0  0
    6.4525    3.7830   -6.5979 C   0  0  0  0  0  0  0  0  0  0  0  0
    6.2807    3.2986   -7.5578 H   0  0  0  0  0  0  0  0  0  0  0  0
    5.5724    4.3550   -6.3100 H   0  0  0  0  0  0  0  0  0  0  0  0
    6.7314    2.7318   -5.5493 C   0  0  0  0  0  0  0  0  0  0  0  0
    7.7891    2.7376   -4.9343 O   0  0  0  0  0  0  0  0  0  0  0  0
    5.7735    1.8325   -5.3410 N   0  0  0  0  0  0  0  0  0  0  0  0
    4.9297    1.8826   -5.8932 H   0  0  0  0  0  0  0  0  0  0  0  0
    5.8546    0.7444   -4.3665 C   0  0  1  0  0  0  0  0  0  0  0  0
    6.8784    0.3671   -4.3390 H   0  0  0  0  0  0  0  0  0  0  0  0
    5.5143    1.3180   -2.9838 C   0  0  0  0  0  0  0  0  0  0  0  0
    6.2211    2.1235   -2.7794 H   0  0  0  0  0  0  0  0  0  0  0  0
    4.5204    1.7644   -3.0221 H   0  0  0  0  0  0  0  0  0  0  0  0
    5.5836    0.1857   -1.5696 S   0  0  0  0  0  0  0  0  0  0  0  0
    4.9272   -0.4140   -4.7743 C   0  0  0  0  0  0  0  0  0  0  0  0
    3.8906   -0.1812   -5.3977 O   0  0  0  0  0  0  0  0  0  0  0  0
    5.3016   -1.6535   -4.4322 N   0  0  0  0  0  0  0  0  0  0  0  0
    6.1468   -1.7571   -3.8934 H   0  0  0  0  0  0  0  0  0  0  0  0
    4.5311   -2.8588   -4.7354 C   0  0  0  0  0  0  0  0  0  0  0  0
    3.6600   -2.9131   -4.0804 H   0  0  0  0  0  0  0  0  0  0  0  0
    4.1865   -2.8311   -5.7719 H   0  0  0  0  0  0  0  0  0  0  0  0
    5.1467   -3.7464   -4.5885 H   0  0  0  0  0  0  0  0  0  0  0  0
  5  6  2  0  0  0  0
  5  7  1  0  0  0  0
  2  3  1  0  0  0  0
  2  4  1  0  0  0  0
  2  5  1  0  0  0  0
  1  2  1  0  0  0  0
 15 16  2  0  0  0  0
 15 17  1  0  0  0  0
 14 36  1  0  0  0  0
 11 12  1  0  0  0  0
 11 13  1  0  0  0  0
 11 14  1  0  0  0  0
  9 10  1  0  0  0  0
  9 11  1  0  0  0  0
  9 15  1  0  0  0  0
  7  8  1  0  0  0  0
  7  9  1  0  0  0  0
 19 20  1  0  0  0  0
 19 21  1  0  0  0  0
 19 22  1  0  0  0  0
 17 18  1  0  0  0  0
 17 19  1  0  0  0  0
 27 28  2  0  0  0  0
 27 29  1  0  0  0  0
 24 25  1  0  0  0  0
 24 26  1  0  0  0  0
 24 27  1  0  0  0  0
 23 24  1  0  0  0  0
 37 38  2  0  0  0  0
 37 39  1  0  0  0  0
 33 34  1  0  0  0  0
 33 35  1  0  0  0  0
 33 36  1  0  0  0  0
 31 32  1  0  0  0  0
 31 33  1  0  0  0  0
 31 37  1  0  0  0  0
 29 30  1  0  0  0  0
 29 31  1  0  0  0  0
 41 42  1  0  0  0  0
 41 43  1  0  0  0  0
 41 44  1  0  0  0  0
 39 40  1  0  0  0  0
 39 41  1  0  0  0  0
M  END
$$$$
default_name
  -OEChem-01062215323D

 44 43  0     1  0  0  0  0  0999 V2000
    2.4488   -3.0448    2.0990 H   0  0  0  0  0  0  0  0  0  0  0  0
    2.2788   -2.0018    2.3640 C   0  0  0  0  0  0  0  0  0  0  0  0
    2.9228   -1.7258    3.1960 H   0  0  0  0  0  0  0  0  0  0  0  0
    1.2358   -1.8618    2.6430 H   0  0  0  0  0  0  0  0  0  0  0  0
    2.6018   -1.1318    1.1730 C   0  0  0  0  0  0  0  0  0  0  0  0
    3.0048   -1.6348    0.1320 O   0  0  0  0  0  0  0  0  0  0  0  0
    2.4088    0.1752    1.3190 N   0  0  0  0  0  0  0  0  0  0  0  0
    2.0708    0.5242    2.2050 H   0  0  0  0  0  0  0  0  0  0  0  0
    2.6638    1.1782    0.2840 C   0  0  1  0  0  0  0  0  0  0  0  0
    3.6853    1.5416    0.4079 H   0  0  0  0  0  0  0  0  0  0  0  0
    2.5537    0.5277   -1.1061 C   0  0  0  0  0  0  0  0  0  0  0  0
    2.5852    1.3117   -1.8637 H   0  0  0  0  0  0  0  0  0  0  0  0
    1.5690    0.0672   -1.1815 H   0  0  0  0  0  0  0  0  0  0  0  0
    3.7691   -0.7499   -1.5459 S   0  0  0  0  0  0  0  0  0  0  0  0
    1.7153    2.3824    0.4332 C   0  0  0  0  0  0  0  0  0  0  0  0
    1.7762    3.3275   -0.3531 O   0  0  0  0  0  0  0  0  0  0  0  0
    0.8329    2.3445    1.4406 N   0  0  0  0  0  0  0  0  0  0  0  0
    0.8355    1.5389    2.0453 H   0  0  0  0  0  0  0  0  0  0  0  0
   -0.1305    3.4085    1.7155 C   0  0  0  0  0  0  0  0  0  0  0  0
    0.4009    4.3310    1.9589 H   0  0  0  0  0  0  0  0  0  0  0  0
   -0.7460    3.5870    0.8319 H   0  0  0  0  0  0  0  0  0  0  0  0
   -0.7732    3.1313    2.5521 H   0  0  0  0  0  0  0  0  0  0  0  0
    7.3125    4.4471   -6.6702 H   0  0  0  0  0  0  0  0  0  0  0  0
    6.4525    3.7830   -6.5979 C   0  0  0  0  0  0  0  0  0  0  0  0
    6.2807    3.2986   -7.5578 H   0  0  0  0  0  0  0  0  0  0  0  0
    5.5724    4.3550   -6.3100 H   0  0  0  0  0  0  0  0  0  0  0  0
    6.7314    2.7318   -5.5493 C   0  0  0  0  0  0  0  0  0  0  0  0
    7.7891    2.7376   -4.9343 O   0  0  0  0  0  0  0  0  0  0  0  0
    5.7735    1.8325   -5.3410 N   0  0  0  0  0  0  0  0  0  0  0  0
    4.9297    1.8826   -5.8932 H   0  0  0  0  0  0  0  0  0  0  0  0
    5.8546    0.7444   -4.3665 C   0  0  1  0  0  0  0  0  0  0  0  0
    6.8784    0.3671   -4.3390 H   0  0  0  0  0  0  0  0  0  0  0  0
    5.5143    1.3180   -2.9838 C   0  0  0  0  0  0  0  0  0  0  0  0
    6.2211    2.1235   -2.7794 H   0  0  0  0  0  0  0  0  0  0  0  0
    4.5204    1.7644   -3.0221 H   0  0  0  0  0  0  0  0  0  0  0  0
    5.5836    0.1857   -1.5696 S   0  0  0  0  0  0  0  0  0  0  0  0
    4.9272   -0.4140   -4.7743 C   0  0  0  0  0  0  0  0  0  0  0  0
    3.8906   -0.1812   -5.3977 O   0  0  0  0  0  0  0  0  0  0  0  0
    5.3016   -1.6535   -4.4322 N   0  0  0  0  0  0  0  0  0  0  0  0
    6.1468   -1.7571   -3.8934 H   0  0  0  0  0  0  0  0  0  0  0  0
    4.5311   -2.8588   -4.7354 C   0  0  0  0  0  0  0  0  0  0  0  0
    3.6600   -2.9131   -4.0804 H   0  0  0  0  0  0  0  0  0  0  0  0
    4.1865   -2.8311   -5.7719 H   0  0  0  0  0  0  0  0  0  0  0  0
    5.1467   -3.7464   -4.5885 H   0  0  0  0  0  0  0  0  0  0  0  0
  5  6  2  0  0  0  0
  5  7  1  0  0  0  0
  2  3  1  0  0  0  0
  2  4  1  0  0  0  0
  2  5  1  0  0  0  0
  1  2  1  0  0  0  0
 15 16  2  0  0  0  0
 15 17  1  0  0  0  0
 14 36  1  0  0  0  0
 11 12  1  0  0  0  0
 11 13  1  0  0  0  0
 11 14  1  0  0  0  0
  9 10  1  0  0  0  0
  9 11  1  0  0  0  0
  9 15  1  0  0  0  0
  7  8  1  0  0  0  0
  7  9  1  0  0  0  0
 19 20  1  0  0  0  0
 19 21  1  0  0  0  0
 19 22  1  0  0  0  0
 17 18  1  0  0  0  0
 17 19  1  0  0  0  0
 27 28  2  0  0  0  0
 27 29  1  0  0  0  0
 24 25  1  0  0  0  0
 24 26  1  0  0  0  0
 24 27  1  0  0  0  0
 23 24  1  0  0  0  0
 37 38  2  0  0  0  0
 37 39  1  0  0  0  0
 33 34  1  0  0  0  0
 33 35  1  0  0  0  0
 33 36  1  0  0  0  0
 31 32  1  0  0  0  0
 31 33  1  0  0  0  0
 31 37  1  0  0  0  0
 29 30  1  0  0  0  0
 29 31  1  0  0  0  0
 41 42  1  0  0  0  0
 41 43  1  0  0  0  0
 41 44  1  0  0  0  0
 39 40  1  0  0  0  0
 39 41  1  0  0  0  0
M  END
$$$$
default_name
  -OEChem-01062215323D

 44 43  0     1  0  0  0  0  0999 V2000
    2.4488   -3.0448    2.0990 H   0  0  0  0  0  0  0  0  0  0  0  0
    2.2788   -2.0018    2.3640 C   0  0  0  0  0  0  0  0  0  0  0  0
    2.9228   -1.7258    3.1960 H   0  0  0  0  0  0  0  0  0  0  0  0
    1.2358   -1.8618    2.6430 H   0  0  0  0  0  0  0  0  0  0  0  0
    2.6018   -1.1318    1.1730 C   0  0  0  0  0  0  0  0  0  0  0  0
    3.0048   -1.6348    0.1320 O   0  0  0  0  0  0  0  0  0  0  0  0
    2.4088    0.1752    1.3190 N   0  0  0  0  0  0  0  0  0  0  0  0
    2.0708    0.5242    2.2050 H   0  0  0  0  0  0  0  0  0  0  0  0
    2.6638    1.1782    0.2840 C   0  0  1  0  0  0  0  0  0  0  0  0
    3.6853    1.5416    0.4079 H   0  0  0  0  0  0  0  0  0  0  0  0
    2.5537    0.5277   -1.1061 C   0  0  0  0  0  0  0  0  0  0  0  0
    2.5852    1.3117   -1.8637 H   0  0  0  0  0  0  0  0  0  0  0  0
    1.5690    0.0672   -1.1815 H   0  0  0  0  0  0  0  0  0  0  0  0
    3.7691   -0.7499   -1.5459 S   0  0  0  0  0  0  0  0  0  0  0  0
    1.7153    2.3824    0.4332 C   0  0  0  0  0  0  0  0  0  0  0  0
    1.5782    3.1881   -0.4872 O   0  0  0  0  0  0  0  0  0  0  0  0
    1.0549    2.5005    1.5929 N   0  0  0  0  0  0  0  0  0  0  0  0
    1.2121    1.8035    2.3030 H   0  0  0  0  0  0  0  0  0  0  0  0
    0.1228    3.5866    1.8886 C   0  0  0  0  0  0  0  0  0  0  0  0
    0.6535    4.5409    1.8705 H   0  0  0  0  0  0  0  0  0  0  0  0
   -0.6640    3.6143    1.1326 H   0  0  0  0  0  0  0  0  0  0  0  0
   -0.3272    3.4430    2.8718 H   0  0  0  0  0  0  0  0  0  0  0  0
    7.3125    4.4471   -6.6702 H   0  0  0  0  0  0  0  0  0  0  0  0
    6.4525    3.7830   -6.5979 C   0  0  0  0  0  0  0  0  0  0  0  0
    6.2807    3.2986   -7.5578 H   0  0  0  0  0  0  0  0  0  0  0  0
    5.5724    4.3550   -6.3100 H   0  0  0  0  0  0  0  0  0  0  0  0
    6.7314    2.7318   -5.5493 C   0  0  0  0  0  0  0  0  0  0  0  0
    7.7891    2.7376   -4.9343 O   0  0  0  0  0  0  0  0  0  0  0  0
    5.7735    1.8325   -5.3410 N   0  0  0  0  0  0  0  0  0  0  0  0
    4.9297    1.8826   -5.8932 H   0  0  0  0  0  0  0  0  0  0  0  0
    5.8546    0.7444   -4.3665 C   0  0  1  0  0  0  0  0  0  0  0  0
    6.8784    0.3671   -4.3390 H   0  0  0  0  0  0  0  0  0  0  0  0
    5.5143    1.3180   -2.9838 C   0  0  0  0  0  0  0  0  0  0  0  0
    6.2211    2.1235   -2.7794 H   0  0  0  0  0  0  0  0  0  0  0  0
    4.5204    1.7644   -3.0221 H   0  0  0  0  0  0  0  0  0  0  0  0
    5.5836    0.1857   -1.5696 S   0  0  0  0  0  0  0  0  0  0  0  0
    4.9272   -0.4140   -4.7743 C   0  0  0  0  0  0  0  0  0  0  0  0
    3.8906   -0.1812   -5.3977 O   0  0  0  0  0  0  0  0  0  0  0  0
    5.3016   -1.6535   -4.4322 N   0  0  0  0  0  0  0  0  0  0  0  0
    6.1468   -1.7571   -3.8934 H   0  0  0  0  0  0  0  0  0  0  0  0
    4.5311   -2.8588   -4.7354 C   0  0  0  0  0  0  0  0  0  0  0  0
    3.6600   -2.9131   -4.0804 H   0  0  0  0  0  0  0  0  0  0  0  0
    4.1865   -2.8311   -5.7719 H   0  0  0  0  0  0  0  0  0  0  0  0
    5.1467   -3.7464   -4.5885 H   0  0  0  0  0  0  0  0  0  0  0  0
  5  6  2  0  0  0  0
  5  7  1  0  0  0  0
  2  3  1  0  0  0  0
  2  4  1  0  0  0  0
  2  5  1  0  0  0  0
  1  2  1  0  0  0  0
 15 16  2  0  0  0  0
 15 17  1  0  0  0  0
 14 36  1  0  0  0  0
 11 12  1  0  0  0  0
 11 13  1  0  0  0  0
 11 14  1  0  0  0  0
  9 10  1  0  0  0  0
  9 11  1  0  0  0  0
  9 15  1  0  0  0  0
  7  8  1  0  0  0  0
  7  9  1  0  0  0  0
 19 20  1  0  0  0  0
 19 21  1  0  0  0  0
 19 22  1  0  0  0  0
 17 18  1  0  0  0  0
 17 19  1  0  0  0  0
 27 28  2  0  0  0  0
 27 29  1  0  0  0  0
 24 25  1  0  0  0  0
 24 26  1  0  0  0  0
 24 27  1  0  0  0  0
 23 24  1  0  0  0  0
 37 38  2  0  0  0  0
 37 39  1  0  0  0  0
 33 34  1  0  0  0  0
 33 35  1  0  0  0  0
 33 36  1  0  0  0  0
 31 32  1  0  0  0  0
 31 33  1  0  0  0  0
 31 37  1  0  0  0  0
 29 30  1  0  0  0  0
 29 31  1  0  0  0  0
 41 42  1  0  0  0  0
 41 43  1  0  0  0  0
 41 44  1  0  0  0  0
 39 40  1  0  0  0  0
 39 41  1  0  0  0  0
M  END
$$$$
default_name
  -OEChem-01062215323D

 44 43  0     1  0  0  0  0  0999 V2000
    2.4488   -3.0448    2.0990 H   0  0  0  0  0  0  0  0  0  0  0  0
    2.2788   -2.0018    2.3640 C   0  0  0  0  0  0  0  0  0  0  0  0
    2.9228   -1.7258    3.1960 H   0  0  0  0  0  0  0  0  0  0  0  0
    1.2358   -1.8618    2.6430 H   0  0  0  0  0  0  0  0  0  0  0  0
    2.6018   -1.1318    1.1730 C   0  0  0  0  0  0  0  0  0  0  0  0
    3.0048   -1.6348    0.1320 O   0  0  0  0  0  0  0  0  0  0  0  0
    2.4088    0.1752    1.3190 N   0  0  0  0  0  0  0  0  0  0  0  0
    2.0708    0.5242    2.2050 H   0  0  0  0  0  0  0  0  0  0  0  0
    2.6638    1.1782    0.2840 C   0  0  1  0  0  0  0  0  0  0  0  0
    3.6853    1.5416    0.4079 H   0  0  0  0  0  0  0  0  0  0  0  0
    2.5537    0.5277   -1.1061 C   0  0  0  0  0  0  0  0  0  0  0  0
    2.5852    1.3117   -1.8637 H   0  0  0  0  0  0  0  0  0  0  0  0
    1.5690    0.0672   -1.1815 H   0  0  0  0  0  0  0  0  0  0  0  0
    3.7691   -0.7499   -1.5459 S   0  0  0  0  0  0  0  0  0  0  0  0
    1.7153    2.3824    0.4332 C   0  0  0  0  0  0  0  0  0  0  0  0
    1.3633    3.0271   -0.5545 O   0  0  0  0  0  0  0  0  0  0  0  0
    1.2963    2.6810    1.6702 N   0  0  0  0  0  0  0  0  0  0  0  0
    1.6213    2.1097    2.4335 H   0  0  0  0  0  0  0  0  0  0  0  0
    0.3981    3.7926    1.9762 C   0  0  0  0  0  0  0  0  0  0  0  0
    0.8743    4.7359    1.7005 H   0  0  0  0  0  0  0  0  0  0  0  0
   -0.5247    3.6906    1.4022 H   0  0  0  0  0  0  0  0  0  0  0  0
    0.1605    3.8062    3.0406 H   0  0  0  0  0  0  0  0  0  0  0  0
    7.3125    4.4471   -6.6702 H   0  0  0  0  0  0  0  0  0  0  0  0
    6.4525    3.7830   -6.5979 C   0  0  0  0  0  0  0  0  0  0  0  0
    6.2807    3.2986   -7.5578 H   0  0  0  0  0  0  0  0  0  0  0  0
    5.5724    4.3550   -6.3100 H   0  0  0  0  0  0  0  0  0  0  0  0
    6.7314    2.7318   -5.5493 C   0  0  0  0  0  0  0  0  0  0  0  0
    7.7891    2.7376   -4.9343 O   0  0  0  0  0  0  0  0  0  0  0  0
    5.7735    1.8325   -5.3410 N   0  0  0  0  0  0  0  0  0  0  0  0
    4.9297    1.8826   -5.8932 H   0  0  0  0  0  0  0  0  0  0  0  0
    5.8546    0.7444   -4.3665 C   0  0  1  0  0  0  0  0  0  0  0  0
    6.8784    0.3671   -4.3390 H   0  0  0  0  0  0  0  0  0  0  0  0
    5.5143    1.3180   -2.9838 C   0  0  0  0  0  0  0  0  0  0  0  0
    6.2211    2.1235   -2.7794 H   0  0  0  0  0  0  0  0  0  0  0  0
    4.5204    1.7644   -3.0221 H   0  0  0  0  0  0  0  0  0  0  0  0
    5.5836    0.1857   -1.5696 S   0  0  0  0  0  0  0  0  0  0  0  0
    4.9272   -0.4140   -4.7743 C   0  0  0  0  0  0  0  0  0  0  0  0
    3.8906   -0.1812   -5.3977 O   0  0  0  0  0  0  0  0  0  0  0  0
    5.3016   -1.6535   -4.4322 N   0  0  0  0  0  0  0  0  0  0  0  0
    6.1468   -1.7571   -3.8934 H   0  0  0  0  0  0  0  0  0  0  0  0
    4.5311   -2.8588   -4.7354 C   0  0  0  0  0  0  0  0  0  0  0  0
    3.6600   -2.9131   -4.0804 H   0  0  0  0  0  0  0  0  0  0  0  0
    4.1865   -2.8311   -5.7719 H   0  0  0  0  0  0  0  0  0  0  0  0
    5.1467   -3.7464   -4.5885 H   0  0  0  0  0  0  0  0  0  0  0  0
  5  6  2  0  0  0  0
  5  7  1  0  0  0  0
  2  3  1  0  0  0  0
  2  4  1  0  0  0  0
  2  5  1  0  0  0  0
  1  2  1  0  0  0  0
 15 16  2  0  0  0  0
 15 17  1  0  0  0  0
 14 36  1  0  0  0  0
 11 12  1  0  0  0  0
 11 13  1  0  0  0  0
 11 14  1  0  0  0  0
  9 10  1  0  0  0  0
  9 11  1  0  0  0  0
  9 15  1  0  0  0  0
  7  8  1  0  0  0  0
  7  9  1  0  0  0  0
 19 20  1  0  0  0  0
 19 21  1  0  0  0  0
 19 22  1  0  0  0  0
 17 18  1  0  0  0  0
 17 19  1  0  0  0  0
 27 28  2  0  0  0  0
 27 29  1  0  0  0  0
 24 25  1  0  0  0  0
 24 26  1  0  0  0  0
 24 27  1  0  0  0  0
 23 24  1  0  0  0  0
 37 38  2  0  0  0  0
 37 39  1  0  0  0  0
 33 34  1  0  0  0  0
 33 35  1  0  0  0  0
 33 36  1  0  0  0  0
 31 32  1  0  0  0  0
 31 33  1  0  0  0  0
 31 37  1  0  0  0  0
 29 30  1  0  0  0  0
 29 31  1  0  0  0  0
 41 42  1  0  0  0  0
 41 43  1  0  0  0  0
 41 44  1  0  0  0  0
 39 40  1  0  0  0  0
 39 41  1  0  0  0  0
M  END
$$$$
default_name
  -OEChem-01062215323D

 44 43  0     1  0  0  0  0  0999 V2000
    2.4488   -3.0448    2.0990 H   0  0  0  0  0  0  0  0  0  0  0  0
    2.2788   -2.0018    2.3640 C   0  0  0  0  0  0  0  0  0  0  0  0
    2.9228   -1.7258    3.1960 H   0  0  0  0  0  0  0  0  0  0  0  0
    1.2358   -1.8618    2.6430 H   0  0  0  0  0  0  0  0  0  0  0  0
    2.6018   -1.1318    1.1730 C   0  0  0  0  0  0  0  0  0  0  0  0
    3.0048   -1.6348    0.1320 O   0  0  0  0  0  0  0  0  0  0  0  0
    2.4088    0.1752    1.3190 N   0  0  0  0  0  0  0  0  0  0  0  0
    2.0708    0.5242    2.2050 H   0  0  0  0  0  0  0  0  0  0  0  0
    2.6638    1.1782    0.2840 C   0  0  1  0  0  0  0  0  0  0  0  0
    3.6853    1.5416    0.4079 H   0  0  0  0  0  0  0  0  0  0  0  0
    2.5537    0.5277   -1.1061 C   0  0  0  0  0  0  0  0  0  0  0  0
    2.5852    1.3117   -1.8637 H   0  0  0  0  0  0  0  0  0  0  0  0
    1.5690    0.0672   -1.1815 H   0  0  0  0  0  0  0  0  0  0  0  0
    3.7691   -0.7499   -1.5459 S   0  0  0  0  0  0  0  0  0  0  0  0
    1.7153    2.3824    0.4332 C   0  0  0  0  0  0  0  0  0  0  0  0
    1.1461    2.8556   -0.5503 O   0  0  0  0  0  0  0  0  0  0  0  0
    1.5406    2.8738    1.6673 N   0  0  0  0  0  0  0  0  0  0  0  0
    2.0353    2.4365    2.4280 H   0  0  0  0  0  0  0  0  0  0  0  0
    0.6765    4.0124    1.9722 C   0  0  0  0  0  0  0  0  0  0  0  0
    1.0483    4.9027    1.4606 H   0  0  0  0  0  0  0  0  0  0  0  0
   -0.3375    3.8108    1.6222 H   0  0  0  0  0  0  0  0  0  0  0  0
    0.6567    4.1962    3.0471 H   0  0  0  0  0  0  0  0  0  0  0  0
    7.3125    4.4471   -6.6702 H   0  0  0  0  0  0  0  0  0  0  0  0
    6.4525    3.7830   -6.5979 C   0  0  0  0  0  0  0  0  0  0  0  0
    6.2807    3.2986   -7.5578 H   0  0  0  0  0  0  0  0  0  0  0  0
    5.5724    4.3550   -6.3100 H   0  0  0  0  0  0  0  0  0  0  0  0
    6.7314    2.7318   -5.5493 C   0  0  0  0  0  0  0  0  0  0  0  0
    7.7891    2.7376   -4.9343 O   0  0  0  0  0  0  0  0  0  0  0  0
    5.7735    1.8325   -5.3410 N   0  0  0  0  0  0  0  0  0  0  0  0
    4.9297    1.8826   -5.8932 H   0  0  0  0  0  0  0  0  0  0  0  0
    5.8546    0.7444   -4.3665 C   0  0  1  0  0  0  0  0  0  0  0  0
    6.8784    0.3671   -4.3390 H   0  0  0  0  0  0  0  0  0  0  0  0
    5.5143    1.3180   -2.9838 C   0  0  0  0  0  0  0  0  0  0  0  0
    6.2211    2.1235   -2.7794 H   0  0  0  0  0  0  0  0  0  0  0  0
    4.5204    1.7644   -3.0221 H   0  0  0  0  0  0  0  0  0  0  0  0
    5.5836    0.1857   -1.5696 S   0  0  0  0  0  0  0  0  0  0  0  0
    4.9272   -0.4140   -4.7743 C   0  0  0  0  0  0  0  0  0  0  0  0
    3.8906   -0.1812   -5.3977 O   0  0  0  0  0  0  0  0  0  0  0  0
    5.3016   -1.6535   -4.4322 N   0  0  0  0  0  0  0  0  0  0  0  0
    6.1468   -1.7571   -3.8934 H   0  0  0  0  0  0  0  0  0  0  0  0
    4.5311   -2.8588   -4.7354 C   0  0  0  0  0  0  0  0  0  0  0  0
    3.6600   -2.9131   -4.0804 H   0  0  0  0  0  0  0  0  0  0  0  0
    4.1865   -2.8311   -5.7719 H   0  0  0  0  0  0  0  0  0  0  0  0
    5.1467   -3.7464   -4.5885 H   0  0  0  0  0  0  0  0  0  0  0  0
  5  6  2  0  0  0  0
  5  7  1  0  0  0  0
  2  3  1  0  0  0  0
  2  4  1  0  0  0  0
  2  5  1  0  0  0  0
  1  2  1  0  0  0  0
 15 16  2  0  0  0  0
 15 17  1  0  0  0  0
 14 36  1  0  0  0  0
 11 12  1  0  0  0  0
 11 13  1  0  0  0  0
 11 14  1  0  0  0  0
  9 10  1  0  0  0  0
  9 11  1  0  0  0  0
  9 15  1  0  0  0  0
  7  8  1  0  0  0  0
  7  9  1  0  0  0  0
 19 20  1  0  0  0  0
 19 21  1  0  0  0  0
 19 22  1  0  0  0  0
 17 18  1  0  0  0  0
 17 19  1  0  0  0  0
 27 28  2  0  0  0  0
 27 29  1  0  0  0  0
 24 25  1  0  0  0  0
 24 26  1  0  0  0  0
 24 27  1  0  0  0  0
 23 24  1  0  0  0  0
 37 38  2  0  0  0  0
 37 39  1  0  0  0  0
 33 34  1  0  0  0  0
 33 35  1  0  0  0  0
 33 36  1  0  0  0  0
 31 32  1  0  0  0  0
 31 33  1  0  0  0  0
 31 37  1  0  0  0  0
 29 30  1  0  0  0  0
 29 31  1  0  0  0  0
 41 42  1  0  0  0  0
 41 43  1  0  0  0  0
 41 44  1  0  0  0  0
 39 40  1  0  0  0  0
 39 41  1  0  0  0  0
M  END
$$$$
default_name
  -OEChem-01062215323D

 44 43  0     1  0  0  0  0  0999 V2000
    2.4488   -3.0448    2.0990 H   0  0  0  0  0  0  0  0  0  0  0  0
    2.2788   -2.0018    2.3640 C   0  0  0  0  0  0  0  0  0  0  0  0
    2.9228   -1.7258    3.1960 H   0  0  0  0  0  0  0  0  0  0  0  0
    1.2358   -1.8618    2.6430 H   0  0  0  0  0  0  0  0  0  0  0  0
    2.6018   -1.1318    1.1730 C   0  0  0  0  0  0  0  0  0  0  0  0
    3.0048   -1.6348    0.1320 O   0  0  0  0  0  0  0  0  0  0  0  0
    2.4088    0.1752    1.3190 N   0  0  0  0  0  0  0  0  0  0  0  0
    2.0708    0.5242    2.2050 H   0  0  0  0  0  0  0  0  0  0  0  0
    2.6638    1.1782    0.2840 C   0  0  1  0  0  0  0  0  0  0  0  0
    3.6853    1.5416    0.4079 H   0  0  0  0  0  0  0  0  0  0  0  0
    2.5537    0.5277   -1.1061 C   0  0  0  0  0  0  0  0  0  0  0  0
    2.5852    1.3117   -1.8637 H   0  0  0  0  0  0  0  0  0  0  0  0
    1.5690    0.0672   -1.1815 H   0  0  0  0  0  0  0  0  0  0  0  0
    3.7691   -0.7499   -1.5459 S   0  0  0  0  0  0  0  0  0  0  0  0
    1.7153    2.3824    0.4332 C   0  0  0  0  0  0  0  0  0  0  0  0
    0.9415    2.6850   -0.4750 O   0  0  0  0  0  0  0  0  0  0  0  0
    1.7711    3.0657    1.5843 N   0  0  0  0  0  0  0  0  0  0  0  0
    2.4259    2.7617    2.2867 H   0  0  0  0  0  0  0  0  0  0  0  0
    0.9392    4.2310    1.8770 C   0  0  0  0  0  0  0  0  0  0  0  0
    1.1636    5.0299    1.1670 H   0  0  0  0  0  0  0  0  0  0  0  0
   -0.1152    3.9667    1.7776 H   0  0  0  0  0  0  0  0  0  0  0  0
    1.1275    4.5864    2.8909 H   0  0  0  0  0  0  0  0  0  0  0  0
    7.3125    4.4471   -6.6702 H   0  0  0  0  0  0  0  0  0  0  0  0
    6.4525    3.7830   -6.5979 C   0  0  0  0  0  0  0  0  0  0  0  0
    6.2807    3.2986   -7.5578 H   0  0  0  0  0  0  0  0  0  0  0  0
    5.5724    4.3550   -6.3100 H   0  0  0  0  0  0  0  0  0  0  0  0
    6.7314    2.7318   -5.5493 C   0  0  0  0  0  0  0  0  0  0  0  0
    7.7891    2.7376   -4.9343 O   0  0  0  0  0  0  0  0  0  0  0  0
    5.7735    1.8325   -5.3410 N   0  0  0  0  0  0  0  0  0  0  0  0
    4.9297    1.8826   -5.8932 H   0  0  0  0  0  0  0  0  0  0  0  0
    5.8546    0.7444   -4.3665 C   0  0  1  0  0  0  0  0  0  0  0  0
    6.8784    0.3671   -4.3390 H   0  0  0  0  0  0  0  0  0  0  0  0
    5.5143    1.3180   -2.9838 C   0  0  0  0  0  0  0  0  0  0  0  0
    6.2211    2.1235   -2.7794 H   0  0  0  0  0  0  0  0  0  0  0  0
    4.5204    1.7644   -3.0221 H   0  0  0  0  0  0  0  0  0  0  0  0
    5.5836    0.1857   -1.5696 S   0  0  0  0  0  0  0  0  0  0  0  0
    4.9272   -0.4140   -4.7743 C   0  0  0  0  0  0  0  0  0  0  0  0
    3.8906   -0.1812   -5.3977 O   0  0  0  0  0  0  0  0  0  0  0  0
    5.3016   -1.6535   -4.4322 N   0  0  0  0  0  0  0  0  0  0  0  0
    6.1468   -1.7571   -3.8934 H   0  0  0  0  0  0  0  0  0  0  0  0
    4.5311   -2.8588   -4.7354 C   0  0  0  0  0  0  0  0  0  0  0  0
    3.6600   -2.9131   -4.0804 H   0  0  0  0  0  0  0  0  0  0  0  0
    4.1865   -2.8311   -5.7719 H   0  0  0  0  0  0  0  0  0  0  0  0
    5.1467   -3.7464   -4.5885 H   0  0  0  0  0  0  0  0  0  0  0  0
  5  6  2  0  0  0  0
  5  7  1  0  0  0  0
  2  3  1  0  0  0  0
  2  4  1  0  0  0  0
  2  5  1  0  0  0  0
  1  2  1  0  0  0  0
 15 16  2  0  0  0  0
 15 17  1  0  0  0  0
 14 36  1  0  0  0  0
 11 12  1  0  0  0  0
 11 13  1  0  0  0  0
 11 14  1  0  0  0  0
  9 10  1  0  0  0  0
  9 11  1  0  0  0  0
  9 15  1  0  0  0  0
  7  8  1  0  0  0  0
  7  9  1  0  0  0  0
 19 20  1  0  0  0  0
 19 21  1  0  0  0  0
 19 22  1  0  0  0  0
 17 18  1  0  0  0  0
 17 19  1  0  0  0  0
 27 28  2  0  0  0  0
 27 29  1  0  0  0  0
 24 25  1  0  0  0  0
 24 26  1  0  0  0  0
 24 27  1  0  0  0  0
 23 24  1  0  0  0  0
 37 38  2  0  0  0  0
 37 39  1  0  0  0  0
 33 34  1  0  0  0  0
 33 35  1  0  0  0  0
 33 36  1  0  0  0  0
 31 32  1  0  0  0  0
 31 33  1  0  0  0  0
 31 37  1  0  0  0  0
 29 30  1  0  0  0  0
 29 31  1  0  0  0  0
 41 42  1  0  0  0  0
 41 43  1  0  0  0  0
 41 44  1  0  0  0  0
 39 40  1  0  0  0  0
 39 41  1  0  0  0  0
M  END
$$$$
default_name
  -OEChem-01062215323D

 44 43  0     1  0  0  0  0  0999 V2000
    2.4488   -3.0448    2.0990 H   0  0  0  0  0  0  0  0  0  0  0  0
    2.2788   -2.0018    2.3640 C   0  0  0  0  0  0  0  0  0  0  0  0
    2.9228   -1.7258    3.1960 H   0  0  0  0  0  0  0  0  0  0  0  0
    1.2358   -1.8618    2.6430 H   0  0  0  0  0  0  0  0  0  0  0  0
    2.6018   -1.1318    1.1730 C   0  0  0  0  0  0  0  0  0  0  0  0
    3.0048   -1.6348    0.1320 O   0  0  0  0  0  0  0  0  0  0  0  0
    2.4088    0.1752    1.3190 N   0  0  0  0  0  0  0  0  0  0  0  0
    2.0708    0.5242    2.2050 H   0  0  0  0  0  0  0  0  0  0  0  0
    2.6638    1.1782    0.2840 C   0  0  1  0  0  0  0  0  0  0  0  0
    3.6853    1.5416    0.4079 H   0  0  0  0  0  0  0  0  0  0  0  0
    2.5537    0.5277   -1.1061 C   0  0  0  0  0  0  0  0  0  0  0  0
    2.5852    1.3117   -1.8637 H   0  0  0  0  0  0  0  0  0  0  0  0
    1.5690    0.0672   -1.1815 H   0  0  0  0  0  0  0  0  0  0  0  0
    3.7691   -0.7499   -1.5459 S   0  0  0  0  0  0  0  0  0  0  0  0
    1.7153    2.3824    0.4332 C   0  0  0  0  0  0  0  0  0  0  0  0
    0.7633    2.5272   -0.3336 O   0  0  0  0  0  0  0  0  0  0  0  0
    1.9722    3.2436    1.4269 N   0  0  0  0  0  0  0  0  0  0  0  0
    2.7665    3.0630    2.0194 H   0  0  0  0  0  0  0  0  0  0  0  0
    1.1681    4.4337    1.6970 C   0  0  0  0  0  0  0  0  0  0  0  0
    1.2125    5.1089    0.8398 H   0  0  0  0  0  0  0  0  0  0  0  0
    0.1271    4.1476    1.8580 H   0  0  0  0  0  0  0  0  0  0  0  0
    1.5408    4.9501    2.5825 H   0  0  0  0  0  0  0  0  0  0  0  0
    7.3125    4.4471   -6.6702 H   0  0  0  0  0  0  0  0  0  0  0  0
    6.4525    3.7830   -6.5979 C   0  0  0  0  0  0  0  0  0  0  0  0
    6.2807    3.2986   -7.5578 H   0  0  0  0  0  0  0  0  0  0  0  0
    5.5724    4.3550   -6.3100 H   0  0  0  0  0  0  0  0  0  0  0  0
    6.7314    2.7318   -5.5493 C   0  0  0  0  0  0  0  0  0  0  0  0
    7.7891    2.7376   -4.9343 O   0  0  0  0  0  0  0  0  0  0  0  0
    5.7735    1.8325   -5.3410 N   0  0  0  0  0  0  0  0  0  0  0  0
    4.9297    1.8826   -5.8932 H   0  0  0  0  0  0  0  0  0  0  0  0
    5.8546    0.7444   -4.3665 C   0  0  1  0  0  0  0  0  0  0  0  0
    6.8784    0.3671   -4.3390 H   0  0  0  0  0  0  0  0  0  0  0  0
    5.5143    1.3180   -2.9838 C   0  0  0  0  0  0  0  0  0  0  0  0
    6.2211    2.1235   -2.7794 H   0  0  0  0  0  0  0  0  0  0  0  0
    4.5204    1.7644   -3.0221 H   0  0  0  0  0  0  0  0  0  0  0  0
    5.5836    0.1857   -1.5696 S   0  0  0  0  0  0  0  0  0  0  0  0
    4.9272   -0.4140   -4.7743 C   0  0  0  0  0  0  0  0  0  0  0  0
    3.8906   -0.1812   -5.3977 O   0  0  0  0  0  0  0  0  0  0  0  0
    5.3016   -1.6535   -4.4322 N   0  0  0  0  0  0  0  0  0  0  0  0
    6.1468   -1.7571   -3.8934 H   0  0  0  0  0  0  0  0  0  0  0  0
    4.5311   -2.8588   -4.7354 C   0  0  0  0  0  0  0  0  0  0  0  0
    3.6600   -2.9131   -4.0804 H   0  0  0  0  0  0  0  0  0  0  0  0
    4.1865   -2.8311   -5.7719 H   0  0  0  0  0  0  0  0  0  0  0  0
    5.1467   -3.7464   -4.5885 H   0  0  0  0  0  0  0  0  0  0  0  0
  5  6  2  0  0  0  0
  5  7  1  0  0  0  0
  2  3  1  0  0  0  0
  2  4  1  0  0  0  0
  2  5  1  0  0  0  0
  1  2  1  0  0  0  0
 15 16  2  0  0  0  0
 15 17  1  0  0  0  0
 14 36  1  0  0  0  0
 11 12  1  0  0  0  0
 11 13  1  0  0  0  0
 11 14  1  0  0  0  0
  9 10  1  0  0  0  0
  9 11  1  0  0  0  0
  9 15  1  0  0  0  0
  7  8  1  0  0  0  0
  7  9  1  0  0  0  0
 19 20  1  0  0  0  0
 19 21  1  0  0  0  0
 19 22  1  0  0  0  0
 17 18  1  0  0  0  0
 17 19  1  0  0  0  0
 27 28  2  0  0  0  0
 27 29  1  0  0  0  0
 24 25  1  0  0  0  0
 24 26  1  0  0  0  0
 24 27  1  0  0  0  0
 23 24  1  0  0  0  0
 37 38  2  0  0  0  0
 37 39  1  0  0  0  0
 33 34  1  0  0  0  0
 33 35  1  0  0  0  0
 33 36  1  0  0  0  0
 31 32  1  0  0  0  0
 31 33  1  0  0  0  0
 31 37  1  0  0  0  0
 29 30  1  0  0  0  0
 29 31  1  0  0  0  0
 41 42  1  0  0  0  0
 41 43  1  0  0  0  0
 41 44  1  0  0  0  0
 39 40  1  0  0  0  0
 39 41  1  0  0  0  0
M  END
$$$$
default_name
  -OEChem-01062215323D

 44 43  0     1  0  0  0  0  0999 V2000
    2.4488   -3.0448    2.0990 H   0  0  0  0  0  0  0  0  0  0  0  0
    2.2788   -2.0018    2.3640 C   0  0  0  0  0  0  0  0  0  0  0  0
    2.9228   -1.7258    3.1960 H   0  0  0  0  0  0  0  0  0  0  0  0
    1.2358   -1.8618    2.6430 H   0  0  0  0  0  0  0  0  0  0  0  0
    2.6018   -1.1318    1.1730 C   0  0  0  0  0  0  0  0  0  0  0  0
    3.0048   -1.6348    0.1320 O   0  0  0  0  0  0  0  0  0  0  0  0
    2.4088    0.1752    1.3190 N   0  0  0  0  0  0  0  0  0  0  0  0
    2.0708    0.5242    2.2050 H   0  0  0  0  0  0  0  0  0  0  0  0
    2.6638    1.1782    0.2840 C   0  0  1  0  0  0  0  0  0  0  0  0
    3.6853    1.5416    0.4079 H   0  0  0  0  0  0  0  0  0  0  0  0
    2.5537    0.5277   -1.1061 C   0  0  0  0  0  0  0  0  0  0  0  0
    2.5852    1.3117   -1.8637 H   0  0  0  0  0  0  0  0  0  0  0  0
    1.5690    0.0672   -1.1815 H   0  0  0  0  0  0  0  0  0  0  0  0
    3.7691   -0.7499   -1.5459 S   0  0  0  0  0  0  0  0  0  0  0  0
    1.7153    2.3824    0.4332 C   0  0  0  0  0  0  0  0  0  0  0  0
    0.6238    2.3928   -0.1359 O   0  0  0  0  0  0  0  0  0  0  0  0
    2.1300    3.3953    1.2058 N   0  0  0  0  0  0  0  0  0  0  0  0
    3.0338    3.3201    1.6443 H   0  0  0  0  0  0  0  0  0  0  0  0
    1.3477    4.6065    1.4445 C   0  0  0  0  0  0  0  0  0  0  0  0
    1.1914    5.1343    0.5013 H   0  0  0  0  0  0  0  0  0  0  0  0
    0.3729    4.3412    1.8577 H   0  0  0  0  0  0  0  0  0  0  0  0
    1.8685    5.2628    2.1429 H   0  0  0  0  0  0  0  0  0  0  0  0
    7.3125    4.4471   -6.6702 H   0  0  0  0  0  0  0  0  0  0  0  0
    6.4525    3.7830   -6.5979 C   0  0  0  0  0  0  0  0  0  0  0  0
    6.2807    3.2986   -7.5578 H   0  0  0  0  0  0  0  0  0  0  0  0
    5.5724    4.3550   -6.3100 H   0  0  0  0  0  0  0  0  0  0  0  0
    6.7314    2.7318   -5.5493 C   0  0  0  0  0  0  0  0  0  0  0  0
    7.7891    2.7376   -4.9343 O   0  0  0  0  0  0  0  0  0  0  0  0
    5.7735    1.8325   -5.3410 N   0  0  0  0  0  0  0  0  0  0  0  0
    4.9297    1.8826   -5.8932 H   0  0  0  0  0  0  0  0  0  0  0  0
    5.8546    0.7444   -4.3665 C   0  0  1  0  0  0  0  0  0  0  0  0
    6.8784    0.3671   -4.3390 H   0  0  0  0  0  0  0  0  0  0  0  0
    5.5143    1.3180   -2.9838 C   0  0  0  0  0  0  0  0  0  0  0  0
    6.2211    2.1235   -2.7794 H   0  0  0  0  0  0  0  0  0  0  0  0
    4.5204    1.7644   -3.0221 H   0  0  0  0  0  0  0  0  0  0  0  0
    5.5836    0.1857   -1.5696 S   0  0  0  0  0  0  0  0  0  0  0  0
    4.9272   -0.4140   -4.7743 C   0  0  0  0  0  0  0  0  0  0  0  0
    3.8906   -0.1812   -5.3977 O   0  0  0  0  0  0  0  0  0  0  0  0
    5.3016   -1.6535   -4.4322 N   0  0  0  0  0  0  0  0  0  0  0  0
    6.1468   -1.7571   -3.8934 H   0  0  0  0  0  0  0  0  0  0  0  0
    4.5311   -2.8588   -4.7354 C   0  0  0  0  0  0  0  0  0  0  0  0
    3.6600   -2.9131   -4.0804 H   0  0  0  0  0  0  0  0  0  0  0  0
    4.1865   -2.8311   -5.7719 H   0  0  0  0  0  0  0  0  0  0  0  0
    5.1467   -3.7464   -4.5885 H   0  0  0  0  0  0  0  0  0  0  0  0
  5  6  2  0  0  0  0
  5  7  1  0  0  0  0
  2  3  1  0  0  0  0
  2  4  1  0  0  0  0
  2  5  1  0  0  0  0
  1  2  1  0  0  0  0
 15 16  2  0  0  0  0
 15 17  1  0  0  0  0
 14 36  1  0  0  0  0
 11 12  1  0  0  0  0
 11 13  1  0  0  0  0
 11 14  1  0  0  0  0
  9 10  1  0  0  0  0
  9 11  1  0  0  0  0
  9 15  1  0  0  0  0
  7  8  1  0  0  0  0
  7  9  1  0  0  0  0
 19 20  1  0  0  0  0
 19 21  1  0  0  0  0
 19 22  1  0  0  0  0
 17 18  1  0  0  0  0
 17 19  1  0  0  0  0
 27 28  2  0  0  0  0
 27 29  1  0  0  0  0
 24 25  1  0  0  0  0
 24 26  1  0  0  0  0
 24 27  1  0  0  0  0
 23 24  1  0  0  0  0
 37 38  2  0  0  0  0
 37 39  1  0  0  0  0
 33 34  1  0  0  0  0
 33 35  1  0  0  0  0
 33 36  1  0  0  0  0
 31 32  1  0  0  0  0
 31 33  1  0  0  0  0
 31 37  1  0  0  0  0
 29 30  1  0  0  0  0
 29 31  1  0  0  0  0
 41 42  1  0  0  0  0
 41 43  1  0  0  0  0
 41 44  1  0  0  0  0
 39 40  1  0  0  0  0
 39 41  1  0  0  0  0
M  END
$$$$
default_name
  -OEChem-01062215323D

 44 43  0     1  0  0  0  0  0999 V2000
    2.4488   -3.0448    2.0990 H   0  0  0  0  0  0  0  0  0  0  0  0
    2.2788   -2.0018    2.3640 C   0  0  0  0  0  0  0  0  0  0  0  0
    2.9228   -1.7258    3.1960 H   0  0  0  0  0  0  0  0  0  0  0  0
    1.2358   -1.8618    2.6430 H   0  0  0  0  0  0  0  0  0  0  0  0
    2.6018   -1.1318    1.1730 C   0  0  0  0  0  0  0  0  0  0  0  0
    3.0048   -1.6348    0.1320 O   0  0  0  0  0  0  0  0  0  0  0  0
    2.4088    0.1752    1.3190 N   0  0  0  0  0  0  0  0  0  0  0  0
    2.0708    0.5242    2.2050 H   0  0  0  0  0  0  0  0  0  0  0  0
    2.6638    1.1782    0.2840 C   0  0  1  0  0  0  0  0  0  0  0  0
    3.6853    1.5416    0.4079 H   0  0  0  0  0  0  0  0  0  0  0  0
    2.5537    0.5277   -1.1061 C   0  0  0  0  0  0  0  0  0  0  0  0
    2.5852    1.3117   -1.8637 H   0  0  0  0  0  0  0  0  0  0  0  0
    1.5690    0.0672   -1.1815 H   0  0  0  0  0  0  0  0  0  0  0  0
    3.7691   -0.7499   -1.5459 S   0  0  0  0  0  0  0  0  0  0  0  0
    1.7153    2.3824    0.4332 C   0  0  0  0  0  0  0  0  0  0  0  0
    0.5325    2.2910    0.1048 O   0  0  0  0  0  0  0  0  0  0  0  0
    2.2340    3.5107    0.9361 N   0  0  0  0  0  0  0  0  0  0  0  0
    3.2096    3.5152    1.1869 H   0  0  0  0  0  0  0  0  0  0  0  0
    1.4658    4.7376    1.1367 C   0  0  0  0  0  0  0  0  0  0  0  0
    1.1020    5.1044    0.1746 H   0  0  0  0  0  0  0  0  0  0  0  0
    0.6054    4.5343    1.7768 H   0  0  0  0  0  0  0  0  0  0  0  0
    2.0883    5.5029    1.6022 H   0  0  0  0  0  0  0  0  0  0  0  0
    7.3125    4.4471   -6.6702 H   0  0  0  0  0  0  0  0  0  0  0  0
    6.4525    3.7830   -6.5979 C   0  0  0  0  0  0  0  0  0  0  0  0
    6.2807    3.2986   -7.5578 H   0  0  0  0  0  0  0  0  0  0  0  0
    5.5724    4.3550   -6.3100 H   0  0  0  0  0  0  0  0  0  0  0  0
    6.7314    2.7318   -5.5493 C   0  0  0  0  0  0  0  0  0  0  0  0
    7.7891    2.7376   -4.9343 O   0  0  0  0  0  0  0  0  0  0  0  0
    5.7735    1.8325   -5.3410 N   0  0  0  0  0  0  0  0  0  0  0  0
    4.9297    1.8826   -5.8932 H   0  0  0  0  0  0  0  0  0  0  0  0
    5.8546    0.7444   -4.3665 C   0  0  1  0  0  0  0  0  0  0  0  0
    6.8784    0.3671   -4.3390 H   0  0  0  0  0  0  0  0  0  0  0  0
    5.5143    1.3180   -2.9838 C   0  0  0  0  0  0  0  0  0  0  0  0
    6.2211    2.1235   -2.7794 H   0  0  0  0  0  0  0  0  0  0  0  0
    4.5204    1.7644   -3.0221 H   0  0  0  0  0  0  0  0  0  0  0  0
    5.5836    0.1857   -1.5696 S   0  0  0  0  0  0  0  0  0  0  0  0
    4.9272   -0.4140   -4.7743 C   0  0  0  0  0  0  0  0  0  0  0  0
    3.8906   -0.1812   -5.3977 O   0  0  0  0  0  0  0  0  0  0  0  0
    5.3016   -1.6535   -4.4322 N   0  0  0  0  0  0  0  0  0  0  0  0
    6.1468   -1.7571   -3.8934 H   0  0  0  0  0  0  0  0  0  0  0  0
    4.5311   -2.8588   -4.7354 C   0  0  0  0  0  0  0  0  0  0  0  0
    3.6600   -2.9131   -4.0804 H   0  0  0  0  0  0  0  0  0  0  0  0
    4.1865   -2.8311   -5.7719 H   0  0  0  0  0  0  0  0  0  0  0  0
    5.1467   -3.7464   -4.5885 H   0  0  0  0  0  0  0  0  0  0  0  0
  5  6  2  0  0  0  0
  5  7  1  0  0  0  0
  2  3  1  0  0  0  0
  2  4  1  0  0  0  0
  2  5  1  0  0  0  0
  1  2  1  0  0  0  0
 15 16  2  0  0  0  0
 15 17  1  0  0  0  0
 14 36  1  0  0  0  0
 11 12  1  0  0  0  0
 11 13  1  0  0  0  0
 11 14  1  0  0  0  0
  9 10  1  0  0  0  0
  9 11  1  0  0  0  0
  9 15  1  0  0  0  0
  7  8  1  0  0  0  0
  7  9  1  0  0  0  0
 19 20  1  0  0  0  0
 19 21  1  0  0  0  0
 19 22  1  0  0  0  0
 17 18  1  0  0  0  0
 17 19  1  0  0  0  0
 27 28  2  0  0  0  0
 27 29  1  0  0  0  0
 24 25  1  0  0  0  0
 24 26  1  0  0  0  0
 24 27  1  0  0  0  0
 23 24  1  0  0  0  0
 37 38  2  0  0  0  0
 37 39  1  0  0  0  0
 33 34  1  0  0  0  0
 33 35  1  0  0  0  0
 33 36  1  0  0  0  0
 31 32  1  0  0  0  0
 31 33  1  0  0  0  0
 31 37  1  0  0  0  0
 29 30  1  0  0  0  0
 29 31  1  0  0  0  0
 41 42  1  0  0  0  0
 41 43  1  0  0  0  0
 41 44  1  0  0  0  0
 39 40  1  0  0  0  0
 39 41  1  0  0  0  0
M  END
$$$$
default_name
  -OEChem-01062215323D

 44 43  0     1  0  0  0  0  0999 V2000
    2.4488   -3.0448    2.0990 H   0  0  0  0  0  0  0  0  0  0  0  0
    2.2788   -2.0018    2.3640 C   0  0  0  0  0  0  0  0  0  0  0  0
    2.9228   -1.7258    3.1960 H   0  0  0  0  0  0  0  0  0  0  0  0
    1.2358   -1.8618    2.6430 H   0  0  0  0  0  0  0  0  0  0  0  0
    2.6018   -1.1318    1.1730 C   0  0  0  0  0  0  0  0  0  0  0  0
    3.0048   -1.6348    0.1320 O   0  0  0  0  0  0  0  0  0  0  0  0
    2.4088    0.1752    1.3190 N   0  0  0  0  0  0  0  0  0  0  0  0
    2.0708    0.5242    2.2050 H   0  0  0  0  0  0  0  0  0  0  0  0
    2.6638    1.1782    0.2840 C   0  0  1  0  0  0  0  0  0  0  0  0
    3.6853    1.5416    0.4079 H   0  0  0  0  0  0  0  0  0  0  0  0
    2.5537    0.5277   -1.1061 C   0  0  0  0  0  0  0  0  0  0  0  0
    2.5852    1.3117   -1.8637 H   0  0  0  0  0  0  0  0  0  0  0  0
    1.5690    0.0672   -1.1815 H   0  0  0  0  0  0  0  0  0  0  0  0
    3.7691   -0.7499   -1.5459 S   0  0  0  0  0  0  0  0  0  0  0  0
    1.7153    2.3824    0.4332 C   0  0  0  0  0  0  0  0  0  0  0  0
    0.4955    2.2288    0.3720 O   0  0  0  0  0  0  0  0  0  0  0  0
    2.2770    3.5817    0.6362 N   0  0  0  0  0  0  0  0  0  0  0  0
    3.2820    3.6353    0.6784 H   0  0  0  0  0  0  0  0  0  0  0  0
    1.5143    4.8182    0.7946 C   0  0  0  0  0  0  0  0  0  0  0  0
    0.9502    5.0211   -0.1182 H   0  0  0  0  0  0  0  0  0  0  0  0
    0.8087    4.7138    1.6209 H   0  0  0  0  0  0  0  0  0  0  0  0
    2.1851    5.6541    0.9972 H   0  0  0  0  0  0  0  0  0  0  0  0
    7.3125    4.4471   -6.6702 H   0  0  0  0  0  0  0  0  0  0  0  0
    6.4525    3.7830   -6.5979 C   0  0  0  0  0  0  0  0  0  0  0  0
    6.2807    3.2986   -7.5578 H   0  0  0  0  0  0  0  0  0  0  0  0
    5.5724    4.3550   -6.3100 H   0  0  0  0  0  0  0  0  0  0  0  0
    6.7314    2.7318   -5.5493 C   0  0  0  0  0  0  0  0  0  0  0  0
    7.7891    2.7376   -4.9343 O   0  0  0  0  0  0  0  0  0  0  0  0
    5.7735    1.8325   -5.3410 N   0  0  0  0  0  0  0  0  0  0  0  0
    4.9297    1.8826   -5.8932 H   0  0  0  0  0  0  0  0  0  0  0  0
    5.8546    0.7444   -4.3665 C   0  0  1  0  0  0  0  0  0  0  0  0
    6.8784    0.3671   -4.3390 H   0  0  0  0  0  0  0  0  0  0  0  0
    5.5143    1.3180   -2.9838 C   0  0  0  0  0  0  0  0  0  0  0  0
    6.2211    2.1235   -2.7794 H   0  0  0  0  0  0  0  0  0  0  0  0
    4.5204    1.7644   -3.0221 H   0  0  0  0  0  0  0  0  0  0  0  0
    5.5836    0.1857   -1.5696 S   0  0  0  0  0  0  0  0  0  0  0  0
    4.9272   -0.4140   -4.7743 C   0  0  0  0  0  0  0  0  0  0  0  0
    3.8906   -0.1812   -5.3977 O   0  0  0  0  0  0  0  0  0  0  0  0
    5.3016   -1.6535   -4.4322 N   0  0  0  0  0  0  0  0  0  0  0  0
    6.1468   -1.7571   -3.8934 H   0  0  0  0  0  0  0  0  0  0  0  0
    4.5311   -2.8588   -4.7354 C   0  0  0  0  0  0  0  0  0  0  0  0
    3.6600   -2.9131   -4.0804 H   0  0  0  0  0  0  0  0  0  0  0  0
    4.1865   -2.8311   -5.7719 H   0  0  0  0  0  0  0  0  0  0  0  0
    5.1467   -3.7464   -4.5885 H   0  0  0  0  0  0  0  0  0  0  0  0
  5  6  2  0  0  0  0
  5  7  1  0  0  0  0
  2  3  1  0  0  0  0
  2  4  1  0  0  0  0
  2  5  1  0  0  0  0
  1  2  1  0  0  0  0
 15 16  2  0  0  0  0
 15 17  1  0  0  0  0
 14 36  1  0  0  0  0
 11 12  1  0  0  0  0
 11 13  1  0  0  0  0
 11 14  1  0  0  0  0
  9 10  1  0  0  0  0
  9 11  1  0  0  0  0
  9 15  1  0  0  0  0
  7  8  1  0  0  0  0
  7  9  1  0  0  0  0
 19 20  1  0  0  0  0
 19 21  1  0  0  0  0
 19 22  1  0  0  0  0
 17 18  1  0  0  0  0
 17 19  1  0  0  0  0
 27 28  2  0  0  0  0
 27 29  1  0  0  0  0
 24 25  1  0  0  0  0
 24 26  1  0  0  0  0
 24 27  1  0  0  0  0
 23 24  1  0  0  0  0
 37 38  2  0  0  0  0
 37 39  1  0  0  0  0
 33 34  1  0  0  0  0
 33 35  1  0  0  0  0
 33 36  1  0  0  0  0
 31 32  1  0  0  0  0
 31 33  1  0  0  0  0
 31 37  1  0  0  0  0
 29 30  1  0  0  0  0
 29 31  1  0  0  0  0
 41 42  1  0  0  0  0
 41 43  1  0  0  0  0
 41 44  1  0  0  0  0
 39 40  1  0  0  0  0
 39 41  1  0  0  0  0
M  END
$$$$
default_name
  -OEChem-01062215323D

 44 43  0     1  0  0  0  0  0999 V2000
    2.4488   -3.0448    2.0990 H   0  0  0  0  0  0  0  0  0  0  0  0
    2.2788   -2.0018    2.3640 C   0  0  0  0  0  0  0  0  0  0  0  0
    2.9228   -1.7258    3.1960 H   0  0  0  0  0  0  0  0  0  0  0  0
    1.2358   -1.8618    2.6430 H   0  0  0  0  0  0  0  0  0  0  0  0
    2.6018   -1.1318    1.1730 C   0  0  0  0  0  0  0  0  0  0  0  0
    3.0048   -1.6348    0.1320 O   0  0  0  0  0  0  0  0  0  0  0  0
    2.4088    0.1752    1.3190 N   0  0  0  0  0  0  0  0  0  0  0  0
    2.0708    0.5242    2.2050 H   0  0  0  0  0  0  0  0  0  0  0  0
    2.6638    1.1782    0.2840 C   0  0  1  0  0  0  0  0  0  0  0  0
    3.6853    1.5416    0.4079 H   0  0  0  0  0  0  0  0  0  0  0  0
    2.5537    0.5277   -1.1061 C   0  0  0  0  0  0  0  0  0  0  0  0
    2.5852    1.3117   -1.8637 H   0  0  0  0  0  0  0  0  0  0  0  0
    1.5690    0.0672   -1.1815 H   0  0  0  0  0  0  0  0  0  0  0  0
    3.7691   -0.7499   -1.5459 S   0  0  0  0  0  0  0  0  0  0  0  0
    1.7153    2.3824    0.4332 C   0  0  0  0  0  0  0  0  0  0  0  0
    0.5154    2.2103    0.6475 O   0  0  0  0  0  0  0  0  0  0  0  0
    2.2560    3.6035    0.3264 N   0  0  0  0  0  0  0  0  0  0  0  0
    3.2459    3.6720    0.1534 H   0  0  0  0  0  0  0  0  0  0  0  0
    1.4899    4.8427    0.4416 C   0  0  0  0  0  0  0  0  0  0  0  0
    0.7464    4.8902   -0.3569 H   0  0  0  0  0  0  0  0  0  0  0  0
    0.9691    4.8674    1.4005 H   0  0  0  0  0  0  0  0  0  0  0  0
    2.1524    5.7062    0.3691 H   0  0  0  0  0  0  0  0  0  0  0  0
    7.3125    4.4471   -6.6702 H   0  0  0  0  0  0  0  0  0  0  0  0
    6.4525    3.7830   -6.5979 C   0  0  0  0  0  0  0  0  0  0  0  0
    6.2807    3.2986   -7.5578 H   0  0  0  0  0  0  0  0  0  0  0  0
    5.5724    4.3550   -6.3100 H   0  0  0  0  0  0  0  0  0  0  0  0
    6.7314    2.7318   -5.5493 C   0  0  0  0  0  0  0  0  0  0  0  0
    7.7891    2.7376   -4.9343 O   0  0  0  0  0  0  0  0  0  0  0  0
    5.7735    1.8325   -5.3410 N   0  0  0  0  0  0  0  0  0  0  0  0
    4.9297    1.8826   -5.8932 H   0  0  0  0  0  0  0  0  0  0  0  0
    5.8546    0.7444   -4.3665 C   0  0  1  0  0  0  0  0  0  0  0  0
    6.8784    0.3671   -4.3390 H   0  0  0  0  0  0  0  0  0  0  0  0
    5.5143    1.3180   -2.9838 C   0  0  0  0  0  0  0  0  0  0  0  0
    6.2211    2.1235   -2.7794 H   0  0  0  0  0  0  0  0  0  0  0  0
    4.5204    1.7644   -3.0221 H   0  0  0  0  0  0  0  0  0  0  0  0
    5.5836    0.1857   -1.5696 S   0  0  0  0  0  0  0  0  0  0  0  0
    4.9272   -0.4140   -4.7743 C   0  0  0  0  0  0  0  0  0  0  0  0
    3.8906   -0.1812   -5.3977 O   0  0  0  0  0  0  0  0  0  0  0  0
    5.3016   -1.6535   -4.4322 N   0  0  0  0  0  0  0  0  0  0  0  0
    6.1468   -1.7571   -3.8934 H   0  0  0  0  0  0  0  0  0  0  0  0
    4.5311   -2.8588   -4.7354 C   0  0  0  0  0  0  0  0  0  0  0  0
    3.6600   -2.9131   -4.0804 H   0  0  0  0  0  0  0  0  0  0  0  0
    4.1865   -2.8311   -5.7719 H   0  0  0  0  0  0  0  0  0  0  0  0
    5.1467   -3.7464   -4.5885 H   0  0  0  0  0  0  0  0  0  0  0  0
  5  6  2  0  0  0  0
  5  7  1  0  0  0  0
  2  3  1  0  0  0  0
  2  4  1  0  0  0  0
  2  5  1  0  0  0  0
  1  2  1  0  0  0  0
 15 16  2  0  0  0  0
 15 17  1  0  0  0  0
 14 36  1  0  0  0  0
 11 12  1  0  0  0  0
 11 13  1  0  0  0  0
 11 14  1  0  0  0  0
  9 10  1  0  0  0  0
  9 11  1  0  0  0  0
  9 15  1  0  0  0  0
  7  8  1  0  0  0  0
  7  9  1  0  0  0  0
 19 20  1  0  0  0  0
 19 21  1  0  0  0  0
 19 22  1  0  0  0  0
 17 18  1  0  0  0  0
 17 19  1  0  0  0  0
 27 28  2  0  0  0  0
 27 29  1  0  0  0  0
 24 25  1  0  0  0  0
 24 26  1  0  0  0  0
 24 27  1  0  0  0  0
 23 24  1  0  0  0  0
 37 38  2  0  0  0  0
 37 39  1  0  0  0  0
 33 34  1  0  0  0  0
 33 35  1  0  0  0  0
 33 36  1  0  0  0  0
 31 32  1  0  0  0  0
 31 33  1  0  0  0  0
 31 37  1  0  0  0  0
 29 30  1  0  0  0  0
 29 31  1  0  0  0  0
 41 42  1  0  0  0  0
 41 43  1  0  0  0  0
 41 44  1  0  0  0  0
 39 40  1  0  0  0  0
 39 41  1  0  0  0  0
M  END
$$$$
default_name
  -OEChem-01062215323D

 44 43  0     1  0  0  0  0  0999 V2000
    2.4488   -3.0448    2.0990 H   0  0  0  0  0  0  0  0  0  0  0  0
    2.2788   -2.0018    2.3640 C   0  0  0  0  0  0  0  0  0  0  0  0
    2.9228   -1.7258    3.1960 H   0  0  0  0  0  0  0  0  0  0  0  0
    1.2358   -1.8618    2.6430 H   0  0  0  0  0  0  0  0  0  0  0  0
    2.6018   -1.1318    1.1730 C   0  0  0  0  0  0  0  0  0  0  0  0
    3.0048   -1.6348    0.1320 O   0  0  0  0  0  0  0  0  0  0  0  0
    2.4088    0.1752    1.3190 N   0  0  0  0  0  0  0  0  0  0  0  0
    2.0708    0.5242    2.2050 H   0  0  0  0  0  0  0  0  0  0  0  0
    2.6638    1.1782    0.2840 C   0  0  1  0  0  0  0  0  0  0  0  0
    3.6853    1.5416    0.4079 H   0  0  0  0  0  0  0  0  0  0  0  0
    2.5537    0.5277   -1.1061 C   0  0  0  0  0  0  0  0  0  0  0  0
    2.5852    1.3117   -1.8637 H   0  0  0  0  0  0  0  0  0  0  0  0
    1.5690    0.0672   -1.1815 H   0  0  0  0  0  0  0  0  0  0  0  0
    3.7691   -0.7499   -1.5459 S   0  0  0  0  0  0  0  0  0  0  0  0
    1.7153    2.3824    0.4332 C   0  0  0  0  0  0  0  0  0  0  0  0
    0.5908    2.2369    0.9125 O   0  0  0  0  0  0  0  0  0  0  0  0
    2.1725    3.5747    0.0280 N   0  0  0  0  0  0  0  0  0  0  0  0
    3.1040    3.6229   -0.3522 H   0  0  0  0  0  0  0  0  0  0  0  0
    1.3942    4.8096    0.1015 C   0  0  0  0  0  0  0  0  0  0  0  0
    0.5045    4.7206   -0.5255 H   0  0  0  0  0  0  0  0  0  0  0  0
    1.0755    4.9847    1.1307 H   0  0  0  0  0  0  0  0  0  0  0  0
    1.9924    5.6556   -0.2393 H   0  0  0  0  0  0  0  0  0  0  0  0
    7.3125    4.4471   -6.6702 H   0  0  0  0  0  0  0  0  0  0  0  0
    6.4525    3.7830   -6.5979 C   0  0  0  0  0  0  0  0  0  0  0  0
    6.2807    3.2986   -7.5578 H   0  0  0  0  0  0  0  0  0  0  0  0
    5.5724    4.3550   -6.3100 H   0  0  0  0  0  0  0  0  0  0  0  0
    6.7314    2.7318   -5.5493 C   0  0  0  0  0  0  0  0  0  0  0  0
    7.7891    2.7376   -4.9343 O   0  0  0  0  0  0  0  0  0  0  0  0
    5.7735    1.8325   -5.3410 N   0  0  0  0  0  0  0  0  0  0  0  0
    4.9297    1.8826   -5.8932 H   0  0  0  0  0  0  0  0  0  0  0  0
    5.8546    0.7444   -4.3665 C   0  0  1  0  0  0  0  0  0  0  0  0
    6.8784    0.3671   -4.3390 H   0  0  0  0  0  0  0  0  0  0  0  0
    5.5143    1.3180   -2.9838 C   0  0  0  0  0  0  0  0  0  0  0  0
    6.2211    2.1235   -2.7794 H   0  0  0  0  0  0  0  0  0  0  0  0
    4.5204    1.7644   -3.0221 H   0  0  0  0  0  0  0  0  0  0  0  0
    5.5836    0.1857   -1.5696 S   0  0  0  0  0  0  0  0  0  0  0  0
    4.9272   -0.4140   -4.7743 C   0  0  0  0  0  0  0  0  0  0  0  0
    3.8906   -0.1812   -5.3977 O   0  0  0  0  0  0  0  0  0  0  0  0
    5.3016   -1.6535   -4.4322 N   0  0  0  0  0  0  0  0  0  0  0  0
    6.1468   -1.7571   -3.8934 H   0  0  0  0  0  0  0  0  0  0  0  0
    4.5311   -2.8588   -4.7354 C   0  0  0  0  0  0  0  0  0  0  0  0
    3.6600   -2.9131   -4.0804 H   0  0  0  0  0  0  0  0  0  0  0  0
    4.1865   -2.8311   -5.7719 H   0  0  0  0  0  0  0  0  0  0  0  0
    5.1467   -3.7464   -4.5885 H   0  0  0  0  0  0  0  0  0  0  0  0
  5  6  2  0  0  0  0
  5  7  1  0  0  0  0
  2  3  1  0  0  0  0
  2  4  1  0  0  0  0
  2  5  1  0  0  0  0
  1  2  1  0  0  0  0
 15 16  2  0  0  0  0
 15 17  1  0  0  0  0
 14 36  1  0  0  0  0
 11 12  1  0  0  0  0
 11 13  1  0  0  0  0
 11 14  1  0  0  0  0
  9 10  1  0  0  0  0
  9 11  1  0  0  0  0
  9 15  1  0  0  0  0
  7  8  1  0  0  0  0
  7  9  1  0  0  0  0
 19 20  1  0  0  0  0
 19 21  1  0  0  0  0
 19 22  1  0  0  0  0
 17 18  1  0  0  0  0
 17 19  1  0  0  0  0
 27 28  2  0  0  0  0
 27 29  1  0  0  0  0
 24 25  1  0  0  0  0
 24 26  1  0  0  0  0
 24 27  1  0  0  0  0
 23 24  1  0  0  0  0
 37 38  2  0  0  0  0
 37 39  1  0  0  0  0
 33 34  1  0  0  0  0
 33 35  1  0  0  0  0
 33 36  1  0  0  0  0
 31 32  1  0  0  0  0
 31 33  1  0  0  0  0
 31 37  1  0  0  0  0
 29 30  1  0  0  0  0
 29 31  1  0  0  0  0
 41 42  1  0  0  0  0
 41 43  1  0  0  0  0
 41 44  1  0  0  0  0
 39 40  1  0  0  0  0
 39 41  1  0  0  0  0
M  END
$$$$
default_name
  -OEChem-01062215323D

 44 43  0     1  0  0  0  0  0999 V2000
    2.4488   -3.0448    2.0990 H   0  0  0  0  0  0  0  0  0  0  0  0
    2.2788   -2.0018    2.3640 C   0  0  0  0  0  0  0  0  0  0  0  0
    2.9228   -1.7258    3.1960 H   0  0  0  0  0  0  0  0  0  0  0  0
    1.2358   -1.8618    2.6430 H   0  0  0  0  0  0  0  0  0  0  0  0
    2.6018   -1.1318    1.1730 C   0  0  0  0  0  0  0  0  0  0  0  0
    3.0048   -1.6348    0.1320 O   0  0  0  0  0  0  0  0  0  0  0  0
    2.4088    0.1752    1.3190 N   0  0  0  0  0  0  0  0  0  0  0  0
    2.0708    0.5242    2.2050 H   0  0  0  0  0  0  0  0  0  0  0  0
    2.6638    1.1782    0.2840 C   0  0  1  0  0  0  0  0  0  0  0  0
    3.6853    1.5416    0.4079 H   0  0  0  0  0  0  0  0  0  0  0  0
    2.5537    0.5277   -1.1061 C   0  0  0  0  0  0  0  0  0  0  0  0
    2.5852    1.3117   -1.8637 H   0  0  0  0  0  0  0  0  0  0  0  0
    1.5690    0.0672   -1.1815 H   0  0  0  0  0  0  0  0  0  0  0  0
    3.7691   -0.7499   -1.5459 S   0  0  0  0  0  0  0  0  0  0  0  0
    1.7153    2.3824    0.4332 C   0  0  0  0  0  0  0  0  0  0  0  0
    0.7167    2.3067    1.1489 O   0  0  0  0  0  0  0  0  0  0  0  0
    2.0322    3.4973   -0.2387 N   0  0  0  0  0  0  0  0  0  0  0  0
    2.8658    3.4913   -0.8041 H   0  0  0  0  0  0  0  0  0  0  0  0
    1.2339    4.7209   -0.2023 C   0  0  0  0  0  0  0  0  0  0  0  0
    0.2411    4.5238   -0.6123 H   0  0  0  0  0  0  0  0  0  0  0  0
    1.1208    5.0577    0.8299 H   0  0  0  0  0  0  0  0  0  0  0  0
    1.7160    5.5057   -0.7865 H   0  0  0  0  0  0  0  0  0  0  0  0
    7.3125    4.4471   -6.6702 H   0  0  0  0  0  0  0  0  0  0  0  0
    6.4525    3.7830   -6.5979 C   0  0  0  0  0  0  0  0  0  0  0  0
    6.2807    3.2986   -7.5578 H   0  0  0  0  0  0  0  0  0  0  0  0
    5.5724    4.3550   -6.3100 H   0  0  0  0  0  0  0  0  0  0  0  0
    6.7314    2.7318   -5.5493 C   0  0  0  0  0  0  0  0  0  0  0  0
    7.7891    2.7376   -4.9343 O   0  0  0  0  0  0  0  0  0  0  0  0
    5.7735    1.8325   -5.3410 N   0  0  0  0  0  0  0  0  0  0  0  0
    4.9297    1.8826   -5.8932 H   0  0  0  0  0  0  0  0  0  0  0  0
    5.8546    0.7444   -4.3665 C   0  0  1  0  0  0  0  0  0  0  0  0
    6.8784    0.3671   -4.3390 H   0  0  0  0  0  0  0  0  0  0  0  0
    5.5143    1.3180   -2.9838 C   0  0  0  0  0  0  0  0  0  0  0  0
    6.2211    2.1235   -2.7794 H   0  0  0  0  0  0  0  0  0  0  0  0
    4.5204    1.7644   -3.0221 H   0  0  0  0  0  0  0  0  0  0  0  0
    5.5836    0.1857   -1.5696 S   0  0  0  0  0  0  0  0  0  0  0  0
    4.9272   -0.4140   -4.7743 C   0  0  0  0  0  0  0  0  0  0  0  0
    3.8906   -0.1812   -5.3977 O   0  0  0  0  0  0  0  0  0  0  0  0
    5.3016   -1.6535   -4.4322 N   0  0  0  0  0  0  0  0  0  0  0  0
    6.1468   -1.7571   -3.8934 H   0  0  0  0  0  0  0  0  0  0  0  0
    4.5311   -2.8588   -4.7354 C   0  0  0  0  0  0  0  0  0  0  0  0
    3.6600   -2.9131   -4.0804 H   0  0  0  0  0  0  0  0  0  0  0  0
    4.1865   -2.8311   -5.7719 H   0  0  0  0  0  0  0  0  0  0  0  0
    5.1467   -3.7464   -4.5885 H   0  0  0  0  0  0  0  0  0  0  0  0
  5  6  2  0  0  0  0
  5  7  1  0  0  0  0
  2  3  1  0  0  0  0
  2  4  1  0  0  0  0
  2  5  1  0  0  0  0
  1  2  1  0  0  0  0
 15 16  2  0  0  0  0
 15 17  1  0  0  0  0
 14 36  1  0  0  0  0
 11 12  1  0  0  0  0
 11 13  1  0  0  0  0
 11 14  1  0  0  0  0
  9 10  1  0  0  0  0
  9 11  1  0  0  0  0
  9 15  1  0  0  0  0
  7  8  1  0  0  0  0
  7  9  1  0  0  0  0
 19 20  1  0  0  0  0
 19 21  1  0  0  0  0
 19 22  1  0  0  0  0
 17 18  1  0  0  0  0
 17 19  1  0  0  0  0
 27 28  2  0  0  0  0
 27 29  1  0  0  0  0
 24 25  1  0  0  0  0
 24 26  1  0  0  0  0
 24 27  1  0  0  0  0
 23 24  1  0  0  0  0
 37 38  2  0  0  0  0
 37 39  1  0  0  0  0
 33 34  1  0  0  0  0
 33 35  1  0  0  0  0
 33 36  1  0  0  0  0
 31 32  1  0  0  0  0
 31 33  1  0  0  0  0
 31 37  1  0  0  0  0
 29 30  1  0  0  0  0
 29 31  1  0  0  0  0
 41 42  1  0  0  0  0
 41 43  1  0  0  0  0
 41 44  1  0  0  0  0
 39 40  1  0  0  0  0
 39 41  1  0  0  0  0
M  END
$$$$
default_name
  -OEChem-01062215323D

 44 43  0     1  0  0  0  0  0999 V2000
    2.4488   -3.0448    2.0990 H   0  0  0  0  0  0  0  0  0  0  0  0
    2.2788   -2.0018    2.3640 C   0  0  0  0  0  0  0  0  0  0  0  0
    2.9228   -1.7258    3.1960 H   0  0  0  0  0  0  0  0  0  0  0  0
    1.2358   -1.8618    2.6430 H   0  0  0  0  0  0  0  0  0  0  0  0
    2.6018   -1.1318    1.1730 C   0  0  0  0  0  0  0  0  0  0  0  0
    3.0048   -1.6348    0.1320 O   0  0  0  0  0  0  0  0  0  0  0  0
    2.4088    0.1752    1.3190 N   0  0  0  0  0  0  0  0  0  0  0  0
    2.0708    0.5242    2.2050 H   0  0  0  0  0  0  0  0  0  0  0  0
    2.6638    1.1782    0.2840 C   0  0  1  0  0  0  0  0  0  0  0  0
    3.7410    1.3446    0.2307 H   0  0  0  0  0  0  0  0  0  0  0  0
    2.1949    0.6448   -1.0811 C   0  0  0  0  0  0  0  0  0  0  0  0
    2.2409    1.4557   -1.8091 H   0  0  0  0  0  0  0  0  0  0  0  0
    1.1436    0.3735   -0.9895 H   0  0  0  0  0  0  0  0  0  0  0  0
    3.0550   -0.8001   -1.7705 S   0  0  0  0  0  0  0  0  0  0  0  0
    1.9977    2.5212    0.6373 C   0  0  0  0  0  0  0  0  0  0  0  0
    1.3575    2.6459    1.6812 O   0  0  0  0  0  0  0  0  0  0  0  0
    2.1549    3.5289   -0.2315 N   0  0  0  0  0  0  0  0  0  0  0  0
    2.6938    3.3585   -1.0653 H   0  0  0  0  0  0  0  0  0  0  0  0
    1.5841    4.8607   -0.0408 C   0  0  0  0  0  0  0  0  0  0  0  0
    0.4943    4.7932   -0.0183 H   0  0  0  0  0  0  0  0  0  0  0  0
    1.9243    5.2759    0.9096 H   0  0  0  0  0  0  0  0  0  0  0  0
    1.8875    5.5230   -0.8525 H   0  0  0  0  0  0  0  0  0  0  0  0
    6.5663    3.9845   -7.3023 H   0  0  0  0  0  0  0  0  0  0  0  0
    5.6230    3.4819   -7.0941 C   0  0  0  0  0  0  0  0  0  0  0  0
    5.2000    3.0961   -8.0203 H   0  0  0  0  0  0  0  0  0  0  0  0
    4.9289    4.1833   -6.6350 H   0  0  0  0  0  0  0  0  0  0  0  0
    5.8775    2.3352   -6.1440 C   0  0  0  0  0  0  0  0  0  0  0  0
    7.0079    2.1137   -5.7314 O   0  0  0  0  0  0  0  0  0  0  0  0
    4.8191    1.6107   -5.7911 N   0  0  0  0  0  0  0  0  0  0  0  0
    3.9169    1.8449   -6.1793 H   0  0  0  0  0  0  0  0  0  0  0  0
    4.8627    0.4678   -4.8790 C   0  0  1  0  0  0  0  0  0  0  0  0
    5.7869   -0.0877   -5.0486 H   0  0  0  0  0  0  0  0  0  0  0  0
    4.8804    1.0067   -3.4417 C   0  0  0  0  0  0  0  0  0  0  0  0
    5.7499    1.6586   -3.3461 H   0  0  0  0  0  0  0  0  0  0  0  0
    3.9963    1.6252   -3.2861 H   0  0  0  0  0  0  0  0  0  0  0  0
    4.9804   -0.2047   -2.0965 S   0  0  0  0  0  0  0  0  0  0  0  0
    3.6786   -0.4787   -5.1446 C   0  0  0  0  0  0  0  0  0  0  0  0
    2.6119   -0.0261   -5.5624 O   0  0  0  0  0  0  0  0  0  0  0  0
    3.8680   -1.7838   -4.9117 N   0  0  0  0  0  0  0  0  0  0  0  0
    4.7592   -2.0700   -4.5385 H   0  0  0  0  0  0  0  0  0  0  0  0
    2.8450   -2.8108   -5.1043 C   0  0  0  0  0  0  0  0  0  0  0  0
    2.1059   -2.7486   -4.3039 H   0  0  0  0  0  0  0  0  0  0  0  0
    2.3375   -2.6581   -6.0598 H   0  0  0  0  0  0  0  0  0  0  0  0
    3.2996   -3.8016   -5.0971 H   0  0  0  0  0  0  0  0  0  0  0  0
  5  6  2  0  0  0  0
  5  7  1  0  0  0  0
  2  3  1  0  0  0  0
  2  4  1  0  0  0  0
  2  5  1  0  0  0  0
  1  2  1  0  0  0  0
 15 16  2  0  0  0  0
 15 17  1  0  0  0  0
 14 36  1  0  0  0  0
 11 12  1  0  0  0  0
 11 13  1  0  0  0  0
 11 14  1  0  0  0  0
  9 10  1  0  0  0  0
  9 11  1  0  0  0  0
  9 15  1  0  0  0  0
  7  8  1  0  0  0  0
  7  9  1  0  0  0  0
 19 20  1  0  0  0  0
 19 21  1  0  0  0  0
 19 22  1  0  0  0  0
 17 18  1  0  0  0  0
 17 19  1  0  0  0  0
 27 28  2  0  0  0  0
 27 29  1  0  0  0  0
 24 25  1  0  0  0  0
 24 26  1  0  0  0  0
 24 27  1  0  0  0  0
 23 24  1  0  0  0  0
 37 38  2  0  0  0  0
 37 39  1  0  0  0  0
 33 34  1  0  0  0  0
 33 35  1  0  0  0  0
 33 36  1  0  0  0  0
 31 32  1  0  0  0  0
 31 33  1  0  0  0  0
 31 37  1  0  0  0  0
 29 30  1  0  0  0  0
 29 31  1  0  0  0  0
 41 42  1  0  0  0  0
 41 43  1  0  0  0  0
 41 44  1  0  0  0  0
 39 40  1  0  0  0  0
 39 41  1  0  0  0  0
M  END
$$$$
default_name
  -OEChem-01062215323D

 44 43  0     1  0  0  0  0  0999 V2000
    2.4488   -3.0448    2.0990 H   0  0  0  0  0  0  0  0  0  0  0  0
    2.2788   -2.0018    2.3640 C   0  0  0  0  0  0  0  0  0  0  0  0
    2.9228   -1.7258    3.1960 H   0  0  0  0  0  0  0  0  0  0  0  0
    1.2358   -1.8618    2.6430 H   0  0  0  0  0  0  0  0  0  0  0  0
    2.6018   -1.1318    1.1730 C   0  0  0  0  0  0  0  0  0  0  0  0
    3.0048   -1.6348    0.1320 O   0  0  0  0  0  0  0  0  0  0  0  0
    2.4088    0.1752    1.3190 N   0  0  0  0  0  0  0  0  0  0  0  0
    2.0708    0.5242    2.2050 H   0  0  0  0  0  0  0  0  0  0  0  0
    2.6638    1.1782    0.2840 C   0  0  1  0  0  0  0  0  0  0  0  0
    3.7410    1.3446    0.2307 H   0  0  0  0  0  0  0  0  0  0  0  0
    2.1949    0.6448   -1.0811 C   0  0  0  0  0  0  0  0  0  0  0  0
    2.2409    1.4557   -1.8091 H   0  0  0  0  0  0  0  0  0  0  0  0
    1.1436    0.3735   -0.9895 H   0  0  0  0  0  0  0  0  0  0  0  0
    3.0550   -0.8001   -1.7705 S   0  0  0  0  0  0  0  0  0  0  0  0
    1.9977    2.5212    0.6373 C   0  0  0  0  0  0  0  0  0  0  0  0
    1.5983    2.7391    1.7811 O   0  0  0  0  0  0  0  0  0  0  0  0
    1.8846    3.4248   -0.3453 N   0  0  0  0  0  0  0  0  0  0  0  0
    2.2355    3.1819   -1.2577 H   0  0  0  0  0  0  0  0  0  0  0  0
    1.2758    4.7418   -0.1701 C   0  0  0  0  0  0  0  0  0  0  0  0
    0.2261    4.6268    0.1085 H   0  0  0  0  0  0  0  0  0  0  0  0
    1.7879    5.2823    0.6281 H   0  0  0  0  0  0  0  0  0  0  0  0
    1.3426    5.3165   -1.0947 H   0  0  0  0  0  0  0  0  0  0  0  0
    6.5663    3.9845   -7.3023 H   0  0  0  0  0  0  0  0  0  0  0  0
    5.6230    3.4819   -7.0941 C   0  0  0  0  0  0  0  0  0  0  0  0
    5.2000    3.0961   -8.0203 H   0  0  0  0  0  0  0  0  0  0  0  0
    4.9289    4.1833   -6.6350 H   0  0  0  0  0  0  0  0  0  0  0  0
    5.8775    2.3352   -6.1440 C   0  0  0  0  0  0  0  0  0  0  0  0
    7.0079    2.1137   -5.7314 O   0  0  0  0  0  0  0  0  0  0  0  0
    4.8191    1.6107   -5.7911 N   0  0  0  0  0  0  0  0  0  0  0  0
    3.9169    1.8449   -6.1793 H   0  0  0  0  0  0  0  0  0  0  0  0
    4.8627    0.4678   -4.8790 C   0  0  1  0  0  0  0  0  0  0  0  0
    5.7869   -0.0877   -5.0486 H   0  0  0  0  0  0  0  0  0  0  0  0
    4.8804    1.0067   -3.4417 C   0  0  0  0  0  0  0  0  0  0  0  0
    5.7499    1.6586   -3.3461 H   0  0  0  0  0  0  0  0  0  0  0  0
    3.9963    1.6252   -3.2861 H   0  0  0  0  0  0  0  0  0  0  0  0
    4.9804   -0.2047   -2.0965 S   0  0  0  0  0  0  0  0  0  0  0  0
    3.6786   -0.4787   -5.1446 C   0  0  0  0  0  0  0  0  0  0  0  0
    2.6119   -0.0261   -5.5624 O   0  0  0  0  0  0  0  0  0  0  0  0
    3.8680   -1.7838   -4.9117 N   0  0  0  0  0  0  0  0  0  0  0  0
    4.7592   -2.0700   -4.5385 H   0  0  0  0  0  0  0  0  0  0  0  0
    2.8450   -2.8108   -5.1043 C   0  0  0  0  0  0  0  0  0  0  0  0
    2.1059   -2.7486   -4.3039 H   0  0  0  0  0  0  0  0  0  0  0  0
    2.3375   -2.6581   -6.0598 H   0  0  0  0  0  0  0  0  0  0  0  0
    3.2996   -3.8016   -5.0971 H   0  0  0  0  0  0  0  0  0  0  0  0
  5  6  2  0  0  0  0
  5  7  1  0  0  0  0
  2  3  1  0  0  0  0
  2  4  1  0  0  0  0
  2  5  1  0  0  0  0
  1  2  1  0  0  0  0
 15 16  2  0  0  0  0
 15 17  1  0  0  0  0
 14 36  1  0  0  0  0
 11 12  1  0  0  0  0
 11 13  1  0  0  0  0
 11 14  1  0  0  0  0
  9 10  1  0  0  0  0
  9 11  1  0  0  0  0
  9 15  1  0  0  0  0
  7  8  1  0  0  0  0
  7  9  1  0  0  0  0
 19 20  1  0  0  0  0
 19 21  1  0  0  0  0
 19 22  1  0  0  0  0
 17 18  1  0  0  0  0
 17 19  1  0  0  0  0
 27 28  2  0  0  0  0
 27 29  1  0  0  0  0
 24 25  1  0  0  0  0
 24 26  1  0  0  0  0
 24 27  1  0  0  0  0
 23 24  1  0  0  0  0
 37 38  2  0  0  0  0
 37 39  1  0  0  0  0
 33 34  1  0  0  0  0
 33 35  1  0  0  0  0
 33 36  1  0  0  0  0
 31 32  1  0  0  0  0
 31 33  1  0  0  0  0
 31 37  1  0  0  0  0
 29 30  1  0  0  0  0
 29 31  1  0  0  0  0
 41 42  1  0  0  0  0
 41 43  1  0  0  0  0
 41 44  1  0  0  0  0
 39 40  1  0  0  0  0
 39 41  1  0  0  0  0
M  END
$$$$
default_name
  -OEChem-01062215323D

 44 43  0     1  0  0  0  0  0999 V2000
    2.4488   -3.0448    2.0990 H   0  0  0  0  0  0  0  0  0  0  0  0
    2.2788   -2.0018    2.3640 C   0  0  0  0  0  0  0  0  0  0  0  0
    2.9228   -1.7258    3.1960 H   0  0  0  0  0  0  0  0  0  0  0  0
    1.2358   -1.8618    2.6430 H   0  0  0  0  0  0  0  0  0  0  0  0
    2.6018   -1.1318    1.1730 C   0  0  0  0  0  0  0  0  0  0  0  0
    3.0048   -1.6348    0.1320 O   0  0  0  0  0  0  0  0  0  0  0  0
    2.4088    0.1752    1.3190 N   0  0  0  0  0  0  0  0  0  0  0  0
    2.0708    0.5242    2.2050 H   0  0  0  0  0  0  0  0  0  0  0  0
    2.6638    1.1782    0.2840 C   0  0  1  0  0  0  0  0  0  0  0  0
    3.7410    1.3446    0.2307 H   0  0  0  0  0  0  0  0  0  0  0  0
    2.1949    0.6448   -1.0811 C   0  0  0  0  0  0  0  0  0  0  0  0
    2.2409    1.4557   -1.8091 H   0  0  0  0  0  0  0  0  0  0  0  0
    1.1436    0.3735   -0.9895 H   0  0  0  0  0  0  0  0  0  0  0  0
    3.0550   -0.8001   -1.7705 S   0  0  0  0  0  0  0  0  0  0  0  0
    1.9977    2.5212    0.6373 C   0  0  0  0  0  0  0  0  0  0  0  0
    1.8479    2.8545    1.8127 O   0  0  0  0  0  0  0  0  0  0  0  0
    1.6040    3.2955   -0.3826 N   0  0  0  0  0  0  0  0  0  0  0  0
    1.7600    2.9625   -1.3205 H   0  0  0  0  0  0  0  0  0  0  0  0
    0.9559    4.5942   -0.2120 C   0  0  0  0  0  0  0  0  0  0  0  0
    0.0055    4.4644    0.3101 H   0  0  0  0  0  0  0  0  0  0  0  0
    1.5922    5.2489    0.3863 H   0  0  0  0  0  0  0  0  0  0  0  0
    0.7738    5.0575   -1.1825 H   0  0  0  0  0  0  0  0  0  0  0  0
    6.5663    3.9845   -7.3023 H   0  0  0  0  0  0  0  0  0  0  0  0
    5.6230    3.4819   -7.0941 C   0  0  0  0  0  0  0  0  0  0  0  0
    5.2000    3.0961   -8.0203 H   0  0  0  0  0  0  0  0  0  0  0  0
    4.9289    4.1833   -6.6350 H   0  0  0  0  0  0  0  0  0  0  0  0
    5.8775    2.3352   -6.1440 C   0  0  0  0  0  0  0  0  0  0  0  0
    7.0079    2.1137   -5.7314 O   0  0  0  0  0  0  0  0  0  0  0  0
    4.8191    1.6107   -5.7911 N   0  0  0  0  0  0  0  0  0  0  0  0
    3.9169    1.8449   -6.1793 H   0  0  0  0  0  0  0  0  0  0  0  0
    4.8627    0.4678   -4.8790 C   0  0  1  0  0  0  0  0  0  0  0  0
    5.7869   -0.0877   -5.0486 H   0  0  0  0  0  0  0  0  0  0  0  0
    4.8804    1.0067   -3.4417 C   0  0  0  0  0  0  0  0  0  0  0  0
    5.7499    1.6586   -3.3461 H   0  0  0  0  0  0  0  0  0  0  0  0
    3.9963    1.6252   -3.2861 H   0  0  0  0  0  0  0  0  0  0  0  0
    4.9804   -0.2047   -2.0965 S   0  0  0  0  0  0  0  0  0  0  0  0
    3.6786   -0.4787   -5.1446 C   0  0  0  0  0  0  0  0  0  0  0  0
    2.6119   -0.0261   -5.5624 O   0  0  0  0  0  0  0  0  0  0  0  0
    3.8680   -1.7838   -4.9117 N   0  0  0  0  0  0  0  0  0  0  0  0
    4.7592   -2.0700   -4.5385 H   0  0  0  0  0  0  0  0  0  0  0  0
    2.8450   -2.8108   -5.1043 C   0  0  0  0  0  0  0  0  0  0  0  0
    2.1059   -2.7486   -4.3039 H   0  0  0  0  0  0  0  0  0  0  0  0
    2.3375   -2.6581   -6.0598 H   0  0  0  0  0  0  0  0  0  0  0  0
    3.2996   -3.8016   -5.0971 H   0  0  0  0  0  0  0  0  0  0  0  0
  5  6  2  0  0  0  0
  5  7  1  0  0  0  0
  2  3  1  0  0  0  0
  2  4  1  0  0  0  0
  2  5  1  0  0  0  0
  1  2  1  0  0  0  0
 15 16  2  0  0  0  0
 15 17  1  0  0  0  0
 14 36  1  0  0  0  0
 11 12  1  0  0  0  0
 11 13  1  0  0  0  0
 11 14  1  0  0  0  0
  9 10  1  0  0  0  0
  9 11  1  0  0  0  0
  9 15  1  0  0  0  0
  7  8  1  0  0  0  0
  7  9  1  0  0  0  0
 19 20  1  0  0  0  0
 19 21  1  0  0  0  0
 19 22  1  0  0  0  0
 17 18  1  0  0  0  0
 17 19  1  0  0  0  0
 27 28  2  0  0  0  0
 27 29  1  0  0  0  0
 24 25  1  0  0  0  0
 24 26  1  0  0  0  0
 24 27  1  0  0  0  0
 23 24  1  0  0  0  0
 37 38  2  0  0  0  0
 37 39  1  0  0  0  0
 33 34  1  0  0  0  0
 33 35  1  0  0  0  0
 33 36  1  0  0  0  0
 31 32  1  0  0  0  0
 31 33  1  0  0  0  0
 31 37  1  0  0  0  0
 29 30  1  0  0  0  0
 29 31  1  0  0  0  0
 41 42  1  0  0  0  0
 41 43  1  0  0  0  0
 41 44  1  0  0  0  0
 39 40  1  0  0  0  0
 39 41  1  0  0  0  0
M  END
$$$$
default_name
  -OEChem-01062215323D

 44 43  0     1  0  0  0  0  0999 V2000
    2.4488   -3.0448    2.0990 H   0  0  0  0  0  0  0  0  0  0  0  0
    2.2788   -2.0018    2.3640 C   0  0  0  0  0  0  0  0  0  0  0  0
    2.9228   -1.7258    3.1960 H   0  0  0  0  0  0  0  0  0  0  0  0
    1.2358   -1.8618    2.6430 H   0  0  0  0  0  0  0  0  0  0  0  0
    2.6018   -1.1318    1.1730 C   0  0  0  0  0  0  0  0  0  0  0  0
    3.0048   -1.6348    0.1320 O   0  0  0  0  0  0  0  0  0  0  0  0
    2.4088    0.1752    1.3190 N   0  0  0  0  0  0  0  0  0  0  0  0
    2.0708    0.5242    2.2050 H   0  0  0  0  0  0  0  0  0  0  0  0
    2.6638    1.1782    0.2840 C   0  0  1  0  0  0  0  0  0  0  0  0
    3.7410    1.3446    0.2307 H   0  0  0  0  0  0  0  0  0  0  0  0
    2.1949    0.6448   -1.0811 C   0  0  0  0  0  0  0  0  0  0  0  0
    2.2409    1.4557   -1.8091 H   0  0  0  0  0  0  0  0  0  0  0  0
    1.1436    0.3735   -0.9895 H   0  0  0  0  0  0  0  0  0  0  0  0
    3.0550   -0.8001   -1.7705 S   0  0  0  0  0  0  0  0  0  0  0  0
    1.9977    2.5212    0.6373 C   0  0  0  0  0  0  0  0  0  0  0  0
    2.0892    2.9844    1.7741 O   0  0  0  0  0  0  0  0  0  0  0  0
    1.3323    3.1497   -0.3409 N   0  0  0  0  0  0  0  0  0  0  0  0
    1.2994    2.7154   -1.2492 H   0  0  0  0  0  0  0  0  0  0  0  0
    0.6462    4.4279   -0.1638 C   0  0  0  0  0  0  0  0  0  0  0  0
   -0.1524    4.3170    0.5727 H   0  0  0  0  0  0  0  0  0  0  0  0
    1.3506    5.1779    0.2006 H   0  0  0  0  0  0  0  0  0  0  0  0
    0.2199    4.7638   -1.1100 H   0  0  0  0  0  0  0  0  0  0  0  0
    6.5663    3.9845   -7.3023 H   0  0  0  0  0  0  0  0  0  0  0  0
    5.6230    3.4819   -7.0941 C   0  0  0  0  0  0  0  0  0  0  0  0
    5.2000    3.0961   -8.0203 H   0  0  0  0  0  0  0  0  0  0  0  0
    4.9289    4.1833   -6.6350 H   0  0  0  0  0  0  0  0  0  0  0  0
    5.8775    2.3352   -6.1440 C   0  0  0  0  0  0  0  0  0  0  0  0
    7.0079    2.1137   -5.7314 O   0  0  0  0  0  0  0  0  0  0  0  0
    4.8191    1.6107   -5.7911 N   0  0  0  0  0  0  0  0  0  0  0  0
    3.9169    1.8449   -6.1793 H   0  0  0  0  0  0  0  0  0  0  0  0
    4.8627    0.4678   -4.8790 C   0  0  1  0  0  0  0  0  0  0  0  0
    5.7869   -0.0877   -5.0486 H   0  0  0  0  0  0  0  0  0  0  0  0
    4.8804    1.0067   -3.4417 C   0  0  0  0  0  0  0  0  0  0  0  0
    5.7499    1.6586   -3.3461 H   0  0  0  0  0  0  0  0  0  0  0  0
    3.9963    1.6252   -3.2861 H   0  0  0  0  0  0  0  0  0  0  0  0
    4.9804   -0.2047   -2.0965 S   0  0  0  0  0  0  0  0  0  0  0  0
    3.6786   -0.4787   -5.1446 C   0  0  0  0  0  0  0  0  0  0  0  0
    2.6119   -0.0261   -5.5624 O   0  0  0  0  0  0  0  0  0  0  0  0
    3.8680   -1.7838   -4.9117 N   0  0  0  0  0  0  0  0  0  0  0  0
    4.7592   -2.0700   -4.5385 H   0  0  0  0  0  0  0  0  0  0  0  0
    2.8450   -2.8108   -5.1043 C   0  0  0  0  0  0  0  0  0  0  0  0
    2.1059   -2.7486   -4.3039 H   0  0  0  0  0  0  0  0  0  0  0  0
    2.3375   -2.6581   -6.0598 H   0  0  0  0  0  0  0  0  0  0  0  0
    3.2996   -3.8016   -5.0971 H   0  0  0  0  0  0  0  0  0  0  0  0
  5  6  2  0  0  0  0
  5  7  1  0  0  0  0
  2  3  1  0  0  0  0
  2  4  1  0  0  0  0
  2  5  1  0  0  0  0
  1  2  1  0  0  0  0
 15 16  2  0  0  0  0
 15 17  1  0  0  0  0
 14 36  1  0  0  0  0
 11 12  1  0  0  0  0
 11 13  1  0  0  0  0
 11 14  1  0  0  0  0
  9 10  1  0  0  0  0
  9 11  1  0  0  0  0
  9 15  1  0  0  0  0
  7  8  1  0  0  0  0
  7  9  1  0  0  0  0
 19 20  1  0  0  0  0
 19 21  1  0  0  0  0
 19 22  1  0  0  0  0
 17 18  1  0  0  0  0
 17 19  1  0  0  0  0
 27 28  2  0  0  0  0
 27 29  1  0  0  0  0
 24 25  1  0  0  0  0
 24 26  1  0  0  0  0
 24 27  1  0  0  0  0
 23 24  1  0  0  0  0
 37 38  2  0  0  0  0
 37 39  1  0  0  0  0
 33 34  1  0  0  0  0
 33 35  1  0  0  0  0
 33 36  1  0  0  0  0
 31 32  1  0  0  0  0
 31 33  1  0  0  0  0
 31 37  1  0  0  0  0
 29 30  1  0  0  0  0
 29 31  1  0  0  0  0
 41 42  1  0  0  0  0
 41 43  1  0  0  0  0
 41 44  1  0  0  0  0
 39 40  1  0  0  0  0
 39 41  1  0  0  0  0
M  END
$$$$
default_name
  -OEChem-01062215323D

 44 43  0     1  0  0  0  0  0999 V2000
    2.4488   -3.0448    2.0990 H   0  0  0  0  0  0  0  0  0  0  0  0
    2.2788   -2.0018    2.3640 C   0  0  0  0  0  0  0  0  0  0  0  0
    2.9228   -1.7258    3.1960 H   0  0  0  0  0  0  0  0  0  0  0  0
    1.2358   -1.8618    2.6430 H   0  0  0  0  0  0  0  0  0  0  0  0
    2.6018   -1.1318    1.1730 C   0  0  0  0  0  0  0  0  0  0  0  0
    3.0048   -1.6348    0.1320 O   0  0  0  0  0  0  0  0  0  0  0  0
    2.4088    0.1752    1.3190 N   0  0  0  0  0  0  0  0  0  0  0  0
    2.0708    0.5242    2.2050 H   0  0  0  0  0  0  0  0  0  0  0  0
    2.6638    1.1782    0.2840 C   0  0  1  0  0  0  0  0  0  0  0  0
    3.7410    1.3446    0.2307 H   0  0  0  0  0  0  0  0  0  0  0  0
    2.1949    0.6448   -1.0811 C   0  0  0  0  0  0  0  0  0  0  0  0
    2.2409    1.4557   -1.8091 H   0  0  0  0  0  0  0  0  0  0  0  0
    1.1436    0.3735   -0.9895 H   0  0  0  0  0  0  0  0  0  0  0  0
    3.0550   -0.8001   -1.7705 S   0  0  0  0  0  0  0  0  0  0  0  0
    1.9977    2.5212    0.6373 C   0  0  0  0  0  0  0  0  0  0  0  0
    2.3060    3.1198    1.6678 O   0  0  0  0  0  0  0  0  0  0  0  0
    1.0878    2.9975   -0.2230 N   0  0  0  0  0  0  0  0  0  0  0  0
    0.8854    2.4573   -1.0487 H   0  0  0  0  0  0  0  0  0  0  0  0
    0.3678    4.2543   -0.0288 C   0  0  0  0  0  0  0  0  0  0  0  0
   -0.2369    4.1946    0.8786 H   0  0  0  0  0  0  0  0  0  0  0  0
    1.0796    5.0743    0.0837 H   0  0  0  0  0  0  0  0  0  0  0  0
   -0.2812    4.4552   -0.8820 H   0  0  0  0  0  0  0  0  0  0  0  0
    6.5663    3.9845   -7.3023 H   0  0  0  0  0  0  0  0  0  0  0  0
    5.6230    3.4819   -7.0941 C   0  0  0  0  0  0  0  0  0  0  0  0
    5.2000    3.0961   -8.0203 H   0  0  0  0  0  0  0  0  0  0  0  0
    4.9289    4.1833   -6.6350 H   0  0  0  0  0  0  0  0  0  0  0  0
    5.8775    2.3352   -6.1440 C   0  0  0  0  0  0  0  0  0  0  0  0
    7.0079    2.1137   -5.7314 O   0  0  0  0  0  0  0  0  0  0  0  0
    4.8191    1.6107   -5.7911 N   0  0  0  0  0  0  0  0  0  0  0  0
    3.9169    1.8449   -6.1793 H   0  0  0  0  0  0  0  0  0  0  0  0
    4.8627    0.4678   -4.8790 C   0  0  1  0  0  0  0  0  0  0  0  0
    5.7869   -0.0877   -5.0486 H   0  0  0  0  0  0  0  0  0  0  0  0
    4.8804    1.0067   -3.4417 C   0  0  0  0  0  0  0  0  0  0  0  0
    5.7499    1.6586   -3.3461 H   0  0  0  0  0  0  0  0  0  0  0  0
    3.9963    1.6252   -3.2861 H   0  0  0  0  0  0  0  0  0  0  0  0
    4.9804   -0.2047   -2.0965 S   0  0  0  0  0  0  0  0  0  0  0  0
    3.6786   -0.4787   -5.1446 C   0  0  0  0  0  0  0  0  0  0  0  0
    2.6119   -0.0261   -5.5624 O   0  0  0  0  0  0  0  0  0  0  0  0
    3.8680   -1.7838   -4.9117 N   0  0  0  0  0  0  0  0  0  0  0  0
    4.7592   -2.0700   -4.5385 H   0  0  0  0  0  0  0  0  0  0  0  0
    2.8450   -2.8108   -5.1043 C   0  0  0  0  0  0  0  0  0  0  0  0
    2.1059   -2.7486   -4.3039 H   0  0  0  0  0  0  0  0  0  0  0  0
    2.3375   -2.6581   -6.0598 H   0  0  0  0  0  0  0  0  0  0  0  0
    3.2996   -3.8016   -5.0971 H   0  0  0  0  0  0  0  0  0  0  0  0
  5  6  2  0  0  0  0
  5  7  1  0  0  0  0
  2  3  1  0  0  0  0
  2  4  1  0  0  0  0
  2  5  1  0  0  0  0
  1  2  1  0  0  0  0
 15 16  2  0  0  0  0
 15 17  1  0  0  0  0
 14 36  1  0  0  0  0
 11 12  1  0  0  0  0
 11 13  1  0  0  0  0
 11 14  1  0  0  0  0
  9 10  1  0  0  0  0
  9 11  1  0  0  0  0
  9 15  1  0  0  0  0
  7  8  1  0  0  0  0
  7  9  1  0  0  0  0
 19 20  1  0  0  0  0
 19 21  1  0  0  0  0
 19 22  1  0  0  0  0
 17 18  1  0  0  0  0
 17 19  1  0  0  0  0
 27 28  2  0  0  0  0
 27 29  1  0  0  0  0
 24 25  1  0  0  0  0
 24 26  1  0  0  0  0
 24 27  1  0  0  0  0
 23 24  1  0  0  0  0
 37 38  2  0  0  0  0
 37 39  1  0  0  0  0
 33 34  1  0  0  0  0
 33 35  1  0  0  0  0
 33 36  1  0  0  0  0
 31 32  1  0  0  0  0
 31 33  1  0  0  0  0
 31 37  1  0  0  0  0
 29 30  1  0  0  0  0
 29 31  1  0  0  0  0
 41 42  1  0  0  0  0
 41 43  1  0  0  0  0
 41 44  1  0  0  0  0
 39 40  1  0  0  0  0
 39 41  1  0  0  0  0
M  END
$$$$
default_name
  -OEChem-01062215323D

 44 43  0     1  0  0  0  0  0999 V2000
    2.4488   -3.0448    2.0990 H   0  0  0  0  0  0  0  0  0  0  0  0
    2.2788   -2.0018    2.3640 C   0  0  0  0  0  0  0  0  0  0  0  0
    2.9228   -1.7258    3.1960 H   0  0  0  0  0  0  0  0  0  0  0  0
    1.2358   -1.8618    2.6430 H   0  0  0  0  0  0  0  0  0  0  0  0
    2.6018   -1.1318    1.1730 C   0  0  0  0  0  0  0  0  0  0  0  0
    3.0048   -1.6348    0.1320 O   0  0  0  0  0  0  0  0  0  0  0  0
    2.4088    0.1752    1.3190 N   0  0  0  0  0  0  0  0  0  0  0  0
    2.0708    0.5242    2.2050 H   0  0  0  0  0  0  0  0  0  0  0  0
    2.6638    1.1782    0.2840 C   0  0  1  0  0  0  0  0  0  0  0  0
    3.7410    1.3446    0.2307 H   0  0  0  0  0  0  0  0  0  0  0  0
    2.1949    0.6448   -1.0811 C   0  0  0  0  0  0  0  0  0  0  0  0
    2.2409    1.4557   -1.8091 H   0  0  0  0  0  0  0  0  0  0  0  0
    1.1436    0.3735   -0.9895 H   0  0  0  0  0  0  0  0  0  0  0  0
    3.0550   -0.8001   -1.7705 S   0  0  0  0  0  0  0  0  0  0  0  0
    1.9977    2.5212    0.6373 C   0  0  0  0  0  0  0  0  0  0  0  0
    2.4833    3.2517    1.5010 O   0  0  0  0  0  0  0  0  0  0  0  0
    0.8874    2.8491   -0.0368 N   0  0  0  0  0  0  0  0  0  0  0  0
    0.5460    2.2059   -0.7328 H   0  0  0  0  0  0  0  0  0  0  0  0
    0.1397    4.0853    0.1839 C   0  0  0  0  0  0  0  0  0  0  0  0
   -0.2422    4.1056    1.2068 H   0  0  0  0  0  0  0  0  0  0  0  0
    0.7975    4.9450    0.0435 H   0  0  0  0  0  0  0  0  0  0  0  0
   -0.6956    4.1530   -0.5142 H   0  0  0  0  0  0  0  0  0  0  0  0
    6.5663    3.9845   -7.3023 H   0  0  0  0  0  0  0  0  0  0  0  0
    5.6230    3.4819   -7.0941 C   0  0  0  0  0  0  0  0  0  0  0  0
    5.2000    3.0961   -8.0203 H   0  0  0  0  0  0  0  0  0  0  0  0
    4.9289    4.1833   -6.6350 H   0  0  0  0  0  0  0  0  0  0  0  0
    5.8775    2.3352   -6.1440 C   0  0  0  0  0  0  0  0  0  0  0  0
    7.0079    2.1137   -5.7314 O   0  0  0  0  0  0  0  0  0  0  0  0
    4.8191    1.6107   -5.7911 N   0  0  0  0  0  0  0  0  0  0  0  0
    3.9169    1.8449   -6.1793 H   0  0  0  0  0  0  0  0  0  0  0  0
    4.8627    0.4678   -4.8790 C   0  0  1  0  0  0  0  0  0  0  0  0
    5.7869   -0.0877   -5.0486 H   0  0  0  0  0  0  0  0  0  0  0  0
    4.8804    1.0067   -3.4417 C   0  0  0  0  0  0  0  0  0  0  0  0
    5.7499    1.6586   -3.3461 H   0  0  0  0  0  0  0  0  0  0  0  0
    3.9963    1.6252   -3.2861 H   0  0  0  0  0  0  0  0  0  0  0  0
    4.9804   -0.2047   -2.0965 S   0  0  0  0  0  0  0  0  0  0  0  0
    3.6786   -0.4787   -5.1446 C   0  0  0  0  0  0  0  0  0  0  0  0
    2.6119   -0.0261   -5.5624 O   0  0  0  0  0  0  0  0  0  0  0  0
    3.8680   -1.7838   -4.9117 N   0  0  0  0  0  0  0  0  0  0  0  0
    4.7592   -2.0700   -4.5385 H   0  0  0  0  0  0  0  0  0  0  0  0
    2.8450   -2.8108   -5.1043 C   0  0  0  0  0  0  0  0  0  0  0  0
    2.1059   -2.7486   -4.3039 H   0  0  0  0  0  0  0  0  0  0  0  0
    2.3375   -2.6581   -6.0598 H   0  0  0  0  0  0  0  0  0  0  0  0
    3.2996   -3.8016   -5.0971 H   0  0  0  0  0  0  0  0  0  0  0  0
  5  6  2  0  0  0  0
  5  7  1  0  0  0  0
  2  3  1  0  0  0  0
  2  4  1  0  0  0  0
  2  5  1  0  0  0  0
  1  2  1  0  0  0  0
 15 16  2  0  0  0  0
 15 17  1  0  0  0  0
 14 36  1  0  0  0  0
 11 12  1  0  0  0  0
 11 13  1  0  0  0  0
 11 14  1  0  0  0  0
  9 10  1  0  0  0  0
  9 11  1  0  0  0  0
  9 15  1  0  0  0  0
  7  8  1  0  0  0  0
  7  9  1  0  0  0  0
 19 20  1  0  0  0  0
 19 21  1  0  0  0  0
 19 22  1  0  0  0  0
 17 18  1  0  0  0  0
 17 19  1  0  0  0  0
 27 28  2  0  0  0  0
 27 29  1  0  0  0  0
 24 25  1  0  0  0  0
 24 26  1  0  0  0  0
 24 27  1  0  0  0  0
 23 24  1  0  0  0  0
 37 38  2  0  0  0  0
 37 39  1  0  0  0  0
 33 34  1  0  0  0  0
 33 35  1  0  0  0  0
 33 36  1  0  0  0  0
 31 32  1  0  0  0  0
 31 33  1  0  0  0  0
 31 37  1  0  0  0  0
 29 30  1  0  0  0  0
 29 31  1  0  0  0  0
 41 42  1  0  0  0  0
 41 43  1  0  0  0  0
 41 44  1  0  0  0  0
 39 40  1  0  0  0  0
 39 41  1  0  0  0  0
M  END
$$$$
default_name
  -OEChem-01062215323D

 44 43  0     1  0  0  0  0  0999 V2000
    2.4488   -3.0448    2.0990 H   0  0  0  0  0  0  0  0  0  0  0  0
    2.2788   -2.0018    2.3640 C   0  0  0  0  0  0  0  0  0  0  0  0
    2.9228   -1.7258    3.1960 H   0  0  0  0  0  0  0  0  0  0  0  0
    1.2358   -1.8618    2.6430 H   0  0  0  0  0  0  0  0  0  0  0  0
    2.6018   -1.1318    1.1730 C   0  0  0  0  0  0  0  0  0  0  0  0
    3.0048   -1.6348    0.1320 O   0  0  0  0  0  0  0  0  0  0  0  0
    2.4088    0.1752    1.3190 N   0  0  0  0  0  0  0  0  0  0  0  0
    2.0708    0.5242    2.2050 H   0  0  0  0  0  0  0  0  0  0  0  0
    2.6638    1.1782    0.2840 C   0  0  1  0  0  0  0  0  0  0  0  0
    3.7410    1.3446    0.2307 H   0  0  0  0  0  0  0  0  0  0  0  0
    2.1949    0.6448   -1.0811 C   0  0  0  0  0  0  0  0  0  0  0  0
    2.2409    1.4557   -1.8091 H   0  0  0  0  0  0  0  0  0  0  0  0
    1.1436    0.3735   -0.9895 H   0  0  0  0  0  0  0  0  0  0  0  0
    3.0550   -0.8001   -1.7705 S   0  0  0  0  0  0  0  0  0  0  0  0
    1.9977    2.5212    0.6373 C   0  0  0  0  0  0  0  0  0  0  0  0
    2.6091    3.3708    1.2851 O   0  0  0  0  0  0  0  0  0  0  0  0
    0.7446    2.7147    0.2048 N   0  0  0  0  0  0  0  0  0  0  0  0
    0.3044    1.9782   -0.3229 H   0  0  0  0  0  0  0  0  0  0  0  0
   -0.0226    3.9322    0.4598 C   0  0  0  0  0  0  0  0  0  0  0  0
   -0.1680    4.0560    1.5350 H   0  0  0  0  0  0  0  0  0  0  0  0
    0.5237    4.7988    0.0829 H   0  0  0  0  0  0  0  0  0  0  0  0
   -0.9948    3.8776   -0.0316 H   0  0  0  0  0  0  0  0  0  0  0  0
    6.5663    3.9845   -7.3023 H   0  0  0  0  0  0  0  0  0  0  0  0
    5.6230    3.4819   -7.0941 C   0  0  0  0  0  0  0  0  0  0  0  0
    5.2000    3.0961   -8.0203 H   0  0  0  0  0  0  0  0  0  0  0  0
    4.9289    4.1833   -6.6350 H   0  0  0  0  0  0  0  0  0  0  0  0
    5.8775    2.3352   -6.1440 C   0  0  0  0  0  0  0  0  0  0  0  0
    7.0079    2.1137   -5.7314 O   0  0  0  0  0  0  0  0  0  0  0  0
    4.8191    1.6107   -5.7911 N   0  0  0  0  0  0  0  0  0  0  0  0
    3.9169    1.8449   -6.1793 H   0  0  0  0  0  0  0  0  0  0  0  0
    4.8627    0.4678   -4.8790 C   0  0  1  0  0  0  0  0  0  0  0  0
    5.7869   -0.0877   -5.0486 H   0  0  0  0  0  0  0  0  0  0  0  0
    4.8804    1.0067   -3.4417 C   0  0  0  0  0  0  0  0  0  0  0  0
    5.7499    1.6586   -3.3461 H   0  0  0  0  0  0  0  0  0  0  0  0
    3.9963    1.6252   -3.2861 H   0  0  0  0  0  0  0  0  0  0  0  0
    4.9804   -0.2047   -2.0965 S   0  0  0  0  0  0  0  0  0  0  0  0
    3.6786   -0.4787   -5.1446 C   0  0  0  0  0  0  0  0  0  0  0  0
    2.6119   -0.0261   -5.5624 O   0  0  0  0  0  0  0  0  0  0  0  0
    3.8680   -1.7838   -4.9117 N   0  0  0  0  0  0  0  0  0  0  0  0
    4.7592   -2.0700   -4.5385 H   0  0  0  0  0  0  0  0  0  0  0  0
    2.8450   -2.8108   -5.1043 C   0  0  0  0  0  0  0  0  0  0  0  0
    2.1059   -2.7486   -4.3039 H   0  0  0  0  0  0  0  0  0  0  0  0
    2.3375   -2.6581   -6.0598 H   0  0  0  0  0  0  0  0  0  0  0  0
    3.2996   -3.8016   -5.0971 H   0  0  0  0  0  0  0  0  0  0  0  0
  5  6  2  0  0  0  0
  5  7  1  0  0  0  0
  2  3  1  0  0  0  0
  2  4  1  0  0  0  0
  2  5  1  0  0  0  0
  1  2  1  0  0  0  0
 15 16  2  0  0  0  0
 15 17  1  0  0  0  0
 14 36  1  0  0  0  0
 11 12  1  0  0  0  0
 11 13  1  0  0  0  0
 11 14  1  0  0  0  0
  9 10  1  0  0  0  0
  9 11  1  0  0  0  0
  9 15  1  0  0  0  0
  7  8  1  0  0  0  0
  7  9  1  0  0  0  0
 19 20  1  0  0  0  0
 19 21  1  0  0  0  0
 19 22  1  0  0  0  0
 17 18  1  0  0  0  0
 17 19  1  0  0  0  0
 27 28  2  0  0  0  0
 27 29  1  0  0  0  0
 24 25  1  0  0  0  0
 24 26  1  0  0  0  0
 24 27  1  0  0  0  0
 23 24  1  0  0  0  0
 37 38  2  0  0  0  0
 37 39  1  0  0  0  0
 33 34  1  0  0  0  0
 33 35  1  0  0  0  0
 33 36  1  0  0  0  0
 31 32  1  0  0  0  0
 31 33  1  0  0  0  0
 31 37  1  0  0  0  0
 29 30  1  0  0  0  0
 29 31  1  0  0  0  0
 41 42  1  0  0  0  0
 41 43  1  0  0  0  0
 41 44  1  0  0  0  0
 39 40  1  0  0  0  0
 39 41  1  0  0  0  0
M  END
$$$$
default_name
  -OEChem-01062215323D

 44 43  0     1  0  0  0  0  0999 V2000
    2.4488   -3.0448    2.0990 H   0  0  0  0  0  0  0  0  0  0  0  0
    2.2788   -2.0018    2.3640 C   0  0  0  0  0  0  0  0  0  0  0  0
    2.9228   -1.7258    3.1960 H   0  0  0  0  0  0  0  0  0  0  0  0
    1.2358   -1.8618    2.6430 H   0  0  0  0  0  0  0  0  0  0  0  0
    2.6018   -1.1318    1.1730 C   0  0  0  0  0  0  0  0  0  0  0  0
    3.0048   -1.6348    0.1320 O   0  0  0  0  0  0  0  0  0  0  0  0
    2.4088    0.1752    1.3190 N   0  0  0  0  0  0  0  0  0  0  0  0
    2.0708    0.5242    2.2050 H   0  0  0  0  0  0  0  0  0  0  0  0
    2.6638    1.1782    0.2840 C   0  0  1  0  0  0  0  0  0  0  0  0
    3.7410    1.3446    0.2307 H   0  0  0  0  0  0  0  0  0  0  0  0
    2.1949    0.6448   -1.0811 C   0  0  0  0  0  0  0  0  0  0  0  0
    2.2409    1.4557   -1.8091 H   0  0  0  0  0  0  0  0  0  0  0  0
    1.1436    0.3735   -0.9895 H   0  0  0  0  0  0  0  0  0  0  0  0
    3.0550   -0.8001   -1.7705 S   0  0  0  0  0  0  0  0  0  0  0  0
    1.9977    2.5212    0.6373 C   0  0  0  0  0  0  0  0  0  0  0  0
    2.6748    3.4693    1.0349 O   0  0  0  0  0  0  0  0  0  0  0  0
    0.6692    2.6034    0.4855 N   0  0  0  0  0  0  0  0  0  0  0  0
    0.1771    1.7898    0.1531 H   0  0  0  0  0  0  0  0  0  0  0  0
   -0.1080    3.8056    0.7800 C   0  0  0  0  0  0  0  0  0  0  0  0
   -0.0193    4.0493    1.8408 H   0  0  0  0  0  0  0  0  0  0  0  0
    0.2767    4.6458    0.1990 H   0  0  0  0  0  0  0  0  0  0  0  0
   -1.1586    3.6478    0.5329 H   0  0  0  0  0  0  0  0  0  0  0  0
    6.5663    3.9845   -7.3023 H   0  0  0  0  0  0  0  0  0  0  0  0
    5.6230    3.4819   -7.0941 C   0  0  0  0  0  0  0  0  0  0  0  0
    5.2000    3.0961   -8.0203 H   0  0  0  0  0  0  0  0  0  0  0  0
    4.9289    4.1833   -6.6350 H   0  0  0  0  0  0  0  0  0  0  0  0
    5.8775    2.3352   -6.1440 C   0  0  0  0  0  0  0  0  0  0  0  0
    7.0079    2.1137   -5.7314 O   0  0  0  0  0  0  0  0  0  0  0  0
    4.8191    1.6107   -5.7911 N   0  0  0  0  0  0  0  0  0  0  0  0
    3.9169    1.8449   -6.1793 H   0  0  0  0  0  0  0  0  0  0  0  0
    4.8627    0.4678   -4.8790 C   0  0  1  0  0  0  0  0  0  0  0  0
    5.7869   -0.0877   -5.0486 H   0  0  0  0  0  0  0  0  0  0  0  0
    4.8804    1.0067   -3.4417 C   0  0  0  0  0  0  0  0  0  0  0  0
    5.7499    1.6586   -3.3461 H   0  0  0  0  0  0  0  0  0  0  0  0
    3.9963    1.6252   -3.2861 H   0  0  0  0  0  0  0  0  0  0  0  0
    4.9804   -0.2047   -2.0965 S   0  0  0  0  0  0  0  0  0  0  0  0
    3.6786   -0.4787   -5.1446 C   0  0  0  0  0  0  0  0  0  0  0  0
    2.6119   -0.0261   -5.5624 O   0  0  0  0  0  0  0  0  0  0  0  0
    3.8680   -1.7838   -4.9117 N   0  0  0  0  0  0  0  0  0  0  0  0
    4.7592   -2.0700   -4.5385 H   0  0  0  0  0  0  0  0  0  0  0  0
    2.8450   -2.8108   -5.1043 C   0  0  0  0  0  0  0  0  0  0  0  0
    2.1059   -2.7486   -4.3039 H   0  0  0  0  0  0  0  0  0  0  0  0
    2.3375   -2.6581   -6.0598 H   0  0  0  0  0  0  0  0  0  0  0  0
    3.2996   -3.8016   -5.0971 H   0  0  0  0  0  0  0  0  0  0  0  0
  5  6  2  0  0  0  0
  5  7  1  0  0  0  0
  2  3  1  0  0  0  0
  2  4  1  0  0  0  0
  2  5  1  0  0  0  0
  1  2  1  0  0  0  0
 15 16  2  0  0  0  0
 15 17  1  0  0  0  0
 14 36  1  0  0  0  0
 11 12  1  0  0  0  0
 11 13  1  0  0  0  0
 11 14  1  0  0  0  0
  9 10  1  0  0  0  0
  9 11  1  0  0  0  0
  9 15  1  0  0  0  0
  7  8  1  0  0  0  0
  7  9  1  0  0  0  0
 19 20  1  0  0  0  0
 19 21  1  0  0  0  0
 19 22  1  0  0  0  0
 17 18  1  0  0  0  0
 17 19  1  0  0  0  0
 27 28  2  0  0  0  0
 27 29  1  0  0  0  0
 24 25  1  0  0  0  0
 24 26  1  0  0  0  0
 24 27  1  0  0  0  0
 23 24  1  0  0  0  0
 37 38  2  0  0  0  0
 37 39  1  0  0  0  0
 33 34  1  0  0  0  0
 33 35  1  0  0  0  0
 33 36  1  0  0  0  0
 31 32  1  0  0  0  0
 31 33  1  0  0  0  0
 31 37  1  0  0  0  0
 29 30  1  0  0  0  0
 29 31  1  0  0  0  0
 41 42  1  0  0  0  0
 41 43  1  0  0  0  0
 41 44  1  0  0  0  0
 39 40  1  0  0  0  0
 39 41  1  0  0  0  0
M  END
$$$$
default_name
  -OEChem-01062215323D

 44 43  0     1  0  0  0  0  0999 V2000
    2.4488   -3.0448    2.0990 H   0  0  0  0  0  0  0  0  0  0  0  0
    2.2788   -2.0018    2.3640 C   0  0  0  0  0  0  0  0  0  0  0  0
    2.9228   -1.7258    3.1960 H   0  0  0  0  0  0  0  0  0  0  0  0
    1.2358   -1.8618    2.6430 H   0  0  0  0  0  0  0  0  0  0  0  0
    2.6018   -1.1318    1.1730 C   0  0  0  0  0  0  0  0  0  0  0  0
    3.0048   -1.6348    0.1320 O   0  0  0  0  0  0  0  0  0  0  0  0
    2.4088    0.1752    1.3190 N   0  0  0  0  0  0  0  0  0  0  0  0
    2.0708    0.5242    2.2050 H   0  0  0  0  0  0  0  0  0  0  0  0
    2.6638    1.1782    0.2840 C   0  0  1  0  0  0  0  0  0  0  0  0
    3.7410    1.3446    0.2307 H   0  0  0  0  0  0  0  0  0  0  0  0
    2.1949    0.6448   -1.0811 C   0  0  0  0  0  0  0  0  0  0  0  0
    2.2409    1.4557   -1.8091 H   0  0  0  0  0  0  0  0  0  0  0  0
    1.1436    0.3735   -0.9895 H   0  0  0  0  0  0  0  0  0  0  0  0
    3.0550   -0.8001   -1.7705 S   0  0  0  0  0  0  0  0  0  0  0  0
    1.9977    2.5212    0.6373 C   0  0  0  0  0  0  0  0  0  0  0  0
    2.6759    3.5402    0.7673 O   0  0  0  0  0  0  0  0  0  0  0  0
    0.6663    2.5229    0.7861 N   0  0  0  0  0  0  0  0  0  0  0  0
    0.1727    1.6536    0.6627 H   0  0  0  0  0  0  0  0  0  0  0  0
   -0.1107    3.7140    1.1227 C   0  0  0  0  0  0  0  0  0  0  0  0
    0.1937    4.0859    2.1034 H   0  0  0  0  0  0  0  0  0  0  0  0
    0.0735    4.4963    0.3841 H   0  0  0  0  0  0  0  0  0  0  0  0
   -1.1758    3.4794    1.1409 H   0  0  0  0  0  0  0  0  0  0  0  0
    6.5663    3.9845   -7.3023 H   0  0  0  0  0  0  0  0  0  0  0  0
    5.6230    3.4819   -7.0941 C   0  0  0  0  0  0  0  0  0  0  0  0
    5.2000    3.0961   -8.0203 H   0  0  0  0  0  0  0  0  0  0  0  0
    4.9289    4.1833   -6.6350 H   0  0  0  0  0  0  0  0  0  0  0  0
    5.8775    2.3352   -6.1440 C   0  0  0  0  0  0  0  0  0  0  0  0
    7.0079    2.1137   -5.7314 O   0  0  0  0  0  0  0  0  0  0  0  0
    4.8191    1.6107   -5.7911 N   0  0  0  0  0  0  0  0  0  0  0  0
    3.9169    1.8449   -6.1793 H   0  0  0  0  0  0  0  0  0  0  0  0
    4.8627    0.4678   -4.8790 C   0  0  1  0  0  0  0  0  0  0  0  0
    5.7869   -0.0877   -5.0486 H   0  0  0  0  0  0  0  0  0  0  0  0
    4.8804    1.0067   -3.4417 C   0  0  0  0  0  0  0  0  0  0  0  0
    5.7499    1.6586   -3.3461 H   0  0  0  0  0  0  0  0  0  0  0  0
    3.9963    1.6252   -3.2861 H   0  0  0  0  0  0  0  0  0  0  0  0
    4.9804   -0.2047   -2.0965 S   0  0  0  0  0  0  0  0  0  0  0  0
    3.6786   -0.4787   -5.1446 C   0  0  0  0  0  0  0  0  0  0  0  0
    2.6119   -0.0261   -5.5624 O   0  0  0  0  0  0  0  0  0  0  0  0
    3.8680   -1.7838   -4.9117 N   0  0  0  0  0  0  0  0  0  0  0  0
    4.7592   -2.0700   -4.5385 H   0  0  0  0  0  0  0  0  0  0  0  0
    2.8450   -2.8108   -5.1043 C   0  0  0  0  0  0  0  0  0  0  0  0
    2.1059   -2.7486   -4.3039 H   0  0  0  0  0  0  0  0  0  0  0  0
    2.3375   -2.6581   -6.0598 H   0  0  0  0  0  0  0  0  0  0  0  0
    3.2996   -3.8016   -5.0971 H   0  0  0  0  0  0  0  0  0  0  0  0
  5  6  2  0  0  0  0
  5  7  1  0  0  0  0
  2  3  1  0  0  0  0
  2  4  1  0  0  0  0
  2  5  1  0  0  0  0
  1  2  1  0  0  0  0
 15 16  2  0  0  0  0
 15 17  1  0  0  0  0
 14 36  1  0  0  0  0
 11 12  1  0  0  0  0
 11 13  1  0  0  0  0
 11 14  1  0  0  0  0
  9 10  1  0  0  0  0
  9 11  1  0  0  0  0
  9 15  1  0  0  0  0
  7  8  1  0  0  0  0
  7  9  1  0  0  0  0
 19 20  1  0  0  0  0
 19 21  1  0  0  0  0
 19 22  1  0  0  0  0
 17 18  1  0  0  0  0
 17 19  1  0  0  0  0
 27 28  2  0  0  0  0
 27 29  1  0  0  0  0
 24 25  1  0  0  0  0
 24 26  1  0  0  0  0
 24 27  1  0  0  0  0
 23 24  1  0  0  0  0
 37 38  2  0  0  0  0
 37 39  1  0  0  0  0
 33 34  1  0  0  0  0
 33 35  1  0  0  0  0
 33 36  1  0  0  0  0
 31 32  1  0  0  0  0
 31 33  1  0  0  0  0
 31 37  1  0  0  0  0
 29 30  1  0  0  0  0
 29 31  1  0  0  0  0
 41 42  1  0  0  0  0
 41 43  1  0  0  0  0
 41 44  1  0  0  0  0
 39 40  1  0  0  0  0
 39 41  1  0  0  0  0
M  END
$$$$
default_name
  -OEChem-01062215323D

 44 43  0     1  0  0  0  0  0999 V2000
    2.4488   -3.0448    2.0990 H   0  0  0  0  0  0  0  0  0  0  0  0
    2.2788   -2.0018    2.3640 C   0  0  0  0  0  0  0  0  0  0  0  0
    2.9228   -1.7258    3.1960 H   0  0  0  0  0  0  0  0  0  0  0  0
    1.2358   -1.8618    2.6430 H   0  0  0  0  0  0  0  0  0  0  0  0
    2.6018   -1.1318    1.1730 C   0  0  0  0  0  0  0  0  0  0  0  0
    3.0048   -1.6348    0.1320 O   0  0  0  0  0  0  0  0  0  0  0  0
    2.4088    0.1752    1.3190 N   0  0  0  0  0  0  0  0  0  0  0  0
    2.0708    0.5242    2.2050 H   0  0  0  0  0  0  0  0  0  0  0  0
    2.6638    1.1782    0.2840 C   0  0  1  0  0  0  0  0  0  0  0  0
    3.7410    1.3446    0.2307 H   0  0  0  0  0  0  0  0  0  0  0  0
    2.1949    0.6448   -1.0811 C   0  0  0  0  0  0  0  0  0  0  0  0
    2.2409    1.4557   -1.8091 H   0  0  0  0  0  0  0  0  0  0  0  0
    1.1436    0.3735   -0.9895 H   0  0  0  0  0  0  0  0  0  0  0  0
    3.0550   -0.8001   -1.7705 S   0  0  0  0  0  0  0  0  0  0  0  0
    1.9977    2.5212    0.6373 C   0  0  0  0  0  0  0  0  0  0  0  0
    2.6124    3.5789    0.5007 O   0  0  0  0  0  0  0  0  0  0  0  0
    0.7362    2.4786    1.0861 N   0  0  0  0  0  0  0  0  0  0  0  0
    0.2915    1.5787    1.1711 H   0  0  0  0  0  0  0  0  0  0  0  0
   -0.0306    3.6638    1.4647 C   0  0  0  0  0  0  0  0  0  0  0  0
    0.4566    4.1632    2.3048 H   0  0  0  0  0  0  0  0  0  0  0  0
   -0.0721    4.3606    0.6254 H   0  0  0  0  0  0  0  0  0  0  0  0
   -1.0451    3.3837    1.7509 H   0  0  0  0  0  0  0  0  0  0  0  0
    6.5663    3.9845   -7.3023 H   0  0  0  0  0  0  0  0  0  0  0  0
    5.6230    3.4819   -7.0941 C   0  0  0  0  0  0  0  0  0  0  0  0
    5.2000    3.0961   -8.0203 H   0  0  0  0  0  0  0  0  0  0  0  0
    4.9289    4.1833   -6.6350 H   0  0  0  0  0  0  0  0  0  0  0  0
    5.8775    2.3352   -6.1440 C   0  0  0  0  0  0  0  0  0  0  0  0
    7.0079    2.1137   -5.7314 O   0  0  0  0  0  0  0  0  0  0  0  0
    4.8191    1.6107   -5.7911 N   0  0  0  0  0  0  0  0  0  0  0  0
    3.9169    1.8449   -6.1793 H   0  0  0  0  0  0  0  0  0  0  0  0
    4.8627    0.4678   -4.8790 C   0  0  1  0  0  0  0  0  0  0  0  0
    5.7869   -0.0877   -5.0486 H   0  0  0  0  0  0  0  0  0  0  0  0
    4.8804    1.0067   -3.4417 C   0  0  0  0  0  0  0  0  0  0  0  0
    5.7499    1.6586   -3.3461 H   0  0  0  0  0  0  0  0  0  0  0  0
    3.9963    1.6252   -3.2861 H   0  0  0  0  0  0  0  0  0  0  0  0
    4.9804   -0.2047   -2.0965 S   0  0  0  0  0  0  0  0  0  0  0  0
    3.6786   -0.4787   -5.1446 C   0  0  0  0  0  0  0  0  0  0  0  0
    2.6119   -0.0261   -5.5624 O   0  0  0  0  0  0  0  0  0  0  0  0
    3.8680   -1.7838   -4.9117 N   0  0  0  0  0  0  0  0  0  0  0  0
    4.7592   -2.0700   -4.5385 H   0  0  0  0  0  0  0  0  0  0  0  0
    2.8450   -2.8108   -5.1043 C   0  0  0  0  0  0  0  0  0  0  0  0
    2.1059   -2.7486   -4.3039 H   0  0  0  0  0  0  0  0  0  0  0  0
    2.3375   -2.6581   -6.0598 H   0  0  0  0  0  0  0  0  0  0  0  0
    3.2996   -3.8016   -5.0971 H   0  0  0  0  0  0  0  0  0  0  0  0
  5  6  2  0  0  0  0
  5  7  1  0  0  0  0
  2  3  1  0  0  0  0
  2  4  1  0  0  0  0
  2  5  1  0  0  0  0
  1  2  1  0  0  0  0
 15 16  2  0  0  0  0
 15 17  1  0  0  0  0
 14 36  1  0  0  0  0
 11 12  1  0  0  0  0
 11 13  1  0  0  0  0
 11 14  1  0  0  0  0
  9 10  1  0  0  0  0
  9 11  1  0  0  0  0
  9 15  1  0  0  0  0
  7  8  1  0  0  0  0
  7  9  1  0  0  0  0
 19 20  1  0  0  0  0
 19 21  1  0  0  0  0
 19 22  1  0  0  0  0
 17 18  1  0  0  0  0
 17 19  1  0  0  0  0
 27 28  2  0  0  0  0
 27 29  1  0  0  0  0
 24 25  1  0  0  0  0
 24 26  1  0  0  0  0
 24 27  1  0  0  0  0
 23 24  1  0  0  0  0
 37 38  2  0  0  0  0
 37 39  1  0  0  0  0
 33 34  1  0  0  0  0
 33 35  1  0  0  0  0
 33 36  1  0  0  0  0
 31 32  1  0  0  0  0
 31 33  1  0  0  0  0
 31 37  1  0  0  0  0
 29 30  1  0  0  0  0
 29 31  1  0  0  0  0
 41 42  1  0  0  0  0
 41 43  1  0  0  0  0
 41 44  1  0  0  0  0
 39 40  1  0  0  0  0
 39 41  1  0  0  0  0
M  END
$$$$
default_name
  -OEChem-01062215323D

 44 43  0     1  0  0  0  0  0999 V2000
    2.4488   -3.0448    2.0990 H   0  0  0  0  0  0  0  0  0  0  0  0
    2.2788   -2.0018    2.3640 C   0  0  0  0  0  0  0  0  0  0  0  0
    2.9228   -1.7258    3.1960 H   0  0  0  0  0  0  0  0  0  0  0  0
    1.2358   -1.8618    2.6430 H   0  0  0  0  0  0  0  0  0  0  0  0
    2.6018   -1.1318    1.1730 C   0  0  0  0  0  0  0  0  0  0  0  0
    3.0048   -1.6348    0.1320 O   0  0  0  0  0  0  0  0  0  0  0  0
    2.4088    0.1752    1.3190 N   0  0  0  0  0  0  0  0  0  0  0  0
    2.0708    0.5242    2.2050 H   0  0  0  0  0  0  0  0  0  0  0  0
    2.6638    1.1782    0.2840 C   0  0  1  0  0  0  0  0  0  0  0  0
    3.7410    1.3446    0.2307 H   0  0  0  0  0  0  0  0  0  0  0  0
    2.1949    0.6448   -1.0811 C   0  0  0  0  0  0  0  0  0  0  0  0
    2.2409    1.4557   -1.8091 H   0  0  0  0  0  0  0  0  0  0  0  0
    1.1436    0.3735   -0.9895 H   0  0  0  0  0  0  0  0  0  0  0  0
    3.0550   -0.8001   -1.7705 S   0  0  0  0  0  0  0  0  0  0  0  0
    1.9977    2.5212    0.6373 C   0  0  0  0  0  0  0  0  0  0  0  0
    2.4886    3.5826    0.2531 O   0  0  0  0  0  0  0  0  0  0  0  0
    0.8739    2.4736    1.3651 N   0  0  0  0  0  0  0  0  0  0  0  0
    0.5255    1.5704    1.6438 H   0  0  0  0  0  0  0  0  0  0  0  0
    0.1270    3.6583    1.7825 C   0  0  0  0  0  0  0  0  0  0  0  0
    0.7514    4.2761    2.4314 H   0  0  0  0  0  0  0  0  0  0  0  0
   -0.1503    4.2478    0.9066 H   0  0  0  0  0  0  0  0  0  0  0  0
   -0.7756    3.3673    2.3213 H   0  0  0  0  0  0  0  0  0  0  0  0
    6.5663    3.9845   -7.3023 H   0  0  0  0  0  0  0  0  0  0  0  0
    5.6230    3.4819   -7.0941 C   0  0  0  0  0  0  0  0  0  0  0  0
    5.2000    3.0961   -8.0203 H   0  0  0  0  0  0  0  0  0  0  0  0
    4.9289    4.1833   -6.6350 H   0  0  0  0  0  0  0  0  0  0  0  0
    5.8775    2.3352   -6.1440 C   0  0  0  0  0  0  0  0  0  0  0  0
    7.0079    2.1137   -5.7314 O   0  0  0  0  0  0  0  0  0  0  0  0
    4.8191    1.6107   -5.7911 N   0  0  0  0  0  0  0  0  0  0  0  0
    3.9169    1.8449   -6.1793 H   0  0  0  0  0  0  0  0  0  0  0  0
    4.8627    0.4678   -4.8790 C   0  0  1  0  0  0  0  0  0  0  0  0
    5.7869   -0.0877   -5.0486 H   0  0  0  0  0  0  0  0  0  0  0  0
    4.8804    1.0067   -3.4417 C   0  0  0  0  0  0  0  0  0  0  0  0
    5.7499    1.6586   -3.3461 H   0  0  0  0  0  0  0  0  0  0  0  0
    3.9963    1.6252   -3.2861 H   0  0  0  0  0  0  0  0  0  0  0  0
    4.9804   -0.2047   -2.0965 S   0  0  0  0  0  0  0  0  0  0  0  0
    3.6786   -0.4787   -5.1446 C   0  0  0  0  0  0  0  0  0  0  0  0
    2.6119   -0.0261   -5.5624 O   0  0  0  0  0  0  0  0  0  0  0  0
    3.8680   -1.7838   -4.9117 N   0  0  0  0  0  0  0  0  0  0  0  0
    4.7592   -2.0700   -4.5385 H   0  0  0  0  0  0  0  0  0  0  0  0
    2.8450   -2.8108   -5.1043 C   0  0  0  0  0  0  0  0  0  0  0  0
    2.1059   -2.7486   -4.3039 H   0  0  0  0  0  0  0  0  0  0  0  0
    2.3375   -2.6581   -6.0598 H   0  0  0  0  0  0  0  0  0  0  0  0
    3.2996   -3.8016   -5.0971 H   0  0  0  0  0  0  0  0  0  0  0  0
  5  6  2  0  0  0  0
  5  7  1  0  0  0  0
  2  3  1  0  0  0  0
  2  4  1  0  0  0  0
  2  5  1  0  0  0  0
  1  2  1  0  0  0  0
 15 16  2  0  0  0  0
 15 17  1  0  0  0  0
 14 36  1  0  0  0  0
 11 12  1  0  0  0  0
 11 13  1  0  0  0  0
 11 14  1  0  0  0  0
  9 10  1  0  0  0  0
  9 11  1  0  0  0  0
  9 15  1  0  0  0  0
  7  8  1  0  0  0  0
  7  9  1  0  0  0  0
 19 20  1  0  0  0  0
 19 21  1  0  0  0  0
 19 22  1  0  0  0  0
 17 18  1  0  0  0  0
 17 19  1  0  0  0  0
 27 28  2  0  0  0  0
 27 29  1  0  0  0  0
 24 25  1  0  0  0  0
 24 26  1  0  0  0  0
 24 27  1  0  0  0  0
 23 24  1  0  0  0  0
 37 38  2  0  0  0  0
 37 39  1  0  0  0  0
 33 34  1  0  0  0  0
 33 35  1  0  0  0  0
 33 36  1  0  0  0  0
 31 32  1  0  0  0  0
 31 33  1  0  0  0  0
 31 37  1  0  0  0  0
 29 30  1  0  0  0  0
 29 31  1  0  0  0  0
 41 42  1  0  0  0  0
 41 43  1  0  0  0  0
 41 44  1  0  0  0  0
 39 40  1  0  0  0  0
 39 41  1  0  0  0  0
M  END
$$$$
default_name
  -OEChem-01062215323D

 44 43  0     1  0  0  0  0  0999 V2000
    2.4488   -3.0448    2.0990 H   0  0  0  0  0  0  0  0  0  0  0  0
    2.2788   -2.0018    2.3640 C   0  0  0  0  0  0  0  0  0  0  0  0
    2.9228   -1.7258    3.1960 H   0  0  0  0  0  0  0  0  0  0  0  0
    1.2358   -1.8618    2.6430 H   0  0  0  0  0  0  0  0  0  0  0  0
    2.6018   -1.1318    1.1730 C   0  0  0  0  0  0  0  0  0  0  0  0
    3.0048   -1.6348    0.1320 O   0  0  0  0  0  0  0  0  0  0  0  0
    2.4088    0.1752    1.3190 N   0  0  0  0  0  0  0  0  0  0  0  0
    2.0708    0.5242    2.2050 H   0  0  0  0  0  0  0  0  0  0  0  0
    2.6638    1.1782    0.2840 C   0  0  1  0  0  0  0  0  0  0  0  0
    3.7410    1.3446    0.2307 H   0  0  0  0  0  0  0  0  0  0  0  0
    2.1949    0.6448   -1.0811 C   0  0  0  0  0  0  0  0  0  0  0  0
    2.2409    1.4557   -1.8091 H   0  0  0  0  0  0  0  0  0  0  0  0
    1.1436    0.3735   -0.9895 H   0  0  0  0  0  0  0  0  0  0  0  0
    3.0550   -0.8001   -1.7705 S   0  0  0  0  0  0  0  0  0  0  0  0
    1.9977    2.5212    0.6373 C   0  0  0  0  0  0  0  0  0  0  0  0
    2.3129    3.5512    0.0415 O   0  0  0  0  0  0  0  0  0  0  0  0
    1.0703    2.5081    1.6040 N   0  0  0  0  0  0  0  0  0  0  0  0
    0.8587    1.6292    2.0484 H   0  0  0  0  0  0  0  0  0  0  0  0
    0.3513    3.6980    2.0545 C   0  0  0  0  0  0  0  0  0  0  0  0
    1.0580    4.4168    2.4746 H   0  0  0  0  0  0  0  0  0  0  0  0
   -0.1556    4.1658    1.2085 H   0  0  0  0  0  0  0  0  0  0  0  0
   -0.3855    3.4313    2.8133 H   0  0  0  0  0  0  0  0  0  0  0  0
    6.5663    3.9845   -7.3023 H   0  0  0  0  0  0  0  0  0  0  0  0
    5.6230    3.4819   -7.0941 C   0  0  0  0  0  0  0  0  0  0  0  0
    5.2000    3.0961   -8.0203 H   0  0  0  0  0  0  0  0  0  0  0  0
    4.9289    4.1833   -6.6350 H   0  0  0  0  0  0  0  0  0  0  0  0
    5.8775    2.3352   -6.1440 C   0  0  0  0  0  0  0  0  0  0  0  0
    7.0079    2.1137   -5.7314 O   0  0  0  0  0  0  0  0  0  0  0  0
    4.8191    1.6107   -5.7911 N   0  0  0  0  0  0  0  0  0  0  0  0
    3.9169    1.8449   -6.1793 H   0  0  0  0  0  0  0  0  0  0  0  0
    4.8627    0.4678   -4.8790 C   0  0  1  0  0  0  0  0  0  0  0  0
    5.7869   -0.0877   -5.0486 H   0  0  0  0  0  0  0  0  0  0  0  0
    4.8804    1.0067   -3.4417 C   0  0  0  0  0  0  0  0  0  0  0  0
    5.7499    1.6586   -3.3461 H   0  0  0  0  0  0  0  0  0  0  0  0
    3.9963    1.6252   -3.2861 H   0  0  0  0  0  0  0  0  0  0  0  0
    4.9804   -0.2047   -2.0965 S   0  0  0  0  0  0  0  0  0  0  0  0
    3.6786   -0.4787   -5.1446 C   0  0  0  0  0  0  0  0  0  0  0  0
    2.6119   -0.0261   -5.5624 O   0  0  0  0  0  0  0  0  0  0  0  0
    3.8680   -1.7838   -4.9117 N   0  0  0  0  0  0  0  0  0  0  0  0
    4.7592   -2.0700   -4.5385 H   0  0  0  0  0  0  0  0  0  0  0  0
    2.8450   -2.8108   -5.1043 C   0  0  0  0  0  0  0  0  0  0  0  0
    2.1059   -2.7486   -4.3039 H   0  0  0  0  0  0  0  0  0  0  0  0
    2.3375   -2.6581   -6.0598 H   0  0  0  0  0  0  0  0  0  0  0  0
    3.2996   -3.8016   -5.0971 H   0  0  0  0  0  0  0  0  0  0  0  0
  5  6  2  0  0  0  0
  5  7  1  0  0  0  0
  2  3  1  0  0  0  0
  2  4  1  0  0  0  0
  2  5  1  0  0  0  0
  1  2  1  0  0  0  0
 15 16  2  0  0  0  0
 15 17  1  0  0  0  0
 14 36  1  0  0  0  0
 11 12  1  0  0  0  0
 11 13  1  0  0  0  0
 11 14  1  0  0  0  0
  9 10  1  0  0  0  0
  9 11  1  0  0  0  0
  9 15  1  0  0  0  0
  7  8  1  0  0  0  0
  7  9  1  0  0  0  0
 19 20  1  0  0  0  0
 19 21  1  0  0  0  0
 19 22  1  0  0  0  0
 17 18  1  0  0  0  0
 17 19  1  0  0  0  0
 27 28  2  0  0  0  0
 27 29  1  0  0  0  0
 24 25  1  0  0  0  0
 24 26  1  0  0  0  0
 24 27  1  0  0  0  0
 23 24  1  0  0  0  0
 37 38  2  0  0  0  0
 37 39  1  0  0  0  0
 33 34  1  0  0  0  0
 33 35  1  0  0  0  0
 33 36  1  0  0  0  0
 31 32  1  0  0  0  0
 31 33  1  0  0  0  0
 31 37  1  0  0  0  0
 29 30  1  0  0  0  0
 29 31  1  0  0  0  0
 41 42  1  0  0  0  0
 41 43  1  0  0  0  0
 41 44  1  0  0  0  0
 39 40  1  0  0  0  0
 39 41  1  0  0  0  0
M  END
$$$$
default_name
  -OEChem-01062215323D

 44 43  0     1  0  0  0  0  0999 V2000
    2.4488   -3.0448    2.0990 H   0  0  0  0  0  0  0  0  0  0  0  0
    2.2788   -2.0018    2.3640 C   0  0  0  0  0  0  0  0  0  0  0  0
    2.9228   -1.7258    3.1960 H   0  0  0  0  0  0  0  0  0  0  0  0
    1.2358   -1.8618    2.6430 H   0  0  0  0  0  0  0  0  0  0  0  0
    2.6018   -1.1318    1.1730 C   0  0  0  0  0  0  0  0  0  0  0  0
    3.0048   -1.6348    0.1320 O   0  0  0  0  0  0  0  0  0  0  0  0
    2.4088    0.1752    1.3190 N   0  0  0  0  0  0  0  0  0  0  0  0
    2.0708    0.5242    2.2050 H   0  0  0  0  0  0  0  0  0  0  0  0
    2.6638    1.1782    0.2840 C   0  0  1  0  0  0  0  0  0  0  0  0
    3.7410    1.3446    0.2307 H   0  0  0  0  0  0  0  0  0  0  0  0
    2.1949    0.6448   -1.0811 C   0  0  0  0  0  0  0  0  0  0  0  0
    2.2409    1.4557   -1.8091 H   0  0  0  0  0  0  0  0  0  0  0  0
    1.1436    0.3735   -0.9895 H   0  0  0  0  0  0  0  0  0  0  0  0
    3.0550   -0.8001   -1.7705 S   0  0  0  0  0  0  0  0  0  0  0  0
    1.9977    2.5212    0.6373 C   0  0  0  0  0  0  0  0  0  0  0  0
    2.0973    3.4867   -0.1197 O   0  0  0  0  0  0  0  0  0  0  0  0
    1.3119    2.5798    1.7867 N   0  0  0  0  0  0  0  0  0  0  0  0
    1.2684    1.7510    2.3576 H   0  0  0  0  0  0  0  0  0  0  0  0
    0.6269    3.7800    2.2622 C   0  0  0  0  0  0  0  0  0  0  0  0
    1.3556    4.5758    2.4313 H   0  0  0  0  0  0  0  0  0  0  0  0
   -0.0878    4.1199    1.5105 H   0  0  0  0  0  0  0  0  0  0  0  0
    0.0985    3.5713    3.1933 H   0  0  0  0  0  0  0  0  0  0  0  0
    6.5663    3.9845   -7.3023 H   0  0  0  0  0  0  0  0  0  0  0  0
    5.6230    3.4819   -7.0941 C   0  0  0  0  0  0  0  0  0  0  0  0
    5.2000    3.0961   -8.0203 H   0  0  0  0  0  0  0  0  0  0  0  0
    4.9289    4.1833   -6.6350 H   0  0  0  0  0  0  0  0  0  0  0  0
    5.8775    2.3352   -6.1440 C   0  0  0  0  0  0  0  0  0  0  0  0
    7.0079    2.1137   -5.7314 O   0  0  0  0  0  0  0  0  0  0  0  0
    4.8191    1.6107   -5.7911 N   0  0  0  0  0  0  0  0  0  0  0  0
    3.9169    1.8449   -6.1793 H   0  0  0  0  0  0  0  0  0  0  0  0
    4.8627    0.4678   -4.8790 C   0  0  1  0  0  0  0  0  0  0  0  0
    5.7869   -0.0877   -5.0486 H   0  0  0  0  0  0  0  0  0  0  0  0
    4.8804    1.0067   -3.4417 C   0  0  0  0  0  0  0  0  0  0  0  0
    5.7499    1.6586   -3.3461 H   0  0  0  0  0  0  0  0  0  0  0  0
    3.9963    1.6252   -3.2861 H   0  0  0  0  0  0  0  0  0  0  0  0
    4.9804   -0.2047   -2.0965 S   0  0  0  0  0  0  0  0  0  0  0  0
    3.6786   -0.4787   -5.1446 C   0  0  0  0  0  0  0  0  0  0  0  0
    2.6119   -0.0261   -5.5624 O   0  0  0  0  0  0  0  0  0  0  0  0
    3.8680   -1.7838   -4.9117 N   0  0  0  0  0  0  0  0  0  0  0  0
    4.7592   -2.0700   -4.5385 H   0  0  0  0  0  0  0  0  0  0  0  0
    2.8450   -2.8108   -5.1043 C   0  0  0  0  0  0  0  0  0  0  0  0
    2.1059   -2.7486   -4.3039 H   0  0  0  0  0  0  0  0  0  0  0  0
    2.3375   -2.6581   -6.0598 H   0  0  0  0  0  0  0  0  0  0  0  0
    3.2996   -3.8016   -5.0971 H   0  0  0  0  0  0  0  0  0  0  0  0
  5  6  2  0  0  0  0
  5  7  1  0  0  0  0
  2  3  1  0  0  0  0
  2  4  1  0  0  0  0
  2  5  1  0  0  0  0
  1  2  1  0  0  0  0
 15 16  2  0  0  0  0
 15 17  1  0  0  0  0
 14 36  1  0  0  0  0
 11 12  1  0  0  0  0
 11 13  1  0  0  0  0
 11 14  1  0  0  0  0
  9 10  1  0  0  0  0
  9 11  1  0  0  0  0
  9 15  1  0  0  0  0
  7  8  1  0  0  0  0
  7  9  1  0  0  0  0
 19 20  1  0  0  0  0
 19 21  1  0  0  0  0
 19 22  1  0  0  0  0
 17 18  1  0  0  0  0
 17 19  1  0  0  0  0
 27 28  2  0  0  0  0
 27 29  1  0  0  0  0
 24 25  1  0  0  0  0
 24 26  1  0  0  0  0
 24 27  1  0  0  0  0
 23 24  1  0  0  0  0
 37 38  2  0  0  0  0
 37 39  1  0  0  0  0
 33 34  1  0  0  0  0
 33 35  1  0  0  0  0
 33 36  1  0  0  0  0
 31 32  1  0  0  0  0
 31 33  1  0  0  0  0
 31 37  1  0  0  0  0
 29 30  1  0  0  0  0
 29 31  1  0  0  0  0
 41 42  1  0  0  0  0
 41 43  1  0  0  0  0
 41 44  1  0  0  0  0
 39 40  1  0  0  0  0
 39 41  1  0  0  0  0
M  END
$$$$
default_name
  -OEChem-01062215323D

 44 43  0     1  0  0  0  0  0999 V2000
    2.4488   -3.0448    2.0990 H   0  0  0  0  0  0  0  0  0  0  0  0
    2.2788   -2.0018    2.3640 C   0  0  0  0  0  0  0  0  0  0  0  0
    2.9228   -1.7258    3.1960 H   0  0  0  0  0  0  0  0  0  0  0  0
    1.2358   -1.8618    2.6430 H   0  0  0  0  0  0  0  0  0  0  0  0
    2.6018   -1.1318    1.1730 C   0  0  0  0  0  0  0  0  0  0  0  0
    3.0048   -1.6348    0.1320 O   0  0  0  0  0  0  0  0  0  0  0  0
    2.4088    0.1752    1.3190 N   0  0  0  0  0  0  0  0  0  0  0  0
    2.0708    0.5242    2.2050 H   0  0  0  0  0  0  0  0  0  0  0  0
    2.6638    1.1782    0.2840 C   0  0  1  0  0  0  0  0  0  0  0  0
    3.7410    1.3446    0.2307 H   0  0  0  0  0  0  0  0  0  0  0  0
    2.1949    0.6448   -1.0811 C   0  0  0  0  0  0  0  0  0  0  0  0
    2.2409    1.4557   -1.8091 H   0  0  0  0  0  0  0  0  0  0  0  0
    1.1436    0.3735   -0.9895 H   0  0  0  0  0  0  0  0  0  0  0  0
    3.0550   -0.8001   -1.7705 S   0  0  0  0  0  0  0  0  0  0  0  0
    1.9977    2.5212    0.6373 C   0  0  0  0  0  0  0  0  0  0  0  0
    1.8566    3.3935   -0.2196 O   0  0  0  0  0  0  0  0  0  0  0  0
    1.5821    2.6839    1.9005 N   0  0  0  0  0  0  0  0  0  0  0  0
    1.7267    1.9276    2.5500 H   0  0  0  0  0  0  0  0  0  0  0  0
    0.9352    3.8989    2.3915 C   0  0  0  0  0  0  0  0  0  0  0  0
    1.6237    4.7421    2.3045 H   0  0  0  0  0  0  0  0  0  0  0  0
    0.0486    4.1135    1.7920 H   0  0  0  0  0  0  0  0  0  0  0  0
    0.6435    3.7779    3.4355 H   0  0  0  0  0  0  0  0  0  0  0  0
    6.5663    3.9845   -7.3023 H   0  0  0  0  0  0  0  0  0  0  0  0
    5.6230    3.4819   -7.0941 C   0  0  0  0  0  0  0  0  0  0  0  0
    5.2000    3.0961   -8.0203 H   0  0  0  0  0  0  0  0  0  0  0  0
    4.9289    4.1833   -6.6350 H   0  0  0  0  0  0  0  0  0  0  0  0
    5.8775    2.3352   -6.1440 C   0  0  0  0  0  0  0  0  0  0  0  0
    7.0079    2.1137   -5.7314 O   0  0  0  0  0  0  0  0  0  0  0  0
    4.8191    1.6107   -5.7911 N   0  0  0  0  0  0  0  0  0  0  0  0
    3.9169    1.8449   -6.1793 H   0  0  0  0  0  0  0  0  0  0  0  0
    4.8627    0.4678   -4.8790 C   0  0  1  0  0  0  0  0  0  0  0  0
    5.7869   -0.0877   -5.0486 H   0  0  0  0  0  0  0  0  0  0  0  0
    4.8804    1.0067   -3.4417 C   0  0  0  0  0  0  0  0  0  0  0  0
    5.7499    1.6586   -3.3461 H   0  0  0  0  0  0  0  0  0  0  0  0
    3.9963    1.6252   -3.2861 H   0  0  0  0  0  0  0  0  0  0  0  0
    4.9804   -0.2047   -2.0965 S   0  0  0  0  0  0  0  0  0  0  0  0
    3.6786   -0.4787   -5.1446 C   0  0  0  0  0  0  0  0  0  0  0  0
    2.6119   -0.0261   -5.5624 O   0  0  0  0  0  0  0  0  0  0  0  0
    3.8680   -1.7838   -4.9117 N   0  0  0  0  0  0  0  0  0  0  0  0
    4.7592   -2.0700   -4.5385 H   0  0  0  0  0  0  0  0  0  0  0  0
    2.8450   -2.8108   -5.1043 C   0  0  0  0  0  0  0  0  0  0  0  0
    2.1059   -2.7486   -4.3039 H   0  0  0  0  0  0  0  0  0  0  0  0
    2.3375   -2.6581   -6.0598 H   0  0  0  0  0  0  0  0  0  0  0  0
    3.2996   -3.8016   -5.0971 H   0  0  0  0  0  0  0  0  0  0  0  0
  5  6  2  0  0  0  0
  5  7  1  0  0  0  0
  2  3  1  0  0  0  0
  2  4  1  0  0  0  0
  2  5  1  0  0  0  0
  1  2  1  0  0  0  0
 15 16  2  0  0  0  0
 15 17  1  0  0  0  0
 14 36  1  0  0  0  0
 11 12  1  0  0  0  0
 11 13  1  0  0  0  0
 11 14  1  0  0  0  0
  9 10  1  0  0  0  0
  9 11  1  0  0  0  0
  9 15  1  0  0  0  0
  7  8  1  0  0  0  0
  7  9  1  0  0  0  0
 19 20  1  0  0  0  0
 19 21  1  0  0  0  0
 19 22  1  0  0  0  0
 17 18  1  0  0  0  0
 17 19  1  0  0  0  0
 27 28  2  0  0  0  0
 27 29  1  0  0  0  0
 24 25  1  0  0  0  0
 24 26  1  0  0  0  0
 24 27  1  0  0  0  0
 23 24  1  0  0  0  0
 37 38  2  0  0  0  0
 37 39  1  0  0  0  0
 33 34  1  0  0  0  0
 33 35  1  0  0  0  0
 33 36  1  0  0  0  0
 31 32  1  0  0  0  0
 31 33  1  0  0  0  0
 31 37  1  0  0  0  0
 29 30  1  0  0  0  0
 29 31  1  0  0  0  0
 41 42  1  0  0  0  0
 41 43  1  0  0  0  0
 41 44  1  0  0  0  0
 39 40  1  0  0  0  0
 39 41  1  0  0  0  0
M  END
$$$$
default_name
  -OEChem-01062215323D

 44 43  0     1  0  0  0  0  0999 V2000
    2.4488   -3.0448    2.0990 H   0  0  0  0  0  0  0  0  0  0  0  0
    2.2788   -2.0018    2.3640 C   0  0  0  0  0  0  0  0  0  0  0  0
    2.9228   -1.7258    3.1960 H   0  0  0  0  0  0  0  0  0  0  0  0
    1.2358   -1.8618    2.6430 H   0  0  0  0  0  0  0  0  0  0  0  0
    2.6018   -1.1318    1.1730 C   0  0  0  0  0  0  0  0  0  0  0  0
    3.0048   -1.6348    0.1320 O   0  0  0  0  0  0  0  0  0  0  0  0
    2.4088    0.1752    1.3190 N   0  0  0  0  0  0  0  0  0  0  0  0
    2.0708    0.5242    2.2050 H   0  0  0  0  0  0  0  0  0  0  0  0
    2.6638    1.1782    0.2840 C   0  0  1  0  0  0  0  0  0  0  0  0
    3.7410    1.3446    0.2307 H   0  0  0  0  0  0  0  0  0  0  0  0
    2.1949    0.6448   -1.0811 C   0  0  0  0  0  0  0  0  0  0  0  0
    2.2409    1.4557   -1.8091 H   0  0  0  0  0  0  0  0  0  0  0  0
    1.1436    0.3735   -0.9895 H   0  0  0  0  0  0  0  0  0  0  0  0
    3.0550   -0.8001   -1.7705 S   0  0  0  0  0  0  0  0  0  0  0  0
    1.9977    2.5212    0.6373 C   0  0  0  0  0  0  0  0  0  0  0  0
    1.6070    3.2781   -0.2513 O   0  0  0  0  0  0  0  0  0  0  0  0
    1.8627    2.8132    1.9378 N   0  0  0  0  0  0  0  0  0  0  0  0
    2.2023    2.1470    2.6128 H   0  0  0  0  0  0  0  0  0  0  0  0
    1.2551    4.0465    2.4334 C   0  0  0  0  0  0  0  0  0  0  0  0
    1.8443    4.9046    2.1029 H   0  0  0  0  0  0  0  0  0  0  0  0
    0.2443    4.1469    2.0338 H   0  0  0  0  0  0  0  0  0  0  0  0
    1.2123    4.0368    3.5233 H   0  0  0  0  0  0  0  0  0  0  0  0
    6.5663    3.9845   -7.3023 H   0  0  0  0  0  0  0  0  0  0  0  0
    5.6230    3.4819   -7.0941 C   0  0  0  0  0  0  0  0  0  0  0  0
    5.2000    3.0961   -8.0203 H   0  0  0  0  0  0  0  0  0  0  0  0
    4.9289    4.1833   -6.6350 H   0  0  0  0  0  0  0  0  0  0  0  0
    5.8775    2.3352   -6.1440 C   0  0  0  0  0  0  0  0  0  0  0  0
    7.0079    2.1137   -5.7314 O   0  0  0  0  0  0  0  0  0  0  0  0
    4.8191    1.6107   -5.7911 N   0  0  0  0  0  0  0  0  0  0  0  0
    3.9169    1.8449   -6.1793 H   0  0  0  0  0  0  0  0  0  0  0  0
    4.8627    0.4678   -4.8790 C   0  0  1  0  0  0  0  0  0  0  0  0
    5.7869   -0.0877   -5.0486 H   0  0  0  0  0  0  0  0  0  0  0  0
    4.8804    1.0067   -3.4417 C   0  0  0  0  0  0  0  0  0  0  0  0
    5.7499    1.6586   -3.3461 H   0  0  0  0  0  0  0  0  0  0  0  0
    3.9963    1.6252   -3.2861 H   0  0  0  0  0  0  0  0  0  0  0  0
    4.9804   -0.2047   -2.0965 S   0  0  0  0  0  0  0  0  0  0  0  0
    3.6786   -0.4787   -5.1446 C   0  0  0  0  0  0  0  0  0  0  0  0
    2.6119   -0.0261   -5.5624 O   0  0  0  0  0  0  0  0  0  0  0  0
    3.8680   -1.7838   -4.9117 N   0  0  0  0  0  0  0  0  0  0  0  0
    4.7592   -2.0700   -4.5385 H   0  0  0  0  0  0  0  0  0  0  0  0
    2.8450   -2.8108   -5.1043 C   0  0  0  0  0  0  0  0  0  0  0  0
    2.1059   -2.7486   -4.3039 H   0  0  0  0  0  0  0  0  0  0  0  0
    2.3375   -2.6581   -6.0598 H   0  0  0  0  0  0  0  0  0  0  0  0
    3.2996   -3.8016   -5.0971 H   0  0  0  0  0  0  0  0  0  0  0  0
  5  6  2  0  0  0  0
  5  7  1  0  0  0  0
  2  3  1  0  0  0  0
  2  4  1  0  0  0  0
  2  5  1  0  0  0  0
  1  2  1  0  0  0  0
 15 16  2  0  0  0  0
 15 17  1  0  0  0  0
 14 36  1  0  0  0  0
 11 12  1  0  0  0  0
 11 13  1  0  0  0  0
 11 14  1  0  0  0  0
  9 10  1  0  0  0  0
  9 11  1  0  0  0  0
  9 15  1  0  0  0  0
  7  8  1  0  0  0  0
  7  9  1  0  0  0  0
 19 20  1  0  0  0  0
 19 21  1  0  0  0  0
 19 22  1  0  0  0  0
 17 18  1  0  0  0  0
 17 19  1  0  0  0  0
 27 28  2  0  0  0  0
 27 29  1  0  0  0  0
 24 25  1  0  0  0  0
 24 26  1  0  0  0  0
 24 27  1  0  0  0  0
 23 24  1  0  0  0  0
 37 38  2  0  0  0  0
 37 39  1  0  0  0  0
 33 34  1  0  0  0  0
 33 35  1  0  0  0  0
 33 36  1  0  0  0  0
 31 32  1  0  0  0  0
 31 33  1  0  0  0  0
 31 37  1  0  0  0  0
 29 30  1  0  0  0  0
 29 31  1  0  0  0  0
 41 42  1  0  0  0  0
 41 43  1  0  0  0  0
 41 44  1  0  0  0  0
 39 40  1  0  0  0  0
 39 41  1  0  0  0  0
M  END
$$$$
default_name
  -OEChem-01062215323D

 44 43  0     1  0  0  0  0  0999 V2000
    2.4488   -3.0448    2.0990 H   0  0  0  0  0  0  0  0  0  0  0  0
    2.2788   -2.0018    2.3640 C   0  0  0  0  0  0  0  0  0  0  0  0
    2.9228   -1.7258    3.1960 H   0  0  0  0  0  0  0  0  0  0  0  0
    1.2358   -1.8618    2.6430 H   0  0  0  0  0  0  0  0  0  0  0  0
    2.6018   -1.1318    1.1730 C   0  0  0  0  0  0  0  0  0  0  0  0
    3.0048   -1.6348    0.1320 O   0  0  0  0  0  0  0  0  0  0  0  0
    2.4088    0.1752    1.3190 N   0  0  0  0  0  0  0  0  0  0  0  0
    2.0708    0.5242    2.2050 H   0  0  0  0  0  0  0  0  0  0  0  0
    2.6638    1.1782    0.2840 C   0  0  1  0  0  0  0  0  0  0  0  0
    3.7410    1.3446    0.2307 H   0  0  0  0  0  0  0  0  0  0  0  0
    2.1949    0.6448   -1.0811 C   0  0  0  0  0  0  0  0  0  0  0  0
    2.2409    1.4557   -1.8091 H   0  0  0  0  0  0  0  0  0  0  0  0
    1.1436    0.3735   -0.9895 H   0  0  0  0  0  0  0  0  0  0  0  0
    3.0550   -0.8001   -1.7705 S   0  0  0  0  0  0  0  0  0  0  0  0
    1.9977    2.5212    0.6373 C   0  0  0  0  0  0  0  0  0  0  0  0
    1.3656    3.1482   -0.2126 O   0  0  0  0  0  0  0  0  0  0  0  0
    2.1345    2.9590    1.8961 N   0  0  0  0  0  0  0  0  0  0  0  0
    2.6628    2.3941    2.5415 H   0  0  0  0  0  0  0  0  0  0  0  0
    1.5648    4.2128    2.3852 C   0  0  0  0  0  0  0  0  0  0  0  0
    2.0022    5.0520    1.8403 H   0  0  0  0  0  0  0  0  0  0  0  0
    0.4859    4.2179    2.2195 H   0  0  0  0  0  0  0  0  0  0  0  0
    1.7661    4.3306    3.4507 H   0  0  0  0  0  0  0  0  0  0  0  0
    6.5663    3.9845   -7.3023 H   0  0  0  0  0  0  0  0  0  0  0  0
    5.6230    3.4819   -7.0941 C   0  0  0  0  0  0  0  0  0  0  0  0
    5.2000    3.0961   -8.0203 H   0  0  0  0  0  0  0  0  0  0  0  0
    4.9289    4.1833   -6.6350 H   0  0  0  0  0  0  0  0  0  0  0  0
    5.8775    2.3352   -6.1440 C   0  0  0  0  0  0  0  0  0  0  0  0
    7.0079    2.1137   -5.7314 O   0  0  0  0  0  0  0  0  0  0  0  0
    4.8191    1.6107   -5.7911 N   0  0  0  0  0  0  0  0  0  0  0  0
    3.9169    1.8449   -6.1793 H   0  0  0  0  0  0  0  0  0  0  0  0
    4.8627    0.4678   -4.8790 C   0  0  1  0  0  0  0  0  0  0  0  0
    5.7869   -0.0877   -5.0486 H   0  0  0  0  0  0  0  0  0  0  0  0
    4.8804    1.0067   -3.4417 C   0  0  0  0  0  0  0  0  0  0  0  0
    5.7499    1.6586   -3.3461 H   0  0  0  0  0  0  0  0  0  0  0  0
    3.9963    1.6252   -3.2861 H   0  0  0  0  0  0  0  0  0  0  0  0
    4.9804   -0.2047   -2.0965 S   0  0  0  0  0  0  0  0  0  0  0  0
    3.6786   -0.4787   -5.1446 C   0  0  0  0  0  0  0  0  0  0  0  0
    2.6119   -0.0261   -5.5624 O   0  0  0  0  0  0  0  0  0  0  0  0
    3.8680   -1.7838   -4.9117 N   0  0  0  0  0  0  0  0  0  0  0  0
    4.7592   -2.0700   -4.5385 H   0  0  0  0  0  0  0  0  0  0  0  0
    2.8450   -2.8108   -5.1043 C   0  0  0  0  0  0  0  0  0  0  0  0
    2.1059   -2.7486   -4.3039 H   0  0  0  0  0  0  0  0  0  0  0  0
    2.3375   -2.6581   -6.0598 H   0  0  0  0  0  0  0  0  0  0  0  0
    3.2996   -3.8016   -5.0971 H   0  0  0  0  0  0  0  0  0  0  0  0
  5  6  2  0  0  0  0
  5  7  1  0  0  0  0
  2  3  1  0  0  0  0
  2  4  1  0  0  0  0
  2  5  1  0  0  0  0
  1  2  1  0  0  0  0
 15 16  2  0  0  0  0
 15 17  1  0  0  0  0
 14 36  1  0  0  0  0
 11 12  1  0  0  0  0
 11 13  1  0  0  0  0
 11 14  1  0  0  0  0
  9 10  1  0  0  0  0
  9 11  1  0  0  0  0
  9 15  1  0  0  0  0
  7  8  1  0  0  0  0
  7  9  1  0  0  0  0
 19 20  1  0  0  0  0
 19 21  1  0  0  0  0
 19 22  1  0  0  0  0
 17 18  1  0  0  0  0
 17 19  1  0  0  0  0
 27 28  2  0  0  0  0
 27 29  1  0  0  0  0
 24 25  1  0  0  0  0
 24 26  1  0  0  0  0
 24 27  1  0  0  0  0
 23 24  1  0  0  0  0
 37 38  2  0  0  0  0
 37 39  1  0  0  0  0
 33 34  1  0  0  0  0
 33 35  1  0  0  0  0
 33 36  1  0  0  0  0
 31 32  1  0  0  0  0
 31 33  1  0  0  0  0
 31 37  1  0  0  0  0
 29 30  1  0  0  0  0
 29 31  1  0  0  0  0
 41 42  1  0  0  0  0
 41 43  1  0  0  0  0
 41 44  1  0  0  0  0
 39 40  1  0  0  0  0
 39 41  1  0  0  0  0
M  END
$$$$
default_name
  -OEChem-01062215323D

 44 43  0     1  0  0  0  0  0999 V2000
    2.4488   -3.0448    2.0990 H   0  0  0  0  0  0  0  0  0  0  0  0
    2.2788   -2.0018    2.3640 C   0  0  0  0  0  0  0  0  0  0  0  0
    2.9228   -1.7258    3.1960 H   0  0  0  0  0  0  0  0  0  0  0  0
    1.2358   -1.8618    2.6430 H   0  0  0  0  0  0  0  0  0  0  0  0
    2.6018   -1.1318    1.1730 C   0  0  0  0  0  0  0  0  0  0  0  0
    3.0048   -1.6348    0.1320 O   0  0  0  0  0  0  0  0  0  0  0  0
    2.4088    0.1752    1.3190 N   0  0  0  0  0  0  0  0  0  0  0  0
    2.0708    0.5242    2.2050 H   0  0  0  0  0  0  0  0  0  0  0  0
    2.6638    1.1782    0.2840 C   0  0  1  0  0  0  0  0  0  0  0  0
    3.7410    1.3446    0.2307 H   0  0  0  0  0  0  0  0  0  0  0  0
    2.1949    0.6448   -1.0811 C   0  0  0  0  0  0  0  0  0  0  0  0
    2.2409    1.4557   -1.8091 H   0  0  0  0  0  0  0  0  0  0  0  0
    1.1436    0.3735   -0.9895 H   0  0  0  0  0  0  0  0  0  0  0  0
    3.0550   -0.8001   -1.7705 S   0  0  0  0  0  0  0  0  0  0  0  0
    1.9977    2.5212    0.6373 C   0  0  0  0  0  0  0  0  0  0  0  0
    1.1489    3.0128   -0.1063 O   0  0  0  0  0  0  0  0  0  0  0  0
    2.3789    3.1112    1.7781 N   0  0  0  0  0  0  0  0  0  0  0  0
    3.0768    2.6522    2.3410 H   0  0  0  0  0  0  0  0  0  0  0  0
    1.8432    4.3864    2.2502 C   0  0  0  0  0  0  0  0  0  0  0  0
    2.0867    5.1744    1.5344 H   0  0  0  0  0  0  0  0  0  0  0  0
    0.7570    4.3216    2.3364 H   0  0  0  0  0  0  0  0  0  0  0  0
    2.2673    4.6391    3.2228 H   0  0  0  0  0  0  0  0  0  0  0  0
    6.5663    3.9845   -7.3023 H   0  0  0  0  0  0  0  0  0  0  0  0
    5.6230    3.4819   -7.0941 C   0  0  0  0  0  0  0  0  0  0  0  0
    5.2000    3.0961   -8.0203 H   0  0  0  0  0  0  0  0  0  0  0  0
    4.9289    4.1833   -6.6350 H   0  0  0  0  0  0  0  0  0  0  0  0
    5.8775    2.3352   -6.1440 C   0  0  0  0  0  0  0  0  0  0  0  0
    7.0079    2.1137   -5.7314 O   0  0  0  0  0  0  0  0  0  0  0  0
    4.8191    1.6107   -5.7911 N   0  0  0  0  0  0  0  0  0  0  0  0
    3.9169    1.8449   -6.1793 H   0  0  0  0  0  0  0  0  0  0  0  0
    4.8627    0.4678   -4.8790 C   0  0  1  0  0  0  0  0  0  0  0  0
    5.7869   -0.0877   -5.0486 H   0  0  0  0  0  0  0  0  0  0  0  0
    4.8804    1.0067   -3.4417 C   0  0  0  0  0  0  0  0  0  0  0  0
    5.7499    1.6586   -3.3461 H   0  0  0  0  0  0  0  0  0  0  0  0
    3.9963    1.6252   -3.2861 H   0  0  0  0  0  0  0  0  0  0  0  0
    4.9804   -0.2047   -2.0965 S   0  0  0  0  0  0  0  0  0  0  0  0
    3.6786   -0.4787   -5.1446 C   0  0  0  0  0  0  0  0  0  0  0  0
    2.6119   -0.0261   -5.5624 O   0  0  0  0  0  0  0  0  0  0  0  0
    3.8680   -1.7838   -4.9117 N   0  0  0  0  0  0  0  0  0  0  0  0
    4.7592   -2.0700   -4.5385 H   0  0  0  0  0  0  0  0  0  0  0  0
    2.8450   -2.8108   -5.1043 C   0  0  0  0  0  0  0  0  0  0  0  0
    2.1059   -2.7486   -4.3039 H   0  0  0  0  0  0  0  0  0  0  0  0
    2.3375   -2.6581   -6.0598 H   0  0  0  0  0  0  0  0  0  0  0  0
    3.2996   -3.8016   -5.0971 H   0  0  0  0  0  0  0  0  0  0  0  0
  5  6  2  0  0  0  0
  5  7  1  0  0  0  0
  2  3  1  0  0  0  0
  2  4  1  0  0  0  0
  2  5  1  0  0  0  0
  1  2  1  0  0  0  0
 15 16  2  0  0  0  0
 15 17  1  0  0  0  0
 14 36  1  0  0  0  0
 11 12  1  0  0  0  0
 11 13  1  0  0  0  0
 11 14  1  0  0  0  0
  9 10  1  0  0  0  0
  9 11  1  0  0  0  0
  9 15  1  0  0  0  0
  7  8  1  0  0  0  0
  7  9  1  0  0  0  0
 19 20  1  0  0  0  0
 19 21  1  0  0  0  0
 19 22  1  0  0  0  0
 17 18  1  0  0  0  0
 17 19  1  0  0  0  0
 27 28  2  0  0  0  0
 27 29  1  0  0  0  0
 24 25  1  0  0  0  0
 24 26  1  0  0  0  0
 24 27  1  0  0  0  0
 23 24  1  0  0  0  0
 37 38  2  0  0  0  0
 37 39  1  0  0  0  0
 33 34  1  0  0  0  0
 33 35  1  0  0  0  0
 33 36  1  0  0  0  0
 31 32  1  0  0  0  0
 31 33  1  0  0  0  0
 31 37  1  0  0  0  0
 29 30  1  0  0  0  0
 29 31  1  0  0  0  0
 41 42  1  0  0  0  0
 41 43  1  0  0  0  0
 41 44  1  0  0  0  0
 39 40  1  0  0  0  0
 39 41  1  0  0  0  0
M  END
$$$$
default_name
  -OEChem-01062215323D

 44 43  0     1  0  0  0  0  0999 V2000
    2.4488   -3.0448    2.0990 H   0  0  0  0  0  0  0  0  0  0  0  0
    2.2788   -2.0018    2.3640 C   0  0  0  0  0  0  0  0  0  0  0  0
    2.9228   -1.7258    3.1960 H   0  0  0  0  0  0  0  0  0  0  0  0
    1.2358   -1.8618    2.6430 H   0  0  0  0  0  0  0  0  0  0  0  0
    2.6018   -1.1318    1.1730 C   0  0  0  0  0  0  0  0  0  0  0  0
    3.0048   -1.6348    0.1320 O   0  0  0  0  0  0  0  0  0  0  0  0
    2.4088    0.1752    1.3190 N   0  0  0  0  0  0  0  0  0  0  0  0
    2.0708    0.5242    2.2050 H   0  0  0  0  0  0  0  0  0  0  0  0
    2.6638    1.1782    0.2840 C   0  0  1  0  0  0  0  0  0  0  0  0
    3.7410    1.3446    0.2307 H   0  0  0  0  0  0  0  0  0  0  0  0
    2.1949    0.6448   -1.0811 C   0  0  0  0  0  0  0  0  0  0  0  0
    2.2409    1.4557   -1.8091 H   0  0  0  0  0  0  0  0  0  0  0  0
    1.1436    0.3735   -0.9895 H   0  0  0  0  0  0  0  0  0  0  0  0
    3.0550   -0.8001   -1.7705 S   0  0  0  0  0  0  0  0  0  0  0  0
    1.9977    2.5212    0.6373 C   0  0  0  0  0  0  0  0  0  0  0  0
    0.9716    2.8810    0.0605 O   0  0  0  0  0  0  0  0  0  0  0  0
    2.5793    3.2596    1.5920 N   0  0  0  0  0  0  0  0  0  0  0  0
    3.4162    2.9037    2.0251 H   0  0  0  0  0  0  0  0  0  0  0  0
    2.0713    4.5554    2.0375 C   0  0  0  0  0  0  0  0  0  0  0  0
    2.0921    5.2634    1.2062 H   0  0  0  0  0  0  0  0  0  0  0  0
    1.0390    4.4509    2.3766 H   0  0  0  0  0  0  0  0  0  0  0  0
    2.6816    4.9413    2.8550 H   0  0  0  0  0  0  0  0  0  0  0  0
    6.5663    3.9845   -7.3023 H   0  0  0  0  0  0  0  0  0  0  0  0
    5.6230    3.4819   -7.0941 C   0  0  0  0  0  0  0  0  0  0  0  0
    5.2000    3.0961   -8.0203 H   0  0  0  0  0  0  0  0  0  0  0  0
    4.9289    4.1833   -6.6350 H   0  0  0  0  0  0  0  0  0  0  0  0
    5.8775    2.3352   -6.1440 C   0  0  0  0  0  0  0  0  0  0  0  0
    7.0079    2.1137   -5.7314 O   0  0  0  0  0  0  0  0  0  0  0  0
    4.8191    1.6107   -5.7911 N   0  0  0  0  0  0  0  0  0  0  0  0
    3.9169    1.8449   -6.1793 H   0  0  0  0  0  0  0  0  0  0  0  0
    4.8627    0.4678   -4.8790 C   0  0  1  0  0  0  0  0  0  0  0  0
    5.7869   -0.0877   -5.0486 H   0  0  0  0  0  0  0  0  0  0  0  0
    4.8804    1.0067   -3.4417 C   0  0  0  0  0  0  0  0  0  0  0  0
    5.7499    1.6586   -3.3461 H   0  0  0  0  0  0  0  0  0  0  0  0
    3.9963    1.6252   -3.2861 H   0  0  0  0  0  0  0  0  0  0  0  0
    4.9804   -0.2047   -2.0965 S   0  0  0  0  0  0  0  0  0  0  0  0
    3.6786   -0.4787   -5.1446 C   0  0  0  0  0  0  0  0  0  0  0  0
    2.6119   -0.0261   -5.5624 O   0  0  0  0  0  0  0  0  0  0  0  0
    3.8680   -1.7838   -4.9117 N   0  0  0  0  0  0  0  0  0  0  0  0
    4.7592   -2.0700   -4.5385 H   0  0  0  0  0  0  0  0  0  0  0  0
    2.8450   -2.8108   -5.1043 C   0  0  0  0  0  0  0  0  0  0  0  0
    2.1059   -2.7486   -4.3039 H   0  0  0  0  0  0  0  0  0  0  0  0
    2.3375   -2.6581   -6.0598 H   0  0  0  0  0  0  0  0  0  0  0  0
    3.2996   -3.8016   -5.0971 H   0  0  0  0  0  0  0  0  0  0  0  0
  5  6  2  0  0  0  0
  5  7  1  0  0  0  0
  2  3  1  0  0  0  0
  2  4  1  0  0  0  0
  2  5  1  0  0  0  0
  1  2  1  0  0  0  0
 15 16  2  0  0  0  0
 15 17  1  0  0  0  0
 14 36  1  0  0  0  0
 11 12  1  0  0  0  0
 11 13  1  0  0  0  0
 11 14  1  0  0  0  0
  9 10  1  0  0  0  0
  9 11  1  0  0  0  0
  9 15  1  0  0  0  0
  7  8  1  0  0  0  0
  7  9  1  0  0  0  0
 19 20  1  0  0  0  0
 19 21  1  0  0  0  0
 19 22  1  0  0  0  0
 17 18  1  0  0  0  0
 17 19  1  0  0  0  0
 27 28  2  0  0  0  0
 27 29  1  0  0  0  0
 24 25  1  0  0  0  0
 24 26  1  0  0  0  0
 24 27  1  0  0  0  0
 23 24  1  0  0  0  0
 37 38  2  0  0  0  0
 37 39  1  0  0  0  0
 33 34  1  0  0  0  0
 33 35  1  0  0  0  0
 33 36  1  0  0  0  0
 31 32  1  0  0  0  0
 31 33  1  0  0  0  0
 31 37  1  0  0  0  0
 29 30  1  0  0  0  0
 29 31  1  0  0  0  0
 41 42  1  0  0  0  0
 41 43  1  0  0  0  0
 41 44  1  0  0  0  0
 39 40  1  0  0  0  0
 39 41  1  0  0  0  0
M  END
$$$$
default_name
  -OEChem-01062215323D

 44 43  0     1  0  0  0  0  0999 V2000
    2.4488   -3.0448    2.0990 H   0  0  0  0  0  0  0  0  0  0  0  0
    2.2788   -2.0018    2.3640 C   0  0  0  0  0  0  0  0  0  0  0  0
    2.9228   -1.7258    3.1960 H   0  0  0  0  0  0  0  0  0  0  0  0
    1.2358   -1.8618    2.6430 H   0  0  0  0  0  0  0  0  0  0  0  0
    2.6018   -1.1318    1.1730 C   0  0  0  0  0  0  0  0  0  0  0  0
    3.0048   -1.6348    0.1320 O   0  0  0  0  0  0  0  0  0  0  0  0
    2.4088    0.1752    1.3190 N   0  0  0  0  0  0  0  0  0  0  0  0
    2.0708    0.5242    2.2050 H   0  0  0  0  0  0  0  0  0  0  0  0
    2.6638    1.1782    0.2840 C   0  0  1  0  0  0  0  0  0  0  0  0
    3.7410    1.3446    0.2307 H   0  0  0  0  0  0  0  0  0  0  0  0
    2.1949    0.6448   -1.0811 C   0  0  0  0  0  0  0  0  0  0  0  0
    2.2409    1.4557   -1.8091 H   0  0  0  0  0  0  0  0  0  0  0  0
    1.1436    0.3735   -0.9895 H   0  0  0  0  0  0  0  0  0  0  0  0
    3.0550   -0.8001   -1.7705 S   0  0  0  0  0  0  0  0  0  0  0  0
    1.9977    2.5212    0.6373 C   0  0  0  0  0  0  0  0  0  0  0  0
    0.8458    2.7618    0.2764 O   0  0  0  0  0  0  0  0  0  0  0  0
    2.7221    3.3940    1.3504 N   0  0  0  0  0  0  0  0  0  0  0  0
    3.6578    3.1313    1.6152 H   0  0  0  0  0  0  0  0  0  0  0  0
    2.2336    4.7085    1.7616 C   0  0  0  0  0  0  0  0  0  0  0  0
    2.0179    5.3129    0.8780 H   0  0  0  0  0  0  0  0  0  0  0  0
    1.3128    4.5970    2.3372 H   0  0  0  0  0  0  0  0  0  0  0  0
    2.9809    5.2167    2.3724 H   0  0  0  0  0  0  0  0  0  0  0  0
    6.5663    3.9845   -7.3023 H   0  0  0  0  0  0  0  0  0  0  0  0
    5.6230    3.4819   -7.0941 C   0  0  0  0  0  0  0  0  0  0  0  0
    5.2000    3.0961   -8.0203 H   0  0  0  0  0  0  0  0  0  0  0  0
    4.9289    4.1833   -6.6350 H   0  0  0  0  0  0  0  0  0  0  0  0
    5.8775    2.3352   -6.1440 C   0  0  0  0  0  0  0  0  0  0  0  0
    7.0079    2.1137   -5.7314 O   0  0  0  0  0  0  0  0  0  0  0  0
    4.8191    1.6107   -5.7911 N   0  0  0  0  0  0  0  0  0  0  0  0
    3.9169    1.8449   -6.1793 H   0  0  0  0  0  0  0  0  0  0  0  0
    4.8627    0.4678   -4.8790 C   0  0  1  0  0  0  0  0  0  0  0  0
    5.7869   -0.0877   -5.0486 H   0  0  0  0  0  0  0  0  0  0  0  0
    4.8804    1.0067   -3.4417 C   0  0  0  0  0  0  0  0  0  0  0  0
    5.7499    1.6586   -3.3461 H   0  0  0  0  0  0  0  0  0  0  0  0
    3.9963    1.6252   -3.2861 H   0  0  0  0  0  0  0  0  0  0  0  0
    4.9804   -0.2047   -2.0965 S   0  0  0  0  0  0  0  0  0  0  0  0
    3.6786   -0.4787   -5.1446 C   0  0  0  0  0  0  0  0  0  0  0  0
    2.6119   -0.0261   -5.5624 O   0  0  0  0  0  0  0  0  0  0  0  0
    3.8680   -1.7838   -4.9117 N   0  0  0  0  0  0  0  0  0  0  0  0
    4.7592   -2.0700   -4.5385 H   0  0  0  0  0  0  0  0  0  0  0  0
    2.8450   -2.8108   -5.1043 C   0  0  0  0  0  0  0  0  0  0  0  0
    2.1059   -2.7486   -4.3039 H   0  0  0  0  0  0  0  0  0  0  0  0
    2.3375   -2.6581   -6.0598 H   0  0  0  0  0  0  0  0  0  0  0  0
    3.2996   -3.8016   -5.0971 H   0  0  0  0  0  0  0  0  0  0  0  0
  5  6  2  0  0  0  0
  5  7  1  0  0  0  0
  2  3  1  0  0  0  0
  2  4  1  0  0  0  0
  2  5  1  0  0  0  0
  1  2  1  0  0  0  0
 15 16  2  0  0  0  0
 15 17  1  0  0  0  0
 14 36  1  0  0  0  0
 11 12  1  0  0  0  0
 11 13  1  0  0  0  0
 11 14  1  0  0  0  0
  9 10  1  0  0  0  0
  9 11  1  0  0  0  0
  9 15  1  0  0  0  0
  7  8  1  0  0  0  0
  7  9  1  0  0  0  0
 19 20  1  0  0  0  0
 19 21  1  0  0  0  0
 19 22  1  0  0  0  0
 17 18  1  0  0  0  0
 17 19  1  0  0  0  0
 27 28  2  0  0  0  0
 27 29  1  0  0  0  0
 24 25  1  0  0  0  0
 24 26  1  0  0  0  0
 24 27  1  0  0  0  0
 23 24  1  0  0  0  0
 37 38  2  0  0  0  0
 37 39  1  0  0  0  0
 33 34  1  0  0  0  0
 33 35  1  0  0  0  0
 33 36  1  0  0  0  0
 31 32  1  0  0  0  0
 31 33  1  0  0  0  0
 31 37  1  0  0  0  0
 29 30  1  0  0  0  0
 29 31  1  0  0  0  0
 41 42  1  0  0  0  0
 41 43  1  0  0  0  0
 41 44  1  0  0  0  0
 39 40  1  0  0  0  0
 39 41  1  0  0  0  0
M  END
$$$$
default_name
  -OEChem-01062215323D

 44 43  0     1  0  0  0  0  0999 V2000
    2.4488   -3.0448    2.0990 H   0  0  0  0  0  0  0  0  0  0  0  0
    2.2788   -2.0018    2.3640 C   0  0  0  0  0  0  0  0  0  0  0  0
    2.9228   -1.7258    3.1960 H   0  0  0  0  0  0  0  0  0  0  0  0
    1.2358   -1.8618    2.6430 H   0  0  0  0  0  0  0  0  0  0  0  0
    2.6018   -1.1318    1.1730 C   0  0  0  0  0  0  0  0  0  0  0  0
    3.0048   -1.6348    0.1320 O   0  0  0  0  0  0  0  0  0  0  0  0
    2.4088    0.1752    1.3190 N   0  0  0  0  0  0  0  0  0  0  0  0
    2.0708    0.5242    2.2050 H   0  0  0  0  0  0  0  0  0  0  0  0
    2.6638    1.1782    0.2840 C   0  0  1  0  0  0  0  0  0  0  0  0
    3.7410    1.3446    0.2307 H   0  0  0  0  0  0  0  0  0  0  0  0
    2.1949    0.6448   -1.0811 C   0  0  0  0  0  0  0  0  0  0  0  0
    2.2409    1.4557   -1.8091 H   0  0  0  0  0  0  0  0  0  0  0  0
    1.1436    0.3735   -0.9895 H   0  0  0  0  0  0  0  0  0  0  0  0
    3.0550   -0.8001   -1.7705 S   0  0  0  0  0  0  0  0  0  0  0  0
    1.9977    2.5212    0.6373 C   0  0  0  0  0  0  0  0  0  0  0  0
    0.7801    2.6634    0.5266 O   0  0  0  0  0  0  0  0  0  0  0  0
    2.7975    3.5052    1.0697 N   0  0  0  0  0  0  0  0  0  0  0  0
    3.7852    3.3197    1.1392 H   0  0  0  0  0  0  0  0  0  0  0  0
    2.3190    4.8351    1.4414 C   0  0  0  0  0  0  0  0  0  0  0  0
    1.8692    5.3196    0.5722 H   0  0  0  0  0  0  0  0  0  0  0  0
    1.5598    4.7501    2.2211 H   0  0  0  0  0  0  0  0  0  0  0  0
    3.1446    5.4465    1.8079 H   0  0  0  0  0  0  0  0  0  0  0  0
    6.5663    3.9845   -7.3023 H   0  0  0  0  0  0  0  0  0  0  0  0
    5.6230    3.4819   -7.0941 C   0  0  0  0  0  0  0  0  0  0  0  0
    5.2000    3.0961   -8.0203 H   0  0  0  0  0  0  0  0  0  0  0  0
    4.9289    4.1833   -6.6350 H   0  0  0  0  0  0  0  0  0  0  0  0
    5.8775    2.3352   -6.1440 C   0  0  0  0  0  0  0  0  0  0  0  0
    7.0079    2.1137   -5.7314 O   0  0  0  0  0  0  0  0  0  0  0  0
    4.8191    1.6107   -5.7911 N   0  0  0  0  0  0  0  0  0  0  0  0
    3.9169    1.8449   -6.1793 H   0  0  0  0  0  0  0  0  0  0  0  0
    4.8627    0.4678   -4.8790 C   0  0  1  0  0  0  0  0  0  0  0  0
    5.7869   -0.0877   -5.0486 H   0  0  0  0  0  0  0  0  0  0  0  0
    4.8804    1.0067   -3.4417 C   0  0  0  0  0  0  0  0  0  0  0  0
    5.7499    1.6586   -3.3461 H   0  0  0  0  0  0  0  0  0  0  0  0
    3.9963    1.6252   -3.2861 H   0  0  0  0  0  0  0  0  0  0  0  0
    4.9804   -0.2047   -2.0965 S   0  0  0  0  0  0  0  0  0  0  0  0
    3.6786   -0.4787   -5.1446 C   0  0  0  0  0  0  0  0  0  0  0  0
    2.6119   -0.0261   -5.5624 O   0  0  0  0  0  0  0  0  0  0  0  0
    3.8680   -1.7838   -4.9117 N   0  0  0  0  0  0  0  0  0  0  0  0
    4.7592   -2.0700   -4.5385 H   0  0  0  0  0  0  0  0  0  0  0  0
    2.8450   -2.8108   -5.1043 C   0  0  0  0  0  0  0  0  0  0  0  0
    2.1059   -2.7486   -4.3039 H   0  0  0  0  0  0  0  0  0  0  0  0
    2.3375   -2.6581   -6.0598 H   0  0  0  0  0  0  0  0  0  0  0  0
    3.2996   -3.8016   -5.0971 H   0  0  0  0  0  0  0  0  0  0  0  0
  5  6  2  0  0  0  0
  5  7  1  0  0  0  0
  2  3  1  0  0  0  0
  2  4  1  0  0  0  0
  2  5  1  0  0  0  0
  1  2  1  0  0  0  0
 15 16  2  0  0  0  0
 15 17  1  0  0  0  0
 14 36  1  0  0  0  0
 11 12  1  0  0  0  0
 11 13  1  0  0  0  0
 11 14  1  0  0  0  0
  9 10  1  0  0  0  0
  9 11  1  0  0  0  0
  9 15  1  0  0  0  0
  7  8  1  0  0  0  0
  7  9  1  0  0  0  0
 19 20  1  0  0  0  0
 19 21  1  0  0  0  0
 19 22  1  0  0  0  0
 17 18  1  0  0  0  0
 17 19  1  0  0  0  0
 27 28  2  0  0  0  0
 27 29  1  0  0  0  0
 24 25  1  0  0  0  0
 24 26  1  0  0  0  0
 24 27  1  0  0  0  0
 23 24  1  0  0  0  0
 37 38  2  0  0  0  0
 37 39  1  0  0  0  0
 33 34  1  0  0  0  0
 33 35  1  0  0  0  0
 33 36  1  0  0  0  0
 31 32  1  0  0  0  0
 31 33  1  0  0  0  0
 31 37  1  0  0  0  0
 29 30  1  0  0  0  0
 29 31  1  0  0  0  0
 41 42  1  0  0  0  0
 41 43  1  0  0  0  0
 41 44  1  0  0  0  0
 39 40  1  0  0  0  0
 39 41  1  0  0  0  0
M  END
$$$$
default_name
  -OEChem-01062215323D

 44 43  0     1  0  0  0  0  0999 V2000
    2.4488   -3.0448    2.0990 H   0  0  0  0  0  0  0  0  0  0  0  0
    2.2788   -2.0018    2.3640 C   0  0  0  0  0  0  0  0  0  0  0  0
    2.9228   -1.7258    3.1960 H   0  0  0  0  0  0  0  0  0  0  0  0
    1.2358   -1.8618    2.6430 H   0  0  0  0  0  0  0  0  0  0  0  0
    2.6018   -1.1318    1.1730 C   0  0  0  0  0  0  0  0  0  0  0  0
    3.0048   -1.6348    0.1320 O   0  0  0  0  0  0  0  0  0  0  0  0
    2.4088    0.1752    1.3190 N   0  0  0  0  0  0  0  0  0  0  0  0
    2.0708    0.5242    2.2050 H   0  0  0  0  0  0  0  0  0  0  0  0
    2.6638    1.1782    0.2840 C   0  0  1  0  0  0  0  0  0  0  0  0
    3.7410    1.3446    0.2307 H   0  0  0  0  0  0  0  0  0  0  0  0
    2.1949    0.6448   -1.0811 C   0  0  0  0  0  0  0  0  0  0  0  0
    2.2409    1.4557   -1.8091 H   0  0  0  0  0  0  0  0  0  0  0  0
    1.1436    0.3735   -0.9895 H   0  0  0  0  0  0  0  0  0  0  0  0
    3.0550   -0.8001   -1.7705 S   0  0  0  0  0  0  0  0  0  0  0  0
    1.9977    2.5212    0.6373 C   0  0  0  0  0  0  0  0  0  0  0  0
    0.7789    2.5924    0.7942 O   0  0  0  0  0  0  0  0  0  0  0  0
    2.8004    3.5858    0.7691 N   0  0  0  0  0  0  0  0  0  0  0  0
    3.7895    3.4560    0.6296 H   0  0  0  0  0  0  0  0  0  0  0  0
    2.3217    4.9267    1.0987 C   0  0  0  0  0  0  0  0  0  0  0  0
    1.6561    5.2831    0.3096 H   0  0  0  0  0  0  0  0  0  0  0  0
    1.7630    4.8995    2.0360 H   0  0  0  0  0  0  0  0  0  0  0  0
    3.1618    5.6150    1.1999 H   0  0  0  0  0  0  0  0  0  0  0  0
    6.5663    3.9845   -7.3023 H   0  0  0  0  0  0  0  0  0  0  0  0
    5.6230    3.4819   -7.0941 C   0  0  0  0  0  0  0  0  0  0  0  0
    5.2000    3.0961   -8.0203 H   0  0  0  0  0  0  0  0  0  0  0  0
    4.9289    4.1833   -6.6350 H   0  0  0  0  0  0  0  0  0  0  0  0
    5.8775    2.3352   -6.1440 C   0  0  0  0  0  0  0  0  0  0  0  0
    7.0079    2.1137   -5.7314 O   0  0  0  0  0  0  0  0  0  0  0  0
    4.8191    1.6107   -5.7911 N   0  0  0  0  0  0  0  0  0  0  0  0
    3.9169    1.8449   -6.1793 H   0  0  0  0  0  0  0  0  0  0  0  0
    4.8627    0.4678   -4.8790 C   0  0  1  0  0  0  0  0  0  0  0  0
    5.7869   -0.0877   -5.0486 H   0  0  0  0  0  0  0  0  0  0  0  0
    4.8804    1.0067   -3.4417 C   0  0  0  0  0  0  0  0  0  0  0  0
    5.7499    1.6586   -3.3461 H   0  0  0  0  0  0  0  0  0  0  0  0
    3.9963    1.6252   -3.2861 H   0  0  0  0  0  0  0  0  0  0  0  0
    4.9804   -0.2047   -2.0965 S   0  0  0  0  0  0  0  0  0  0  0  0
    3.6786   -0.4787   -5.1446 C   0  0  0  0  0  0  0  0  0  0  0  0
    2.6119   -0.0261   -5.5624 O   0  0  0  0  0  0  0  0  0  0  0  0
    3.8680   -1.7838   -4.9117 N   0  0  0  0  0  0  0  0  0  0  0  0
    4.7592   -2.0700   -4.5385 H   0  0  0  0  0  0  0  0  0  0  0  0
    2.8450   -2.8108   -5.1043 C   0  0  0  0  0  0  0  0  0  0  0  0
    2.1059   -2.7486   -4.3039 H   0  0  0  0  0  0  0  0  0  0  0  0
    2.3375   -2.6581   -6.0598 H   0  0  0  0  0  0  0  0  0  0  0  0
    3.2996   -3.8016   -5.0971 H   0  0  0  0  0  0  0  0  0  0  0  0
  5  6  2  0  0  0  0
  5  7  1  0  0  0  0
  2  3  1  0  0  0  0
  2  4  1  0  0  0  0
  2  5  1  0  0  0  0
  1  2  1  0  0  0  0
 15 16  2  0  0  0  0
 15 17  1  0  0  0  0
 14 36  1  0  0  0  0
 11 12  1  0  0  0  0
 11 13  1  0  0  0  0
 11 14  1  0  0  0  0
  9 10  1  0  0  0  0
  9 11  1  0  0  0  0
  9 15  1  0  0  0  0
  7  8  1  0  0  0  0
  7  9  1  0  0  0  0
 19 20  1  0  0  0  0
 19 21  1  0  0  0  0
 19 22  1  0  0  0  0
 17 18  1  0  0  0  0
 17 19  1  0  0  0  0
 27 28  2  0  0  0  0
 27 29  1  0  0  0  0
 24 25  1  0  0  0  0
 24 26  1  0  0  0  0
 24 27  1  0  0  0  0
 23 24  1  0  0  0  0
 37 38  2  0  0  0  0
 37 39  1  0  0  0  0
 33 34  1  0  0  0  0
 33 35  1  0  0  0  0
 33 36  1  0  0  0  0
 31 32  1  0  0  0  0
 31 33  1  0  0  0  0
 31 37  1  0  0  0  0
 29 30  1  0  0  0  0
 29 31  1  0  0  0  0
 41 42  1  0  0  0  0
 41 43  1  0  0  0  0
 41 44  1  0  0  0  0
 39 40  1  0  0  0  0
 39 41  1  0  0  0  0
M  END
$$$$
default_name
  -OEChem-01062215323D

 44 43  0     1  0  0  0  0  0999 V2000
    2.4488   -3.0448    2.0990 H   0  0  0  0  0  0  0  0  0  0  0  0
    2.2788   -2.0018    2.3640 C   0  0  0  0  0  0  0  0  0  0  0  0
    2.9228   -1.7258    3.1960 H   0  0  0  0  0  0  0  0  0  0  0  0
    1.2358   -1.8618    2.6430 H   0  0  0  0  0  0  0  0  0  0  0  0
    2.6018   -1.1318    1.1730 C   0  0  0  0  0  0  0  0  0  0  0  0
    3.0048   -1.6348    0.1320 O   0  0  0  0  0  0  0  0  0  0  0  0
    2.4088    0.1752    1.3190 N   0  0  0  0  0  0  0  0  0  0  0  0
    2.0708    0.5242    2.2050 H   0  0  0  0  0  0  0  0  0  0  0  0
    2.6638    1.1782    0.2840 C   0  0  1  0  0  0  0  0  0  0  0  0
    3.7410    1.3446    0.2307 H   0  0  0  0  0  0  0  0  0  0  0  0
    2.1949    0.6448   -1.0811 C   0  0  0  0  0  0  0  0  0  0  0  0
    2.2409    1.4557   -1.8091 H   0  0  0  0  0  0  0  0  0  0  0  0
    1.1436    0.3735   -0.9895 H   0  0  0  0  0  0  0  0  0  0  0  0
    3.0550   -0.8001   -1.7705 S   0  0  0  0  0  0  0  0  0  0  0  0
    1.9977    2.5212    0.6373 C   0  0  0  0  0  0  0  0  0  0  0  0
    0.8424    2.5537    1.0608 O   0  0  0  0  0  0  0  0  0  0  0  0
    2.7306    3.6301    0.4691 N   0  0  0  0  0  0  0  0  0  0  0  0
    3.6707    3.5308    0.1212 H   0  0  0  0  0  0  0  0  0  0  0  0
    2.2416    4.9769    0.7567 C   0  0  0  0  0  0  0  0  0  0  0  0
    1.3932    5.2057    0.1082 H   0  0  0  0  0  0  0  0  0  0  0  0
    1.9086    5.0353    1.7946 H   0  0  0  0  0  0  0  0  0  0  0  0
    3.0312    5.7107    0.5899 H   0  0  0  0  0  0  0  0  0  0  0  0
    6.5663    3.9845   -7.3023 H   0  0  0  0  0  0  0  0  0  0  0  0
    5.6230    3.4819   -7.0941 C   0  0  0  0  0  0  0  0  0  0  0  0
    5.2000    3.0961   -8.0203 H   0  0  0  0  0  0  0  0  0  0  0  0
    4.9289    4.1833   -6.6350 H   0  0  0  0  0  0  0  0  0  0  0  0
    5.8775    2.3352   -6.1440 C   0  0  0  0  0  0  0  0  0  0  0  0
    7.0079    2.1137   -5.7314 O   0  0  0  0  0  0  0  0  0  0  0  0
    4.8191    1.6107   -5.7911 N   0  0  0  0  0  0  0  0  0  0  0  0
    3.9169    1.8449   -6.1793 H   0  0  0  0  0  0  0  0  0  0  0  0
    4.8627    0.4678   -4.8790 C   0  0  1  0  0  0  0  0  0  0  0  0
    5.7869   -0.0877   -5.0486 H   0  0  0  0  0  0  0  0  0  0  0  0
    4.8804    1.0067   -3.4417 C   0  0  0  0  0  0  0  0  0  0  0  0
    5.7499    1.6586   -3.3461 H   0  0  0  0  0  0  0  0  0  0  0  0
    3.9963    1.6252   -3.2861 H   0  0  0  0  0  0  0  0  0  0  0  0
    4.9804   -0.2047   -2.0965 S   0  0  0  0  0  0  0  0  0  0  0  0
    3.6786   -0.4787   -5.1446 C   0  0  0  0  0  0  0  0  0  0  0  0
    2.6119   -0.0261   -5.5624 O   0  0  0  0  0  0  0  0  0  0  0  0
    3.8680   -1.7838   -4.9117 N   0  0  0  0  0  0  0  0  0  0  0  0
    4.7592   -2.0700   -4.5385 H   0  0  0  0  0  0  0  0  0  0  0  0
    2.8450   -2.8108   -5.1043 C   0  0  0  0  0  0  0  0  0  0  0  0
    2.1059   -2.7486   -4.3039 H   0  0  0  0  0  0  0  0  0  0  0  0
    2.3375   -2.6581   -6.0598 H   0  0  0  0  0  0  0  0  0  0  0  0
    3.2996   -3.8016   -5.0971 H   0  0  0  0  0  0  0  0  0  0  0  0
  5  6  2  0  0  0  0
  5  7  1  0  0  0  0
  2  3  1  0  0  0  0
  2  4  1  0  0  0  0
  2  5  1  0  0  0  0
  1  2  1  0  0  0  0
 15 16  2  0  0  0  0
 15 17  1  0  0  0  0
 14 36  1  0  0  0  0
 11 12  1  0  0  0  0
 11 13  1  0  0  0  0
 11 14  1  0  0  0  0
  9 10  1  0  0  0  0
  9 11  1  0  0  0  0
  9 15  1  0  0  0  0
  7  8  1  0  0  0  0
  7  9  1  0  0  0  0
 19 20  1  0  0  0  0
 19 21  1  0  0  0  0
 19 22  1  0  0  0  0
 17 18  1  0  0  0  0
 17 19  1  0  0  0  0
 27 28  2  0  0  0  0
 27 29  1  0  0  0  0
 24 25  1  0  0  0  0
 24 26  1  0  0  0  0
 24 27  1  0  0  0  0
 23 24  1  0  0  0  0
 37 38  2  0  0  0  0
 37 39  1  0  0  0  0
 33 34  1  0  0  0  0
 33 35  1  0  0  0  0
 33 36  1  0  0  0  0
 31 32  1  0  0  0  0
 31 33  1  0  0  0  0
 31 37  1  0  0  0  0
 29 30  1  0  0  0  0
 29 31  1  0  0  0  0
 41 42  1  0  0  0  0
 41 43  1  0  0  0  0
 41 44  1  0  0  0  0
 39 40  1  0  0  0  0
 39 41  1  0  0  0  0
M  END
$$$$
default_name
  -OEChem-01062215323D

 44 43  0     1  0  0  0  0  0999 V2000
    2.4488   -3.0448    2.0990 H   0  0  0  0  0  0  0  0  0  0  0  0
    2.2788   -2.0018    2.3640 C   0  0  0  0  0  0  0  0  0  0  0  0
    2.9228   -1.7258    3.1960 H   0  0  0  0  0  0  0  0  0  0  0  0
    1.2358   -1.8618    2.6430 H   0  0  0  0  0  0  0  0  0  0  0  0
    2.6018   -1.1318    1.1730 C   0  0  0  0  0  0  0  0  0  0  0  0
    3.0048   -1.6348    0.1320 O   0  0  0  0  0  0  0  0  0  0  0  0
    2.4088    0.1752    1.3190 N   0  0  0  0  0  0  0  0  0  0  0  0
    2.0708    0.5242    2.2050 H   0  0  0  0  0  0  0  0  0  0  0  0
    2.6638    1.1782    0.2840 C   0  0  1  0  0  0  0  0  0  0  0  0
    3.7410    1.3446    0.2307 H   0  0  0  0  0  0  0  0  0  0  0  0
    2.1949    0.6448   -1.0811 C   0  0  0  0  0  0  0  0  0  0  0  0
    2.2409    1.4557   -1.8091 H   0  0  0  0  0  0  0  0  0  0  0  0
    1.1436    0.3735   -0.9895 H   0  0  0  0  0  0  0  0  0  0  0  0
    3.0550   -0.8001   -1.7705 S   0  0  0  0  0  0  0  0  0  0  0  0
    1.9977    2.5212    0.6373 C   0  0  0  0  0  0  0  0  0  0  0  0
    0.9662    2.5500    1.3084 O   0  0  0  0  0  0  0  0  0  0  0  0
    2.5928    3.6351    0.1901 N   0  0  0  0  0  0  0  0  0  0  0  0
    3.4367    3.5391   -0.3515 H   0  0  0  0  0  0  0  0  0  0  0  0
    2.0840    4.9824    0.4389 C   0  0  0  0  0  0  0  0  0  0  0  0
    1.0985    5.0928   -0.0184 H   0  0  0  0  0  0  0  0  0  0  0  0
    1.9868    5.1480    1.5134 H   0  0  0  0  0  0  0  0  0  0  0  0
    2.7616    5.7271    0.0195 H   0  0  0  0  0  0  0  0  0  0  0  0
    6.5663    3.9845   -7.3023 H   0  0  0  0  0  0  0  0  0  0  0  0
    5.6230    3.4819   -7.0941 C   0  0  0  0  0  0  0  0  0  0  0  0
    5.2000    3.0961   -8.0203 H   0  0  0  0  0  0  0  0  0  0  0  0
    4.9289    4.1833   -6.6350 H   0  0  0  0  0  0  0  0  0  0  0  0
    5.8775    2.3352   -6.1440 C   0  0  0  0  0  0  0  0  0  0  0  0
    7.0079    2.1137   -5.7314 O   0  0  0  0  0  0  0  0  0  0  0  0
    4.8191    1.6107   -5.7911 N   0  0  0  0  0  0  0  0  0  0  0  0
    3.9169    1.8449   -6.1793 H   0  0  0  0  0  0  0  0  0  0  0  0
    4.8627    0.4678   -4.8790 C   0  0  1  0  0  0  0  0  0  0  0  0
    5.7869   -0.0877   -5.0486 H   0  0  0  0  0  0  0  0  0  0  0  0
    4.8804    1.0067   -3.4417 C   0  0  0  0  0  0  0  0  0  0  0  0
    5.7499    1.6586   -3.3461 H   0  0  0  0  0  0  0  0  0  0  0  0
    3.9963    1.6252   -3.2861 H   0  0  0  0  0  0  0  0  0  0  0  0
    4.9804   -0.2047   -2.0965 S   0  0  0  0  0  0  0  0  0  0  0  0
    3.6786   -0.4787   -5.1446 C   0  0  0  0  0  0  0  0  0  0  0  0
    2.6119   -0.0261   -5.5624 O   0  0  0  0  0  0  0  0  0  0  0  0
    3.8680   -1.7838   -4.9117 N   0  0  0  0  0  0  0  0  0  0  0  0
    4.7592   -2.0700   -4.5385 H   0  0  0  0  0  0  0  0  0  0  0  0
    2.8450   -2.8108   -5.1043 C   0  0  0  0  0  0  0  0  0  0  0  0
    2.1059   -2.7486   -4.3039 H   0  0  0  0  0  0  0  0  0  0  0  0
    2.3375   -2.6581   -6.0598 H   0  0  0  0  0  0  0  0  0  0  0  0
    3.2996   -3.8016   -5.0971 H   0  0  0  0  0  0  0  0  0  0  0  0
  5  6  2  0  0  0  0
  5  7  1  0  0  0  0
  2  3  1  0  0  0  0
  2  4  1  0  0  0  0
  2  5  1  0  0  0  0
  1  2  1  0  0  0  0
 15 16  2  0  0  0  0
 15 17  1  0  0  0  0
 14 36  1  0  0  0  0
 11 12  1  0  0  0  0
 11 13  1  0  0  0  0
 11 14  1  0  0  0  0
  9 10  1  0  0  0  0
  9 11  1  0  0  0  0
  9 15  1  0  0  0  0
  7  8  1  0  0  0  0
  7  9  1  0  0  0  0
 19 20  1  0  0  0  0
 19 21  1  0  0  0  0
 19 22  1  0  0  0  0
 17 18  1  0  0  0  0
 17 19  1  0  0  0  0
 27 28  2  0  0  0  0
 27 29  1  0  0  0  0
 24 25  1  0  0  0  0
 24 26  1  0  0  0  0
 24 27  1  0  0  0  0
 23 24  1  0  0  0  0
 37 38  2  0  0  0  0
 37 39  1  0  0  0  0
 33 34  1  0  0  0  0
 33 35  1  0  0  0  0
 33 36  1  0  0  0  0
 31 32  1  0  0  0  0
 31 33  1  0  0  0  0
 31 37  1  0  0  0  0
 29 30  1  0  0  0  0
 29 31  1  0  0  0  0
 41 42  1  0  0  0  0
 41 43  1  0  0  0  0
 41 44  1  0  0  0  0
 39 40  1  0  0  0  0
 39 41  1  0  0  0  0
M  END
$$$$
default_name
  -OEChem-01062215323D

 44 43  0     1  0  0  0  0  0999 V2000
    2.4488   -3.0448    2.0990 H   0  0  0  0  0  0  0  0  0  0  0  0
    2.2788   -2.0018    2.3640 C   0  0  0  0  0  0  0  0  0  0  0  0
    2.9228   -1.7258    3.1960 H   0  0  0  0  0  0  0  0  0  0  0  0
    1.2358   -1.8618    2.6430 H   0  0  0  0  0  0  0  0  0  0  0  0
    2.6018   -1.1318    1.1730 C   0  0  0  0  0  0  0  0  0  0  0  0
    3.0048   -1.6348    0.1320 O   0  0  0  0  0  0  0  0  0  0  0  0
    2.4088    0.1752    1.3190 N   0  0  0  0  0  0  0  0  0  0  0  0
    2.0708    0.5242    2.2050 H   0  0  0  0  0  0  0  0  0  0  0  0
    2.6638    1.1782    0.2840 C   0  0  1  0  0  0  0  0  0  0  0  0
    3.7410    1.3446    0.2307 H   0  0  0  0  0  0  0  0  0  0  0  0
    2.1949    0.6448   -1.0811 C   0  0  0  0  0  0  0  0  0  0  0  0
    2.2409    1.4557   -1.8091 H   0  0  0  0  0  0  0  0  0  0  0  0
    1.1436    0.3735   -0.9895 H   0  0  0  0  0  0  0  0  0  0  0  0
    3.0550   -0.8001   -1.7705 S   0  0  0  0  0  0  0  0  0  0  0  0
    1.9977    2.5212    0.6373 C   0  0  0  0  0  0  0  0  0  0  0  0
    1.1419    2.5814    1.5200 O   0  0  0  0  0  0  0  0  0  0  0  0
    2.3964    3.6006   -0.0488 N   0  0  0  0  0  0  0  0  0  0  0  0
    3.1035    3.4803   -0.7561 H   0  0  0  0  0  0  0  0  0  0  0  0
    1.8597    4.9427    0.1669 C   0  0  0  0  0  0  0  0  0  0  0  0
    0.7918    4.9521   -0.0616 H   0  0  0  0  0  0  0  0  0  0  0  0
    1.9921    5.2301    1.2116 H   0  0  0  0  0  0  0  0  0  0  0  0
    2.3715    5.6631   -0.4725 H   0  0  0  0  0  0  0  0  0  0  0  0
    6.5663    3.9845   -7.3023 H   0  0  0  0  0  0  0  0  0  0  0  0
    5.6230    3.4819   -7.0941 C   0  0  0  0  0  0  0  0  0  0  0  0
    5.2000    3.0961   -8.0203 H   0  0  0  0  0  0  0  0  0  0  0  0
    4.9289    4.1833   -6.6350 H   0  0  0  0  0  0  0  0  0  0  0  0
    5.8775    2.3352   -6.1440 C   0  0  0  0  0  0  0  0  0  0  0  0
    7.0079    2.1137   -5.7314 O   0  0  0  0  0  0  0  0  0  0  0  0
    4.8191    1.6107   -5.7911 N   0  0  0  0  0  0  0  0  0  0  0  0
    3.9169    1.8449   -6.1793 H   0  0  0  0  0  0  0  0  0  0  0  0
    4.8627    0.4678   -4.8790 C   0  0  1  0  0  0  0  0  0  0  0  0
    5.7869   -0.0877   -5.0486 H   0  0  0  0  0  0  0  0  0  0  0  0
    4.8804    1.0067   -3.4417 C   0  0  0  0  0  0  0  0  0  0  0  0
    5.7499    1.6586   -3.3461 H   0  0  0  0  0  0  0  0  0  0  0  0
    3.9963    1.6252   -3.2861 H   0  0  0  0  0  0  0  0  0  0  0  0
    4.9804   -0.2047   -2.0965 S   0  0  0  0  0  0  0  0  0  0  0  0
    3.6786   -0.4787   -5.1446 C   0  0  0  0  0  0  0  0  0  0  0  0
    2.6119   -0.0261   -5.5624 O   0  0  0  0  0  0  0  0  0  0  0  0
    3.8680   -1.7838   -4.9117 N   0  0  0  0  0  0  0  0  0  0  0  0
    4.7592   -2.0700   -4.5385 H   0  0  0  0  0  0  0  0  0  0  0  0
    2.8450   -2.8108   -5.1043 C   0  0  0  0  0  0  0  0  0  0  0  0
    2.1059   -2.7486   -4.3039 H   0  0  0  0  0  0  0  0  0  0  0  0
    2.3375   -2.6581   -6.0598 H   0  0  0  0  0  0  0  0  0  0  0  0
    3.2996   -3.8016   -5.0971 H   0  0  0  0  0  0  0  0  0  0  0  0
  5  6  2  0  0  0  0
  5  7  1  0  0  0  0
  2  3  1  0  0  0  0
  2  4  1  0  0  0  0
  2  5  1  0  0  0  0
  1  2  1  0  0  0  0
 15 16  2  0  0  0  0
 15 17  1  0  0  0  0
 14 36  1  0  0  0  0
 11 12  1  0  0  0  0
 11 13  1  0  0  0  0
 11 14  1  0  0  0  0
  9 10  1  0  0  0  0
  9 11  1  0  0  0  0
  9 15  1  0  0  0  0
  7  8  1  0  0  0  0
  7  9  1  0  0  0  0
 19 20  1  0  0  0  0
 19 21  1  0  0  0  0
 19 22  1  0  0  0  0
 17 18  1  0  0  0  0
 17 19  1  0  0  0  0
 27 28  2  0  0  0  0
 27 29  1  0  0  0  0
 24 25  1  0  0  0  0
 24 26  1  0  0  0  0
 24 27  1  0  0  0  0
 23 24  1  0  0  0  0
 37 38  2  0  0  0  0
 37 39  1  0  0  0  0
 33 34  1  0  0  0  0
 33 35  1  0  0  0  0
 33 36  1  0  0  0  0
 31 32  1  0  0  0  0
 31 33  1  0  0  0  0
 31 37  1  0  0  0  0
 29 30  1  0  0  0  0
 29 31  1  0  0  0  0
 41 42  1  0  0  0  0
 41 43  1  0  0  0  0
 41 44  1  0  0  0  0
 39 40  1  0  0  0  0
 39 41  1  0  0  0  0
M  END
$$$$
