@<TRIPOS>MOLECULE
default_name
   19    18     1     0     0
SMALL
No Charge or Current Charge


@<TRIPOS>ATOM
      1 H1          25.9510    25.0710    24.2970 H          1 ACE       0.112300
      2 CH3         26.0180    26.1260    24.0410 C.3        1 ACE      -0.366200
      3 H2          25.3990    26.7180    24.7100 H          1 ACE       0.112300
      4 H3          25.7110    26.2860    23.0100 H          1 ACE       0.112300
      5 C           27.4530    26.5750    24.1890 C.2        1 ACE       0.597200
      6 O           28.2970    25.7630    24.5500 O.2        1 ACE      -0.567900
      7 N           27.6680    27.8580    23.9100 N.am       2 CAS      -0.567900
      8 H           26.8810    28.4410    23.6650 H          2 CAS      -0.567900
      9 CA          28.9180    28.6380    23.9620 C.3        2 CAS      -0.567900
     10 HA          29.5620    28.2720    24.7610 H          2 CAS      -0.567900
     11 CB          29.6550    28.4960    22.6010 C.3        2 CAS      -0.567900
     12 HB2         29.5530    27.4600    22.2700 H          2 CAS      -0.567900
     13 HB3         29.1400    29.1120    21.8590 H          2 CAS      -0.567900
     14 CG          31.1690    28.8140    22.5670 C.2        2 CAS      -0.567900
     15 OD1         31.8820    28.5660    23.5690 O.co2      2 CAS      -0.567900
     16 OD2         31.6450    29.1950    21.4670 O.co2      2 CAS      -0.567900
     17 C           28.5310    30.1030    24.2800 C.2        2 CAS      -0.567900
     18 O           27.4930    30.5430    23.7200 O.co2      2 CAS      -0.567900
     19 OXT         29.1620    30.7210    25.1650 O.co2      2 CAS      -0.567900
@<TRIPOS>BOND
     1     5     6 2   
     2     5     7 am  
     3     2     3 1   
     4     2     4 1   
     5     2     5 1   
     6     1     2 1   
     7    17    18 1   
     8    17    19 1   
     9    14    15 1   
    10    14    16 1   
    11    11    12 1   
    12    11    13 1   
    13    11    14 1   
    14     9    10 1   
    15     9    11 1   
    16     9    17 1   
    17     7     8 1   
    18     7     9 1   
@<TRIPOS>SUBSTRUCTURE
     1 ACE         1 TEMP              0 ****  ****    0 ROOT
