@<TRIPOS>MOLECULE
default_name
   32    31     1     0     0
SMALL
No Charge or Current Charge


@<TRIPOS>ATOM
      1 N           27.4460    25.5930    24.0830 N.4        1 NAR       0.000000
      2 H1          27.7630    25.0770    24.8960 H          1 NAR       0.000000
      3 H2          27.7090    25.0550    23.2670 H          1 NAR       0.000000
      4 H3          26.4390    25.6860    24.1130 H          1 NAR       0.000000
      5 CA          28.1130    26.9240    24.0660 C.3        1 NAR       0.000000
      6 HA          27.8790    27.4350    23.1320 H          1 NAR       0.000000
      7 CB          27.6330    27.7930    25.2550 C.3        1 NAR       0.000000
      8 HB2         26.5500    27.9070    25.1810 H          1 NAR       0.000000
      9 HB3         27.8510    27.2650    26.1850 H          1 NAR       0.000000
     10 CG          28.2610    29.2020    25.3360 C.3        1 NAR       0.000000
     11 HG2         29.3440    29.1130    25.4390 H          1 NAR       0.000000
     12 HG3         28.0350    29.7510    24.4210 H          1 NAR       0.000000
     13 CD          27.7220    29.9890    26.5460 C.3        1 NAR       0.000000
     14 HD2         26.6400    30.0970    26.4460 H          1 NAR       0.000000
     15 HD3         27.9340    29.4220    27.4550 H          1 NAR       0.000000
     16 NE          28.3350    31.3300    26.6590 N.3        1 NAR       0.000000
     17 HE          28.9600    31.6170    25.9250 H          1 NAR       0.000000
     18 CZ          28.1470    32.2050    27.6350 C.cat      1 NAR       0.000000
     19 NH1         27.3630    31.9650    28.6480 N.3        1 NAR       0.000000
     20 HH11        26.8780    31.0900    28.7050 H          1 NAR       0.000000
     21 HH12        27.2430    32.6490    29.3740 H          1 NAR       0.000000
     22 NH2         28.7540    33.3570    27.6120 N.3        1 NAR       0.000000
     23 HH21        29.3720    33.6040    26.8600 H          1 NAR       0.000000
     24 HH22        28.6080    34.0170    28.3560 H          1 NAR       0.000000
     25 C           29.6170    26.6850    24.1200 C.2        1 NAR       0.000000
     26 O           30.0050    25.7930    24.8570 O.2        1 NAR       0.000000
     27 N           30.4270    27.4330    23.3620 N.am       2 NME      -0.415700
     28 H           30.0410    28.1350    22.7490 H          2 NME       0.271900
     29 CH3         31.8820    27.2620    23.3330 C.3        2 NME      -0.149000
     30 HH31        32.1380    26.2560    22.9900 H          2 NME       0.097600
     31 HH32        32.3410    27.9870    22.6570 H          2 NME       0.097600
     32 HH33        32.3020    27.3980    24.3330 H          2 NME       0.097600
@<TRIPOS>BOND
     1    25    26 2   
     2    25    27 am  
     3    22    23 1   
     4    22    24 1   
     5    19    20 1   
     6    19    21 1   
     7    18    19 1   
     8    18    22 1   
     9    16    17 1   
    10    16    18 2   
    11    13    14 1   
    12    13    15 1   
    13    13    16 1   
    14    10    11 1   
    15    10    12 1   
    16    10    13 1   
    17     7     8 1   
    18     7     9 1   
    19     7    10 1   
    20     5     6 1   
    21     5     7 1   
    22     5    25 1   
    23     1     2 1   
    24     1     3 1   
    25     1     4 1   
    26     1     5 1   
    27    29    30 1   
    28    29    31 1   
    29    29    32 1   
    30    27    28 1   
    31    27    29 1   
@<TRIPOS>SUBSTRUCTURE
     1 NAR         1 TEMP              0 ****  ****    0 ROOT
