@<TRIPOS>MOLECULE
default_name
   24    23     1     0     0
SMALL
No Charge or Current Charge


@<TRIPOS>ATOM
      1 H1          25.7580    25.1330    24.3150 H          1 ACE       0.112300
      2 CH3         25.8620    26.1840    24.0530 C.3        1 ACE      -0.366200
      3 H2          25.2720    26.7980    24.7310 H          1 ACE       0.112300
      4 H3          25.5370    26.3470    23.0280 H          1 ACE       0.112300
      5 C           27.3160    26.5800    24.1750 C.2        1 ACE       0.597200
      6 O           28.1420    25.7420    24.5240 O.2        1 ACE      -0.567900
      7 N           27.5980    27.8500    23.8870 N.am       2 CGL      -0.567900
      8 H           26.8410    28.4780    23.6500 H          2 CGL      -0.567900
      9 CA          28.9010    28.5180    23.9720 C.3        2 CGL      -0.567900
     10 HA          29.4470    28.1410    24.8350 H          2 CGL      -0.567900
     11 CB          29.7100    28.2200    22.6920 C.3        2 CGL      -0.567900
     12 HB2         29.8830    27.1450    22.6280 H          2 CGL      -0.567900
     13 HB3         29.1370    28.5350    21.8180 H          2 CGL      -0.567900
     14 CG          31.0640    28.9480    22.6860 C.3        2 CGL      -0.567900
     15 HG2         30.8910    30.0230    22.6340 H          2 CGL      -0.567900
     16 HG3         31.5830    28.7360    23.6220 H          2 CGL      -0.567900
     17 CD          31.9930    28.5720    21.5320 C.2        2 CGL      -0.567900
     18 OE1         31.7740    27.6790    20.7300 O.2        2 CGL      -0.567900
     19 NE2         33.1080    29.2590    21.3970 N.am       2 CGL      -0.567900
     20 HE21        33.6910    28.9980    20.6270 H          2 CGL      -0.567900
     21 HE22        33.3000    30.0120    22.0320 H          2 CGL      -0.567900
     22 C           28.6920    30.0220    24.2070 C.2        2 CGL      -0.567900
     23 O           27.6480    30.5280    23.7370 O.co2      2 CGL      -0.567900
     24 OXT         29.5710    30.6230    24.8600 O.co2      2 CGL      -0.567900
@<TRIPOS>BOND
     1     5     6 2   
     2     5     7 am  
     3     2     3 1   
     4     2     4 1   
     5     2     5 1   
     6     1     2 1   
     7    22    23 1   
     8    22    24 1   
     9    19    20 1   
    10    19    21 1   
    11    17    18 2   
    12    17    19 am  
    13    14    15 1   
    14    14    16 1   
    15    14    17 1   
    16    11    12 1   
    17    11    13 1   
    18    11    14 1   
    19     9    10 1   
    20     9    11 1   
    21     9    22 1   
    22     7     8 1   
    23     7     9 1   
@<TRIPOS>SUBSTRUCTURE
     1 ACE         1 TEMP              0 ****  ****    0 ROOT
