
  -OEChem-02062319033D

 49 49  0     1  0  0  0  0  0999 V2000
   -1.5619    0.5658    3.7981 C   0  0  0  0  0  0  0  0  0  0  0  0
   -0.6145   -0.0489    3.3224 O   0  0  0  0  0  0  0  0  0  0  0  0
   -1.9938    0.2834    5.1988 C   0  0  0  0  0  0  0  0  0  0  0  0
   -2.7535   -0.5129    5.2522 H   0  0  0  0  0  0  0  0  0  0  0  0
   -1.1626   -0.0642    5.8331 H   0  0  0  0  0  0  0  0  0  0  0  0
   -2.4318    1.1383    5.7384 H   0  0  0  0  0  0  0  0  0  0  0  0
   -2.3116    1.5383    3.1570 N   0  0  0  0  0  0  0  0  0  0  0  0
   -2.0648    1.9643    1.8046 C   0  0  2  0  0  0  0  0  0  0  0  0
   -0.7298    1.3789    1.3634 C   0  0  0  0  0  0  0  0  0  0  0  0
    0.1423    1.0262    2.1547 O   0  0  0  0  0  0  0  0  0  0  0  0
   -2.0560    3.4811    1.6952 C   0  0  0  0  0  0  0  0  0  0  0  0
   -3.0767    1.9741    3.6688 H   0  0  0  0  0  0  0  0  0  0  0  0
   -2.8689    1.5458    1.1895 H   0  0  0  0  0  0  0  0  0  0  0  0
   -1.2569    3.9183    2.3049 H   0  0  0  0  0  0  0  0  0  0  0  0
   -1.8965    3.8033    0.6609 H   0  0  0  0  0  0  0  0  0  0  0  0
   -3.0062    3.9023    2.0409 H   0  0  0  0  0  0  0  0  0  0  0  0
   -0.6071    1.3358   -0.0200 N   0  0  0  0  0  0  0  0  0  0  0  0
    0.5653    0.8239   -0.6837 C   0  0  2  0  0  0  0  0  0  0  0  0
    1.7461    1.6780   -0.2359 C   0  0  0  0  0  0  0  0  0  0  0  0
    2.8401    1.2036    0.0622 O   0  0  0  0  0  0  0  0  0  0  0  0
    0.4292    0.8612   -2.2102 C   0  0  0  0  0  0  0  0  0  0  0  0
   -0.6737   -0.0341   -2.7199 C   0  0  0  0  0  0  0  0  0  0  0  0
   -0.5553   -1.3943   -2.7752 N   0  0  0  0  0  0  0  0  0  0  0  0
   -1.9330    0.2297   -3.2046 C   0  0  0  0  0  0  0  0  0  0  0  0
   -1.7255   -1.8872   -3.2822 C   0  0  0  0  0  0  0  0  0  0  0  0
   -2.5827   -0.9280   -3.5526 N   0  0  0  0  0  0  0  0  0  0  0  0
   -1.3871    1.6408   -0.5973 H   0  0  0  0  0  0  0  0  0  0  0  0
    0.7065   -0.2014   -0.3220 H   0  0  0  0  0  0  0  0  0  0  0  0
    1.3802    0.5821   -2.6839 H   0  0  0  0  0  0  0  0  0  0  0  0
    0.2268    1.8848   -2.5523 H   0  0  0  0  0  0  0  0  0  0  0  0
    0.2494   -1.9393   -2.4947 H   0  0  0  0  0  0  0  0  0  0  0  0
   -2.4073    1.1937   -3.3217 H   0  0  0  0  0  0  0  0  0  0  0  0
   -1.8873   -2.9458   -3.4279 H   0  0  0  0  0  0  0  0  0  0  0  0
    1.4454    3.0328   -0.2581 N   0  0  0  0  0  0  0  0  0  0  0  0
    2.3949    4.0624    0.0983 C   0  0  2  0  0  0  0  0  0  0  0  0
    3.0118    3.6892    1.4399 C   0  0  0  0  0  0  0  0  0  0  0  0
    2.4665    2.9341    2.2421 O   0  0  0  0  0  0  0  0  0  0  0  0
    1.7302    5.4285    0.1669 C   0  0  0  0  0  0  0  0  0  0  0  0
    0.5108    3.3149   -0.5389 H   0  0  0  0  0  0  0  0  0  0  0  0
    3.1709    4.0583   -0.6749 H   0  0  0  0  0  0  0  0  0  0  0  0
    0.9497    5.4519    0.9362 H   0  0  0  0  0  0  0  0  0  0  0  0
    2.4564    6.2114    0.4090 H   0  0  0  0  0  0  0  0  0  0  0  0
    1.2614    5.6823   -0.7899 H   0  0  0  0  0  0  0  0  0  0  0  0
    4.2227    4.3325    1.6544 N   0  0  0  0  0  0  0  0  0  0  0  0
    4.9981    4.1530    2.8597 C   0  0  0  0  0  0  0  0  0  0  0  0
    4.6088    4.9266    0.9266 H   0  0  0  0  0  0  0  0  0  0  0  0
    4.7275    4.9302    3.5896 H   0  0  0  0  0  0  0  0  0  0  0  0
    4.7885    3.1609    3.2860 H   0  0  0  0  0  0  0  0  0  0  0  0
    6.0692    4.2308    2.6215 H   0  0  0  0  0  0  0  0  0  0  0  0
 22 24  2  0  0  0  0
 24 26  1  0  0  0  0
 25 26  2  0  0  0  0
 23 25  1  0  0  0  0
 21 22  1  0  0  0  0
 22 23  1  0  0  0  0
  1  3  1  0  0  0  0
  1  7  1  0  0  0  0
  1  2  2  0  0  0  0
 35 36  1  0  0  0  0
 36 44  1  0  0  0  0
 36 37  2  0  0  0  0
  8  9  1  0  0  0  0
  9 17  1  0  0  0  0
  9 10  2  0  0  0  0
 18 19  1  0  0  0  0
 19 34  1  0  0  0  0
 19 20  2  0  0  0  0
 35 38  1  0  0  0  0
  8 11  1  0  0  0  0
 44 45  1  0  0  0  0
 18 21  1  0  0  0  0
 34 35  1  0  0  0  0
  7  8  1  0  0  0  0
 17 18  1  0  0  0  0
 24 32  1  0  0  0  0
 25 33  1  0  0  0  0
  3  4  1  0  0  0  0
  3  5  1  0  0  0  0
  3  6  1  0  0  0  0
 38 41  1  0  0  0  0
 38 42  1  0  0  0  0
 38 43  1  0  0  0  0
 11 14  1  0  0  0  0
 11 15  1  0  0  0  0
 11 16  1  0  0  0  0
 45 47  1  0  0  0  0
 45 48  1  0  0  0  0
 45 49  1  0  0  0  0
 21 29  1  0  0  0  0
 21 30  1  0  0  0  0
 35 40  1  0  0  0  0
  8 13  1  0  0  0  0
 18 28  1  0  0  0  0
 23 31  1  0  0  0  0
 44 46  1  0  0  0  0
  7 12  1  0  0  0  0
 34 39  1  0  0  0  0
 17 27  1  0  0  0  0
M  END
$$$$

  -OEChem-02062319033D

 49 49  0     1  0  0  0  0  0999 V2000
   -1.5619    0.5658    3.7981 C   0  0  0  0  0  0  0  0  0  0  0  0
   -0.6145   -0.0489    3.3224 O   0  0  0  0  0  0  0  0  0  0  0  0
   -1.9938    0.2834    5.1988 C   0  0  0  0  0  0  0  0  0  0  0  0
   -2.7535   -0.5129    5.2522 H   0  0  0  0  0  0  0  0  0  0  0  0
   -1.1626   -0.0642    5.8331 H   0  0  0  0  0  0  0  0  0  0  0  0
   -2.4318    1.1383    5.7384 H   0  0  0  0  0  0  0  0  0  0  0  0
   -2.3116    1.5383    3.1570 N   0  0  0  0  0  0  0  0  0  0  0  0
   -2.0648    1.9643    1.8046 C   0  0  2  0  0  0  0  0  0  0  0  0
   -0.7298    1.3789    1.3634 C   0  0  0  0  0  0  0  0  0  0  0  0
    0.1423    1.0262    2.1547 O   0  0  0  0  0  0  0  0  0  0  0  0
   -2.0560    3.4811    1.6952 C   0  0  0  0  0  0  0  0  0  0  0  0
   -3.0767    1.9741    3.6688 H   0  0  0  0  0  0  0  0  0  0  0  0
   -2.8689    1.5458    1.1895 H   0  0  0  0  0  0  0  0  0  0  0  0
   -1.2569    3.9183    2.3049 H   0  0  0  0  0  0  0  0  0  0  0  0
   -1.8965    3.8033    0.6609 H   0  0  0  0  0  0  0  0  0  0  0  0
   -3.0062    3.9023    2.0409 H   0  0  0  0  0  0  0  0  0  0  0  0
   -0.6071    1.3358   -0.0200 N   0  0  0  0  0  0  0  0  0  0  0  0
    0.4012    0.5536   -0.6899 C   0  0  2  0  0  0  0  0  0  0  0  0
    1.7571    1.0645   -0.2159 C   0  0  0  0  0  0  0  0  0  0  0  0
    2.6886    0.3176    0.0764 O   0  0  0  0  0  0  0  0  0  0  0  0
    0.2961    0.6580   -2.2157 C   0  0  0  0  0  0  0  0  0  0  0  0
   -0.9946    0.0885   -2.7521 C   0  0  0  0  0  0  0  0  0  0  0  0
   -1.2300   -1.2547   -2.8394 N   0  0  0  0  0  0  0  0  0  0  0  0
   -2.1380    0.6786   -3.2368 C   0  0  0  0  0  0  0  0  0  0  0  0
   -2.4820   -1.4181   -3.3639 C   0  0  0  0  0  0  0  0  0  0  0  0
   -3.0601   -0.2647   -3.6156 N   0  0  0  0  0  0  0  0  0  0  0  0
   -1.2758    1.8441   -0.5937 H   0  0  0  0  0  0  0  0  0  0  0  0
    0.2694   -0.4811   -0.3521 H   0  0  0  0  0  0  0  0  0  0  0  0
    1.1482    0.1535   -2.6911 H   0  0  0  0  0  0  0  0  0  0  0  0
    0.3679    1.7063   -2.5343 H   0  0  0  0  0  0  0  0  0  0  0  0
   -0.5959   -1.9947   -2.5679 H   0  0  0  0  0  0  0  0  0  0  0  0
   -2.3467    1.7346   -3.3332 H   0  0  0  0  0  0  0  0  0  0  0  0
   -2.9093   -2.3958   -3.5357 H   0  0  0  0  0  0  0  0  0  0  0  0
    1.8157    2.4512   -0.2071 N   0  0  0  0  0  0  0  0  0  0  0  0
    2.9945    3.1931    0.1786 C   0  0  2  0  0  0  0  0  0  0  0  0
    3.4796    2.6444    1.5139 C   0  0  0  0  0  0  0  0  0  0  0  0
    2.7494    2.0381    2.2951 O   0  0  0  0  0  0  0  0  0  0  0  0
    2.7033    4.6826    0.2765 C   0  0  0  0  0  0  0  0  0  0  0  0
    0.9886    2.9706   -0.4858 H   0  0  0  0  0  0  0  0  0  0  0  0
    3.7517    3.0060   -0.5906 H   0  0  0  0  0  0  0  0  0  0  0  0
    1.9468    4.8896    1.0421 H   0  0  0  0  0  0  0  0  0  0  0  0
    3.6040    5.2464    0.5408 H   0  0  0  0  0  0  0  0  0  0  0  0
    2.3263    5.0694   -0.6764 H   0  0  0  0  0  0  0  0  0  0  0  0
    4.8129    2.9490    1.7499 N   0  0  0  0  0  0  0  0  0  0  0  0
    5.5025    2.5494    2.9544 C   0  0  0  0  0  0  0  0  0  0  0  0
    5.3470    3.4391    1.0384 H   0  0  0  0  0  0  0  0  0  0  0  0
    5.4332    3.3540    3.7012 H   0  0  0  0  0  0  0  0  0  0  0  0
    5.0397    1.6358    3.3558 H   0  0  0  0  0  0  0  0  0  0  0  0
    6.5601    2.3537    2.7235 H   0  0  0  0  0  0  0  0  0  0  0  0
 22 24  2  0  0  0  0
 24 26  1  0  0  0  0
 25 26  2  0  0  0  0
 23 25  1  0  0  0  0
 21 22  1  0  0  0  0
 22 23  1  0  0  0  0
  1  3  1  0  0  0  0
  1  7  1  0  0  0  0
  1  2  2  0  0  0  0
 35 36  1  0  0  0  0
 36 44  1  0  0  0  0
 36 37  2  0  0  0  0
  8  9  1  0  0  0  0
  9 17  1  0  0  0  0
  9 10  2  0  0  0  0
 18 19  1  0  0  0  0
 19 34  1  0  0  0  0
 19 20  2  0  0  0  0
 35 38  1  0  0  0  0
  8 11  1  0  0  0  0
 44 45  1  0  0  0  0
 18 21  1  0  0  0  0
 34 35  1  0  0  0  0
  7  8  1  0  0  0  0
 17 18  1  0  0  0  0
 24 32  1  0  0  0  0
 25 33  1  0  0  0  0
  3  4  1  0  0  0  0
  3  5  1  0  0  0  0
  3  6  1  0  0  0  0
 38 41  1  0  0  0  0
 38 42  1  0  0  0  0
 38 43  1  0  0  0  0
 11 14  1  0  0  0  0
 11 15  1  0  0  0  0
 11 16  1  0  0  0  0
 45 47  1  0  0  0  0
 45 48  1  0  0  0  0
 45 49  1  0  0  0  0
 21 29  1  0  0  0  0
 21 30  1  0  0  0  0
 35 40  1  0  0  0  0
  8 13  1  0  0  0  0
 18 28  1  0  0  0  0
 23 31  1  0  0  0  0
 44 46  1  0  0  0  0
  7 12  1  0  0  0  0
 34 39  1  0  0  0  0
 17 27  1  0  0  0  0
M  END
$$$$

  -OEChem-02062319033D

 49 49  0     1  0  0  0  0  0999 V2000
   -1.5619    0.5658    3.7981 C   0  0  0  0  0  0  0  0  0  0  0  0
   -0.6145   -0.0489    3.3224 O   0  0  0  0  0  0  0  0  0  0  0  0
   -1.9938    0.2834    5.1988 C   0  0  0  0  0  0  0  0  0  0  0  0
   -2.7535   -0.5129    5.2522 H   0  0  0  0  0  0  0  0  0  0  0  0
   -1.1626   -0.0642    5.8331 H   0  0  0  0  0  0  0  0  0  0  0  0
   -2.4318    1.1383    5.7384 H   0  0  0  0  0  0  0  0  0  0  0  0
   -2.3116    1.5383    3.1570 N   0  0  0  0  0  0  0  0  0  0  0  0
   -2.0648    1.9643    1.8046 C   0  0  2  0  0  0  0  0  0  0  0  0
   -0.7298    1.3789    1.3634 C   0  0  0  0  0  0  0  0  0  0  0  0
    0.1423    1.0262    2.1547 O   0  0  0  0  0  0  0  0  0  0  0  0
   -2.0560    3.4811    1.6952 C   0  0  0  0  0  0  0  0  0  0  0  0
   -3.0767    1.9741    3.6688 H   0  0  0  0  0  0  0  0  0  0  0  0
   -2.8689    1.5458    1.1895 H   0  0  0  0  0  0  0  0  0  0  0  0
   -1.2569    3.9183    2.3049 H   0  0  0  0  0  0  0  0  0  0  0  0
   -1.8965    3.8033    0.6609 H   0  0  0  0  0  0  0  0  0  0  0  0
   -3.0062    3.9023    2.0409 H   0  0  0  0  0  0  0  0  0  0  0  0
   -0.6071    1.3358   -0.0200 N   0  0  0  0  0  0  0  0  0  0  0  0
    0.1730    0.3349   -0.7033 C   0  0  2  0  0  0  0  0  0  0  0  0
    1.6094    0.4685   -0.2104 C   0  0  0  0  0  0  0  0  0  0  0  0
    2.3139   -0.4994    0.0686 O   0  0  0  0  0  0  0  0  0  0  0  0
    0.1151    0.4961   -2.2267 C   0  0  0  0  0  0  0  0  0  0  0  0
   -1.2726    0.2904   -2.7831 C   0  0  0  0  0  0  0  0  0  0  0  0
   -1.8451   -0.9445   -2.9036 N   0  0  0  0  0  0  0  0  0  0  0  0
   -2.2201    1.1657   -3.2593 C   0  0  0  0  0  0  0  0  0  0  0  0
   -3.0911   -0.7682   -3.4381 C   0  0  0  0  0  0  0  0  0  0  0  0
   -3.3498    0.5004   -3.6652 N   0  0  0  0  0  0  0  0  0  0  0  0
   -1.1160    2.0116   -0.5848 H   0  0  0  0  0  0  0  0  0  0  0  0
   -0.2246   -0.6380   -0.3910 H   0  0  0  0  0  0  0  0  0  0  0  0
    0.8138   -0.2005   -2.7097 H   0  0  0  0  0  0  0  0  0  0  0  0
    0.4581    1.4972   -2.5198 H   0  0  0  0  0  0  0  0  0  0  0  0
   -1.4261   -1.8287   -2.6467 H   0  0  0  0  0  0  0  0  0  0  0  0
   -2.1486    2.2416   -3.3314 H   0  0  0  0  0  0  0  0  0  0  0  0
   -3.7539   -1.5987   -3.6354 H   0  0  0  0  0  0  0  0  0  0  0  0
    2.0232    1.7927   -0.1682 N   0  0  0  0  0  0  0  0  0  0  0  0
    3.3490    2.1972    0.2411 C   0  0  2  0  0  0  0  0  0  0  0  0
    3.6616    1.5130    1.5653 C   0  0  0  0  0  0  0  0  0  0  0  0
    2.7913    1.0985    2.3281 O   0  0  0  0  0  0  0  0  0  0  0  0
    3.4502    3.7088    0.3730 C   0  0  0  0  0  0  0  0  0  0  0  0
    1.3609    2.5138   -0.4385 H   0  0  0  0  0  0  0  0  0  0  0  0
    4.0409    1.8380   -0.5286 H   0  0  0  0  0  0  0  0  0  0  0  0
    2.7642    4.0871    1.1396 H   0  0  0  0  0  0  0  0  0  0  0  0
    4.4628    4.0155    0.6553 H   0  0  0  0  0  0  0  0  0  0  0  0
    3.1961    4.2004   -0.5722 H   0  0  0  0  0  0  0  0  0  0  0  0
    5.0257    1.4583    1.8152 N   0  0  0  0  0  0  0  0  0  0  0  0
    5.5758    0.8683    3.0133 C   0  0  0  0  0  0  0  0  0  0  0  0
    5.6758    1.8096    1.1183 H   0  0  0  0  0  0  0  0  0  0  0  0
    5.7079    1.6471    3.7788 H   0  0  0  0  0  0  0  0  0  0  0  0
    4.8889    0.0964    3.3904 H   0  0  0  0  0  0  0  0  0  0  0  0
    6.5497    0.4117    2.7831 H   0  0  0  0  0  0  0  0  0  0  0  0
 22 24  2  0  0  0  0
 24 26  1  0  0  0  0
 25 26  2  0  0  0  0
 23 25  1  0  0  0  0
 21 22  1  0  0  0  0
 22 23  1  0  0  0  0
  1  3  1  0  0  0  0
  1  7  1  0  0  0  0
  1  2  2  0  0  0  0
 35 36  1  0  0  0  0
 36 44  1  0  0  0  0
 36 37  2  0  0  0  0
  8  9  1  0  0  0  0
  9 17  1  0  0  0  0
  9 10  2  0  0  0  0
 18 19  1  0  0  0  0
 19 34  1  0  0  0  0
 19 20  2  0  0  0  0
 35 38  1  0  0  0  0
  8 11  1  0  0  0  0
 44 45  1  0  0  0  0
 18 21  1  0  0  0  0
 34 35  1  0  0  0  0
  7  8  1  0  0  0  0
 17 18  1  0  0  0  0
 24 32  1  0  0  0  0
 25 33  1  0  0  0  0
  3  4  1  0  0  0  0
  3  5  1  0  0  0  0
  3  6  1  0  0  0  0
 38 41  1  0  0  0  0
 38 42  1  0  0  0  0
 38 43  1  0  0  0  0
 11 14  1  0  0  0  0
 11 15  1  0  0  0  0
 11 16  1  0  0  0  0
 45 47  1  0  0  0  0
 45 48  1  0  0  0  0
 45 49  1  0  0  0  0
 21 29  1  0  0  0  0
 21 30  1  0  0  0  0
 35 40  1  0  0  0  0
  8 13  1  0  0  0  0
 18 28  1  0  0  0  0
 23 31  1  0  0  0  0
 44 46  1  0  0  0  0
  7 12  1  0  0  0  0
 34 39  1  0  0  0  0
 17 27  1  0  0  0  0
M  END
$$$$

  -OEChem-02062319033D

 49 49  0     1  0  0  0  0  0999 V2000
   -1.5619    0.5658    3.7981 C   0  0  0  0  0  0  0  0  0  0  0  0
   -0.6145   -0.0489    3.3224 O   0  0  0  0  0  0  0  0  0  0  0  0
   -1.9938    0.2834    5.1988 C   0  0  0  0  0  0  0  0  0  0  0  0
   -2.7535   -0.5129    5.2522 H   0  0  0  0  0  0  0  0  0  0  0  0
   -1.1626   -0.0642    5.8331 H   0  0  0  0  0  0  0  0  0  0  0  0
   -2.4318    1.1383    5.7384 H   0  0  0  0  0  0  0  0  0  0  0  0
   -2.3116    1.5383    3.1570 N   0  0  0  0  0  0  0  0  0  0  0  0
   -2.0648    1.9643    1.8046 C   0  0  2  0  0  0  0  0  0  0  0  0
   -0.7298    1.3789    1.3634 C   0  0  0  0  0  0  0  0  0  0  0  0
    0.1423    1.0262    2.1547 O   0  0  0  0  0  0  0  0  0  0  0  0
   -2.0560    3.4811    1.6952 C   0  0  0  0  0  0  0  0  0  0  0  0
   -3.0767    1.9741    3.6688 H   0  0  0  0  0  0  0  0  0  0  0  0
   -2.8689    1.5458    1.1895 H   0  0  0  0  0  0  0  0  0  0  0  0
   -1.2569    3.9183    2.3049 H   0  0  0  0  0  0  0  0  0  0  0  0
   -1.8965    3.8033    0.6609 H   0  0  0  0  0  0  0  0  0  0  0  0
   -3.0062    3.9023    2.0409 H   0  0  0  0  0  0  0  0  0  0  0  0
   -0.6071    1.3358   -0.0200 N   0  0  0  0  0  0  0  0  0  0  0  0
   -0.1037    0.1828   -0.7231 C   0  0  2  0  0  0  0  0  0  0  0  0
    1.3132   -0.0692   -0.2199 C   0  0  0  0  0  0  0  0  0  0  0  0
    1.7414   -1.1918    0.0395 O   0  0  0  0  0  0  0  0  0  0  0  0
   -0.1013    0.3866   -2.2425 C   0  0  0  0  0  0  0  0  0  0  0  0
   -1.4889    0.5578   -2.8106 C   0  0  0  0  0  0  0  0  0  0  0  0
   -2.3588   -0.4849   -2.9635 N   0  0  0  0  0  0  0  0  0  0  0  0
   -2.1737    1.6578   -3.2705 C   0  0  0  0  0  0  0  0  0  0  0  0
   -3.5114    0.0182   -3.4999 C   0  0  0  0  0  0  0  0  0  0  0  0
   -3.4321    1.3153   -3.6979 N   0  0  0  0  0  0  0  0  0  0  0  0
   -0.9184    2.1321   -0.5710 H   0  0  0  0  0  0  0  0  0  0  0  0
   -0.7418   -0.6613   -0.4361 H   0  0  0  0  0  0  0  0  0  0  0  0
    0.3996   -0.4558   -2.7385 H   0  0  0  0  0  0  0  0  0  0  0  0
    0.4912    1.2716   -2.5098 H   0  0  0  0  0  0  0  0  0  0  0  0
   -2.1846   -1.4526   -2.7257 H   0  0  0  0  0  0  0  0  0  0  0  0
   -1.8267    2.6803   -3.3165 H   0  0  0  0  0  0  0  0  0  0  0  0
   -4.3636   -0.6088   -3.7203 H   0  0  0  0  0  0  0  0  0  0  0  0
    2.0536    1.1023   -0.1440 N   0  0  0  0  0  0  0  0  0  0  0  0
    3.4342    1.1424    0.2815 C   0  0  2  0  0  0  0  0  0  0  0  0
    3.5455    0.3720    1.5906 C   0  0  0  0  0  0  0  0  0  0  0  0
    2.5894    0.1794    2.3388 O   0  0  0  0  0  0  0  0  0  0  0  0
    3.9200    2.5736    0.4501 C   0  0  0  0  0  0  0  0  0  0  0  0
    1.6024    1.9755   -0.4004 H   0  0  0  0  0  0  0  0  0  0  0  0
    4.0187    0.6339   -0.4930 H   0  0  0  0  0  0  0  0  0  0  0  0
    3.3461    3.0991    1.2220 H   0  0  0  0  0  0  0  0  0  0  0  0
    4.9742    2.6026    0.7447 H   0  0  0  0  0  0  0  0  0  0  0  0
    3.8115    3.1346   -0.4844 H   0  0  0  0  0  0  0  0  0  0  0  0
    4.8466   -0.0378    1.8460 N   0  0  0  0  0  0  0  0  0  0  0  0
    5.2129   -0.7757    3.0323 C   0  0  0  0  0  0  0  0  0  0  0  0
    5.5729    0.1491    1.1610 H   0  0  0  0  0  0  0  0  0  0  0  0
    5.5327   -0.0741    3.8169 H   0  0  0  0  0  0  0  0  0  0  0  0
    4.3462   -1.3525    3.3874 H   0  0  0  0  0  0  0  0  0  0  0  0
    6.0388   -1.4628    2.7962 H   0  0  0  0  0  0  0  0  0  0  0  0
 22 24  2  0  0  0  0
 24 26  1  0  0  0  0
 25 26  2  0  0  0  0
 23 25  1  0  0  0  0
 21 22  1  0  0  0  0
 22 23  1  0  0  0  0
  1  3  1  0  0  0  0
  1  7  1  0  0  0  0
  1  2  2  0  0  0  0
 35 36  1  0  0  0  0
 36 44  1  0  0  0  0
 36 37  2  0  0  0  0
  8  9  1  0  0  0  0
  9 17  1  0  0  0  0
  9 10  2  0  0  0  0
 18 19  1  0  0  0  0
 19 34  1  0  0  0  0
 19 20  2  0  0  0  0
 35 38  1  0  0  0  0
  8 11  1  0  0  0  0
 44 45  1  0  0  0  0
 18 21  1  0  0  0  0
 34 35  1  0  0  0  0
  7  8  1  0  0  0  0
 17 18  1  0  0  0  0
 24 32  1  0  0  0  0
 25 33  1  0  0  0  0
  3  4  1  0  0  0  0
  3  5  1  0  0  0  0
  3  6  1  0  0  0  0
 38 41  1  0  0  0  0
 38 42  1  0  0  0  0
 38 43  1  0  0  0  0
 11 14  1  0  0  0  0
 11 15  1  0  0  0  0
 11 16  1  0  0  0  0
 45 47  1  0  0  0  0
 45 48  1  0  0  0  0
 45 49  1  0  0  0  0
 21 29  1  0  0  0  0
 21 30  1  0  0  0  0
 35 40  1  0  0  0  0
  8 13  1  0  0  0  0
 18 28  1  0  0  0  0
 23 31  1  0  0  0  0
 44 46  1  0  0  0  0
  7 12  1  0  0  0  0
 34 39  1  0  0  0  0
 17 27  1  0  0  0  0
M  END
$$$$

  -OEChem-02062319033D

 49 49  0     1  0  0  0  0  0999 V2000
   -1.5619    0.5658    3.7981 C   0  0  0  0  0  0  0  0  0  0  0  0
   -0.6145   -0.0489    3.3224 O   0  0  0  0  0  0  0  0  0  0  0  0
   -1.9938    0.2834    5.1988 C   0  0  0  0  0  0  0  0  0  0  0  0
   -2.7535   -0.5129    5.2522 H   0  0  0  0  0  0  0  0  0  0  0  0
   -1.1626   -0.0642    5.8331 H   0  0  0  0  0  0  0  0  0  0  0  0
   -2.4318    1.1383    5.7384 H   0  0  0  0  0  0  0  0  0  0  0  0
   -2.3116    1.5383    3.1570 N   0  0  0  0  0  0  0  0  0  0  0  0
   -2.0648    1.9643    1.8046 C   0  0  2  0  0  0  0  0  0  0  0  0
   -0.7298    1.3789    1.3634 C   0  0  0  0  0  0  0  0  0  0  0  0
    0.1423    1.0262    2.1547 O   0  0  0  0  0  0  0  0  0  0  0  0
   -2.0560    3.4811    1.6952 C   0  0  0  0  0  0  0  0  0  0  0  0
   -3.0767    1.9741    3.6688 H   0  0  0  0  0  0  0  0  0  0  0  0
   -2.8689    1.5458    1.1895 H   0  0  0  0  0  0  0  0  0  0  0  0
   -1.2569    3.9183    2.3049 H   0  0  0  0  0  0  0  0  0  0  0  0
   -1.8965    3.8033    0.6609 H   0  0  0  0  0  0  0  0  0  0  0  0
   -3.0062    3.9023    2.0409 H   0  0  0  0  0  0  0  0  0  0  0  0
   -0.6071    1.3358   -0.0200 N   0  0  0  0  0  0  0  0  0  0  0  0
   -0.4100    0.1076   -0.7479 C   0  0  2  0  0  0  0  0  0  0  0  0
    0.8885   -0.5120   -0.2437 C   0  0  0  0  0  0  0  0  0  0  0  0
    1.0103   -1.7124   -0.0091 O   0  0  0  0  0  0  0  0  0  0  0  0
   -0.3384    0.3369   -2.2620 C   0  0  0  0  0  0  0  0  0  0  0  0
   -1.6288    0.8724   -2.8328 C   0  0  0  0  0  0  0  0  0  0  0  0
   -2.7362    0.0928   -3.0149 N   0  0  0  0  0  0  0  0  0  0  0  0
   -2.0019    2.1215   -3.2697 C   0  0  0  0  0  0  0  0  0  0  0  0
   -3.7142    0.8876   -3.5450 C   0  0  0  0  0  0  0  0  0  0  0  0
   -3.3013    2.1244   -3.7115 N   0  0  0  0  0  0  0  0  0  0  0  0
   -0.6967    2.1972   -0.5534 H   0  0  0  0  0  0  0  0  0  0  0  0
   -1.2471   -0.5495   -0.4844 H   0  0  0  0  0  0  0  0  0  0  0  0
   -0.0659   -0.5951   -2.7754 H   0  0  0  0  0  0  0  0  0  0  0  0
    0.4650    1.0449   -2.5051 H   0  0  0  0  0  0  0  0  0  0  0  0
   -2.8197   -0.8921   -2.7994 H   0  0  0  0  0  0  0  0  0  0  0  0
   -1.4028    3.0207   -3.2896 H   0  0  0  0  0  0  0  0  0  0  0  0
   -4.6967    0.5063   -3.7846 H   0  0  0  0  0  0  0  0  0  0  0  0
    1.9048    0.4271   -0.1361 N   0  0  0  0  0  0  0  0  0  0  0  0
    3.2444    0.1006    0.2971 C   0  0  2  0  0  0  0  0  0  0  0  0
    3.1390   -0.7007    1.5880 C   0  0  0  0  0  0  0  0  0  0  0  0
    2.1574   -0.6567    2.3266 O   0  0  0  0  0  0  0  0  0  0  0  0
    4.0806    1.3542    0.5023 C   0  0  0  0  0  0  0  0  0  0  0  0
    1.6967    1.3925   -0.3738 H   0  0  0  0  0  0  0  0  0  0  0  0
    3.6867   -0.5244   -0.4863 H   0  0  0  0  0  0  0  0  0  0  0  0
    3.6530    1.9930    1.2837 H   0  0  0  0  0  0  0  0  0  0  0  0
    5.1034    1.1041    0.8029 H   0  0  0  0  0  0  0  0  0  0  0  0
    4.1306    1.9444   -0.4191 H   0  0  0  0  0  0  0  0  0  0  0  0
    4.2878   -1.4376    1.8400 N   0  0  0  0  0  0  0  0  0  0  0  0
    4.4386   -2.2706    3.0103 C   0  0  0  0  0  0  0  0  0  0  0  0
    5.0453   -1.4293    1.1634 H   0  0  0  0  0  0  0  0  0  0  0  0
    4.9196   -1.6924    3.8130 H   0  0  0  0  0  0  0  0  0  0  0  0
    3.4487   -2.6121    3.3471 H   0  0  0  0  0  0  0  0  0  0  0  0
    5.0622   -3.1421    2.7619 H   0  0  0  0  0  0  0  0  0  0  0  0
 22 24  2  0  0  0  0
 24 26  1  0  0  0  0
 25 26  2  0  0  0  0
 23 25  1  0  0  0  0
 21 22  1  0  0  0  0
 22 23  1  0  0  0  0
  1  3  1  0  0  0  0
  1  7  1  0  0  0  0
  1  2  2  0  0  0  0
 35 36  1  0  0  0  0
 36 44  1  0  0  0  0
 36 37  2  0  0  0  0
  8  9  1  0  0  0  0
  9 17  1  0  0  0  0
  9 10  2  0  0  0  0
 18 19  1  0  0  0  0
 19 34  1  0  0  0  0
 19 20  2  0  0  0  0
 35 38  1  0  0  0  0
  8 11  1  0  0  0  0
 44 45  1  0  0  0  0
 18 21  1  0  0  0  0
 34 35  1  0  0  0  0
  7  8  1  0  0  0  0
 17 18  1  0  0  0  0
 24 32  1  0  0  0  0
 25 33  1  0  0  0  0
  3  4  1  0  0  0  0
  3  5  1  0  0  0  0
  3  6  1  0  0  0  0
 38 41  1  0  0  0  0
 38 42  1  0  0  0  0
 38 43  1  0  0  0  0
 11 14  1  0  0  0  0
 11 15  1  0  0  0  0
 11 16  1  0  0  0  0
 45 47  1  0  0  0  0
 45 48  1  0  0  0  0
 45 49  1  0  0  0  0
 21 29  1  0  0  0  0
 21 30  1  0  0  0  0
 35 40  1  0  0  0  0
  8 13  1  0  0  0  0
 18 28  1  0  0  0  0
 23 31  1  0  0  0  0
 44 46  1  0  0  0  0
  7 12  1  0  0  0  0
 34 39  1  0  0  0  0
 17 27  1  0  0  0  0
M  END
$$$$

  -OEChem-02062319033D

 49 49  0     1  0  0  0  0  0999 V2000
   -1.5619    0.5658    3.7981 C   0  0  0  0  0  0  0  0  0  0  0  0
   -0.6145   -0.0489    3.3224 O   0  0  0  0  0  0  0  0  0  0  0  0
   -1.9938    0.2834    5.1988 C   0  0  0  0  0  0  0  0  0  0  0  0
   -2.7535   -0.5129    5.2522 H   0  0  0  0  0  0  0  0  0  0  0  0
   -1.1626   -0.0642    5.8331 H   0  0  0  0  0  0  0  0  0  0  0  0
   -2.4318    1.1383    5.7384 H   0  0  0  0  0  0  0  0  0  0  0  0
   -2.3116    1.5383    3.1570 N   0  0  0  0  0  0  0  0  0  0  0  0
   -2.0648    1.9643    1.8046 C   0  0  2  0  0  0  0  0  0  0  0  0
   -0.7298    1.3789    1.3634 C   0  0  0  0  0  0  0  0  0  0  0  0
    0.1423    1.0262    2.1547 O   0  0  0  0  0  0  0  0  0  0  0  0
   -2.0560    3.4811    1.6952 C   0  0  0  0  0  0  0  0  0  0  0  0
   -3.0767    1.9741    3.6688 H   0  0  0  0  0  0  0  0  0  0  0  0
   -2.8689    1.5458    1.1895 H   0  0  0  0  0  0  0  0  0  0  0  0
   -1.2569    3.9183    2.3049 H   0  0  0  0  0  0  0  0  0  0  0  0
   -1.8965    3.8033    0.6609 H   0  0  0  0  0  0  0  0  0  0  0  0
   -3.0062    3.9023    2.0409 H   0  0  0  0  0  0  0  0  0  0  0  0
   -0.6071    1.3358   -0.0200 N   0  0  0  0  0  0  0  0  0  0  0  0
   -0.7250    0.1144   -0.7760 C   0  0  2  0  0  0  0  0  0  0  0  0
    0.3644   -0.8298   -0.2803 C   0  0  0  0  0  0  0  0  0  0  0  0
    0.1703   -2.0258   -0.0738 O   0  0  0  0  0  0  0  0  0  0  0  0
   -0.5800    0.3505   -2.2838 C   0  0  0  0  0  0  0  0  0  0  0  0
   -1.6826    1.2128   -2.8482 C   0  0  0  0  0  0  0  0  0  0  0  0
   -2.9513    0.7492   -3.0544 N   0  0  0  0  0  0  0  0  0  0  0  0
   -1.7165    2.5252   -3.2570 C   0  0  0  0  0  0  0  0  0  0  0  0
   -3.6858    1.7806   -3.5703 C   0  0  0  0  0  0  0  0  0  0  0  0
   -2.9664    2.8725   -3.7051 N   0  0  0  0  0  0  0  0  0  0  0  0
   -0.4659    2.2026   -0.5331 H   0  0  0  0  0  0  0  0  0  0  0  0
   -1.7060   -0.3103   -0.5326 H   0  0  0  0  0  0  0  0  0  0  0  0
   -0.5512   -0.6088   -2.8180 H   0  0  0  0  0  0  0  0  0  0  0  0
    0.3812    0.8326   -2.5059 H   0  0  0  0  0  0  0  0  0  0  0  0
   -3.2882   -0.1853   -2.8630 H   0  0  0  0  0  0  0  0  0  0  0  0
   -0.9058    3.2397   -3.2523 H   0  0  0  0  0  0  0  0  0  0  0  0
   -4.7306    1.6708   -3.8239 H   0  0  0  0  0  0  0  0  0  0  0  0
    1.5871   -0.1869   -0.1452 N   0  0  0  0  0  0  0  0  0  0  0  0
    2.7925   -0.8571    0.2869 C   0  0  2  0  0  0  0  0  0  0  0  0
    2.4701   -1.6321    1.5577 C   0  0  0  0  0  0  0  0  0  0  0  0
    1.5248   -1.3526    2.2922 O   0  0  0  0  0  0  0  0  0  0  0  0
    3.9211    0.1338    0.5262 C   0  0  0  0  0  0  0  0  0  0  0  0
    1.6373    0.8044   -0.3608 H   0  0  0  0  0  0  0  0  0  0  0  0
    3.0675   -1.5577   -0.5090 H   0  0  0  0  0  0  0  0  0  0  0  0
    3.6638    0.8440    1.3205 H   0  0  0  0  0  0  0  0  0  0  0  0
    4.8416   -0.3780    0.8258 H   0  0  0  0  0  0  0  0  0  0  0  0
    4.1316    0.7111   -0.3805 H   0  0  0  0  0  0  0  0  0  0  0  0
    3.3874   -2.6455    1.7979 N   0  0  0  0  0  0  0  0  0  0  0  0
    3.3056   -3.5145    2.9486 C   0  0  0  0  0  0  0  0  0  0  0  0
    4.1289   -2.8180    1.1254 H   0  0  0  0  0  0  0  0  0  0  0  0
    3.9104   -3.0976    3.7673 H   0  0  0  0  0  0  0  0  0  0  0  0
    2.2575   -3.5966    3.2722 H   0  0  0  0  0  0  0  0  0  0  0  0
    3.6864   -4.5117    2.6826 H   0  0  0  0  0  0  0  0  0  0  0  0
 22 24  2  0  0  0  0
 24 26  1  0  0  0  0
 25 26  2  0  0  0  0
 23 25  1  0  0  0  0
 21 22  1  0  0  0  0
 22 23  1  0  0  0  0
  1  3  1  0  0  0  0
  1  7  1  0  0  0  0
  1  2  2  0  0  0  0
 35 36  1  0  0  0  0
 36 44  1  0  0  0  0
 36 37  2  0  0  0  0
  8  9  1  0  0  0  0
  9 17  1  0  0  0  0
  9 10  2  0  0  0  0
 18 19  1  0  0  0  0
 19 34  1  0  0  0  0
 19 20  2  0  0  0  0
 35 38  1  0  0  0  0
  8 11  1  0  0  0  0
 44 45  1  0  0  0  0
 18 21  1  0  0  0  0
 34 35  1  0  0  0  0
  7  8  1  0  0  0  0
 17 18  1  0  0  0  0
 24 32  1  0  0  0  0
 25 33  1  0  0  0  0
  3  4  1  0  0  0  0
  3  5  1  0  0  0  0
  3  6  1  0  0  0  0
 38 41  1  0  0  0  0
 38 42  1  0  0  0  0
 38 43  1  0  0  0  0
 11 14  1  0  0  0  0
 11 15  1  0  0  0  0
 11 16  1  0  0  0  0
 45 47  1  0  0  0  0
 45 48  1  0  0  0  0
 45 49  1  0  0  0  0
 21 29  1  0  0  0  0
 21 30  1  0  0  0  0
 35 40  1  0  0  0  0
  8 13  1  0  0  0  0
 18 28  1  0  0  0  0
 23 31  1  0  0  0  0
 44 46  1  0  0  0  0
  7 12  1  0  0  0  0
 34 39  1  0  0  0  0
 17 27  1  0  0  0  0
M  END
$$$$

  -OEChem-02062319033D

 49 49  0     1  0  0  0  0  0999 V2000
   -1.5619    0.5658    3.7981 C   0  0  0  0  0  0  0  0  0  0  0  0
   -0.6145   -0.0489    3.3224 O   0  0  0  0  0  0  0  0  0  0  0  0
   -1.9938    0.2834    5.1988 C   0  0  0  0  0  0  0  0  0  0  0  0
   -2.7535   -0.5129    5.2522 H   0  0  0  0  0  0  0  0  0  0  0  0
   -1.1626   -0.0642    5.8331 H   0  0  0  0  0  0  0  0  0  0  0  0
   -2.4318    1.1383    5.7384 H   0  0  0  0  0  0  0  0  0  0  0  0
   -2.3116    1.5383    3.1570 N   0  0  0  0  0  0  0  0  0  0  0  0
   -2.0648    1.9643    1.8046 C   0  0  2  0  0  0  0  0  0  0  0  0
   -0.7298    1.3789    1.3634 C   0  0  0  0  0  0  0  0  0  0  0  0
    0.1423    1.0262    2.1547 O   0  0  0  0  0  0  0  0  0  0  0  0
   -2.0560    3.4811    1.6952 C   0  0  0  0  0  0  0  0  0  0  0  0
   -3.0767    1.9741    3.6688 H   0  0  0  0  0  0  0  0  0  0  0  0
   -2.8689    1.5458    1.1895 H   0  0  0  0  0  0  0  0  0  0  0  0
   -1.2569    3.9183    2.3049 H   0  0  0  0  0  0  0  0  0  0  0  0
   -1.8965    3.8033    0.6609 H   0  0  0  0  0  0  0  0  0  0  0  0
   -3.0062    3.9023    2.0409 H   0  0  0  0  0  0  0  0  0  0  0  0
   -0.6071    1.3358   -0.0200 N   0  0  0  0  0  0  0  0  0  0  0  0
   -1.0273    0.2029   -0.8056 C   0  0  2  0  0  0  0  0  0  0  0  0
   -0.2234   -1.0008   -0.3271 C   0  0  0  0  0  0  0  0  0  0  0  0
   -0.7214   -2.1106   -0.1503 O   0  0  0  0  0  0  0  0  0  0  0  0
   -0.8098    0.4264   -2.3065 C   0  0  0  0  0  0  0  0  0  0  0  0
   -1.6468    1.5559   -2.8557 C   0  0  0  0  0  0  0  0  0  0  0  0
   -2.9897    1.4396   -3.0794 N   0  0  0  0  0  0  0  0  0  0  0  0
   -1.3370    2.8412   -3.2332 C   0  0  0  0  0  0  0  0  0  0  0  0
   -3.4280    2.6364   -3.5741 C   0  0  0  0  0  0  0  0  0  0  0  0
   -2.4502    3.5087   -3.6792 N   0  0  0  0  0  0  0  0  0  0  0  0
   -0.2418    2.1479   -0.5115 H   0  0  0  0  0  0  0  0  0  0  0  0
   -2.0872    0.0402   -0.5773 H   0  0  0  0  0  0  0  0  0  0  0  0
   -1.0232   -0.4961   -2.8634 H   0  0  0  0  0  0  0  0  0  0  0  0
    0.2456    0.6491   -2.5122 H   0  0  0  0  0  0  0  0  0  0  0  0
   -3.5580    0.6195   -2.9120 H   0  0  0  0  0  0  0  0  0  0  0  0
   -0.3696    3.3223   -3.2074 H   0  0  0  0  0  0  0  0  0  0  0  0
   -4.4630    2.8053   -3.8355 H   0  0  0  0  0  0  0  0  0  0  0  0
    1.1221   -0.6980   -0.1705 N   0  0  0  0  0  0  0  0  0  0  0  0
    2.1094   -1.6655    0.2515 C   0  0  2  0  0  0  0  0  0  0  0  0
    1.5841   -2.3587    1.5018 C   0  0  0  0  0  0  0  0  0  0  0  0
    0.7348   -1.8611    2.2380 O   0  0  0  0  0  0  0  0  0  0  0  0
    3.4523   -1.0045    0.5201 C   0  0  0  0  0  0  0  0  0  0  0  0
    1.4283    0.2514   -0.3621 H   0  0  0  0  0  0  0  0  0  0  0  0
    2.2033   -2.3958   -0.5595 H   0  0  0  0  0  0  0  0  0  0  0  0
    3.3780   -0.2694    1.3298 H   0  0  0  0  0  0  0  0  0  0  0  0
    4.2066   -1.7426    0.8121 H   0  0  0  0  0  0  0  0  0  0  0  0
    3.8144   -0.4813   -0.3715 H   0  0  0  0  0  0  0  0  0  0  0  0
    2.2067   -3.5793    1.7223 N   0  0  0  0  0  0  0  0  0  0  0  0
    1.8912   -4.4227    2.8515 C   0  0  0  0  0  0  0  0  0  0  0  0
    2.8861   -3.9224    1.0496 H   0  0  0  0  0  0  0  0  0  0  0  0
    2.5740   -4.1937    3.6830 H   0  0  0  0  0  0  0  0  0  0  0  0
    0.8538   -4.2388    3.1677 H   0  0  0  0  0  0  0  0  0  0  0  0
    2.0052   -5.4783    2.5637 H   0  0  0  0  0  0  0  0  0  0  0  0
 22 24  2  0  0  0  0
 24 26  1  0  0  0  0
 25 26  2  0  0  0  0
 23 25  1  0  0  0  0
 21 22  1  0  0  0  0
 22 23  1  0  0  0  0
  1  3  1  0  0  0  0
  1  7  1  0  0  0  0
  1  2  2  0  0  0  0
 35 36  1  0  0  0  0
 36 44  1  0  0  0  0
 36 37  2  0  0  0  0
  8  9  1  0  0  0  0
  9 17  1  0  0  0  0
  9 10  2  0  0  0  0
 18 19  1  0  0  0  0
 19 34  1  0  0  0  0
 19 20  2  0  0  0  0
 35 38  1  0  0  0  0
  8 11  1  0  0  0  0
 44 45  1  0  0  0  0
 18 21  1  0  0  0  0
 34 35  1  0  0  0  0
  7  8  1  0  0  0  0
 17 18  1  0  0  0  0
 24 32  1  0  0  0  0
 25 33  1  0  0  0  0
  3  4  1  0  0  0  0
  3  5  1  0  0  0  0
  3  6  1  0  0  0  0
 38 41  1  0  0  0  0
 38 42  1  0  0  0  0
 38 43  1  0  0  0  0
 11 14  1  0  0  0  0
 11 15  1  0  0  0  0
 11 16  1  0  0  0  0
 45 47  1  0  0  0  0
 45 48  1  0  0  0  0
 45 49  1  0  0  0  0
 21 29  1  0  0  0  0
 21 30  1  0  0  0  0
 35 40  1  0  0  0  0
  8 13  1  0  0  0  0
 18 28  1  0  0  0  0
 23 31  1  0  0  0  0
 44 46  1  0  0  0  0
  7 12  1  0  0  0  0
 34 39  1  0  0  0  0
 17 27  1  0  0  0  0
M  END
$$$$

  -OEChem-02062319033D

 49 49  0     1  0  0  0  0  0999 V2000
   -1.5619    0.5658    3.7981 C   0  0  0  0  0  0  0  0  0  0  0  0
   -0.6145   -0.0489    3.3224 O   0  0  0  0  0  0  0  0  0  0  0  0
   -1.9938    0.2834    5.1988 C   0  0  0  0  0  0  0  0  0  0  0  0
   -2.7535   -0.5129    5.2522 H   0  0  0  0  0  0  0  0  0  0  0  0
   -1.1626   -0.0642    5.8331 H   0  0  0  0  0  0  0  0  0  0  0  0
   -2.4318    1.1383    5.7384 H   0  0  0  0  0  0  0  0  0  0  0  0
   -2.3116    1.5383    3.1570 N   0  0  0  0  0  0  0  0  0  0  0  0
   -2.0648    1.9643    1.8046 C   0  0  2  0  0  0  0  0  0  0  0  0
   -0.7298    1.3789    1.3634 C   0  0  0  0  0  0  0  0  0  0  0  0
    0.1423    1.0262    2.1547 O   0  0  0  0  0  0  0  0  0  0  0  0
   -2.0560    3.4811    1.6952 C   0  0  0  0  0  0  0  0  0  0  0  0
   -3.0767    1.9741    3.6688 H   0  0  0  0  0  0  0  0  0  0  0  0
   -2.8689    1.5458    1.1895 H   0  0  0  0  0  0  0  0  0  0  0  0
   -1.2569    3.9183    2.3049 H   0  0  0  0  0  0  0  0  0  0  0  0
   -1.8965    3.8033    0.6609 H   0  0  0  0  0  0  0  0  0  0  0  0
   -3.0062    3.9023    2.0409 H   0  0  0  0  0  0  0  0  0  0  0  0
   -0.6071    1.3358   -0.0200 N   0  0  0  0  0  0  0  0  0  0  0  0
   -1.2963    0.3669   -0.8345 C   0  0  2  0  0  0  0  0  0  0  0  0
   -0.8349   -1.0135   -0.3809 C   0  0  0  0  0  0  0  0  0  0  0  0
   -1.6038   -1.9610   -0.2332 O   0  0  0  0  0  0  0  0  0  0  0  0
   -1.0120    0.5594   -2.3286 C   0  0  0  0  0  0  0  0  0  0  0  0
   -1.5237    1.8782   -2.8548 C   0  0  0  0  0  0  0  0  0  0  0  0
   -2.8487    2.1169   -3.0880 N   0  0  0  0  0  0  0  0  0  0  0  0
   -0.8891    3.0481   -3.1999 C   0  0  0  0  0  0  0  0  0  0  0  0
   -2.9584    3.3968   -3.5562 C   0  0  0  0  0  0  0  0  0  0  0  0
   -1.7878    3.9895   -3.6354 N   0  0  0  0  0  0  0  0  0  0  0  0
   -0.0395    2.0368   -0.4901 H   0  0  0  0  0  0  0  0  0  0  0  0
   -2.3648    0.4780   -0.6155 H   0  0  0  0  0  0  0  0  0  0  0  0
   -1.4497   -0.2645   -2.9084 H   0  0  0  0  0  0  0  0  0  0  0  0
    0.0673    0.5070   -2.5235 H   0  0  0  0  0  0  0  0  0  0  0  0
   -3.6109    1.4676   -2.9431 H   0  0  0  0  0  0  0  0  0  0  0  0
    0.1692    3.2630   -3.1577 H   0  0  0  0  0  0  0  0  0  0  0  0
   -3.9120    3.8323   -3.8187 H   0  0  0  0  0  0  0  0  0  0  0  0
    0.5414   -1.0712   -0.2103 N   0  0  0  0  0  0  0  0  0  0  0  0
    1.2414   -2.2695    0.1934 C   0  0  2  0  0  0  0  0  0  0  0  0
    0.5416   -2.8310    1.4240 C   0  0  0  0  0  0  0  0  0  0  0  0
   -0.1590   -2.1474    2.1677 O   0  0  0  0  0  0  0  0  0  0  0  0
    2.7063   -1.9830    0.4845 C   0  0  0  0  0  0  0  0  0  0  0  0
    1.0839   -0.2289   -0.3776 H   0  0  0  0  0  0  0  0  0  0  0  0
    1.1530   -2.9815   -0.6344 H   0  0  0  0  0  0  0  0  0  0  0  0
    2.8149   -1.2714    1.3111 H   0  0  0  0  0  0  0  0  0  0  0  0
    3.2417   -2.8968    0.7625 H   0  0  0  0  0  0  0  0  0  0  0  0
    3.2008   -1.5515   -0.3926 H   0  0  0  0  0  0  0  0  0  0  0  0
    0.8263   -4.1753    1.6185 N   0  0  0  0  0  0  0  0  0  0  0  0
    0.2917   -4.9333    2.7256 C   0  0  0  0  0  0  0  0  0  0  0  0
    1.4017   -4.6672    0.9412 H   0  0  0  0  0  0  0  0  0  0  0  0
    1.0012   -4.9062    3.5657 H   0  0  0  0  0  0  0  0  0  0  0  0
   -0.6667   -4.4951    3.0409 H   0  0  0  0  0  0  0  0  0  0  0  0
    0.1331   -5.9760    2.4132 H   0  0  0  0  0  0  0  0  0  0  0  0
 22 24  2  0  0  0  0
 24 26  1  0  0  0  0
 25 26  2  0  0  0  0
 23 25  1  0  0  0  0
 21 22  1  0  0  0  0
 22 23  1  0  0  0  0
  1  3  1  0  0  0  0
  1  7  1  0  0  0  0
  1  2  2  0  0  0  0
 35 36  1  0  0  0  0
 36 44  1  0  0  0  0
 36 37  2  0  0  0  0
  8  9  1  0  0  0  0
  9 17  1  0  0  0  0
  9 10  2  0  0  0  0
 18 19  1  0  0  0  0
 19 34  1  0  0  0  0
 19 20  2  0  0  0  0
 35 38  1  0  0  0  0
  8 11  1  0  0  0  0
 44 45  1  0  0  0  0
 18 21  1  0  0  0  0
 34 35  1  0  0  0  0
  7  8  1  0  0  0  0
 17 18  1  0  0  0  0
 24 32  1  0  0  0  0
 25 33  1  0  0  0  0
  3  4  1  0  0  0  0
  3  5  1  0  0  0  0
  3  6  1  0  0  0  0
 38 41  1  0  0  0  0
 38 42  1  0  0  0  0
 38 43  1  0  0  0  0
 11 14  1  0  0  0  0
 11 15  1  0  0  0  0
 11 16  1  0  0  0  0
 45 47  1  0  0  0  0
 45 48  1  0  0  0  0
 45 49  1  0  0  0  0
 21 29  1  0  0  0  0
 21 30  1  0  0  0  0
 35 40  1  0  0  0  0
  8 13  1  0  0  0  0
 18 28  1  0  0  0  0
 23 31  1  0  0  0  0
 44 46  1  0  0  0  0
  7 12  1  0  0  0  0
 34 39  1  0  0  0  0
 17 27  1  0  0  0  0
M  END
$$$$

  -OEChem-02062319033D

 49 49  0     1  0  0  0  0  0999 V2000
   -1.5619    0.5658    3.7981 C   0  0  0  0  0  0  0  0  0  0  0  0
   -0.6145   -0.0489    3.3224 O   0  0  0  0  0  0  0  0  0  0  0  0
   -1.9938    0.2834    5.1988 C   0  0  0  0  0  0  0  0  0  0  0  0
   -2.7535   -0.5129    5.2522 H   0  0  0  0  0  0  0  0  0  0  0  0
   -1.1626   -0.0642    5.8331 H   0  0  0  0  0  0  0  0  0  0  0  0
   -2.4318    1.1383    5.7384 H   0  0  0  0  0  0  0  0  0  0  0  0
   -2.3116    1.5383    3.1570 N   0  0  0  0  0  0  0  0  0  0  0  0
   -2.0648    1.9643    1.8046 C   0  0  2  0  0  0  0  0  0  0  0  0
   -0.7298    1.3789    1.3634 C   0  0  0  0  0  0  0  0  0  0  0  0
    0.1423    1.0262    2.1547 O   0  0  0  0  0  0  0  0  0  0  0  0
   -2.0560    3.4811    1.6952 C   0  0  0  0  0  0  0  0  0  0  0  0
   -3.0767    1.9741    3.6688 H   0  0  0  0  0  0  0  0  0  0  0  0
   -2.8689    1.5458    1.1895 H   0  0  0  0  0  0  0  0  0  0  0  0
   -1.2569    3.9183    2.3049 H   0  0  0  0  0  0  0  0  0  0  0  0
   -1.8965    3.8033    0.6609 H   0  0  0  0  0  0  0  0  0  0  0  0
   -3.0062    3.9023    2.0409 H   0  0  0  0  0  0  0  0  0  0  0  0
   -0.6071    1.3358   -0.0200 N   0  0  0  0  0  0  0  0  0  0  0  0
   -1.5136    0.5952   -0.8609 C   0  0  2  0  0  0  0  0  0  0  0  0
   -1.4283   -0.8670   -0.4381 C   0  0  0  0  0  0  0  0  0  0  0  0
   -2.4170   -1.5872   -0.3169 O   0  0  0  0  0  0  0  0  0  0  0  0
   -1.1728    0.7405   -2.3485 C   0  0  0  0  0  0  0  0  0  0  0  0
   -1.3217    2.1577   -2.8456 C   0  0  0  0  0  0  0  0  0  0  0  0
   -2.5379    2.7350   -3.0797 N   0  0  0  0  0  0  0  0  0  0  0  0
   -0.4035    3.1318   -3.1595 C   0  0  0  0  0  0  0  0  0  0  0  0
   -2.3091    4.0098   -3.5177 C   0  0  0  0  0  0  0  0  0  0  0  0
   -1.0245    4.2824   -3.5769 N   0  0  0  0  0  0  0  0  0  0  0  0
    0.1271    1.8769   -0.4704 H   0  0  0  0  0  0  0  0  0  0  0  0
   -2.5198    0.9733   -0.6447 H   0  0  0  0  0  0  0  0  0  0  0  0
   -1.8016    0.0701   -2.9500 H   0  0  0  0  0  0  0  0  0  0  0  0
   -0.1414    0.4159   -2.5392 H   0  0  0  0  0  0  0  0  0  0  0  0
   -3.4431    2.3011   -2.9542 H   0  0  0  0  0  0  0  0  0  0  0  0
    0.6740    3.0656   -3.1068 H   0  0  0  0  0  0  0  0  0  0  0  0
   -3.1153    4.6821   -3.7745 H   0  0  0  0  0  0  0  0  0  0  0  0
   -0.1154   -1.2812   -0.2620 N   0  0  0  0  0  0  0  0  0  0  0  0
    0.2479   -2.6279    0.1165 C   0  0  2  0  0  0  0  0  0  0  0  0
   -0.5865   -3.0167    1.3298 C   0  0  0  0  0  0  0  0  0  0  0  0
   -1.0955   -2.1920    2.0860 O   0  0  0  0  0  0  0  0  0  0  0  0
    1.7338   -2.7351    0.4217 C   0  0  0  0  0  0  0  0  0  0  0  0
    0.6276   -0.6038   -0.4064 H   0  0  0  0  0  0  0  0  0  0  0  0
   -0.0118   -3.2749   -0.7285 H   0  0  0  0  0  0  0  0  0  0  0  0
    2.0129   -2.0938    1.2656 H   0  0  0  0  0  0  0  0  0  0  0  0
    2.0126   -3.7619    0.6805 H   0  0  0  0  0  0  0  0  0  0  0  0
    2.3324   -2.4267   -0.4423 H   0  0  0  0  0  0  0  0  0  0  0  0
   -0.6598   -4.3929    1.4935 N   0  0  0  0  0  0  0  0  0  0  0  0
   -1.3838   -5.0114    2.5794 C   0  0  0  0  0  0  0  0  0  0  0  0
   -0.2231   -5.0017    0.8076 H   0  0  0  0  0  0  0  0  0  0  0  0
   -0.7006   -5.1865    3.4236 H   0  0  0  0  0  0  0  0  0  0  0  0
   -2.2004   -4.3480    2.9004 H   0  0  0  0  0  0  0  0  0  0  0  0
   -1.8022   -5.9710    2.2415 H   0  0  0  0  0  0  0  0  0  0  0  0
 22 24  2  0  0  0  0
 24 26  1  0  0  0  0
 25 26  2  0  0  0  0
 23 25  1  0  0  0  0
 21 22  1  0  0  0  0
 22 23  1  0  0  0  0
  1  3  1  0  0  0  0
  1  7  1  0  0  0  0
  1  2  2  0  0  0  0
 35 36  1  0  0  0  0
 36 44  1  0  0  0  0
 36 37  2  0  0  0  0
  8  9  1  0  0  0  0
  9 17  1  0  0  0  0
  9 10  2  0  0  0  0
 18 19  1  0  0  0  0
 19 34  1  0  0  0  0
 19 20  2  0  0  0  0
 35 38  1  0  0  0  0
  8 11  1  0  0  0  0
 44 45  1  0  0  0  0
 18 21  1  0  0  0  0
 34 35  1  0  0  0  0
  7  8  1  0  0  0  0
 17 18  1  0  0  0  0
 24 32  1  0  0  0  0
 25 33  1  0  0  0  0
  3  4  1  0  0  0  0
  3  5  1  0  0  0  0
  3  6  1  0  0  0  0
 38 41  1  0  0  0  0
 38 42  1  0  0  0  0
 38 43  1  0  0  0  0
 11 14  1  0  0  0  0
 11 15  1  0  0  0  0
 11 16  1  0  0  0  0
 45 47  1  0  0  0  0
 45 48  1  0  0  0  0
 45 49  1  0  0  0  0
 21 29  1  0  0  0  0
 21 30  1  0  0  0  0
 35 40  1  0  0  0  0
  8 13  1  0  0  0  0
 18 28  1  0  0  0  0
 23 31  1  0  0  0  0
 44 46  1  0  0  0  0
  7 12  1  0  0  0  0
 34 39  1  0  0  0  0
 17 27  1  0  0  0  0
M  END
$$$$

  -OEChem-02062319033D

 49 49  0     1  0  0  0  0  0999 V2000
   -1.5619    0.5658    3.7981 C   0  0  0  0  0  0  0  0  0  0  0  0
   -0.6145   -0.0489    3.3224 O   0  0  0  0  0  0  0  0  0  0  0  0
   -1.9938    0.2834    5.1988 C   0  0  0  0  0  0  0  0  0  0  0  0
   -2.7535   -0.5129    5.2522 H   0  0  0  0  0  0  0  0  0  0  0  0
   -1.1626   -0.0642    5.8331 H   0  0  0  0  0  0  0  0  0  0  0  0
   -2.4318    1.1383    5.7384 H   0  0  0  0  0  0  0  0  0  0  0  0
   -2.3116    1.5383    3.1570 N   0  0  0  0  0  0  0  0  0  0  0  0
   -2.0648    1.9643    1.8046 C   0  0  2  0  0  0  0  0  0  0  0  0
   -0.7298    1.3789    1.3634 C   0  0  0  0  0  0  0  0  0  0  0  0
    0.1423    1.0262    2.1547 O   0  0  0  0  0  0  0  0  0  0  0  0
   -2.0560    3.4811    1.6952 C   0  0  0  0  0  0  0  0  0  0  0  0
   -3.0767    1.9741    3.6688 H   0  0  0  0  0  0  0  0  0  0  0  0
   -2.8689    1.5458    1.1895 H   0  0  0  0  0  0  0  0  0  0  0  0
   -1.2569    3.9183    2.3049 H   0  0  0  0  0  0  0  0  0  0  0  0
   -1.8965    3.8033    0.6609 H   0  0  0  0  0  0  0  0  0  0  0  0
   -3.0062    3.9023    2.0409 H   0  0  0  0  0  0  0  0  0  0  0  0
   -0.6071    1.3358   -0.0200 N   0  0  0  0  0  0  0  0  0  0  0  0
   -1.6644    0.8725   -0.8829 C   0  0  2  0  0  0  0  0  0  0  0  0
   -1.9634   -0.5712   -0.4947 C   0  0  0  0  0  0  0  0  0  0  0  0
   -3.1055   -1.0147   -0.3958 O   0  0  0  0  0  0  0  0  0  0  0  0
   -1.2814    0.9574   -2.3649 C   0  0  0  0  0  0  0  0  0  0  0  0
   -1.0547    2.3755   -2.8287 C   0  0  0  0  0  0  0  0  0  0  0  0
   -2.0785    3.2518   -3.0550 N   0  0  0  0  0  0  0  0  0  0  0  0
    0.0869    3.0866   -3.1146 C   0  0  0  0  0  0  0  0  0  0  0  0
   -1.5242    4.4337   -3.4613 C   0  0  0  0  0  0  0  0  0  0  0  0
   -0.2121    4.3671   -3.5075 N   0  0  0  0  0  0  0  0  0  0  0  0
    0.2466    1.6790   -0.4536 H   0  0  0  0  0  0  0  0  0  0  0  0
   -2.5416    1.4923   -0.6628 H   0  0  0  0  0  0  0  0  0  0  0  0
   -2.0549    0.4850   -2.9854 H   0  0  0  0  0  0  0  0  0  0  0  0
   -0.3663    0.3821   -2.5581 H   0  0  0  0  0  0  0  0  0  0  0  0
   -3.0662    3.0633   -2.9446 H   0  0  0  0  0  0  0  0  0  0  0  0
    1.1103    2.7438   -3.0581 H   0  0  0  0  0  0  0  0  0  0  0  0
   -2.1272    5.2965   -3.7061 H   0  0  0  0  0  0  0  0  0  0  0  0
   -0.8035   -1.3136   -0.3220 N   0  0  0  0  0  0  0  0  0  0  0  0
   -0.8036   -2.7164    0.0260 C   0  0  2  0  0  0  0  0  0  0  0  0
   -1.7232   -2.9033    1.2255 C   0  0  0  0  0  0  0  0  0  0  0  0
   -2.0109   -1.9919    1.9986 O   0  0  0  0  0  0  0  0  0  0  0  0
    0.6012   -3.2096    0.3360 C   0  0  0  0  0  0  0  0  0  0  0  0
    0.0905   -0.8476   -0.4464 H   0  0  0  0  0  0  0  0  0  0  0  0
   -1.2118   -3.2559   -0.8355 H   0  0  0  0  0  0  0  0  0  0  0  0
    1.0267   -2.6805    1.1965 H   0  0  0  0  0  0  0  0  0  0  0  0
    0.6032   -4.2790    0.5716 H   0  0  0  0  0  0  0  0  0  0  0  0
    1.2685   -3.0472   -0.5173 H   0  0  0  0  0  0  0  0  0  0  0  0
   -2.1504   -4.2173    1.3558 N   0  0  0  0  0  0  0  0  0  0  0  0
   -3.0212   -4.6518    2.4231 C   0  0  0  0  0  0  0  0  0  0  0  0
   -1.8777   -4.9030    0.6578 H   0  0  0  0  0  0  0  0  0  0  0  0
   -2.4154   -5.0154    3.2662 H   0  0  0  0  0  0  0  0  0  0  0  0
   -3.6429   -3.8074    2.7556 H   0  0  0  0  0  0  0  0  0  0  0  0
   -3.6689   -5.4635    2.0602 H   0  0  0  0  0  0  0  0  0  0  0  0
 22 24  2  0  0  0  0
 24 26  1  0  0  0  0
 25 26  2  0  0  0  0
 23 25  1  0  0  0  0
 21 22  1  0  0  0  0
 22 23  1  0  0  0  0
  1  3  1  0  0  0  0
  1  7  1  0  0  0  0
  1  2  2  0  0  0  0
 35 36  1  0  0  0  0
 36 44  1  0  0  0  0
 36 37  2  0  0  0  0
  8  9  1  0  0  0  0
  9 17  1  0  0  0  0
  9 10  2  0  0  0  0
 18 19  1  0  0  0  0
 19 34  1  0  0  0  0
 19 20  2  0  0  0  0
 35 38  1  0  0  0  0
  8 11  1  0  0  0  0
 44 45  1  0  0  0  0
 18 21  1  0  0  0  0
 34 35  1  0  0  0  0
  7  8  1  0  0  0  0
 17 18  1  0  0  0  0
 24 32  1  0  0  0  0
 25 33  1  0  0  0  0
  3  4  1  0  0  0  0
  3  5  1  0  0  0  0
  3  6  1  0  0  0  0
 38 41  1  0  0  0  0
 38 42  1  0  0  0  0
 38 43  1  0  0  0  0
 11 14  1  0  0  0  0
 11 15  1  0  0  0  0
 11 16  1  0  0  0  0
 45 47  1  0  0  0  0
 45 48  1  0  0  0  0
 45 49  1  0  0  0  0
 21 29  1  0  0  0  0
 21 30  1  0  0  0  0
 35 40  1  0  0  0  0
  8 13  1  0  0  0  0
 18 28  1  0  0  0  0
 23 31  1  0  0  0  0
 44 46  1  0  0  0  0
  7 12  1  0  0  0  0
 34 39  1  0  0  0  0
 17 27  1  0  0  0  0
M  END
$$$$

  -OEChem-02062319033D

 49 49  0     1  0  0  0  0  0999 V2000
   -1.5619    0.5658    3.7981 C   0  0  0  0  0  0  0  0  0  0  0  0
   -0.6145   -0.0489    3.3224 O   0  0  0  0  0  0  0  0  0  0  0  0
   -1.9938    0.2834    5.1988 C   0  0  0  0  0  0  0  0  0  0  0  0
   -2.7535   -0.5129    5.2522 H   0  0  0  0  0  0  0  0  0  0  0  0
   -1.1626   -0.0642    5.8331 H   0  0  0  0  0  0  0  0  0  0  0  0
   -2.4318    1.1383    5.7384 H   0  0  0  0  0  0  0  0  0  0  0  0
   -2.3116    1.5383    3.1570 N   0  0  0  0  0  0  0  0  0  0  0  0
   -2.0648    1.9643    1.8046 C   0  0  2  0  0  0  0  0  0  0  0  0
   -0.7298    1.3789    1.3634 C   0  0  0  0  0  0  0  0  0  0  0  0
    0.1423    1.0262    2.1547 O   0  0  0  0  0  0  0  0  0  0  0  0
   -2.0560    3.4811    1.6952 C   0  0  0  0  0  0  0  0  0  0  0  0
   -3.0767    1.9741    3.6688 H   0  0  0  0  0  0  0  0  0  0  0  0
   -2.8689    1.5458    1.1895 H   0  0  0  0  0  0  0  0  0  0  0  0
   -1.2569    3.9183    2.3049 H   0  0  0  0  0  0  0  0  0  0  0  0
   -1.8965    3.8033    0.6609 H   0  0  0  0  0  0  0  0  0  0  0  0
   -3.0062    3.9023    2.0409 H   0  0  0  0  0  0  0  0  0  0  0  0
   -0.6071    1.3358   -0.0200 N   0  0  0  0  0  0  0  0  0  0  0  0
   -1.7385    1.1796   -0.8991 C   0  0  2  0  0  0  0  0  0  0  0  0
   -2.4035   -0.1463   -0.5470 C   0  0  0  0  0  0  0  0  0  0  0  0
   -3.6224   -0.2825   -0.4644 O   0  0  0  0  0  0  0  0  0  0  0  0
   -1.3302    1.1952   -2.3766 C   0  0  0  0  0  0  0  0  0  0  0  0
   -0.7408    2.5167   -2.8053 C   0  0  0  0  0  0  0  0  0  0  0  0
   -1.5018    3.6320   -3.0158 N   0  0  0  0  0  0  0  0  0  0  0  0
    0.5485    2.9155   -3.0683 C   0  0  0  0  0  0  0  0  0  0  0  0
   -0.6572    4.6396   -3.3909 C   0  0  0  0  0  0  0  0  0  0  0  0
    0.5938    4.2381   -3.4320 N   0  0  0  0  0  0  0  0  0  0  0  0
    0.3109    1.4567   -0.4410 H   0  0  0  0  0  0  0  0  0  0  0  0
   -2.4288    1.9996   -0.6686 H   0  0  0  0  0  0  0  0  0  0  0  0
   -2.1924    0.9518   -3.0122 H   0  0  0  0  0  0  0  0  0  0  0  0
   -0.5921    0.4078   -2.5789 H   0  0  0  0  0  0  0  0  0  0  0  0
   -2.5059    3.7021   -2.9148 H   0  0  0  0  0  0  0  0  0  0  0  0
    1.4484    2.3194   -3.0149 H   0  0  0  0  0  0  0  0  0  0  0  0
   -1.0149    5.6339   -3.6180 H   0  0  0  0  0  0  0  0  0  0  0  0
   -1.4760   -1.1662   -0.3862 N   0  0  0  0  0  0  0  0  0  0  0  0
   -1.8412   -2.5288   -0.0718 C   0  0  2  0  0  0  0  0  0  0  0  0
   -2.7912   -2.4984    1.1182 C   0  0  0  0  0  0  0  0  0  0  0  0
   -2.8429   -1.5608    1.9114 O   0  0  0  0  0  0  0  0  0  0  0  0
   -0.6145   -3.3741    0.2334 C   0  0  0  0  0  0  0  0  0  0  0  0
   -0.4908   -0.9438   -0.4950 H   0  0  0  0  0  0  0  0  0  0  0  0
   -2.3652   -2.9260   -0.9481 H   0  0  0  0  0  0  0  0  0  0  0  0
   -0.0765   -2.9914    1.1084 H   0  0  0  0  0  0  0  0  0  0  0  0
   -0.8906   -4.4128    0.4434 H   0  0  0  0  0  0  0  0  0  0  0  0
    0.0815   -3.3706   -0.6124 H   0  0  0  0  0  0  0  0  0  0  0  0
   -3.5438   -3.6604    1.2150 N   0  0  0  0  0  0  0  0  0  0  0  0
   -4.5089   -3.8789    2.2671 C   0  0  0  0  0  0  0  0  0  0  0  0
   -3.4492   -4.3778    0.5021 H   0  0  0  0  0  0  0  0  0  0  0  0
   -4.0265   -4.4047    3.1043 H   0  0  0  0  0  0  0  0  0  0  0  0
   -4.8957   -2.9103    2.6166 H   0  0  0  0  0  0  0  0  0  0  0  0
   -5.3397   -4.4881    1.8816 H   0  0  0  0  0  0  0  0  0  0  0  0
 22 24  2  0  0  0  0
 24 26  1  0  0  0  0
 25 26  2  0  0  0  0
 23 25  1  0  0  0  0
 21 22  1  0  0  0  0
 22 23  1  0  0  0  0
  1  3  1  0  0  0  0
  1  7  1  0  0  0  0
  1  2  2  0  0  0  0
 35 36  1  0  0  0  0
 36 44  1  0  0  0  0
 36 37  2  0  0  0  0
  8  9  1  0  0  0  0
  9 17  1  0  0  0  0
  9 10  2  0  0  0  0
 18 19  1  0  0  0  0
 19 34  1  0  0  0  0
 19 20  2  0  0  0  0
 35 38  1  0  0  0  0
  8 11  1  0  0  0  0
 44 45  1  0  0  0  0
 18 21  1  0  0  0  0
 34 35  1  0  0  0  0
  7  8  1  0  0  0  0
 17 18  1  0  0  0  0
 24 32  1  0  0  0  0
 25 33  1  0  0  0  0
  3  4  1  0  0  0  0
  3  5  1  0  0  0  0
  3  6  1  0  0  0  0
 38 41  1  0  0  0  0
 38 42  1  0  0  0  0
 38 43  1  0  0  0  0
 11 14  1  0  0  0  0
 11 15  1  0  0  0  0
 11 16  1  0  0  0  0
 45 47  1  0  0  0  0
 45 48  1  0  0  0  0
 45 49  1  0  0  0  0
 21 29  1  0  0  0  0
 21 30  1  0  0  0  0
 35 40  1  0  0  0  0
  8 13  1  0  0  0  0
 18 28  1  0  0  0  0
 23 31  1  0  0  0  0
 44 46  1  0  0  0  0
  7 12  1  0  0  0  0
 34 39  1  0  0  0  0
 17 27  1  0  0  0  0
M  END
$$$$

  -OEChem-02062319033D

 49 49  0     1  0  0  0  0  0999 V2000
   -1.5619    0.5658    3.7981 C   0  0  0  0  0  0  0  0  0  0  0  0
   -0.6145   -0.0489    3.3224 O   0  0  0  0  0  0  0  0  0  0  0  0
   -1.9938    0.2834    5.1988 C   0  0  0  0  0  0  0  0  0  0  0  0
   -2.7535   -0.5129    5.2522 H   0  0  0  0  0  0  0  0  0  0  0  0
   -1.1626   -0.0642    5.8331 H   0  0  0  0  0  0  0  0  0  0  0  0
   -2.4318    1.1383    5.7384 H   0  0  0  0  0  0  0  0  0  0  0  0
   -2.3116    1.5383    3.1570 N   0  0  0  0  0  0  0  0  0  0  0  0
   -2.0648    1.9643    1.8046 C   0  0  2  0  0  0  0  0  0  0  0  0
   -0.7298    1.3789    1.3634 C   0  0  0  0  0  0  0  0  0  0  0  0
    0.1423    1.0262    2.1547 O   0  0  0  0  0  0  0  0  0  0  0  0
   -2.0560    3.4811    1.6952 C   0  0  0  0  0  0  0  0  0  0  0  0
   -3.0767    1.9741    3.6688 H   0  0  0  0  0  0  0  0  0  0  0  0
   -2.8689    1.5458    1.1895 H   0  0  0  0  0  0  0  0  0  0  0  0
   -1.2569    3.9183    2.3049 H   0  0  0  0  0  0  0  0  0  0  0  0
   -1.8965    3.8033    0.6609 H   0  0  0  0  0  0  0  0  0  0  0  0
   -3.0062    3.9023    2.0409 H   0  0  0  0  0  0  0  0  0  0  0  0
   -0.6071    1.3358   -0.0200 N   0  0  0  0  0  0  0  0  0  0  0  0
   -1.7308    1.4957   -0.9083 C   0  0  2  0  0  0  0  0  0  0  0  0
   -2.7188    0.3787   -0.5913 C   0  0  0  0  0  0  0  0  0  0  0  0
   -3.9324    0.5596   -0.5182 O   0  0  0  0  0  0  0  0  0  0  0  0
   -1.3160    1.4377   -2.3829 C   0  0  0  0  0  0  0  0  0  0  0  0
   -0.4013    2.5717   -2.7769 C   0  0  0  0  0  0  0  0  0  0  0  0
   -0.8470    3.8497   -2.9645 N   0  0  0  0  0  0  0  0  0  0  0  0
    0.9500    2.6303   -3.0238 C   0  0  0  0  0  0  0  0  0  0  0  0
    0.2326    4.6135   -3.3112 C   0  0  0  0  0  0  0  0  0  0  0  0
    1.3384    3.9041   -3.3556 N   0  0  0  0  0  0  0  0  0  0  0  0
    0.3156    1.2251   -0.4333 H   0  0  0  0  0  0  0  0  0  0  0  0
   -2.1891    2.4607   -0.6617 H   0  0  0  0  0  0  0  0  0  0  0  0
   -2.2048    1.4387   -3.0284 H   0  0  0  0  0  0  0  0  0  0  0  0
   -0.8035    0.4913   -2.6003 H   0  0  0  0  0  0  0  0  0  0  0  0
   -1.8002    4.1741   -2.8669 H   0  0  0  0  0  0  0  0  0  0  0  0
    1.6652    1.8213   -2.9802 H   0  0  0  0  0  0  0  0  0  0  0  0
    0.1457    5.6711   -3.5162 H   0  0  0  0  0  0  0  0  0  0  0  0
   -2.0871   -0.8491   -0.4503 N   0  0  0  0  0  0  0  0  0  0  0  0
   -2.7944   -2.0780   -0.1704 C   0  0  2  0  0  0  0  0  0  0  0  0
   -3.7175   -1.8297    1.0152 C   0  0  0  0  0  0  0  0  0  0  0  0
   -3.5347   -0.9279    1.8304 O   0  0  0  0  0  0  0  0  0  0  0  0
   -1.8303   -3.2174    0.1207 C   0  0  0  0  0  0  0  0  0  0  0  0
   -1.0768   -0.8859   -0.5487 H   0  0  0  0  0  0  0  0  0  0  0  0
   -3.3933   -2.3075   -1.0585 H   0  0  0  0  0  0  0  0  0  0  0  0
   -1.2215   -3.0055    1.0073 H   0  0  0  0  0  0  0  0  0  0  0  0
   -2.3669   -4.1541    0.3044 H   0  0  0  0  0  0  0  0  0  0  0  0
   -1.1476   -3.3750   -0.7213 H   0  0  0  0  0  0  0  0  0  0  0  0
   -4.7451   -2.7603    1.0804 N   0  0  0  0  0  0  0  0  0  0  0  0
   -5.7454   -2.7455    2.1221 C   0  0  0  0  0  0  0  0  0  0  0  0
   -4.8307   -3.4621    0.3511 H   0  0  0  0  0  0  0  0  0  0  0  0
   -5.4241   -3.3959    2.9490 H   0  0  0  0  0  0  0  0  0  0  0  0
   -5.8735   -1.7177    2.4927 H   0  0  0  0  0  0  0  0  0  0  0  0
   -6.7009   -3.1113    1.7181 H   0  0  0  0  0  0  0  0  0  0  0  0
 22 24  2  0  0  0  0
 24 26  1  0  0  0  0
 25 26  2  0  0  0  0
 23 25  1  0  0  0  0
 21 22  1  0  0  0  0
 22 23  1  0  0  0  0
  1  3  1  0  0  0  0
  1  7  1  0  0  0  0
  1  2  2  0  0  0  0
 35 36  1  0  0  0  0
 36 44  1  0  0  0  0
 36 37  2  0  0  0  0
  8  9  1  0  0  0  0
  9 17  1  0  0  0  0
  9 10  2  0  0  0  0
 18 19  1  0  0  0  0
 19 34  1  0  0  0  0
 19 20  2  0  0  0  0
 35 38  1  0  0  0  0
  8 11  1  0  0  0  0
 44 45  1  0  0  0  0
 18 21  1  0  0  0  0
 34 35  1  0  0  0  0
  7  8  1  0  0  0  0
 17 18  1  0  0  0  0
 24 32  1  0  0  0  0
 25 33  1  0  0  0  0
  3  4  1  0  0  0  0
  3  5  1  0  0  0  0
  3  6  1  0  0  0  0
 38 41  1  0  0  0  0
 38 42  1  0  0  0  0
 38 43  1  0  0  0  0
 11 14  1  0  0  0  0
 11 15  1  0  0  0  0
 11 16  1  0  0  0  0
 45 47  1  0  0  0  0
 45 48  1  0  0  0  0
 45 49  1  0  0  0  0
 21 29  1  0  0  0  0
 21 30  1  0  0  0  0
 35 40  1  0  0  0  0
  8 13  1  0  0  0  0
 18 28  1  0  0  0  0
 23 31  1  0  0  0  0
 44 46  1  0  0  0  0
  7 12  1  0  0  0  0
 34 39  1  0  0  0  0
 17 27  1  0  0  0  0
M  END
$$$$

  -OEChem-02062319033D

 49 49  0     1  0  0  0  0  0999 V2000
   -1.5619    0.5658    3.7981 C   0  0  0  0  0  0  0  0  0  0  0  0
   -0.6145   -0.0489    3.3224 O   0  0  0  0  0  0  0  0  0  0  0  0
   -1.9938    0.2834    5.1988 C   0  0  0  0  0  0  0  0  0  0  0  0
   -2.7535   -0.5129    5.2522 H   0  0  0  0  0  0  0  0  0  0  0  0
   -1.1626   -0.0642    5.8331 H   0  0  0  0  0  0  0  0  0  0  0  0
   -2.4318    1.1383    5.7384 H   0  0  0  0  0  0  0  0  0  0  0  0
   -2.3116    1.5383    3.1570 N   0  0  0  0  0  0  0  0  0  0  0  0
   -2.0648    1.9643    1.8046 C   0  0  2  0  0  0  0  0  0  0  0  0
   -0.7298    1.3789    1.3634 C   0  0  0  0  0  0  0  0  0  0  0  0
    0.1423    1.0262    2.1547 O   0  0  0  0  0  0  0  0  0  0  0  0
   -2.0560    3.4811    1.6952 C   0  0  0  0  0  0  0  0  0  0  0  0
   -3.0767    1.9741    3.6688 H   0  0  0  0  0  0  0  0  0  0  0  0
   -2.8689    1.5458    1.1895 H   0  0  0  0  0  0  0  0  0  0  0  0
   -1.2569    3.9183    2.3049 H   0  0  0  0  0  0  0  0  0  0  0  0
   -1.8965    3.8033    0.6609 H   0  0  0  0  0  0  0  0  0  0  0  0
   -3.0062    3.9023    2.0409 H   0  0  0  0  0  0  0  0  0  0  0  0
   -0.6071    1.3358   -0.0200 N   0  0  0  0  0  0  0  0  0  0  0  0
   -1.6419    1.7993   -0.9098 C   0  0  2  0  0  0  0  0  0  0  0  0
   -2.8876    0.9680   -0.6247 C   0  0  0  0  0  0  0  0  0  0  0  0
   -4.0144    1.4540   -0.5533 O   0  0  0  0  0  0  0  0  0  0  0  0
   -1.2397    1.6685   -2.3834 C   0  0  0  0  0  0  0  0  0  0  0  0
   -0.0595    2.5366   -2.7455 C   0  0  0  0  0  0  0  0  0  0  0  0
   -0.1589    3.8901   -2.9047 N   0  0  0  0  0  0  0  0  0  0  0  0
    1.2639    2.2503   -2.9842 C   0  0  0  0  0  0  0  0  0  0  0  0
    1.0849    4.3572   -3.2276 C   0  0  0  0  0  0  0  0  0  0  0  0
    1.9710    3.3879   -3.2834 N   0  0  0  0  0  0  0  0  0  0  0  0
    0.2605    1.0000   -0.4312 H   0  0  0  0  0  0  0  0  0  0  0  0
   -1.8388    2.8442   -0.6426 H   0  0  0  0  0  0  0  0  0  0  0  0
   -2.0911    1.9126   -3.0331 H   0  0  0  0  0  0  0  0  0  0  0  0
   -0.9860    0.6269   -2.6207 H   0  0  0  0  0  0  0  0  0  0  0  0
   -0.9974    4.4471   -2.8043 H   0  0  0  0  0  0  0  0  0  0  0  0
    1.7461    1.2835   -2.9562 H   0  0  0  0  0  0  0  0  0  0  0  0
    1.2755    5.4056   -3.4078 H   0  0  0  0  0  0  0  0  0  0  0  0
   -2.5951   -0.3839   -0.5098 N   0  0  0  0  0  0  0  0  0  0  0  0
   -3.5982   -1.3947   -0.2630 C   0  0  2  0  0  0  0  0  0  0  0  0
   -4.4392   -0.9427    0.9236 C   0  0  0  0  0  0  0  0  0  0  0  0
   -4.0393   -0.1365    1.7610 O   0  0  0  0  0  0  0  0  0  0  0  0
   -2.9633   -2.7502    0.0057 C   0  0  0  0  0  0  0  0  0  0  0  0
   -1.6273   -0.6776   -0.6040 H   0  0  0  0  0  0  0  0  0  0  0  0
   -4.2261   -1.4426   -1.1593 H   0  0  0  0  0  0  0  0  0  0  0  0
   -2.3304   -2.7218    0.9001 H   0  0  0  0  0  0  0  0  0  0  0  0
   -3.7251   -3.5207    0.1643 H   0  0  0  0  0  0  0  0  0  0  0  0
   -2.3350   -3.0601   -0.8364 H   0  0  0  0  0  0  0  0  0  0  0  0
   -5.6725   -1.5781    0.9613 N   0  0  0  0  0  0  0  0  0  0  0  0
   -6.6466   -1.3287    1.9981 C   0  0  0  0  0  0  0  0  0  0  0  0
   -5.9279   -2.2181    0.2151 H   0  0  0  0  0  0  0  0  0  0  0  0
   -6.5128   -2.0578    2.8108 H   0  0  0  0  0  0  0  0  0  0  0  0
   -6.5097   -0.3110    2.3925 H   0  0  0  0  0  0  0  0  0  0  0  0
   -7.6596   -1.4270    1.5806 H   0  0  0  0  0  0  0  0  0  0  0  0
 22 24  2  0  0  0  0
 24 26  1  0  0  0  0
 25 26  2  0  0  0  0
 23 25  1  0  0  0  0
 21 22  1  0  0  0  0
 22 23  1  0  0  0  0
  1  3  1  0  0  0  0
  1  7  1  0  0  0  0
  1  2  2  0  0  0  0
 35 36  1  0  0  0  0
 36 44  1  0  0  0  0
 36 37  2  0  0  0  0
  8  9  1  0  0  0  0
  9 17  1  0  0  0  0
  9 10  2  0  0  0  0
 18 19  1  0  0  0  0
 19 34  1  0  0  0  0
 19 20  2  0  0  0  0
 35 38  1  0  0  0  0
  8 11  1  0  0  0  0
 44 45  1  0  0  0  0
 18 21  1  0  0  0  0
 34 35  1  0  0  0  0
  7  8  1  0  0  0  0
 17 18  1  0  0  0  0
 24 32  1  0  0  0  0
 25 33  1  0  0  0  0
  3  4  1  0  0  0  0
  3  5  1  0  0  0  0
  3  6  1  0  0  0  0
 38 41  1  0  0  0  0
 38 42  1  0  0  0  0
 38 43  1  0  0  0  0
 11 14  1  0  0  0  0
 11 15  1  0  0  0  0
 11 16  1  0  0  0  0
 45 47  1  0  0  0  0
 45 48  1  0  0  0  0
 45 49  1  0  0  0  0
 21 29  1  0  0  0  0
 21 30  1  0  0  0  0
 35 40  1  0  0  0  0
  8 13  1  0  0  0  0
 18 28  1  0  0  0  0
 23 31  1  0  0  0  0
 44 46  1  0  0  0  0
  7 12  1  0  0  0  0
 34 39  1  0  0  0  0
 17 27  1  0  0  0  0
M  END
$$$$

  -OEChem-02062319033D

 49 49  0     1  0  0  0  0  0999 V2000
   -1.5619    0.5658    3.7981 C   0  0  0  0  0  0  0  0  0  0  0  0
   -0.6145   -0.0489    3.3224 O   0  0  0  0  0  0  0  0  0  0  0  0
   -1.9938    0.2834    5.1988 C   0  0  0  0  0  0  0  0  0  0  0  0
   -2.7535   -0.5129    5.2522 H   0  0  0  0  0  0  0  0  0  0  0  0
   -1.1626   -0.0642    5.8331 H   0  0  0  0  0  0  0  0  0  0  0  0
   -2.4318    1.1383    5.7384 H   0  0  0  0  0  0  0  0  0  0  0  0
   -2.3116    1.5383    3.1570 N   0  0  0  0  0  0  0  0  0  0  0  0
   -2.0648    1.9643    1.8046 C   0  0  2  0  0  0  0  0  0  0  0  0
   -0.7298    1.3789    1.3634 C   0  0  0  0  0  0  0  0  0  0  0  0
    0.1423    1.0262    2.1547 O   0  0  0  0  0  0  0  0  0  0  0  0
   -2.0560    3.4811    1.6952 C   0  0  0  0  0  0  0  0  0  0  0  0
   -3.0767    1.9741    3.6688 H   0  0  0  0  0  0  0  0  0  0  0  0
   -2.8689    1.5458    1.1895 H   0  0  0  0  0  0  0  0  0  0  0  0
   -1.2569    3.9183    2.3049 H   0  0  0  0  0  0  0  0  0  0  0  0
   -1.8965    3.8033    0.6609 H   0  0  0  0  0  0  0  0  0  0  0  0
   -3.0062    3.9023    2.0409 H   0  0  0  0  0  0  0  0  0  0  0  0
   -0.6071    1.3358   -0.0200 N   0  0  0  0  0  0  0  0  0  0  0  0
   -1.4777    2.0696   -0.9037 C   0  0  2  0  0  0  0  0  0  0  0  0
   -2.8986    1.5816   -0.6447 C   0  0  0  0  0  0  0  0  0  0  0  0
   -3.8629    2.3399   -0.5675 O   0  0  0  0  0  0  0  0  0  0  0  0
   -1.1066    1.8717   -2.3779 C   0  0  0  0  0  0  0  0  0  0  0  0
    0.2613    2.4140   -2.7133 C   0  0  0  0  0  0  0  0  0  0  0  0
    0.5157    3.7505   -2.8406 N   0  0  0  0  0  0  0  0  0  0  0  0
    1.4689    1.8014   -2.9520 C   0  0  0  0  0  0  0  0  0  0  0  0
    1.8413    3.8881   -3.1459 C   0  0  0  0  0  0  0  0  0  0  0  0
    2.4484    2.7246   -3.2204 N   0  0  0  0  0  0  0  0  0  0  0  0
    0.1492    0.7968   -0.4347 H   0  0  0  0  0  0  0  0  0  0  0  0
   -1.4017    3.1239   -0.6126 H   0  0  0  0  0  0  0  0  0  0  0  0
   -1.8591    2.3412   -3.0259 H   0  0  0  0  0  0  0  0  0  0  0  0
   -1.1271    0.8053   -2.6387 H   0  0  0  0  0  0  0  0  0  0  0  0
   -0.1521    4.5024   -2.7310 H   0  0  0  0  0  0  0  0  0  0  0  0
    1.6855    0.7427   -2.9448 H   0  0  0  0  0  0  0  0  0  0  0  0
    2.2976    4.8556   -3.3000 H   0  0  0  0  0  0  0  0  0  0  0  0
   -2.9655    0.1978   -0.5608 N   0  0  0  0  0  0  0  0  0  0  0  0
   -4.1977   -0.5254   -0.3432 C   0  0  2  0  0  0  0  0  0  0  0  0
   -4.9070    0.1021    0.8496 C   0  0  0  0  0  0  0  0  0  0  0  0
   -4.3221    0.7595    1.7080 O   0  0  0  0  0  0  0  0  0  0  0  0
   -3.9365   -2.0043   -0.1038 C   0  0  0  0  0  0  0  0  0  0  0  0
   -2.1050   -0.3334   -0.6571 H   0  0  0  0  0  0  0  0  0  0  0  0
   -4.8069   -0.3903   -1.2436 H   0  0  0  0  0  0  0  0  0  0  0  0
   -3.3274   -2.1595    0.7942 H   0  0  0  0  0  0  0  0  0  0  0  0
   -4.8727   -2.5556    0.0324 H   0  0  0  0  0  0  0  0  0  0  0  0
   -3.3999   -2.4472   -0.9499 H   0  0  0  0  0  0  0  0  0  0  0  0
   -6.2627   -0.1946    0.8659 N   0  0  0  0  0  0  0  0  0  0  0  0
   -7.1510    0.2749    1.9034 C   0  0  0  0  0  0  0  0  0  0  0  0
   -6.6661   -0.7307    0.1033 H   0  0  0  0  0  0  0  0  0  0  0  0
   -7.2185   -0.4817    2.6991 H   0  0  0  0  0  0  0  0  0  0  0  0
   -6.7610    1.2140    2.3227 H   0  0  0  0  0  0  0  0  0  0  0  0
   -8.1504    0.4501    1.4785 H   0  0  0  0  0  0  0  0  0  0  0  0
 22 24  2  0  0  0  0
 24 26  1  0  0  0  0
 25 26  2  0  0  0  0
 23 25  1  0  0  0  0
 21 22  1  0  0  0  0
 22 23  1  0  0  0  0
  1  3  1  0  0  0  0
  1  7  1  0  0  0  0
  1  2  2  0  0  0  0
 35 36  1  0  0  0  0
 36 44  1  0  0  0  0
 36 37  2  0  0  0  0
  8  9  1  0  0  0  0
  9 17  1  0  0  0  0
  9 10  2  0  0  0  0
 18 19  1  0  0  0  0
 19 34  1  0  0  0  0
 19 20  2  0  0  0  0
 35 38  1  0  0  0  0
  8 11  1  0  0  0  0
 44 45  1  0  0  0  0
 18 21  1  0  0  0  0
 34 35  1  0  0  0  0
  7  8  1  0  0  0  0
 17 18  1  0  0  0  0
 24 32  1  0  0  0  0
 25 33  1  0  0  0  0
  3  4  1  0  0  0  0
  3  5  1  0  0  0  0
  3  6  1  0  0  0  0
 38 41  1  0  0  0  0
 38 42  1  0  0  0  0
 38 43  1  0  0  0  0
 11 14  1  0  0  0  0
 11 15  1  0  0  0  0
 11 16  1  0  0  0  0
 45 47  1  0  0  0  0
 45 48  1  0  0  0  0
 45 49  1  0  0  0  0
 21 29  1  0  0  0  0
 21 30  1  0  0  0  0
 35 40  1  0  0  0  0
  8 13  1  0  0  0  0
 18 28  1  0  0  0  0
 23 31  1  0  0  0  0
 44 46  1  0  0  0  0
  7 12  1  0  0  0  0
 34 39  1  0  0  0  0
 17 27  1  0  0  0  0
M  END
$$$$

  -OEChem-02062319033D

 49 49  0     1  0  0  0  0  0999 V2000
   -1.5619    0.5658    3.7981 C   0  0  0  0  0  0  0  0  0  0  0  0
   -0.6145   -0.0489    3.3224 O   0  0  0  0  0  0  0  0  0  0  0  0
   -1.9938    0.2834    5.1988 C   0  0  0  0  0  0  0  0  0  0  0  0
   -2.7535   -0.5129    5.2522 H   0  0  0  0  0  0  0  0  0  0  0  0
   -1.1626   -0.0642    5.8331 H   0  0  0  0  0  0  0  0  0  0  0  0
   -2.4318    1.1383    5.7384 H   0  0  0  0  0  0  0  0  0  0  0  0
   -2.3116    1.5383    3.1570 N   0  0  0  0  0  0  0  0  0  0  0  0
   -2.0648    1.9643    1.8046 C   0  0  2  0  0  0  0  0  0  0  0  0
   -0.7298    1.3789    1.3634 C   0  0  0  0  0  0  0  0  0  0  0  0
    0.1423    1.0262    2.1547 O   0  0  0  0  0  0  0  0  0  0  0  0
   -2.0560    3.4811    1.6952 C   0  0  0  0  0  0  0  0  0  0  0  0
   -3.0767    1.9741    3.6688 H   0  0  0  0  0  0  0  0  0  0  0  0
   -2.8689    1.5458    1.1895 H   0  0  0  0  0  0  0  0  0  0  0  0
   -1.2569    3.9183    2.3049 H   0  0  0  0  0  0  0  0  0  0  0  0
   -1.8965    3.8033    0.6609 H   0  0  0  0  0  0  0  0  0  0  0  0
   -3.0062    3.9023    2.0409 H   0  0  0  0  0  0  0  0  0  0  0  0
   -0.6071    1.3358   -0.0200 N   0  0  0  0  0  0  0  0  0  0  0  0
   -1.2495    2.2883   -0.8903 C   0  0  2  0  0  0  0  0  0  0  0  0
   -2.7509    2.1775   -0.6502 C   0  0  0  0  0  0  0  0  0  0  0  0
   -3.4881    3.1569   -0.5597 O   0  0  0  0  0  0  0  0  0  0  0  0
   -0.9257    2.0336   -2.3669 C   0  0  0  0  0  0  0  0  0  0  0  0
    0.5394    2.2121   -2.6823 C   0  0  0  0  0  0  0  0  0  0  0  0
    1.1309    3.4403   -2.7764 N   0  0  0  0  0  0  0  0  0  0  0  0
    1.5510    1.3143   -2.9295 C   0  0  0  0  0  0  0  0  0  0  0  0
    2.4504    3.2382   -3.0717 C   0  0  0  0  0  0  0  0  0  0  0  0
    2.7381    1.9594   -3.1709 N   0  0  0  0  0  0  0  0  0  0  0  0
   -0.0107    0.6292   -0.4437 H   0  0  0  0  0  0  0  0  0  0  0  0
   -0.9077    3.2808   -0.5737 H   0  0  0  0  0  0  0  0  0  0  0  0
   -1.5247    2.6952   -3.0073 H   0  0  0  0  0  0  0  0  0  0  0  0
   -1.2173    1.0145   -2.6533 H   0  0  0  0  0  0  0  0  0  0  0  0
    0.6781    4.3364   -2.6523 H   0  0  0  0  0  0  0  0  0  0  0  0
    1.4874    0.2356   -2.9465 H   0  0  0  0  0  0  0  0  0  0  0  0
    3.1422    4.0585   -3.2003 H   0  0  0  0  0  0  0  0  0  0  0  0
   -3.1729    0.8562   -0.5997 N   0  0  0  0  0  0  0  0  0  0  0  0
   -4.5522    0.4706   -0.4057 C   0  0  2  0  0  0  0  0  0  0  0  0
   -5.0890    1.2335    0.7982 C   0  0  0  0  0  0  0  0  0  0  0  0
   -4.3640    1.6991    1.6750 O   0  0  0  0  0  0  0  0  0  0  0  0
   -4.6834   -1.0306   -0.2004 C   0  0  0  0  0  0  0  0  0  0  0  0
   -2.4774    0.1234   -0.7044 H   0  0  0  0  0  0  0  0  0  0  0  0
   -5.0961    0.7777   -1.3056 H   0  0  0  0  0  0  0  0  0  0  0  0
   -4.1448   -1.3570    0.6967 H   0  0  0  0  0  0  0  0  0  0  0  0
   -5.7315   -1.3247   -0.0821 H   0  0  0  0  0  0  0  0  0  0  0  0
   -4.2697   -1.5783   -1.0541 H   0  0  0  0  0  0  0  0  0  0  0  0
   -6.4754    1.2961    0.8006 N   0  0  0  0  0  0  0  0  0  0  0  0
   -7.2243    1.9559    1.8445 C   0  0  0  0  0  0  0  0  0  0  0  0
   -6.9949    0.8988    0.0233 H   0  0  0  0  0  0  0  0  0  0  0  0
   -7.4931    1.2252    2.6215 H   0  0  0  0  0  0  0  0  0  0  0  0
   -6.6101    2.7534    2.2881 H   0  0  0  0  0  0  0  0  0  0  0  0
   -8.1401    2.3921    1.4189 H   0  0  0  0  0  0  0  0  0  0  0  0
 22 24  2  0  0  0  0
 24 26  1  0  0  0  0
 25 26  2  0  0  0  0
 23 25  1  0  0  0  0
 21 22  1  0  0  0  0
 22 23  1  0  0  0  0
  1  3  1  0  0  0  0
  1  7  1  0  0  0  0
  1  2  2  0  0  0  0
 35 36  1  0  0  0  0
 36 44  1  0  0  0  0
 36 37  2  0  0  0  0
  8  9  1  0  0  0  0
  9 17  1  0  0  0  0
  9 10  2  0  0  0  0
 18 19  1  0  0  0  0
 19 34  1  0  0  0  0
 19 20  2  0  0  0  0
 35 38  1  0  0  0  0
  8 11  1  0  0  0  0
 44 45  1  0  0  0  0
 18 21  1  0  0  0  0
 34 35  1  0  0  0  0
  7  8  1  0  0  0  0
 17 18  1  0  0  0  0
 24 32  1  0  0  0  0
 25 33  1  0  0  0  0
  3  4  1  0  0  0  0
  3  5  1  0  0  0  0
  3  6  1  0  0  0  0
 38 41  1  0  0  0  0
 38 42  1  0  0  0  0
 38 43  1  0  0  0  0
 11 14  1  0  0  0  0
 11 15  1  0  0  0  0
 11 16  1  0  0  0  0
 45 47  1  0  0  0  0
 45 48  1  0  0  0  0
 45 49  1  0  0  0  0
 21 29  1  0  0  0  0
 21 30  1  0  0  0  0
 35 40  1  0  0  0  0
  8 13  1  0  0  0  0
 18 28  1  0  0  0  0
 23 31  1  0  0  0  0
 44 46  1  0  0  0  0
  7 12  1  0  0  0  0
 34 39  1  0  0  0  0
 17 27  1  0  0  0  0
M  END
$$$$

  -OEChem-02062319033D

 49 49  0     1  0  0  0  0  0999 V2000
   -1.5619    0.5658    3.7981 C   0  0  0  0  0  0  0  0  0  0  0  0
   -0.6145   -0.0489    3.3224 O   0  0  0  0  0  0  0  0  0  0  0  0
   -1.9938    0.2834    5.1988 C   0  0  0  0  0  0  0  0  0  0  0  0
   -2.7535   -0.5129    5.2522 H   0  0  0  0  0  0  0  0  0  0  0  0
   -1.1626   -0.0642    5.8331 H   0  0  0  0  0  0  0  0  0  0  0  0
   -2.4318    1.1383    5.7384 H   0  0  0  0  0  0  0  0  0  0  0  0
   -2.3116    1.5383    3.1570 N   0  0  0  0  0  0  0  0  0  0  0  0
   -2.0648    1.9643    1.8046 C   0  0  2  0  0  0  0  0  0  0  0  0
   -0.7298    1.3789    1.3634 C   0  0  0  0  0  0  0  0  0  0  0  0
    0.1423    1.0262    2.1547 O   0  0  0  0  0  0  0  0  0  0  0  0
   -2.0560    3.4811    1.6952 C   0  0  0  0  0  0  0  0  0  0  0  0
   -3.0767    1.9741    3.6688 H   0  0  0  0  0  0  0  0  0  0  0  0
   -2.8689    1.5458    1.1895 H   0  0  0  0  0  0  0  0  0  0  0  0
   -1.2569    3.9183    2.3049 H   0  0  0  0  0  0  0  0  0  0  0  0
   -1.8965    3.8033    0.6609 H   0  0  0  0  0  0  0  0  0  0  0  0
   -3.0062    3.9023    2.0409 H   0  0  0  0  0  0  0  0  0  0  0  0
   -0.6071    1.3358   -0.0200 N   0  0  0  0  0  0  0  0  0  0  0  0
   -0.9728    2.4404   -0.8705 C   0  0  2  0  0  0  0  0  0  0  0  0
   -2.4547    2.7152   -0.6407 C   0  0  0  0  0  0  0  0  0  0  0  0
   -2.9157    3.8494   -0.5306 O   0  0  0  0  0  0  0  0  0  0  0  0
   -0.7093    2.1431   -2.3511 C   0  0  0  0  0  0  0  0  0  0  0  0
    0.7557    1.9448   -2.6548 C   0  0  0  0  0  0  0  0  0  0  0  0
    1.6446    2.9807   -2.7165 N   0  0  0  0  0  0  0  0  0  0  0  0
    1.5046    0.8222   -2.9183 C   0  0  0  0  0  0  0  0  0  0  0  0
    2.8707    2.4518   -3.0099 C   0  0  0  0  0  0  0  0  0  0  0  0
    2.8204    1.1445   -3.1382 N   0  0  0  0  0  0  0  0  0  0  0  0
   -0.2082    0.5087   -0.4575 H   0  0  0  0  0  0  0  0  0  0  0  0
   -0.3904    3.3041   -0.5286 H   0  0  0  0  0  0  0  0  0  0  0  0
   -1.1106    2.9505   -2.9785 H   0  0  0  0  0  0  0  0  0  0  0  0
   -1.2504    1.2401   -2.6632 H   0  0  0  0  0  0  0  0  0  0  0  0
    1.4366    3.9603   -2.5733 H   0  0  0  0  0  0  0  0  0  0  0  0
    1.1655   -0.2031   -2.9614 H   0  0  0  0  0  0  0  0  0  0  0  0
    3.7518    3.0687   -3.1154 H   0  0  0  0  0  0  0  0  0  0  0  0
   -3.2033    1.5466   -0.6239 N   0  0  0  0  0  0  0  0  0  0  0  0
   -4.6374    1.5254   -0.4461 C   0  0  2  0  0  0  0  0  0  0  0  0
   -4.9728    2.3745    0.7729 C   0  0  0  0  0  0  0  0  0  0  0  0
   -4.1621    2.6183    1.6642 O   0  0  0  0  0  0  0  0  0  0  0  0
   -5.1531    0.1047   -0.2774 C   0  0  0  0  0  0  0  0  0  0  0  0
   -2.7189    0.6617   -0.7425 H   0  0  0  0  0  0  0  0  0  0  0  0
   -5.0739    1.9819   -1.3412 H   0  0  0  0  0  0  0  0  0  0  0  0
   -4.7267   -0.3690    0.6143 H   0  0  0  0  0  0  0  0  0  0  0  0
   -6.2429    0.0881   -0.1714 H   0  0  0  0  0  0  0  0  0  0  0  0
   -4.8851   -0.5124   -1.1418 H   0  0  0  0  0  0  0  0  0  0  0  0
   -6.2963    2.7922    0.7698 N   0  0  0  0  0  0  0  0  0  0  0  0
   -6.8614    3.5999    1.8254 C   0  0  0  0  0  0  0  0  0  0  0  0
   -6.8920    2.5594   -0.0193 H   0  0  0  0  0  0  0  0  0  0  0  0
   -7.3179    2.9465    2.5834 H   0  0  0  0  0  0  0  0  0  0  0  0
   -6.0675    4.2023    2.2910 H   0  0  0  0  0  0  0  0  0  0  0  0
   -7.6292    4.2666    1.4058 H   0  0  0  0  0  0  0  0  0  0  0  0
 22 24  2  0  0  0  0
 24 26  1  0  0  0  0
 25 26  2  0  0  0  0
 23 25  1  0  0  0  0
 21 22  1  0  0  0  0
 22 23  1  0  0  0  0
  1  3  1  0  0  0  0
  1  7  1  0  0  0  0
  1  2  2  0  0  0  0
 35 36  1  0  0  0  0
 36 44  1  0  0  0  0
 36 37  2  0  0  0  0
  8  9  1  0  0  0  0
  9 17  1  0  0  0  0
  9 10  2  0  0  0  0
 18 19  1  0  0  0  0
 19 34  1  0  0  0  0
 19 20  2  0  0  0  0
 35 38  1  0  0  0  0
  8 11  1  0  0  0  0
 44 45  1  0  0  0  0
 18 21  1  0  0  0  0
 34 35  1  0  0  0  0
  7  8  1  0  0  0  0
 17 18  1  0  0  0  0
 24 32  1  0  0  0  0
 25 33  1  0  0  0  0
  3  4  1  0  0  0  0
  3  5  1  0  0  0  0
  3  6  1  0  0  0  0
 38 41  1  0  0  0  0
 38 42  1  0  0  0  0
 38 43  1  0  0  0  0
 11 14  1  0  0  0  0
 11 15  1  0  0  0  0
 11 16  1  0  0  0  0
 45 47  1  0  0  0  0
 45 48  1  0  0  0  0
 45 49  1  0  0  0  0
 21 29  1  0  0  0  0
 21 30  1  0  0  0  0
 35 40  1  0  0  0  0
  8 13  1  0  0  0  0
 18 28  1  0  0  0  0
 23 31  1  0  0  0  0
 44 46  1  0  0  0  0
  7 12  1  0  0  0  0
 34 39  1  0  0  0  0
 17 27  1  0  0  0  0
M  END
$$$$

  -OEChem-02062319033D

 49 49  0     1  0  0  0  0  0999 V2000
   -1.5619    0.5658    3.7981 C   0  0  0  0  0  0  0  0  0  0  0  0
   -0.6145   -0.0489    3.3224 O   0  0  0  0  0  0  0  0  0  0  0  0
   -1.9938    0.2834    5.1988 C   0  0  0  0  0  0  0  0  0  0  0  0
   -2.7535   -0.5129    5.2522 H   0  0  0  0  0  0  0  0  0  0  0  0
   -1.1626   -0.0642    5.8331 H   0  0  0  0  0  0  0  0  0  0  0  0
   -2.4318    1.1383    5.7384 H   0  0  0  0  0  0  0  0  0  0  0  0
   -2.3116    1.5383    3.1570 N   0  0  0  0  0  0  0  0  0  0  0  0
   -2.0648    1.9643    1.8046 C   0  0  2  0  0  0  0  0  0  0  0  0
   -0.7298    1.3789    1.3634 C   0  0  0  0  0  0  0  0  0  0  0  0
    0.1423    1.0262    2.1547 O   0  0  0  0  0  0  0  0  0  0  0  0
   -2.0560    3.4811    1.6952 C   0  0  0  0  0  0  0  0  0  0  0  0
   -3.0767    1.9741    3.6688 H   0  0  0  0  0  0  0  0  0  0  0  0
   -2.8689    1.5458    1.1895 H   0  0  0  0  0  0  0  0  0  0  0  0
   -1.2569    3.9183    2.3049 H   0  0  0  0  0  0  0  0  0  0  0  0
   -1.8965    3.8033    0.6609 H   0  0  0  0  0  0  0  0  0  0  0  0
   -3.0062    3.9023    2.0409 H   0  0  0  0  0  0  0  0  0  0  0  0
   -0.6071    1.3358   -0.0200 N   0  0  0  0  0  0  0  0  0  0  0  0
   -0.6665    2.5156   -0.8457 C   0  0  2  0  0  0  0  0  0  0  0  0
   -2.0300    3.1581   -0.6169 C   0  0  0  0  0  0  0  0  0  0  0  0
   -2.1845    4.3700   -0.4820 O   0  0  0  0  0  0  0  0  0  0  0  0
   -0.4722    2.1928   -2.3317 C   0  0  0  0  0  0  0  0  0  0  0  0
    0.8955    1.6302   -2.6326 C   0  0  0  0  0  0  0  0  0  0  0  0
    2.0219    2.4031   -2.6650 N   0  0  0  0  0  0  0  0  0  0  0  0
    1.3328    0.3585   -2.9191 C   0  0  0  0  0  0  0  0  0  0  0  0
    3.0736    1.5824   -2.9648 C   0  0  0  0  0  0  0  0  0  0  0  0
    2.6896    0.3354   -3.1246 N   0  0  0  0  0  0  0  0  0  0  0  0
   -0.4299    0.4436   -0.4751 H   0  0  0  0  0  0  0  0  0  0  0  0
    0.1148    3.1923   -0.4803 H   0  0  0  0  0  0  0  0  0  0  0  0
   -0.6450    3.0898   -2.9416 H   0  0  0  0  0  0  0  0  0  0  0  0
   -1.2242    1.4668   -2.6680 H   0  0  0  0  0  0  0  0  0  0  0  0
    2.0717    3.3998   -2.4995 H   0  0  0  0  0  0  0  0  0  0  0  0
    0.7416   -0.5435   -2.9884 H   0  0  0  0  0  0  0  0  0  0  0  0
    4.0850    1.9535   -3.0511 H   0  0  0  0  0  0  0  0  0  0  0  0
   -3.0546    2.2218   -0.6318 N   0  0  0  0  0  0  0  0  0  0  0  0
   -4.4477    2.5671   -0.4617 C   0  0  2  0  0  0  0  0  0  0  0  0
   -4.5664    3.4472    0.7755 C   0  0  0  0  0  0  0  0  0  0  0  0
   -3.7302    3.4543    1.6765 O   0  0  0  0  0  0  0  0  0  0  0  0
   -5.3137    1.3241   -0.3297 C   0  0  0  0  0  0  0  0  0  0  0  0
   -2.8131    1.2448   -0.7691 H   0  0  0  0  0  0  0  0  0  0  0  0
   -4.7419    3.1401   -1.3478 H   0  0  0  0  0  0  0  0  0  0  0  0
   -5.0336    0.7371    0.5527 H   0  0  0  0  0  0  0  0  0  0  0  0
   -6.3720    1.5866   -0.2296 H   0  0  0  0  0  0  0  0  0  0  0  0
   -5.2042    0.6777   -1.2072 H   0  0  0  0  0  0  0  0  0  0  0  0
   -5.7375    4.1920    0.7757 N   0  0  0  0  0  0  0  0  0  0  0  0
   -6.0871    5.0948    1.8475 C   0  0  0  0  0  0  0  0  0  0  0  0
   -6.3643    4.1378   -0.0217 H   0  0  0  0  0  0  0  0  0  0  0  0
   -6.7049    4.5648    2.5873 H   0  0  0  0  0  0  0  0  0  0  0  0
   -5.1700    5.4619    2.3313 H   0  0  0  0  0  0  0  0  0  0  0  0
   -6.6525    5.9459    1.4401 H   0  0  0  0  0  0  0  0  0  0  0  0
 22 24  2  0  0  0  0
 24 26  1  0  0  0  0
 25 26  2  0  0  0  0
 23 25  1  0  0  0  0
 21 22  1  0  0  0  0
 22 23  1  0  0  0  0
  1  3  1  0  0  0  0
  1  7  1  0  0  0  0
  1  2  2  0  0  0  0
 35 36  1  0  0  0  0
 36 44  1  0  0  0  0
 36 37  2  0  0  0  0
  8  9  1  0  0  0  0
  9 17  1  0  0  0  0
  9 10  2  0  0  0  0
 18 19  1  0  0  0  0
 19 34  1  0  0  0  0
 19 20  2  0  0  0  0
 35 38  1  0  0  0  0
  8 11  1  0  0  0  0
 44 45  1  0  0  0  0
 18 21  1  0  0  0  0
 34 35  1  0  0  0  0
  7  8  1  0  0  0  0
 17 18  1  0  0  0  0
 24 32  1  0  0  0  0
 25 33  1  0  0  0  0
  3  4  1  0  0  0  0
  3  5  1  0  0  0  0
  3  6  1  0  0  0  0
 38 41  1  0  0  0  0
 38 42  1  0  0  0  0
 38 43  1  0  0  0  0
 11 14  1  0  0  0  0
 11 15  1  0  0  0  0
 11 16  1  0  0  0  0
 45 47  1  0  0  0  0
 45 48  1  0  0  0  0
 45 49  1  0  0  0  0
 21 29  1  0  0  0  0
 21 30  1  0  0  0  0
 35 40  1  0  0  0  0
  8 13  1  0  0  0  0
 18 28  1  0  0  0  0
 23 31  1  0  0  0  0
 44 46  1  0  0  0  0
  7 12  1  0  0  0  0
 34 39  1  0  0  0  0
 17 27  1  0  0  0  0
M  END
$$$$

  -OEChem-02062319033D

 49 49  0     1  0  0  0  0  0999 V2000
   -1.5619    0.5658    3.7981 C   0  0  0  0  0  0  0  0  0  0  0  0
   -0.6145   -0.0489    3.3224 O   0  0  0  0  0  0  0  0  0  0  0  0
   -1.9938    0.2834    5.1988 C   0  0  0  0  0  0  0  0  0  0  0  0
   -2.7535   -0.5129    5.2522 H   0  0  0  0  0  0  0  0  0  0  0  0
   -1.1626   -0.0642    5.8331 H   0  0  0  0  0  0  0  0  0  0  0  0
   -2.4318    1.1383    5.7384 H   0  0  0  0  0  0  0  0  0  0  0  0
   -2.3116    1.5383    3.1570 N   0  0  0  0  0  0  0  0  0  0  0  0
   -2.0648    1.9643    1.8046 C   0  0  2  0  0  0  0  0  0  0  0  0
   -0.7298    1.3789    1.3634 C   0  0  0  0  0  0  0  0  0  0  0  0
    0.1423    1.0262    2.1547 O   0  0  0  0  0  0  0  0  0  0  0  0
   -2.0560    3.4811    1.6952 C   0  0  0  0  0  0  0  0  0  0  0  0
   -3.0767    1.9741    3.6688 H   0  0  0  0  0  0  0  0  0  0  0  0
   -2.8689    1.5458    1.1895 H   0  0  0  0  0  0  0  0  0  0  0  0
   -1.2569    3.9183    2.3049 H   0  0  0  0  0  0  0  0  0  0  0  0
   -1.8965    3.8033    0.6609 H   0  0  0  0  0  0  0  0  0  0  0  0
   -3.0062    3.9023    2.0409 H   0  0  0  0  0  0  0  0  0  0  0  0
   -0.6071    1.3358   -0.0200 N   0  0  0  0  0  0  0  0  0  0  0  0
   -0.3515    2.5088   -0.8175 C   0  0  2  0  0  0  0  0  0  0  0  0
   -1.5060    3.4758   -0.5803 C   0  0  0  0  0  0  0  0  0  0  0  0
   -1.3445    4.6834   -0.4172 O   0  0  0  0  0  0  0  0  0  0  0  0
   -0.2305    2.1792   -2.3098 C   0  0  0  0  0  0  0  0  0  0  0  0
    0.9494    1.2897   -2.6172 C   0  0  0  0  0  0  0  0  0  0  0  0
    2.2371    1.7467   -2.6255 N   0  0  0  0  0  0  0  0  0  0  0  0
    1.0474   -0.0452   -2.9318 C   0  0  0  0  0  0  0  0  0  0  0  0
    3.0451    0.6894   -2.9395 C   0  0  0  0  0  0  0  0  0  0  0  0
    2.3547   -0.4127   -3.1309 N   0  0  0  0  0  0  0  0  0  0  0  0
   -0.6607    0.4382   -0.4954 H   0  0  0  0  0  0  0  0  0  0  0  0
    0.5737    2.9531   -0.4321 H   0  0  0  0  0  0  0  0  0  0  0  0
   -0.1597    3.1036   -2.8990 H   0  0  0  0  0  0  0  0  0  0  0  0
   -1.1404    1.6791   -2.6672 H   0  0  0  0  0  0  0  0  0  0  0  0
    2.5402    2.6930   -2.4360 H   0  0  0  0  0  0  0  0  0  0  0  0
    0.2446   -0.7625   -3.0256 H   0  0  0  0  0  0  0  0  0  0  0  0
    4.1189    0.7890   -3.0118 H   0  0  0  0  0  0  0  0  0  0  0  0
   -2.7369    2.8359   -0.6227 N   0  0  0  0  0  0  0  0  0  0  0  0
   -3.9958    3.5248   -0.4515 C   0  0  2  0  0  0  0  0  0  0  0  0
   -3.8974    4.3786    0.8058 C   0  0  0  0  0  0  0  0  0  0  0  0
   -3.0976    4.1502    1.7109 O   0  0  0  0  0  0  0  0  0  0  0  0
   -5.1542    2.5445   -0.3536 C   0  0  0  0  0  0  0  0  0  0  0  0
   -2.7538    1.8329   -0.7821 H   0  0  0  0  0  0  0  0  0  0  0  0
   -4.1227    4.1734   -1.3251 H   0  0  0  0  0  0  0  0  0  0  0  0
   -5.0445    1.8861    0.5159 H   0  0  0  0  0  0  0  0  0  0  0  0
   -6.1102    3.0687   -0.2526 H   0  0  0  0  0  0  0  0  0  0  0  0
   -5.2052    1.9110   -1.2458 H   0  0  0  0  0  0  0  0  0  0  0  0
   -4.8371    5.3999    0.8179 N   0  0  0  0  0  0  0  0  0  0  0  0
   -4.9541    6.3388    1.9092 C   0  0  0  0  0  0  0  0  0  0  0  0
   -5.4479    5.5265    0.0162 H   0  0  0  0  0  0  0  0  0  0  0  0
   -5.6957    5.9699    2.6330 H   0  0  0  0  0  0  0  0  0  0  0  0
   -3.9788    6.4464    2.4063 H   0  0  0  0  0  0  0  0  0  0  0  0
   -5.2767    7.3155    1.5194 H   0  0  0  0  0  0  0  0  0  0  0  0
 22 24  2  0  0  0  0
 24 26  1  0  0  0  0
 25 26  2  0  0  0  0
 23 25  1  0  0  0  0
 21 22  1  0  0  0  0
 22 23  1  0  0  0  0
  1  3  1  0  0  0  0
  1  7  1  0  0  0  0
  1  2  2  0  0  0  0
 35 36  1  0  0  0  0
 36 44  1  0  0  0  0
 36 37  2  0  0  0  0
  8  9  1  0  0  0  0
  9 17  1  0  0  0  0
  9 10  2  0  0  0  0
 18 19  1  0  0  0  0
 19 34  1  0  0  0  0
 19 20  2  0  0  0  0
 35 38  1  0  0  0  0
  8 11  1  0  0  0  0
 44 45  1  0  0  0  0
 18 21  1  0  0  0  0
 34 35  1  0  0  0  0
  7  8  1  0  0  0  0
 17 18  1  0  0  0  0
 24 32  1  0  0  0  0
 25 33  1  0  0  0  0
  3  4  1  0  0  0  0
  3  5  1  0  0  0  0
  3  6  1  0  0  0  0
 38 41  1  0  0  0  0
 38 42  1  0  0  0  0
 38 43  1  0  0  0  0
 11 14  1  0  0  0  0
 11 15  1  0  0  0  0
 11 16  1  0  0  0  0
 45 47  1  0  0  0  0
 45 48  1  0  0  0  0
 45 49  1  0  0  0  0
 21 29  1  0  0  0  0
 21 30  1  0  0  0  0
 35 40  1  0  0  0  0
  8 13  1  0  0  0  0
 18 28  1  0  0  0  0
 23 31  1  0  0  0  0
 44 46  1  0  0  0  0
  7 12  1  0  0  0  0
 34 39  1  0  0  0  0
 17 27  1  0  0  0  0
M  END
$$$$

  -OEChem-02062319033D

 49 49  0     1  0  0  0  0  0999 V2000
   -1.5619    0.5658    3.7981 C   0  0  0  0  0  0  0  0  0  0  0  0
   -0.6145   -0.0489    3.3224 O   0  0  0  0  0  0  0  0  0  0  0  0
   -1.9938    0.2834    5.1988 C   0  0  0  0  0  0  0  0  0  0  0  0
   -2.7535   -0.5129    5.2522 H   0  0  0  0  0  0  0  0  0  0  0  0
   -1.1626   -0.0642    5.8331 H   0  0  0  0  0  0  0  0  0  0  0  0
   -2.4318    1.1383    5.7384 H   0  0  0  0  0  0  0  0  0  0  0  0
   -2.3116    1.5383    3.1570 N   0  0  0  0  0  0  0  0  0  0  0  0
   -2.0648    1.9643    1.8046 C   0  0  2  0  0  0  0  0  0  0  0  0
   -0.7298    1.3789    1.3634 C   0  0  0  0  0  0  0  0  0  0  0  0
    0.1423    1.0262    2.1547 O   0  0  0  0  0  0  0  0  0  0  0  0
   -2.0560    3.4811    1.6952 C   0  0  0  0  0  0  0  0  0  0  0  0
   -3.0767    1.9741    3.6688 H   0  0  0  0  0  0  0  0  0  0  0  0
   -2.8689    1.5458    1.1895 H   0  0  0  0  0  0  0  0  0  0  0  0
   -1.2569    3.9183    2.3049 H   0  0  0  0  0  0  0  0  0  0  0  0
   -1.8965    3.8033    0.6609 H   0  0  0  0  0  0  0  0  0  0  0  0
   -3.0062    3.9023    2.0409 H   0  0  0  0  0  0  0  0  0  0  0  0
   -0.6071    1.3358   -0.0200 N   0  0  0  0  0  0  0  0  0  0  0  0
   -0.0492    2.4203   -0.7880 C   0  0  2  0  0  0  0  0  0  0  0  0
   -0.9182    3.6469   -0.5335 C   0  0  0  0  0  0  0  0  0  0  0  0
   -0.4529    4.7682   -0.3408 O   0  0  0  0  0  0  0  0  0  0  0  0
   -0.0007    2.1033   -2.2871 C   0  0  0  0  0  0  0  0  0  0  0  0
    0.9135    0.9467   -2.6097 C   0  0  0  0  0  0  0  0  0  0  0  0
    2.2755    1.0563   -2.6006 N   0  0  0  0  0  0  0  0  0  0  0  0
    0.6679   -0.3612   -2.9556 C   0  0  0  0  0  0  0  0  0  0  0  0
    2.7873   -0.1664   -2.9357 C   0  0  0  0  0  0  0  0  0  0  0  0
    1.8384   -1.0488   -3.1569 N   0  0  0  0  0  0  0  0  0  0  0  0
   -0.8849    0.4929   -0.5170 H   0  0  0  0  0  0  0  0  0  0  0  0
    0.9549    2.6026   -0.3874 H   0  0  0  0  0  0  0  0  0  0  0  0
    0.3123    2.9908   -2.8536 H   0  0  0  0  0  0  0  0  0  0  0  0
   -1.0047    1.8625   -2.6608 H   0  0  0  0  0  0  0  0  0  0  0  0
    2.8100    1.8882   -2.3869 H   0  0  0  0  0  0  0  0  0  0  0  0
   -0.2916   -0.8451   -3.0706 H   0  0  0  0  0  0  0  0  0  0  0  0
    3.8512   -0.3454   -3.0002 H   0  0  0  0  0  0  0  0  0  0  0  0
   -2.2718    3.3470   -0.5974 N   0  0  0  0  0  0  0  0  0  0  0  0
   -3.3126    4.3332   -0.4161 C   0  0  2  0  0  0  0  0  0  0  0  0
   -3.0115    5.1052    0.8617 C   0  0  0  0  0  0  0  0  0  0  0  0
   -2.3075    4.6587    1.7651 O   0  0  0  0  0  0  0  0  0  0  0  0
   -4.6855    3.6827   -0.3475 C   0  0  0  0  0  0  0  0  0  0  0  0
   -2.5447    2.3859   -0.7808 H   0  0  0  0  0  0  0  0  0  0  0  0
   -3.2585    5.0115   -1.2746 H   0  0  0  0  0  0  0  0  0  0  0  0
   -4.7586    2.9995    0.5065 H   0  0  0  0  0  0  0  0  0  0  0  0
   -5.4752    4.4334   -0.2388 H   0  0  0  0  0  0  0  0  0  0  0  0
   -4.8881    3.1035   -1.2548 H   0  0  0  0  0  0  0  0  0  0  0  0
   -3.6565    6.3337    0.8935 N   0  0  0  0  0  0  0  0  0  0  0  0
   -3.5397    7.2470    2.0063 C   0  0  0  0  0  0  0  0  0  0  0  0
   -4.2052    6.6309    0.0920 H   0  0  0  0  0  0  0  0  0  0  0  0
   -4.3592    7.0660    2.7173 H   0  0  0  0  0  0  0  0  0  0  0  0
   -2.5751    7.0887    2.5107 H   0  0  0  0  0  0  0  0  0  0  0  0
   -3.5955    8.2821    1.6383 H   0  0  0  0  0  0  0  0  0  0  0  0
 22 24  2  0  0  0  0
 24 26  1  0  0  0  0
 25 26  2  0  0  0  0
 23 25  1  0  0  0  0
 21 22  1  0  0  0  0
 22 23  1  0  0  0  0
  1  3  1  0  0  0  0
  1  7  1  0  0  0  0
  1  2  2  0  0  0  0
 35 36  1  0  0  0  0
 36 44  1  0  0  0  0
 36 37  2  0  0  0  0
  8  9  1  0  0  0  0
  9 17  1  0  0  0  0
  9 10  2  0  0  0  0
 18 19  1  0  0  0  0
 19 34  1  0  0  0  0
 19 20  2  0  0  0  0
 35 38  1  0  0  0  0
  8 11  1  0  0  0  0
 44 45  1  0  0  0  0
 18 21  1  0  0  0  0
 34 35  1  0  0  0  0
  7  8  1  0  0  0  0
 17 18  1  0  0  0  0
 24 32  1  0  0  0  0
 25 33  1  0  0  0  0
  3  4  1  0  0  0  0
  3  5  1  0  0  0  0
  3  6  1  0  0  0  0
 38 41  1  0  0  0  0
 38 42  1  0  0  0  0
 38 43  1  0  0  0  0
 11 14  1  0  0  0  0
 11 15  1  0  0  0  0
 11 16  1  0  0  0  0
 45 47  1  0  0  0  0
 45 48  1  0  0  0  0
 45 49  1  0  0  0  0
 21 29  1  0  0  0  0
 21 30  1  0  0  0  0
 35 40  1  0  0  0  0
  8 13  1  0  0  0  0
 18 28  1  0  0  0  0
 23 31  1  0  0  0  0
 44 46  1  0  0  0  0
  7 12  1  0  0  0  0
 34 39  1  0  0  0  0
 17 27  1  0  0  0  0
M  END
$$$$

  -OEChem-02062319033D

 49 49  0     1  0  0  0  0  0999 V2000
   -1.5619    0.5658    3.7981 C   0  0  0  0  0  0  0  0  0  0  0  0
   -0.6145   -0.0489    3.3224 O   0  0  0  0  0  0  0  0  0  0  0  0
   -1.9938    0.2834    5.1988 C   0  0  0  0  0  0  0  0  0  0  0  0
   -2.7535   -0.5129    5.2522 H   0  0  0  0  0  0  0  0  0  0  0  0
   -1.1626   -0.0642    5.8331 H   0  0  0  0  0  0  0  0  0  0  0  0
   -2.4318    1.1383    5.7384 H   0  0  0  0  0  0  0  0  0  0  0  0
   -2.3116    1.5383    3.1570 N   0  0  0  0  0  0  0  0  0  0  0  0
   -2.0648    1.9643    1.8046 C   0  0  2  0  0  0  0  0  0  0  0  0
   -0.7298    1.3789    1.3634 C   0  0  0  0  0  0  0  0  0  0  0  0
    0.1423    1.0262    2.1547 O   0  0  0  0  0  0  0  0  0  0  0  0
   -2.0560    3.4811    1.6952 C   0  0  0  0  0  0  0  0  0  0  0  0
   -3.0767    1.9741    3.6688 H   0  0  0  0  0  0  0  0  0  0  0  0
   -2.8689    1.5458    1.1895 H   0  0  0  0  0  0  0  0  0  0  0  0
   -1.2569    3.9183    2.3049 H   0  0  0  0  0  0  0  0  0  0  0  0
   -1.8965    3.8033    0.6609 H   0  0  0  0  0  0  0  0  0  0  0  0
   -3.0062    3.9023    2.0409 H   0  0  0  0  0  0  0  0  0  0  0  0
   -0.6071    1.3358   -0.0200 N   0  0  0  0  0  0  0  0  0  0  0  0
    0.2198    2.2563   -0.7590 C   0  0  2  0  0  0  0  0  0  0  0  0
   -0.3067    3.6596   -0.4797 C   0  0  0  0  0  0  0  0  0  0  0  0
    0.4296    4.6186   -0.2579 O   0  0  0  0  0  0  0  0  0  0  0  0
    0.2015    1.9703   -2.2650 C   0  0  0  0  0  0  0  0  0  0  0  0
    0.7904    0.6244   -2.6106 C   0  0  0  0  0  0  0  0  0  0  0  0
    2.1345    0.3790   -2.5920 N   0  0  0  0  0  0  0  0  0  0  0  0
    0.2200   -0.5681   -2.9889 C   0  0  0  0  0  0  0  0  0  0  0  0
    2.3178   -0.9268   -2.9536 C   0  0  0  0  0  0  0  0  0  0  0  0
    1.1761   -1.5297   -3.2006 N   0  0  0  0  0  0  0  0  0  0  0  0
   -1.0871    0.6040   -0.5384 H   0  0  0  0  0  0  0  0  0  0  0  0
    1.2325    2.1648   -0.3492 H   0  0  0  0  0  0  0  0  0  0  0  0
    0.7387    2.7592   -2.8086 H   0  0  0  0  0  0  0  0  0  0  0  0
   -0.8265    2.0047   -2.6495 H   0  0  0  0  0  0  0  0  0  0  0  0
    2.8628    1.0401   -2.3558 H   0  0  0  0  0  0  0  0  0  0  0  0
   -0.8304   -0.7857   -3.1202 H   0  0  0  0  0  0  0  0  0  0  0  0
    3.3003   -1.3725   -3.0170 H   0  0  0  0  0  0  0  0  0  0  0  0
   -1.6911    3.7202   -0.5576 N   0  0  0  0  0  0  0  0  0  0  0  0
   -2.4446    4.9372   -0.3580 C   0  0  2  0  0  0  0  0  0  0  0  0
   -1.9690    5.5775    0.9394 C   0  0  0  0  0  0  0  0  0  0  0  0
   -1.4137    4.9450    1.8354 O   0  0  0  0  0  0  0  0  0  0  0  0
   -3.9394    4.6613   -0.3118 C   0  0  0  0  0  0  0  0  0  0  0  0
   -2.2004    2.8662   -0.7653 H   0  0  0  0  0  0  0  0  0  0  0  0
   -2.2082    5.5972   -1.1998 H   0  0  0  0  0  0  0  0  0  0  0  0
   -4.1955    4.0016    0.5252 H   0  0  0  0  0  0  0  0  0  0  0  0
   -4.5103    5.5876   -0.1892 H   0  0  0  0  0  0  0  0  0  0  0  0
   -4.2744    4.1737   -1.2337 H   0  0  0  0  0  0  0  0  0  0  0  0
   -2.2760    6.9297    0.9973 N   0  0  0  0  0  0  0  0  0  0  0  0
   -1.9402    7.7575    2.1322 C   0  0  0  0  0  0  0  0  0  0  0  0
   -2.7208    7.3757    0.2004 H   0  0  0  0  0  0  0  0  0  0  0  0
   -2.7865    7.7785    2.8346 H   0  0  0  0  0  0  0  0  0  0  0  0
   -1.0546    7.3450    2.6375 H   0  0  0  0  0  0  0  0  0  0  0  0
   -1.7235    8.7798    1.7888 H   0  0  0  0  0  0  0  0  0  0  0  0
 22 24  2  0  0  0  0
 24 26  1  0  0  0  0
 25 26  2  0  0  0  0
 23 25  1  0  0  0  0
 21 22  1  0  0  0  0
 22 23  1  0  0  0  0
  1  3  1  0  0  0  0
  1  7  1  0  0  0  0
  1  2  2  0  0  0  0
 35 36  1  0  0  0  0
 36 44  1  0  0  0  0
 36 37  2  0  0  0  0
  8  9  1  0  0  0  0
  9 17  1  0  0  0  0
  9 10  2  0  0  0  0
 18 19  1  0  0  0  0
 19 34  1  0  0  0  0
 19 20  2  0  0  0  0
 35 38  1  0  0  0  0
  8 11  1  0  0  0  0
 44 45  1  0  0  0  0
 18 21  1  0  0  0  0
 34 35  1  0  0  0  0
  7  8  1  0  0  0  0
 17 18  1  0  0  0  0
 24 32  1  0  0  0  0
 25 33  1  0  0  0  0
  3  4  1  0  0  0  0
  3  5  1  0  0  0  0
  3  6  1  0  0  0  0
 38 41  1  0  0  0  0
 38 42  1  0  0  0  0
 38 43  1  0  0  0  0
 11 14  1  0  0  0  0
 11 15  1  0  0  0  0
 11 16  1  0  0  0  0
 45 47  1  0  0  0  0
 45 48  1  0  0  0  0
 45 49  1  0  0  0  0
 21 29  1  0  0  0  0
 21 30  1  0  0  0  0
 35 40  1  0  0  0  0
  8 13  1  0  0  0  0
 18 28  1  0  0  0  0
 23 31  1  0  0  0  0
 44 46  1  0  0  0  0
  7 12  1  0  0  0  0
 34 39  1  0  0  0  0
 17 27  1  0  0  0  0
M  END
$$$$

  -OEChem-02062319033D

 49 49  0     1  0  0  0  0  0999 V2000
   -1.5619    0.5658    3.7981 C   0  0  0  0  0  0  0  0  0  0  0  0
   -0.6145   -0.0489    3.3224 O   0  0  0  0  0  0  0  0  0  0  0  0
   -1.9938    0.2834    5.1988 C   0  0  0  0  0  0  0  0  0  0  0  0
   -2.7535   -0.5129    5.2522 H   0  0  0  0  0  0  0  0  0  0  0  0
   -1.1626   -0.0642    5.8331 H   0  0  0  0  0  0  0  0  0  0  0  0
   -2.4318    1.1383    5.7384 H   0  0  0  0  0  0  0  0  0  0  0  0
   -2.3116    1.5383    3.1570 N   0  0  0  0  0  0  0  0  0  0  0  0
   -2.0648    1.9643    1.8046 C   0  0  2  0  0  0  0  0  0  0  0  0
   -0.7298    1.3789    1.3634 C   0  0  0  0  0  0  0  0  0  0  0  0
    0.1423    1.0262    2.1547 O   0  0  0  0  0  0  0  0  0  0  0  0
   -2.0560    3.4811    1.6952 C   0  0  0  0  0  0  0  0  0  0  0  0
   -3.0767    1.9741    3.6688 H   0  0  0  0  0  0  0  0  0  0  0  0
   -2.8689    1.5458    1.1895 H   0  0  0  0  0  0  0  0  0  0  0  0
   -1.2569    3.9183    2.3049 H   0  0  0  0  0  0  0  0  0  0  0  0
   -1.8965    3.8033    0.6609 H   0  0  0  0  0  0  0  0  0  0  0  0
   -3.0062    3.9023    2.0409 H   0  0  0  0  0  0  0  0  0  0  0  0
   -0.6071    1.3358   -0.0200 N   0  0  0  0  0  0  0  0  0  0  0  0
    0.4371    2.0280   -0.7326 C   0  0  2  0  0  0  0  0  0  0  0  0
    0.2868    3.5130   -0.4225 C   0  0  0  0  0  0  0  0  0  0  0  0
    1.2427    4.2448   -0.1742 O   0  0  0  0  0  0  0  0  0  0  0  0
    0.3623    1.7892   -2.2451 C   0  0  0  0  0  0  0  0  0  0  0  0
    0.5885    0.3448   -2.6198 C   0  0  0  0  0  0  0  0  0  0  0  0
    1.8237   -0.2391   -2.6003 N   0  0  0  0  0  0  0  0  0  0  0  0
   -0.2657   -0.6518   -3.0293 C   0  0  0  0  0  0  0  0  0  0  0  0
    1.6684   -1.5398   -2.9921 C   0  0  0  0  0  0  0  0  0  0  0  0
    0.4127   -1.8225   -3.2592 N   0  0  0  0  0  0  0  0  0  0  0  0
   -1.2537    0.7640   -0.5581 H   0  0  0  0  0  0  0  0  0  0  0  0
    1.3875    1.6695   -0.3200 H   0  0  0  0  0  0  0  0  0  0  0  0
    1.0906    2.4246   -2.7670 H   0  0  0  0  0  0  0  0  0  0  0  0
   -0.6178    2.0958   -2.6338 H   0  0  0  0  0  0  0  0  0  0  0  0
    2.6951    0.2066   -2.3447 H   0  0  0  0  0  0  0  0  0  0  0  0
   -1.3352   -0.5884   -3.1711 H   0  0  0  0  0  0  0  0  0  0  0  0
    2.5036   -2.2222   -3.0612 H   0  0  0  0  0  0  0  0  0  0  0  0
   -1.0344    3.9302   -0.5059 N   0  0  0  0  0  0  0  0  0  0  0  0
   -1.4511    5.2957   -0.2811 C   0  0  2  0  0  0  0  0  0  0  0  0
   -0.8409    5.7632    1.0336 C   0  0  0  0  0  0  0  0  0  0  0  0
   -0.4772    4.9896    1.9170 O   0  0  0  0  0  0  0  0  0  0  0  0
   -2.9670    5.4134   -0.2491 C   0  0  0  0  0  0  0  0  0  0  0  0
   -1.7441    3.2410   -0.7365 H   0  0  0  0  0  0  0  0  0  0  0  0
   -1.0434    5.8906   -1.1056 H   0  0  0  0  0  0  0  0  0  0  0  0
   -3.3936    4.8239    0.5707 H   0  0  0  0  0  0  0  0  0  0  0  0
   -3.2813    6.4527   -0.1072 H   0  0  0  0  0  0  0  0  0  0  0  0
   -3.4060    5.0489   -1.1840 H   0  0  0  0  0  0  0  0  0  0  0  0
   -0.7899    7.1473    1.1223 N   0  0  0  0  0  0  0  0  0  0  0  0
   -0.2647    7.8357    2.2783 C   0  0  0  0  0  0  0  0  0  0  0  0
   -1.0959    7.7101    0.3340 H   0  0  0  0  0  0  0  0  0  0  0  0
   -1.0847    8.0588    2.9767 H   0  0  0  0  0  0  0  0  0  0  0  0
    0.4792    7.1978    2.7781 H   0  0  0  0  0  0  0  0  0  0  0  0
    0.2118    8.7748    1.9605 H   0  0  0  0  0  0  0  0  0  0  0  0
 22 24  2  0  0  0  0
 24 26  1  0  0  0  0
 25 26  2  0  0  0  0
 23 25  1  0  0  0  0
 21 22  1  0  0  0  0
 22 23  1  0  0  0  0
  1  3  1  0  0  0  0
  1  7  1  0  0  0  0
  1  2  2  0  0  0  0
 35 36  1  0  0  0  0
 36 44  1  0  0  0  0
 36 37  2  0  0  0  0
  8  9  1  0  0  0  0
  9 17  1  0  0  0  0
  9 10  2  0  0  0  0
 18 19  1  0  0  0  0
 19 34  1  0  0  0  0
 19 20  2  0  0  0  0
 35 38  1  0  0  0  0
  8 11  1  0  0  0  0
 44 45  1  0  0  0  0
 18 21  1  0  0  0  0
 34 35  1  0  0  0  0
  7  8  1  0  0  0  0
 17 18  1  0  0  0  0
 24 32  1  0  0  0  0
 25 33  1  0  0  0  0
  3  4  1  0  0  0  0
  3  5  1  0  0  0  0
  3  6  1  0  0  0  0
 38 41  1  0  0  0  0
 38 42  1  0  0  0  0
 38 43  1  0  0  0  0
 11 14  1  0  0  0  0
 11 15  1  0  0  0  0
 11 16  1  0  0  0  0
 45 47  1  0  0  0  0
 45 48  1  0  0  0  0
 45 49  1  0  0  0  0
 21 29  1  0  0  0  0
 21 30  1  0  0  0  0
 35 40  1  0  0  0  0
  8 13  1  0  0  0  0
 18 28  1  0  0  0  0
 23 31  1  0  0  0  0
 44 46  1  0  0  0  0
  7 12  1  0  0  0  0
 34 39  1  0  0  0  0
 17 27  1  0  0  0  0
M  END
$$$$

  -OEChem-02062319033D

 49 49  0     1  0  0  0  0  0999 V2000
   -1.5619    0.5658    3.7981 C   0  0  0  0  0  0  0  0  0  0  0  0
   -0.6145   -0.0489    3.3224 O   0  0  0  0  0  0  0  0  0  0  0  0
   -1.9938    0.2834    5.1988 C   0  0  0  0  0  0  0  0  0  0  0  0
   -2.7535   -0.5129    5.2522 H   0  0  0  0  0  0  0  0  0  0  0  0
   -1.1626   -0.0642    5.8331 H   0  0  0  0  0  0  0  0  0  0  0  0
   -2.4318    1.1383    5.7384 H   0  0  0  0  0  0  0  0  0  0  0  0
   -2.3116    1.5383    3.1570 N   0  0  0  0  0  0  0  0  0  0  0  0
   -2.0648    1.9643    1.8046 C   0  0  2  0  0  0  0  0  0  0  0  0
   -0.7298    1.3789    1.3634 C   0  0  0  0  0  0  0  0  0  0  0  0
    0.1423    1.0262    2.1547 O   0  0  0  0  0  0  0  0  0  0  0  0
   -2.0560    3.4811    1.6952 C   0  0  0  0  0  0  0  0  0  0  0  0
   -3.0767    1.9741    3.6688 H   0  0  0  0  0  0  0  0  0  0  0  0
   -2.8689    1.5458    1.1895 H   0  0  0  0  0  0  0  0  0  0  0  0
   -1.2569    3.9183    2.3049 H   0  0  0  0  0  0  0  0  0  0  0  0
   -1.8965    3.8033    0.6609 H   0  0  0  0  0  0  0  0  0  0  0  0
   -3.0062    3.9023    2.0409 H   0  0  0  0  0  0  0  0  0  0  0  0
   -0.6071    1.3358   -0.0200 N   0  0  0  0  0  0  0  0  0  0  0  0
    0.5879    1.7508   -0.7106 C   0  0  2  0  0  0  0  0  0  0  0  0
    0.8219    3.2173   -0.3659 C   0  0  0  0  0  0  0  0  0  0  0  0
    1.9312    3.6723   -0.0953 O   0  0  0  0  0  0  0  0  0  0  0  0
    0.4708    1.5723   -2.2287 C   0  0  0  0  0  0  0  0  0  0  0  0
    0.3214    0.1270   -2.6367 C   0  0  0  0  0  0  0  0  0  0  0  0
    1.3643   -0.7559   -2.6249 N   0  0  0  0  0  0  0  0  0  0  0  0
   -0.7560   -0.6066   -3.0742 C   0  0  0  0  0  0  0  0  0  0  0  0
    0.8835   -1.9637   -3.0485 C   0  0  0  0  0  0  0  0  0  0  0  0
   -0.3996   -1.9073   -3.3286 N   0  0  0  0  0  0  0  0  0  0  0  0
   -1.3732    0.9618   -0.5749 H   0  0  0  0  0  0  0  0  0  0  0  0
    1.4093    1.1506   -0.3019 H   0  0  0  0  0  0  0  0  0  0  0  0
    1.3440    2.0097   -2.7316 H   0  0  0  0  0  0  0  0  0  0  0  0
   -0.3929    2.1296   -2.6149 H   0  0  0  0  0  0  0  0  0  0  0  0
    2.3182   -0.5555   -2.3544 H   0  0  0  0  0  0  0  0  0  0  0  0
   -1.7715   -0.2666   -3.2198 H   0  0  0  0  0  0  0  0  0  0  0  0
    1.5154   -2.8367   -3.1296 H   0  0  0  0  0  0  0  0  0  0  0  0
   -0.3463    3.9626   -0.4459 N   0  0  0  0  0  0  0  0  0  0  0  0
   -0.3997    5.3841   -0.1906 C   0  0  2  0  0  0  0  0  0  0  0  0
    0.2959    5.6498    1.1380 C   0  0  0  0  0  0  0  0  0  0  0  0
    0.4382    4.7895    2.0044 O   0  0  0  0  0  0  0  0  0  0  0  0
   -1.8343    5.8879   -0.1634 C   0  0  0  0  0  0  0  0  0  0  0  0
   -1.2070    3.4849   -0.6965 H   0  0  0  0  0  0  0  0  0  0  0  0
    0.1566    5.8716   -0.9987 H   0  0  0  0  0  0  0  0  0  0  0  0
   -2.4074    5.4106    0.6399 H   0  0  0  0  0  0  0  0  0  0  0  0
   -1.8719    6.9697    0.0016 H   0  0  0  0  0  0  0  0  0  0  0  0
   -2.3421    5.6694   -1.1090 H   0  0  0  0  0  0  0  0  0  0  0  0
    0.7007    6.9717    1.2599 N   0  0  0  0  0  0  0  0  0  0  0  0
    1.3727    7.4761    2.4347 C   0  0  0  0  0  0  0  0  0  0  0  0
    0.5586    7.6114    0.4838 H   0  0  0  0  0  0  0  0  0  0  0  0
    0.6302    7.8877    3.1341 H   0  0  0  0  0  0  0  0  0  0  0  0
    1.9216    6.6573    2.9228 H   0  0  0  0  0  0  0  0  0  0  0  0
    2.0785    8.2673    2.1418 H   0  0  0  0  0  0  0  0  0  0  0  0
 22 24  2  0  0  0  0
 24 26  1  0  0  0  0
 25 26  2  0  0  0  0
 23 25  1  0  0  0  0
 21 22  1  0  0  0  0
 22 23  1  0  0  0  0
  1  3  1  0  0  0  0
  1  7  1  0  0  0  0
  1  2  2  0  0  0  0
 35 36  1  0  0  0  0
 36 44  1  0  0  0  0
 36 37  2  0  0  0  0
  8  9  1  0  0  0  0
  9 17  1  0  0  0  0
  9 10  2  0  0  0  0
 18 19  1  0  0  0  0
 19 34  1  0  0  0  0
 19 20  2  0  0  0  0
 35 38  1  0  0  0  0
  8 11  1  0  0  0  0
 44 45  1  0  0  0  0
 18 21  1  0  0  0  0
 34 35  1  0  0  0  0
  7  8  1  0  0  0  0
 17 18  1  0  0  0  0
 24 32  1  0  0  0  0
 25 33  1  0  0  0  0
  3  4  1  0  0  0  0
  3  5  1  0  0  0  0
  3  6  1  0  0  0  0
 38 41  1  0  0  0  0
 38 42  1  0  0  0  0
 38 43  1  0  0  0  0
 11 14  1  0  0  0  0
 11 15  1  0  0  0  0
 11 16  1  0  0  0  0
 45 47  1  0  0  0  0
 45 48  1  0  0  0  0
 45 49  1  0  0  0  0
 21 29  1  0  0  0  0
 21 30  1  0  0  0  0
 35 40  1  0  0  0  0
  8 13  1  0  0  0  0
 18 28  1  0  0  0  0
 23 31  1  0  0  0  0
 44 46  1  0  0  0  0
  7 12  1  0  0  0  0
 34 39  1  0  0  0  0
 17 27  1  0  0  0  0
M  END
$$$$

  -OEChem-02062319033D

 49 49  0     1  0  0  0  0  0999 V2000
   -1.5619    0.5658    3.7981 C   0  0  0  0  0  0  0  0  0  0  0  0
   -0.6145   -0.0489    3.3224 O   0  0  0  0  0  0  0  0  0  0  0  0
   -1.9938    0.2834    5.1988 C   0  0  0  0  0  0  0  0  0  0  0  0
   -2.7535   -0.5129    5.2522 H   0  0  0  0  0  0  0  0  0  0  0  0
   -1.1626   -0.0642    5.8331 H   0  0  0  0  0  0  0  0  0  0  0  0
   -2.4318    1.1383    5.7384 H   0  0  0  0  0  0  0  0  0  0  0  0
   -2.3116    1.5383    3.1570 N   0  0  0  0  0  0  0  0  0  0  0  0
   -2.0648    1.9643    1.8046 C   0  0  2  0  0  0  0  0  0  0  0  0
   -0.7298    1.3789    1.3634 C   0  0  0  0  0  0  0  0  0  0  0  0
    0.1423    1.0262    2.1547 O   0  0  0  0  0  0  0  0  0  0  0  0
   -2.0560    3.4811    1.6952 C   0  0  0  0  0  0  0  0  0  0  0  0
   -3.0767    1.9741    3.6688 H   0  0  0  0  0  0  0  0  0  0  0  0
   -2.8689    1.5458    1.1895 H   0  0  0  0  0  0  0  0  0  0  0  0
   -1.2569    3.9183    2.3049 H   0  0  0  0  0  0  0  0  0  0  0  0
   -1.8965    3.8033    0.6609 H   0  0  0  0  0  0  0  0  0  0  0  0
   -3.0062    3.9023    2.0409 H   0  0  0  0  0  0  0  0  0  0  0  0
   -0.6071    1.3358   -0.0200 N   0  0  0  0  0  0  0  0  0  0  0  0
    0.6620    1.4436   -0.6945 C   0  0  2  0  0  0  0  0  0  0  0  0
    1.2620    2.7924   -0.3136 C   0  0  0  0  0  0  0  0  0  0  0  0
    2.4481    2.9400   -0.0267 O   0  0  0  0  0  0  0  0  0  0  0  0
    0.5197    1.3345   -2.2170 C   0  0  0  0  0  0  0  0  0  0  0  0
    0.0075   -0.0142   -2.6601 C   0  0  0  0  0  0  0  0  0  0  0  0
    0.7875   -1.1361   -2.6642 N   0  0  0  0  0  0  0  0  0  0  0  0
   -1.2177   -0.4355   -3.1205 C   0  0  0  0  0  0  0  0  0  0  0  0
    0.0166   -2.1696   -3.1189 C   0  0  0  0  0  0  0  0  0  0  0  0
   -1.2055   -1.7783   -3.4040 N   0  0  0  0  0  0  0  0  0  0  0  0
   -1.4375    1.1841   -0.5875 H   0  0  0  0  0  0  0  0  0  0  0  0
    1.2965    0.6432   -0.2961 H   0  0  0  0  0  0  0  0  0  0  0  0
    1.4815    1.5429   -2.7049 H   0  0  0  0  0  0  0  0  0  0  0  0
   -0.1670    2.1039   -2.5941 H   0  0  0  0  0  0  0  0  0  0  0  0
    1.7579   -1.1944   -2.3842 H   0  0  0  0  0  0  0  0  0  0  0  0
   -2.1096    0.1579   -3.2630 H   0  0  0  0  0  0  0  0  0  0  0  0
    0.4031   -3.1740   -3.2177 H   0  0  0  0  0  0  0  0  0  0  0  0
    0.3262    3.8152   -0.3817 N   0  0  0  0  0  0  0  0  0  0  0  0
    0.6380    5.1965   -0.0928 C   0  0  2  0  0  0  0  0  0  0  0  0
    1.3638    5.2449    1.2453 C   0  0  0  0  0  0  0  0  0  0  0  0
    1.2702    4.3584    2.0916 O   0  0  0  0  0  0  0  0  0  0  0  0
   -0.6187    6.0524   -0.0608 C   0  0  0  0  0  0  0  0  0  0  0  0
   -0.6256    3.5811   -0.6479 H   0  0  0  0  0  0  0  0  0  0  0  0
    1.3100    5.5417   -0.8861 H   0  0  0  0  0  0  0  0  0  0  0  0
   -1.3041    5.7216    0.7280 H   0  0  0  0  0  0  0  0  0  0  0  0
   -0.3781    7.1035    0.1299 H   0  0  0  0  0  0  0  0  0  0  0  0
   -1.1552    5.9928   -1.0139 H   0  0  0  0  0  0  0  0  0  0  0  0
    2.0941    6.4148    1.4008 N   0  0  0  0  0  0  0  0  0  0  0  0
    2.8603    6.7032    2.5907 C   0  0  0  0  0  0  0  0  0  0  0  0
    2.1302    7.0863    0.6395 H   0  0  0  0  0  0  0  0  0  0  0  0
    2.2413    7.2770    3.2960 H   0  0  0  0  0  0  0  0  0  0  0  0
    3.1744    5.7602    3.0619 H   0  0  0  0  0  0  0  0  0  0  0  0
    3.7494    7.2919    2.3204 H   0  0  0  0  0  0  0  0  0  0  0  0
 22 24  2  0  0  0  0
 24 26  1  0  0  0  0
 25 26  2  0  0  0  0
 23 25  1  0  0  0  0
 21 22  1  0  0  0  0
 22 23  1  0  0  0  0
  1  3  1  0  0  0  0
  1  7  1  0  0  0  0
  1  2  2  0  0  0  0
 35 36  1  0  0  0  0
 36 44  1  0  0  0  0
 36 37  2  0  0  0  0
  8  9  1  0  0  0  0
  9 17  1  0  0  0  0
  9 10  2  0  0  0  0
 18 19  1  0  0  0  0
 19 34  1  0  0  0  0
 19 20  2  0  0  0  0
 35 38  1  0  0  0  0
  8 11  1  0  0  0  0
 44 45  1  0  0  0  0
 18 21  1  0  0  0  0
 34 35  1  0  0  0  0
  7  8  1  0  0  0  0
 17 18  1  0  0  0  0
 24 32  1  0  0  0  0
 25 33  1  0  0  0  0
  3  4  1  0  0  0  0
  3  5  1  0  0  0  0
  3  6  1  0  0  0  0
 38 41  1  0  0  0  0
 38 42  1  0  0  0  0
 38 43  1  0  0  0  0
 11 14  1  0  0  0  0
 11 15  1  0  0  0  0
 11 16  1  0  0  0  0
 45 47  1  0  0  0  0
 45 48  1  0  0  0  0
 45 49  1  0  0  0  0
 21 29  1  0  0  0  0
 21 30  1  0  0  0  0
 35 40  1  0  0  0  0
  8 13  1  0  0  0  0
 18 28  1  0  0  0  0
 23 31  1  0  0  0  0
 44 46  1  0  0  0  0
  7 12  1  0  0  0  0
 34 39  1  0  0  0  0
 17 27  1  0  0  0  0
M  END
$$$$

  -OEChem-02062319033D

 49 49  0     1  0  0  0  0  0999 V2000
   -1.5619    0.5658    3.7981 C   0  0  0  0  0  0  0  0  0  0  0  0
   -0.6145   -0.0489    3.3224 O   0  0  0  0  0  0  0  0  0  0  0  0
   -1.9938    0.2834    5.1988 C   0  0  0  0  0  0  0  0  0  0  0  0
   -2.7535   -0.5129    5.2522 H   0  0  0  0  0  0  0  0  0  0  0  0
   -1.1626   -0.0642    5.8331 H   0  0  0  0  0  0  0  0  0  0  0  0
   -2.4318    1.1383    5.7384 H   0  0  0  0  0  0  0  0  0  0  0  0
   -2.3116    1.5383    3.1570 N   0  0  0  0  0  0  0  0  0  0  0  0
   -2.0648    1.9643    1.8046 C   0  0  2  0  0  0  0  0  0  0  0  0
   -0.7298    1.3789    1.3634 C   0  0  0  0  0  0  0  0  0  0  0  0
    0.1423    1.0262    2.1547 O   0  0  0  0  0  0  0  0  0  0  0  0
   -2.0560    3.4811    1.6952 C   0  0  0  0  0  0  0  0  0  0  0  0
   -3.0767    1.9741    3.6688 H   0  0  0  0  0  0  0  0  0  0  0  0
   -2.8689    1.5458    1.1895 H   0  0  0  0  0  0  0  0  0  0  0  0
   -1.2569    3.9183    2.3049 H   0  0  0  0  0  0  0  0  0  0  0  0
   -1.8965    3.8033    0.6609 H   0  0  0  0  0  0  0  0  0  0  0  0
   -3.0062    3.9023    2.0409 H   0  0  0  0  0  0  0  0  0  0  0  0
   -0.6071    1.3358   -0.0200 N   0  0  0  0  0  0  0  0  0  0  0  0
    0.6543    1.1275   -0.6853 C   0  0  2  0  0  0  0  0  0  0  0  0
    1.5772    2.2674   -0.2693 C   0  0  0  0  0  0  0  0  0  0  0  0
    2.7581    2.0980    0.0271 O   0  0  0  0  0  0  0  0  0  0  0  0
    0.5055    1.0920   -2.2107 C   0  0  0  0  0  0  0  0  0  0  0  0
   -0.3319   -0.0691   -2.6885 C   0  0  0  0  0  0  0  0  0  0  0  0
    0.1328   -1.3539   -2.7155 N   0  0  0  0  0  0  0  0  0  0  0  0
   -1.6191   -0.1503   -3.1650 C   0  0  0  0  0  0  0  0  0  0  0  0
   -0.8733   -2.1435   -3.1986 C   0  0  0  0  0  0  0  0  0  0  0  0
   -1.9502   -1.4443   -3.4805 N   0  0  0  0  0  0  0  0  0  0  0  0
   -1.4423    1.4157   -0.5951 H   0  0  0  0  0  0  0  0  0  0  0  0
    1.0568    0.1821   -0.3029 H   0  0  0  0  0  0  0  0  0  0  0  0
    1.4938    1.0560   -2.6886 H   0  0  0  0  0  0  0  0  0  0  0  0
    0.0443    2.0204   -2.5728 H   0  0  0  0  0  0  0  0  0  0  0  0
    1.0522   -1.6664   -2.4320 H   0  0  0  0  0  0  0  0  0  0  0  0
   -2.3265    0.6559   -3.2978 H   0  0  0  0  0  0  0  0  0  0  0  0
   -0.7575   -3.2112   -3.3195 H   0  0  0  0  0  0  0  0  0  0  0  0
    0.9373    3.4981   -0.3176 N   0  0  0  0  0  0  0  0  0  0  0  0
    1.5912    4.7457    0.0058 C   0  0  2  0  0  0  0  0  0  0  0  0
    2.2902    4.5762    1.3482 C   0  0  0  0  0  0  0  0  0  0  0  0
    1.9620    3.7255    2.1727 O   0  0  0  0  0  0  0  0  0  0  0  0
    0.5971    5.8957    0.0519 C   0  0  0  0  0  0  0  0  0  0  0  0
   -0.0397    3.5231   -0.5942 H   0  0  0  0  0  0  0  0  0  0  0  0
    2.3381    4.9232   -0.7757 H   0  0  0  0  0  0  0  0  0  0  0  0
   -0.1591    5.7356    0.8291 H   0  0  0  0  0  0  0  0  0  0  0  0
    1.0982    6.8448    0.2689 H   0  0  0  0  0  0  0  0  0  0  0  0
    0.0739    5.9972   -0.9050 H   0  0  0  0  0  0  0  0  0  0  0  0
    3.2954    5.5147    1.5354 N   0  0  0  0  0  0  0  0  0  0  0  0
    4.0969    5.5698    2.7356 C   0  0  0  0  0  0  0  0  0  0  0  0
    3.5117    6.1705    0.7905 H   0  0  0  0  0  0  0  0  0  0  0  0
    3.6388    6.2682    3.4513 H   0  0  0  0  0  0  0  0  0  0  0  0
    4.1522    4.5676    3.1857 H   0  0  0  0  0  0  0  0  0  0  0  0
    5.1105    5.9151    2.4840 H   0  0  0  0  0  0  0  0  0  0  0  0
 22 24  2  0  0  0  0
 24 26  1  0  0  0  0
 25 26  2  0  0  0  0
 23 25  1  0  0  0  0
 21 22  1  0  0  0  0
 22 23  1  0  0  0  0
  1  3  1  0  0  0  0
  1  7  1  0  0  0  0
  1  2  2  0  0  0  0
 35 36  1  0  0  0  0
 36 44  1  0  0  0  0
 36 37  2  0  0  0  0
  8  9  1  0  0  0  0
  9 17  1  0  0  0  0
  9 10  2  0  0  0  0
 18 19  1  0  0  0  0
 19 34  1  0  0  0  0
 19 20  2  0  0  0  0
 35 38  1  0  0  0  0
  8 11  1  0  0  0  0
 44 45  1  0  0  0  0
 18 21  1  0  0  0  0
 34 35  1  0  0  0  0
  7  8  1  0  0  0  0
 17 18  1  0  0  0  0
 24 32  1  0  0  0  0
 25 33  1  0  0  0  0
  3  4  1  0  0  0  0
  3  5  1  0  0  0  0
  3  6  1  0  0  0  0
 38 41  1  0  0  0  0
 38 42  1  0  0  0  0
 38 43  1  0  0  0  0
 11 14  1  0  0  0  0
 11 15  1  0  0  0  0
 11 16  1  0  0  0  0
 45 47  1  0  0  0  0
 45 48  1  0  0  0  0
 45 49  1  0  0  0  0
 21 29  1  0  0  0  0
 21 30  1  0  0  0  0
 35 40  1  0  0  0  0
  8 13  1  0  0  0  0
 18 28  1  0  0  0  0
 23 31  1  0  0  0  0
 44 46  1  0  0  0  0
  7 12  1  0  0  0  0
 34 39  1  0  0  0  0
 17 27  1  0  0  0  0
M  END
$$$$
