
  -OEChem-02062319083D

 49 49  0     1  0  0  0  0  0999 V2000
   -2.5665   -1.5475    3.4719 C   0  0  0  0  0  0  0  0  0  0  0  0
   -3.6121   -1.8990    2.9493 O   0  0  0  0  0  0  0  0  0  0  0  0
   -2.2110   -2.0312    4.8649 C   0  0  0  0  0  0  0  0  0  0  0  0
   -3.0275   -2.6321    5.2755 H   0  0  0  0  0  0  0  0  0  0  0  0
   -1.3065   -2.6434    4.8276 H   0  0  0  0  0  0  0  0  0  0  0  0
   -2.0375   -1.1764    5.5233 H   0  0  0  0  0  0  0  0  0  0  0  0
   -1.6942   -0.7220    2.7941 N   0  0  0  0  0  0  0  0  0  0  0  0
   -1.8361   -0.3476    1.3804 C   0  0  2  0  0  0  0  0  0  0  0  0
   -0.5323   -0.5842    0.5914 C   0  0  0  0  0  0  0  0  0  0  0  0
    0.5348   -0.6963    1.1822 O   0  0  0  0  0  0  0  0  0  0  0  0
   -2.2295    1.1307    1.3276 C   0  0  0  0  0  0  0  0  0  0  0  0
   -0.7748   -0.5888    3.2125 H   0  0  0  0  0  0  0  0  0  0  0  0
   -2.6209   -0.9440    0.9031 H   0  0  0  0  0  0  0  0  0  0  0  0
   -1.4451    1.7530    1.7717 H   0  0  0  0  0  0  0  0  0  0  0  0
   -2.3852    1.4511    0.2931 H   0  0  0  0  0  0  0  0  0  0  0  0
   -3.1590    1.2936    1.8828 H   0  0  0  0  0  0  0  0  0  0  0  0
   -0.5445   -0.6204   -0.7927 N   0  0  0  0  0  0  0  0  0  0  0  0
    0.6580   -0.8418   -1.6200 C   0  0  2  0  0  0  0  0  0  0  0  0
    1.7460    0.2272   -1.4095 C   0  0  0  0  0  0  0  0  0  0  0  0
    2.9240   -0.0949   -1.3267 O   0  0  0  0  0  0  0  0  0  0  0  0
    0.2712   -0.8833   -3.1060 C   0  0  0  0  0  0  0  0  0  0  0  0
   -0.8174   -1.8950   -3.3577 C   0  0  0  0  0  0  0  0  0  0  0  0
   -0.8024   -3.2408   -3.0598 N   0  0  0  0  0  0  0  0  0  0  0  0
   -2.0366   -1.6805   -3.9452 C   0  0  0  0  0  0  0  0  0  0  0  0
   -2.0063   -3.7895   -3.4611 C   0  0  0  0  0  0  0  0  0  0  0  0
   -2.7674   -2.8611   -3.9893 N   0  0  0  0  0  0  0  0  0  0  0  0
   -1.4544   -0.7088   -1.2409 H   0  0  0  0  0  0  0  0  0  0  0  0
    1.0985   -1.8058   -1.3435 H   0  0  0  0  0  0  0  0  0  0  0  0
    1.1514   -1.1451   -3.7036 H   0  0  0  0  0  0  0  0  0  0  0  0
   -0.0649    0.1071   -3.4316 H   0  0  0  0  0  0  0  0  0  0  0  0
   -0.0365   -3.7588   -2.6322 H   0  0  0  0  0  0  0  0  0  0  0  0
   -2.3882   -0.7221   -4.3161 H   0  0  0  0  0  0  0  0  0  0  0  0
   -2.2849   -4.8342   -3.3544 H   0  0  0  0  0  0  0  0  0  0  0  0
    1.4020    1.5660   -1.3652 N   0  0  0  0  0  0  0  0  0  0  0  0
    2.3413    2.6179   -0.9518 C   0  0  2  0  0  0  0  0  0  0  0  0
    2.5451    2.6195    0.5818 C   0  0  0  0  0  0  0  0  0  0  0  0
    2.1196    3.5299    1.2837 O   0  0  0  0  0  0  0  0  0  0  0  0
    1.8086    3.9524   -1.4872 C   0  0  0  0  0  0  0  0  0  0  0  0
    0.4097    1.7575   -1.2656 H   0  0  0  0  0  0  0  0  0  0  0  0
    3.3211    2.4433   -1.4097 H   0  0  0  0  0  0  0  0  0  0  0  0
    0.8226    4.1733   -1.0659 H   0  0  0  0  0  0  0  0  0  0  0  0
    2.4896    4.7658   -1.2170 H   0  0  0  0  0  0  0  0  0  0  0  0
    1.7251    3.9196   -2.5776 H   0  0  0  0  0  0  0  0  0  0  0  0
    3.1582    1.5337    1.1738 N   0  0  0  0  0  0  0  0  0  0  0  0
    3.1893    1.3228    2.6134 C   0  0  0  0  0  0  0  0  0  0  0  0
    3.3284    0.7342    0.5589 H   0  0  0  0  0  0  0  0  0  0  0  0
    3.6821    2.1632    3.1128 H   0  0  0  0  0  0  0  0  0  0  0  0
    2.1721    1.2239    3.0059 H   0  0  0  0  0  0  0  0  0  0  0  0
    3.7429    0.4087    2.8482 H   0  0  0  0  0  0  0  0  0  0  0  0
  1  2  2  0  0  0  0
  1  3  1  0  0  0  0
  1  7  1  0  0  0  0
  3  4  1  0  0  0  0
  3  5  1  0  0  0  0
  3  6  1  0  0  0  0
  7  8  1  0  0  0  0
  7 12  1  0  0  0  0
  8  9  1  0  0  0  0
  8 11  1  0  0  0  0
  8 13  1  0  0  0  0
  9 10  2  0  0  0  0
  9 17  1  0  0  0  0
 11 14  1  0  0  0  0
 11 15  1  0  0  0  0
 11 16  1  0  0  0  0
 17 18  1  0  0  0  0
 17 27  1  0  0  0  0
 18 19  1  0  0  0  0
 18 21  1  0  0  0  0
 18 28  1  0  0  0  0
 19 20  2  0  0  0  0
 19 34  1  0  0  0  0
 21 22  1  0  0  0  0
 21 29  1  0  0  0  0
 21 30  1  0  0  0  0
 22 23  1  0  0  0  0
 22 24  2  0  0  0  0
 23 25  1  0  0  0  0
 23 31  1  0  0  0  0
 24 26  1  0  0  0  0
 24 32  1  0  0  0  0
 25 26  2  0  0  0  0
 25 33  1  0  0  0  0
 34 35  1  0  0  0  0
 34 39  1  0  0  0  0
 35 36  1  0  0  0  0
 35 38  1  0  0  0  0
 35 40  1  0  0  0  0
 36 37  2  0  0  0  0
 36 44  1  0  0  0  0
 38 41  1  0  0  0  0
 38 42  1  0  0  0  0
 38 43  1  0  0  0  0
 44 45  1  0  0  0  0
 44 46  1  0  0  0  0
 45 47  1  0  0  0  0
 45 48  1  0  0  0  0
 45 49  1  0  0  0  0
M  END
$$$$

  -OEChem-02062319083D

 49 49  0     1  0  0  0  0  0999 V2000
   -2.6604   -2.1528    2.0535 C   0  0  0  0  0  0  0  0  0  0  0  0
   -2.7338   -2.3826    0.8530 O   0  0  0  0  0  0  0  0  0  0  0  0
   -2.9389   -3.2520    3.0606 C   0  0  0  0  0  0  0  0  0  0  0  0
   -3.2400   -4.1694    2.5469 H   0  0  0  0  0  0  0  0  0  0  0  0
   -2.0398   -3.4566    3.6475 H   0  0  0  0  0  0  0  0  0  0  0  0
   -3.7434   -2.9466    3.7343 H   0  0  0  0  0  0  0  0  0  0  0  0
   -2.2772   -0.9003    2.4896 N   0  0  0  0  0  0  0  0  0  0  0  0
   -1.8128    0.1510    1.5748 C   0  0  2  0  0  0  0  0  0  0  0  0
   -0.5017   -0.2538    0.8671 C   0  0  0  0  0  0  0  0  0  0  0  0
    0.5312   -0.3934    1.5079 O   0  0  0  0  0  0  0  0  0  0  0  0
   -1.6313    1.4425    2.3787 C   0  0  0  0  0  0  0  0  0  0  0  0
   -2.0448   -0.8130    3.4754 H   0  0  0  0  0  0  0  0  0  0  0  0
   -2.5770    0.3285    0.8107 H   0  0  0  0  0  0  0  0  0  0  0  0
   -0.8774    1.3091    3.1617 H   0  0  0  0  0  0  0  0  0  0  0  0
   -1.3055    2.2557    1.7225 H   0  0  0  0  0  0  0  0  0  0  0  0
   -2.5752    1.7350    2.8489 H   0  0  0  0  0  0  0  0  0  0  0  0
   -0.5190   -0.5458   -0.4855 N   0  0  0  0  0  0  0  0  0  0  0  0
    0.5797   -1.2400   -1.1816 C   0  0  2  0  0  0  0  0  0  0  0  0
    1.9274   -0.4982   -1.1099 C   0  0  0  0  0  0  0  0  0  0  0  0
    2.9660   -1.1110   -0.8990 O   0  0  0  0  0  0  0  0  0  0  0  0
    0.2038   -1.4700   -2.6543 C   0  0  0  0  0  0  0  0  0  0  0  0
   -1.1682   -2.0798   -2.8448 C   0  0  0  0  0  0  0  0  0  0  0  0
   -1.9943   -2.7179   -1.9383 N   0  0  0  0  0  0  0  0  0  0  0  0
   -1.8821   -2.0865   -4.0152 C   0  0  0  0  0  0  0  0  0  0  0  0
   -3.1640   -3.0714   -2.5810 C   0  0  0  0  0  0  0  0  0  0  0  0
   -3.1169   -2.6993   -3.8378 N   0  0  0  0  0  0  0  0  0  0  0  0
   -1.4457   -0.6329   -0.9017 H   0  0  0  0  0  0  0  0  0  0  0  0
    0.7258   -2.2162   -0.7055 H   0  0  0  0  0  0  0  0  0  0  0  0
    0.9493   -2.1358   -3.1025 H   0  0  0  0  0  0  0  0  0  0  0  0
    0.2445   -0.5197   -3.1971 H   0  0  0  0  0  0  0  0  0  0  0  0
   -1.8376   -2.8344   -0.9324 H   0  0  0  0  0  0  0  0  0  0  0  0
   -1.5364   -1.6602   -4.9523 H   0  0  0  0  0  0  0  0  0  0  0  0
   -4.0048   -3.5745   -2.1115 H   0  0  0  0  0  0  0  0  0  0  0  0
    1.9765    0.8652   -1.3354 N   0  0  0  0  0  0  0  0  0  0  0  0
    3.1804    1.6755   -1.1032 C   0  0  2  0  0  0  0  0  0  0  0  0
    3.3977    1.9477    0.4045 C   0  0  0  0  0  0  0  0  0  0  0  0
    3.3091    3.0778    0.8720 O   0  0  0  0  0  0  0  0  0  0  0  0
    3.0406    2.9585   -1.9313 C   0  0  0  0  0  0  0  0  0  0  0  0
    1.0785    1.3397   -1.3239 H   0  0  0  0  0  0  0  0  0  0  0  0
    4.0640    1.1401   -1.4671 H   0  0  0  0  0  0  0  0  0  0  0  0
    2.1701    3.5367   -1.6046 H   0  0  0  0  0  0  0  0  0  0  0  0
    3.9333    3.5817   -1.8153 H   0  0  0  0  0  0  0  0  0  0  0  0
    2.9236    2.7163   -2.9920 H   0  0  0  0  0  0  0  0  0  0  0  0
    3.6370    0.8799    1.2459 N   0  0  0  0  0  0  0  0  0  0  0  0
    3.6085    0.9853    2.6973 C   0  0  0  0  0  0  0  0  0  0  0  0
    3.5226   -0.0445    0.8230 H   0  0  0  0  0  0  0  0  0  0  0  0
    4.3234    1.7394    3.0427 H   0  0  0  0  0  0  0  0  0  0  0  0
    2.6063    1.2633    3.0397 H   0  0  0  0  0  0  0  0  0  0  0  0
    3.8759    0.0250    3.1482 H   0  0  0  0  0  0  0  0  0  0  0  0
  1  2  2  0  0  0  0
  1  3  1  0  0  0  0
  1  7  1  0  0  0  0
  3  4  1  0  0  0  0
  3  5  1  0  0  0  0
  3  6  1  0  0  0  0
  7  8  1  0  0  0  0
  7 12  1  0  0  0  0
  8  9  1  0  0  0  0
  8 11  1  0  0  0  0
  8 13  1  0  0  0  0
  9 10  2  0  0  0  0
  9 17  1  0  0  0  0
 11 14  1  0  0  0  0
 11 15  1  0  0  0  0
 11 16  1  0  0  0  0
 17 18  1  0  0  0  0
 17 27  1  0  0  0  0
 18 19  1  0  0  0  0
 18 21  1  0  0  0  0
 18 28  1  0  0  0  0
 19 20  2  0  0  0  0
 19 34  1  0  0  0  0
 21 22  1  0  0  0  0
 21 29  1  0  0  0  0
 21 30  1  0  0  0  0
 22 23  1  0  0  0  0
 22 24  2  0  0  0  0
 23 25  1  0  0  0  0
 23 31  1  0  0  0  0
 24 26  1  0  0  0  0
 24 32  1  0  0  0  0
 25 26  2  0  0  0  0
 25 33  1  0  0  0  0
 34 35  1  0  0  0  0
 34 39  1  0  0  0  0
 35 36  1  0  0  0  0
 35 38  1  0  0  0  0
 35 40  1  0  0  0  0
 36 37  2  0  0  0  0
 36 44  1  0  0  0  0
 38 41  1  0  0  0  0
 38 42  1  0  0  0  0
 38 43  1  0  0  0  0
 44 45  1  0  0  0  0
 44 46  1  0  0  0  0
 45 47  1  0  0  0  0
 45 48  1  0  0  0  0
 45 49  1  0  0  0  0
M  END
$$$$

  -OEChem-02062319083D

 49 49  0     1  0  0  0  0  0999 V2000
   -2.8274   -2.1108    1.9628 C   0  0  0  0  0  0  0  0  0  0  0  0
   -2.9540   -2.3118    0.7617 O   0  0  0  0  0  0  0  0  0  0  0  0
   -3.1218   -3.2186    2.9558 C   0  0  0  0  0  0  0  0  0  0  0  0
   -3.5021   -4.1019    2.4349 H   0  0  0  0  0  0  0  0  0  0  0  0
   -2.2093   -3.4922    3.4917 H   0  0  0  0  0  0  0  0  0  0  0  0
   -3.8731   -2.8853    3.6759 H   0  0  0  0  0  0  0  0  0  0  0  0
   -2.3742   -0.8857    2.4089 N   0  0  0  0  0  0  0  0  0  0  0  0
   -1.8783    0.1534    1.4961 C   0  0  2  0  0  0  0  0  0  0  0  0
   -0.5664   -0.2771    0.8062 C   0  0  0  0  0  0  0  0  0  0  0  0
    0.4215   -0.5353    1.4800 O   0  0  0  0  0  0  0  0  0  0  0  0
   -1.6781    1.4429    2.2970 C   0  0  0  0  0  0  0  0  0  0  0  0
   -2.0886   -0.8375    3.3835 H   0  0  0  0  0  0  0  0  0  0  0  0
   -2.6294    0.3454    0.7225 H   0  0  0  0  0  0  0  0  0  0  0  0
   -0.9410    1.2940    3.0932 H   0  0  0  0  0  0  0  0  0  0  0  0
   -1.3214    2.2447    1.6428 H   0  0  0  0  0  0  0  0  0  0  0  0
   -2.6227    1.7601    2.7495 H   0  0  0  0  0  0  0  0  0  0  0  0
   -0.5771   -0.5687   -0.5465 N   0  0  0  0  0  0  0  0  0  0  0  0
    0.3418   -1.5453   -1.1601 C   0  0  2  0  0  0  0  0  0  0  0  0
    1.8367   -1.2071   -0.9994 C   0  0  0  0  0  0  0  0  0  0  0  0
    2.6459   -2.0882   -0.7380 O   0  0  0  0  0  0  0  0  0  0  0  0
    0.0044   -1.7065   -2.6507 C   0  0  0  0  0  0  0  0  0  0  0  0
   -1.4702   -1.9319   -2.9039 C   0  0  0  0  0  0  0  0  0  0  0  0
   -2.4399   -2.4474   -2.0652 N   0  0  0  0  0  0  0  0  0  0  0  0
   -2.1448   -1.6329   -4.0591 C   0  0  0  0  0  0  0  0  0  0  0  0
   -3.6495   -2.4353   -2.7304 C   0  0  0  0  0  0  0  0  0  0  0  0
   -3.4941   -1.9435   -3.9362 N   0  0  0  0  0  0  0  0  0  0  0  0
   -1.4945   -0.5036   -0.9861 H   0  0  0  0  0  0  0  0  0  0  0  0
    0.1854   -2.5120   -0.6690 H   0  0  0  0  0  0  0  0  0  0  0  0
    0.5644   -2.5620   -3.0441 H   0  0  0  0  0  0  0  0  0  0  0  0
    0.3294   -0.8177   -3.2023 H   0  0  0  0  0  0  0  0  0  0  0  0
   -2.3311   -2.7085   -1.0796 H   0  0  0  0  0  0  0  0  0  0  0  0
   -1.6911   -1.2022   -4.9468 H   0  0  0  0  0  0  0  0  0  0  0  0
   -4.5938   -2.7725   -2.3122 H   0  0  0  0  0  0  0  0  0  0  0  0
    2.2856    0.0819   -1.2222 N   0  0  0  0  0  0  0  0  0  0  0  0
    3.6625    0.5158   -0.9421 C   0  0  2  0  0  0  0  0  0  0  0  0
    3.8991    0.7310    0.5721 C   0  0  0  0  0  0  0  0  0  0  0  0
    4.1503    1.8396    1.0319 O   0  0  0  0  0  0  0  0  0  0  0  0
    3.9286    1.7760   -1.7742 C   0  0  0  0  0  0  0  0  0  0  0  0
    1.5616    0.7944   -1.2441 H   0  0  0  0  0  0  0  0  0  0  0  0
    4.3673   -0.2551   -1.2715 H   0  0  0  0  0  0  0  0  0  0  0  0
    3.2565    2.5860   -1.4736 H   0  0  0  0  0  0  0  0  0  0  0  0
    4.9605    2.1125   -1.6313 H   0  0  0  0  0  0  0  0  0  0  0  0
    3.7765    1.5698   -2.8379 H   0  0  0  0  0  0  0  0  0  0  0  0
    3.7821   -0.3489    1.4238 N   0  0  0  0  0  0  0  0  0  0  0  0
    3.7259   -0.2186    2.8724 C   0  0  0  0  0  0  0  0  0  0  0  0
    3.4108   -1.2010    0.9970 H   0  0  0  0  0  0  0  0  0  0  0  0
    4.5947    0.3335    3.2459 H   0  0  0  0  0  0  0  0  0  0  0  0
    2.8151    0.3107    3.1705 H   0  0  0  0  0  0  0  0  0  0  0  0
    3.7224   -1.2087    3.3377 H   0  0  0  0  0  0  0  0  0  0  0  0
  1  2  2  0  0  0  0
  1  3  1  0  0  0  0
  1  7  1  0  0  0  0
  3  4  1  0  0  0  0
  3  5  1  0  0  0  0
  3  6  1  0  0  0  0
  7  8  1  0  0  0  0
  7 12  1  0  0  0  0
  8  9  1  0  0  0  0
  8 11  1  0  0  0  0
  8 13  1  0  0  0  0
  9 10  2  0  0  0  0
  9 17  1  0  0  0  0
 11 14  1  0  0  0  0
 11 15  1  0  0  0  0
 11 16  1  0  0  0  0
 17 18  1  0  0  0  0
 17 27  1  0  0  0  0
 18 19  1  0  0  0  0
 18 21  1  0  0  0  0
 18 28  1  0  0  0  0
 19 20  2  0  0  0  0
 19 34  1  0  0  0  0
 21 22  1  0  0  0  0
 21 29  1  0  0  0  0
 21 30  1  0  0  0  0
 22 23  1  0  0  0  0
 22 24  2  0  0  0  0
 23 25  1  0  0  0  0
 23 31  1  0  0  0  0
 24 26  1  0  0  0  0
 24 32  1  0  0  0  0
 25 26  2  0  0  0  0
 25 33  1  0  0  0  0
 34 35  1  0  0  0  0
 34 39  1  0  0  0  0
 35 36  1  0  0  0  0
 35 38  1  0  0  0  0
 35 40  1  0  0  0  0
 36 37  2  0  0  0  0
 36 44  1  0  0  0  0
 38 41  1  0  0  0  0
 38 42  1  0  0  0  0
 38 43  1  0  0  0  0
 44 45  1  0  0  0  0
 44 46  1  0  0  0  0
 45 47  1  0  0  0  0
 45 48  1  0  0  0  0
 45 49  1  0  0  0  0
M  END
$$$$

  -OEChem-02062319083D

 49 49  0     1  0  0  0  0  0999 V2000
   -2.9737   -1.9872    1.8888 C   0  0  0  0  0  0  0  0  0  0  0  0
   -3.1738   -2.1400    0.6905 O   0  0  0  0  0  0  0  0  0  0  0  0
   -3.2667   -3.1140    2.8603 C   0  0  0  0  0  0  0  0  0  0  0  0
   -3.7091   -3.9632    2.3320 H   0  0  0  0  0  0  0  0  0  0  0  0
   -2.3416   -3.4422    3.3410 H   0  0  0  0  0  0  0  0  0  0  0  0
   -3.9670   -2.7736    3.6269 H   0  0  0  0  0  0  0  0  0  0  0  0
   -2.4357   -0.8033    2.3508 N   0  0  0  0  0  0  0  0  0  0  0  0
   -1.9041    0.2247    1.4461 C   0  0  2  0  0  0  0  0  0  0  0  0
   -0.6072   -0.2483    0.7552 C   0  0  0  0  0  0  0  0  0  0  0  0
    0.3416   -0.6089    1.4383 O   0  0  0  0  0  0  0  0  0  0  0  0
   -1.6576    1.4992    2.2572 C   0  0  0  0  0  0  0  0  0  0  0  0
   -2.0921   -0.8114    3.3078 H   0  0  0  0  0  0  0  0  0  0  0  0
   -2.6476    0.4507    0.6743 H   0  0  0  0  0  0  0  0  0  0  0  0
   -0.9205    1.3186    3.0468 H   0  0  0  0  0  0  0  0  0  0  0  0
   -1.2800    2.2951    1.6076 H   0  0  0  0  0  0  0  0  0  0  0  0
   -2.5880    1.8424    2.7200 H   0  0  0  0  0  0  0  0  0  0  0  0
   -0.6395   -0.5522   -0.5943 N   0  0  0  0  0  0  0  0  0  0  0  0
    0.0032   -1.7638   -1.1388 C   0  0  2  0  0  0  0  0  0  0  0  0
    1.5229   -1.8634   -0.9081 C   0  0  0  0  0  0  0  0  0  0  0  0
    2.0320   -2.9400   -0.6223 O   0  0  0  0  0  0  0  0  0  0  0  0
   -0.3025   -1.8725   -2.6405 C   0  0  0  0  0  0  0  0  0  0  0  0
   -1.7749   -1.7031   -2.9397 C   0  0  0  0  0  0  0  0  0  0  0  0
   -2.8618   -2.0528   -2.1628 N   0  0  0  0  0  0  0  0  0  0  0  0
   -2.3222   -1.1346   -4.0599 C   0  0  0  0  0  0  0  0  0  0  0  0
   -4.0139   -1.6852   -2.8282 C   0  0  0  0  0  0  0  0  0  0  0  0
   -3.7100   -1.1236   -3.9741 N   0  0  0  0  0  0  0  0  0  0  0  0
   -1.5252   -0.3221   -1.0430 H   0  0  0  0  0  0  0  0  0  0  0  0
   -0.4399   -2.6315   -0.6381 H   0  0  0  0  0  0  0  0  0  0  0  0
    0.0211   -2.8573   -2.9949 H   0  0  0  0  0  0  0  0  0  0  0  0
    0.2687   -1.1186   -3.1930 H   0  0  0  0  0  0  0  0  0  0  0  0
   -2.8420   -2.4325   -1.2099 H   0  0  0  0  0  0  0  0  0  0  0  0
   -1.7522   -0.7360   -4.8942 H   0  0  0  0  0  0  0  0  0  0  0  0
   -5.0230   -1.8280   -2.4522 H   0  0  0  0  0  0  0  0  0  0  0  0
    2.3331   -0.7651   -1.1276 N   0  0  0  0  0  0  0  0  0  0  0  0
    3.7775   -0.7558   -0.8516 C   0  0  2  0  0  0  0  0  0  0  0  0
    4.0818   -0.6350    0.6615 C   0  0  0  0  0  0  0  0  0  0  0  0
    4.7005    0.3193    1.1198 O   0  0  0  0  0  0  0  0  0  0  0  0
    4.3940    0.3788   -1.6787 C   0  0  0  0  0  0  0  0  0  0  0  0
    1.8500    0.1287   -1.1511 H   0  0  0  0  0  0  0  0  0  0  0  0
    4.2221   -1.6967   -1.1934 H   0  0  0  0  0  0  0  0  0  0  0  0
    3.9910    1.3470   -1.3652 H   0  0  0  0  0  0  0  0  0  0  0  0
    5.4804    0.3969   -1.5456 H   0  0  0  0  0  0  0  0  0  0  0  0
    4.1785    0.2364   -2.7417 H   0  0  0  0  0  0  0  0  0  0  0  0
    3.6300   -1.6227    1.5133 N   0  0  0  0  0  0  0  0  0  0  0  0
    3.6728   -1.5115    2.9637 C   0  0  0  0  0  0  0  0  0  0  0  0
    3.0049   -2.3129    1.0907 H   0  0  0  0  0  0  0  0  0  0  0  0
    3.0604   -0.6679    3.2989 H   0  0  0  0  0  0  0  0  0  0  0  0
    3.2858   -2.4266    3.4218 H   0  0  0  0  0  0  0  0  0  0  0  0
    4.7014   -1.3620    3.3085 H   0  0  0  0  0  0  0  0  0  0  0  0
  1  2  2  0  0  0  0
  1  3  1  0  0  0  0
  1  7  1  0  0  0  0
  3  4  1  0  0  0  0
  3  5  1  0  0  0  0
  3  6  1  0  0  0  0
  7  8  1  0  0  0  0
  7 12  1  0  0  0  0
  8  9  1  0  0  0  0
  8 11  1  0  0  0  0
  8 13  1  0  0  0  0
  9 10  2  0  0  0  0
  9 17  1  0  0  0  0
 11 14  1  0  0  0  0
 11 15  1  0  0  0  0
 11 16  1  0  0  0  0
 17 18  1  0  0  0  0
 17 27  1  0  0  0  0
 18 19  1  0  0  0  0
 18 21  1  0  0  0  0
 18 28  1  0  0  0  0
 19 20  2  0  0  0  0
 19 34  1  0  0  0  0
 21 22  1  0  0  0  0
 21 29  1  0  0  0  0
 21 30  1  0  0  0  0
 22 23  1  0  0  0  0
 22 24  2  0  0  0  0
 23 25  1  0  0  0  0
 23 31  1  0  0  0  0
 24 26  1  0  0  0  0
 24 32  1  0  0  0  0
 25 26  2  0  0  0  0
 25 33  1  0  0  0  0
 34 35  1  0  0  0  0
 34 39  1  0  0  0  0
 35 36  1  0  0  0  0
 35 38  1  0  0  0  0
 35 40  1  0  0  0  0
 36 37  2  0  0  0  0
 36 44  1  0  0  0  0
 38 41  1  0  0  0  0
 38 42  1  0  0  0  0
 38 43  1  0  0  0  0
 44 45  1  0  0  0  0
 44 46  1  0  0  0  0
 45 47  1  0  0  0  0
 45 48  1  0  0  0  0
 45 49  1  0  0  0  0
M  END
$$$$

  -OEChem-02062319083D

 49 49  0     1  0  0  0  0  0999 V2000
   -3.1148   -1.9763    1.7113 C   0  0  0  0  0  0  0  0  0  0  0  0
   -3.3912   -2.0315    0.5196 O   0  0  0  0  0  0  0  0  0  0  0  0
   -3.4035   -3.1580    2.6171 C   0  0  0  0  0  0  0  0  0  0  0  0
   -3.9177   -3.9458    2.0596 H   0  0  0  0  0  0  0  0  0  0  0  0
   -2.4682   -3.5615    3.0135 H   0  0  0  0  0  0  0  0  0  0  0  0
   -4.0385   -2.8448    3.4495 H   0  0  0  0  0  0  0  0  0  0  0  0
   -2.4883   -0.8574    2.2209 N   0  0  0  0  0  0  0  0  0  0  0  0
   -1.9416    0.2012    1.3615 C   0  0  2  0  0  0  0  0  0  0  0  0
   -0.6358   -0.2515    0.6741 C   0  0  0  0  0  0  0  0  0  0  0  0
    0.2870   -0.6626    1.3639 O   0  0  0  0  0  0  0  0  0  0  0  0
   -1.7047    1.4430    2.2243 C   0  0  0  0  0  0  0  0  0  0  0  0
   -2.0889   -0.9559    3.1511 H   0  0  0  0  0  0  0  0  0  0  0  0
   -2.6714    0.4613    0.5871 H   0  0  0  0  0  0  0  0  0  0  0  0
   -0.9830    1.2293    3.0196 H   0  0  0  0  0  0  0  0  0  0  0  0
   -1.3125    2.2615    1.6126 H   0  0  0  0  0  0  0  0  0  0  0  0
   -2.6424    1.7722    2.6826 H   0  0  0  0  0  0  0  0  0  0  0  0
   -0.6646   -0.5578   -0.6744 N   0  0  0  0  0  0  0  0  0  0  0  0
   -0.2930   -1.9017   -1.1600 C   0  0  2  0  0  0  0  0  0  0  0  0
    1.1429   -2.3571   -0.8362 C   0  0  0  0  0  0  0  0  0  0  0  0
    1.3559   -3.5171   -0.5050 O   0  0  0  0  0  0  0  0  0  0  0  0
   -0.5461   -1.9786   -2.6725 C   0  0  0  0  0  0  0  0  0  0  0  0
   -1.9353   -1.4996   -3.0290 C   0  0  0  0  0  0  0  0  0  0  0  0
   -3.1086   -1.6705   -2.3216 N   0  0  0  0  0  0  0  0  0  0  0  0
   -2.2993   -0.7670   -4.1281 C   0  0  0  0  0  0  0  0  0  0  0  0
   -4.1290   -1.0400   -3.0049 C   0  0  0  0  0  0  0  0  0  0  0  0
   -3.6598   -0.4813   -4.0952 N   0  0  0  0  0  0  0  0  0  0  0  0
   -1.4860   -0.1858   -1.1493 H   0  0  0  0  0  0  0  0  0  0  0  0
   -0.9531   -2.6275   -0.6725 H   0  0  0  0  0  0  0  0  0  0  0  0
   -0.4314   -3.0180   -2.9992 H   0  0  0  0  0  0  0  0  0  0  0  0
    0.1979   -1.3787   -3.2075 H   0  0  0  0  0  0  0  0  0  0  0  0
   -3.2137   -2.1171   -1.4035 H   0  0  0  0  0  0  0  0  0  0  0  0
   -1.6190   -0.4414   -4.9096 H   0  0  0  0  0  0  0  0  0  0  0  0
   -5.1654   -1.0003   -2.6817 H   0  0  0  0  0  0  0  0  0  0  0  0
    2.2071   -1.4935   -1.0184 N   0  0  0  0  0  0  0  0  0  0  0  0
    3.5944   -1.8314   -0.6644 C   0  0  2  0  0  0  0  0  0  0  0  0
    3.8435   -1.7748    0.8629 C   0  0  0  0  0  0  0  0  0  0  0  0
    4.6658   -1.0092    1.3537 O   0  0  0  0  0  0  0  0  0  0  0  0
    4.5117   -0.8902   -1.4552 C   0  0  0  0  0  0  0  0  0  0  0  0
    1.9551   -0.5089   -1.0522 H   0  0  0  0  0  0  0  0  0  0  0  0
    3.8136   -2.8553   -0.9847 H   0  0  0  0  0  0  0  0  0  0  0  0
    4.3412    0.1509   -1.1628 H   0  0  0  0  0  0  0  0  0  0  0  0
    5.5611   -1.1352   -1.2635 H   0  0  0  0  0  0  0  0  0  0  0  0
    4.3253   -0.9883   -2.5288 H   0  0  0  0  0  0  0  0  0  0  0  0
    3.1227   -2.6142    1.6886 N   0  0  0  0  0  0  0  0  0  0  0  0
    3.1280   -2.5098    3.1402 C   0  0  0  0  0  0  0  0  0  0  0  0
    2.3698   -3.1351    1.2333 H   0  0  0  0  0  0  0  0  0  0  0  0
    4.1500   -2.5784    3.5275 H   0  0  0  0  0  0  0  0  0  0  0  0
    2.6935   -1.5550    3.4541 H   0  0  0  0  0  0  0  0  0  0  0  0
    2.5391   -3.3216    3.5776 H   0  0  0  0  0  0  0  0  0  0  0  0
  1  2  2  0  0  0  0
  1  3  1  0  0  0  0
  1  7  1  0  0  0  0
  3  4  1  0  0  0  0
  3  5  1  0  0  0  0
  3  6  1  0  0  0  0
  7  8  1  0  0  0  0
  7 12  1  0  0  0  0
  8  9  1  0  0  0  0
  8 11  1  0  0  0  0
  8 13  1  0  0  0  0
  9 10  2  0  0  0  0
  9 17  1  0  0  0  0
 11 14  1  0  0  0  0
 11 15  1  0  0  0  0
 11 16  1  0  0  0  0
 17 18  1  0  0  0  0
 17 27  1  0  0  0  0
 18 19  1  0  0  0  0
 18 21  1  0  0  0  0
 18 28  1  0  0  0  0
 19 20  2  0  0  0  0
 19 34  1  0  0  0  0
 21 22  1  0  0  0  0
 21 29  1  0  0  0  0
 21 30  1  0  0  0  0
 22 23  1  0  0  0  0
 22 24  2  0  0  0  0
 23 25  1  0  0  0  0
 23 31  1  0  0  0  0
 24 26  1  0  0  0  0
 24 32  1  0  0  0  0
 25 26  2  0  0  0  0
 25 33  1  0  0  0  0
 34 35  1  0  0  0  0
 34 39  1  0  0  0  0
 35 36  1  0  0  0  0
 35 38  1  0  0  0  0
 35 40  1  0  0  0  0
 36 37  2  0  0  0  0
 36 44  1  0  0  0  0
 38 41  1  0  0  0  0
 38 42  1  0  0  0  0
 38 43  1  0  0  0  0
 44 45  1  0  0  0  0
 44 46  1  0  0  0  0
 45 47  1  0  0  0  0
 45 48  1  0  0  0  0
 45 49  1  0  0  0  0
M  END
$$$$

  -OEChem-02062319083D

 49 49  0     1  0  0  0  0  0999 V2000
   -3.3915   -1.8827    1.5372 C   0  0  0  0  0  0  0  0  0  0  0  0
   -3.7453   -1.7259    0.3771 O   0  0  0  0  0  0  0  0  0  0  0  0
   -3.9039   -3.0662    2.3350 C   0  0  0  0  0  0  0  0  0  0  0  0
   -4.6105   -3.6479    1.7362 H   0  0  0  0  0  0  0  0  0  0  0  0
   -3.0706   -3.7131    2.6211 H   0  0  0  0  0  0  0  0  0  0  0  0
   -4.4127   -2.7174    3.2373 H   0  0  0  0  0  0  0  0  0  0  0  0
   -2.4908   -1.0069    2.1087 N   0  0  0  0  0  0  0  0  0  0  0  0
   -1.8933    0.1370    1.4047 C   0  0  2  0  0  0  0  0  0  0  0  0
   -0.6299   -0.2724    0.6134 C   0  0  0  0  0  0  0  0  0  0  0  0
    0.4987   -0.0141    1.0028 O   0  0  0  0  0  0  0  0  0  0  0  0
   -1.6117    1.2276    2.4450 C   0  0  0  0  0  0  0  0  0  0  0  0
   -2.1702   -1.2165    3.0505 H   0  0  0  0  0  0  0  0  0  0  0  0
   -2.6104    0.5457    0.6842 H   0  0  0  0  0  0  0  0  0  0  0  0
   -0.9038    0.8704    3.1999 H   0  0  0  0  0  0  0  0  0  0  0  0
   -1.1835    2.1110    1.9607 H   0  0  0  0  0  0  0  0  0  0  0  0
   -2.5380    1.5242    2.9466 H   0  0  0  0  0  0  0  0  0  0  0  0
   -0.6932   -0.4900   -0.7398 N   0  0  0  0  0  0  0  0  0  0  0  0
   -0.6619   -1.8940   -1.1865 C   0  0  2  0  0  0  0  0  0  0  0  0
    0.6089   -2.6643   -0.7756 C   0  0  0  0  0  0  0  0  0  0  0  0
    0.5084   -3.8168   -0.3748 O   0  0  0  0  0  0  0  0  0  0  0  0
   -0.8514   -1.9657   -2.7087 C   0  0  0  0  0  0  0  0  0  0  0  0
   -2.1287   -1.2888   -3.1450 C   0  0  0  0  0  0  0  0  0  0  0  0
   -3.3256   -1.2059   -2.4628 N   0  0  0  0  0  0  0  0  0  0  0  0
   -2.3466   -0.5968   -4.3071 C   0  0  0  0  0  0  0  0  0  0  0  0
   -4.2132   -0.4728   -3.2239 C   0  0  0  0  0  0  0  0  0  0  0  0
   -3.6436   -0.0961   -4.3447 N   0  0  0  0  0  0  0  0  0  0  0  0
   -0.0106    0.0905   -1.2185 H   0  0  0  0  0  0  0  0  0  0  0  0
   -1.5018   -2.4244   -0.7276 H   0  0  0  0  0  0  0  0  0  0  0  0
   -0.8924   -3.0181   -3.0104 H   0  0  0  0  0  0  0  0  0  0  0  0
    0.0028   -1.5074   -3.2183 H   0  0  0  0  0  0  0  0  0  0  0  0
   -3.5129   -1.5447   -1.5130 H   0  0  0  0  0  0  0  0  0  0  0  0
   -1.6073   -0.4519   -5.0893 H   0  0  0  0  0  0  0  0  0  0  0  0
   -5.2331   -0.2361   -2.9350 H   0  0  0  0  0  0  0  0  0  0  0  0
    1.8651   -2.1025   -0.9135 N   0  0  0  0  0  0  0  0  0  0  0  0
    3.1101   -2.7986   -0.5508 C   0  0  2  0  0  0  0  0  0  0  0  0
    3.3580   -2.8209    0.9778 C   0  0  0  0  0  0  0  0  0  0  0  0
    4.3661   -2.3348    1.4763 O   0  0  0  0  0  0  0  0  0  0  0  0
    4.2472   -2.1264   -1.3299 C   0  0  0  0  0  0  0  0  0  0  0  0
    1.8884   -1.0851   -0.9138 H   0  0  0  0  0  0  0  0  0  0  0  0
    3.0548   -3.8416   -0.8801 H   0  0  0  0  0  0  0  0  0  0  0  0
    4.3556   -1.0800   -1.0267 H   0  0  0  0  0  0  0  0  0  0  0  0
    5.1940   -2.6416   -1.1384 H   0  0  0  0  0  0  0  0  0  0  0  0
    4.0465   -2.1621   -2.4051 H   0  0  0  0  0  0  0  0  0  0  0  0
    2.4254   -3.4217    1.7999 N   0  0  0  0  0  0  0  0  0  0  0  0
    2.5171   -3.4426    3.2526 C   0  0  0  0  0  0  0  0  0  0  0  0
    1.5937   -3.7966    1.3384 H   0  0  0  0  0  0  0  0  0  0  0  0
    3.4371   -3.9439    3.5710 H   0  0  0  0  0  0  0  0  0  0  0  0
    2.5156   -2.4220    3.6495 H   0  0  0  0  0  0  0  0  0  0  0  0
    1.6649   -3.9812    3.6772 H   0  0  0  0  0  0  0  0  0  0  0  0
  1  2  2  0  0  0  0
  1  3  1  0  0  0  0
  1  7  1  0  0  0  0
  3  4  1  0  0  0  0
  3  5  1  0  0  0  0
  3  6  1  0  0  0  0
  7  8  1  0  0  0  0
  7 12  1  0  0  0  0
  8  9  1  0  0  0  0
  8 11  1  0  0  0  0
  8 13  1  0  0  0  0
  9 10  2  0  0  0  0
  9 17  1  0  0  0  0
 11 14  1  0  0  0  0
 11 15  1  0  0  0  0
 11 16  1  0  0  0  0
 17 18  1  0  0  0  0
 17 27  1  0  0  0  0
 18 19  1  0  0  0  0
 18 21  1  0  0  0  0
 18 28  1  0  0  0  0
 19 20  2  0  0  0  0
 19 34  1  0  0  0  0
 21 22  1  0  0  0  0
 21 29  1  0  0  0  0
 21 30  1  0  0  0  0
 22 23  1  0  0  0  0
 22 24  2  0  0  0  0
 23 25  1  0  0  0  0
 23 31  1  0  0  0  0
 24 26  1  0  0  0  0
 24 32  1  0  0  0  0
 25 26  2  0  0  0  0
 25 33  1  0  0  0  0
 34 35  1  0  0  0  0
 34 39  1  0  0  0  0
 35 36  1  0  0  0  0
 35 38  1  0  0  0  0
 35 40  1  0  0  0  0
 36 37  2  0  0  0  0
 36 44  1  0  0  0  0
 38 41  1  0  0  0  0
 38 42  1  0  0  0  0
 38 43  1  0  0  0  0
 44 45  1  0  0  0  0
 44 46  1  0  0  0  0
 45 47  1  0  0  0  0
 45 48  1  0  0  0  0
 45 49  1  0  0  0  0
M  END
$$$$

  -OEChem-02062319083D

 49 49  0     1  0  0  0  0  0999 V2000
   -2.4956   -2.0986    2.6297 C   0  0  0  0  0  0  0  0  0  0  0  0
   -2.7622   -2.7304    1.6188 O   0  0  0  0  0  0  0  0  0  0  0  0
   -2.3210   -2.8116    3.9569 C   0  0  0  0  0  0  0  0  0  0  0  0
   -2.5371   -3.8775    3.8434 H   0  0  0  0  0  0  0  0  0  0  0  0
   -1.2931   -2.6953    4.3094 H   0  0  0  0  0  0  0  0  0  0  0  0
   -3.0037   -2.3919    4.6996 H   0  0  0  0  0  0  0  0  0  0  0  0
   -2.3012   -0.7351    2.5475 N   0  0  0  0  0  0  0  0  0  0  0  0
   -2.1974   -0.0498    1.2533 C   0  0  2  0  0  0  0  0  0  0  0  0
   -0.8692   -0.3926    0.5495 C   0  0  0  0  0  0  0  0  0  0  0  0
    0.2055   -0.2133    1.1034 O   0  0  0  0  0  0  0  0  0  0  0  0
   -2.3249    1.4561    1.4952 C   0  0  0  0  0  0  0  0  0  0  0  0
   -1.8640   -0.2953    3.3528 H   0  0  0  0  0  0  0  0  0  0  0  0
   -3.0195   -0.3637    0.6009 H   0  0  0  0  0  0  0  0  0  0  0  0
   -1.5154    1.8142    2.1397 H   0  0  0  0  0  0  0  0  0  0  0  0
   -2.2773    1.9973    0.5450 H   0  0  0  0  0  0  0  0  0  0  0  0
   -3.2817    1.6840    1.9751 H   0  0  0  0  0  0  0  0  0  0  0  0
   -0.7489   -0.4195   -0.8152 N   0  0  0  0  0  0  0  0  0  0  0  0
   -1.0254   -1.6989   -1.4910 C   0  0  2  0  0  0  0  0  0  0  0  0
   -0.1038   -2.8469   -1.0366 C   0  0  0  0  0  0  0  0  0  0  0  0
   -0.5470   -3.9863   -0.9987 O   0  0  0  0  0  0  0  0  0  0  0  0
   -0.9228   -1.5217   -3.0121 C   0  0  0  0  0  0  0  0  0  0  0  0
   -1.9782   -0.5670   -3.5061 C   0  0  0  0  0  0  0  0  0  0  0  0
   -3.3395   -0.7766   -3.5516 N   0  0  0  0  0  0  0  0  0  0  0  0
   -1.7996    0.6869   -4.0282 C   0  0  0  0  0  0  0  0  0  0  0  0
   -3.9348    0.3496   -4.0884 C   0  0  0  0  0  0  0  0  0  0  0  0
   -3.0233    1.2469   -4.3784 N   0  0  0  0  0  0  0  0  0  0  0  0
    0.1353    0.0007   -1.0875 H   0  0  0  0  0  0  0  0  0  0  0  0
   -2.0481   -2.0106   -1.2492 H   0  0  0  0  0  0  0  0  0  0  0  0
   -1.0568   -2.4894   -3.5081 H   0  0  0  0  0  0  0  0  0  0  0  0
    0.0728   -1.1506   -3.2772 H   0  0  0  0  0  0  0  0  0  0  0  0
   -3.8326   -1.6177   -3.2567 H   0  0  0  0  0  0  0  0  0  0  0  0
   -0.8386    1.1773   -4.1511 H   0  0  0  0  0  0  0  0  0  0  0  0
   -5.0016    0.4761   -4.2489 H   0  0  0  0  0  0  0  0  0  0  0  0
    1.2592   -2.6589   -0.8940 N   0  0  0  0  0  0  0  0  0  0  0  0
    2.1751   -3.7364   -0.4832 C   0  0  2  0  0  0  0  0  0  0  0  0
    2.0344   -4.1155    1.0150 C   0  0  0  0  0  0  0  0  0  0  0  0
    2.9946   -4.0950    1.7760 O   0  0  0  0  0  0  0  0  0  0  0  0
    3.5934   -3.2824   -0.8508 C   0  0  0  0  0  0  0  0  0  0  0  0
    1.5468   -1.7051   -0.6857 H   0  0  0  0  0  0  0  0  0  0  0  0
    1.9549   -4.6402   -1.0614 H   0  0  0  0  0  0  0  0  0  0  0  0
    3.8718   -2.3904   -0.2805 H   0  0  0  0  0  0  0  0  0  0  0  0
    4.3152   -4.0747   -0.6279 H   0  0  0  0  0  0  0  0  0  0  0  0
    3.6554   -3.0509   -1.9184 H   0  0  0  0  0  0  0  0  0  0  0  0
    0.8069   -4.5182    1.5058 N   0  0  0  0  0  0  0  0  0  0  0  0
    0.5776   -4.9564    2.8744 C   0  0  0  0  0  0  0  0  0  0  0  0
    0.0360   -4.5502    0.8326 H   0  0  0  0  0  0  0  0  0  0  0  0
    1.1782   -5.8443    3.0974 H   0  0  0  0  0  0  0  0  0  0  0  0
    0.8440   -4.1629    3.5803 H   0  0  0  0  0  0  0  0  0  0  0  0
   -0.4778   -5.2076    3.0159 H   0  0  0  0  0  0  0  0  0  0  0  0
  1  2  2  0  0  0  0
  1  3  1  0  0  0  0
  1  7  1  0  0  0  0
  3  4  1  0  0  0  0
  3  5  1  0  0  0  0
  3  6  1  0  0  0  0
  7  8  1  0  0  0  0
  7 12  1  0  0  0  0
  8  9  1  0  0  0  0
  8 11  1  0  0  0  0
  8 13  1  0  0  0  0
  9 10  2  0  0  0  0
  9 17  1  0  0  0  0
 11 14  1  0  0  0  0
 11 15  1  0  0  0  0
 11 16  1  0  0  0  0
 17 18  1  0  0  0  0
 17 27  1  0  0  0  0
 18 19  1  0  0  0  0
 18 21  1  0  0  0  0
 18 28  1  0  0  0  0
 19 20  2  0  0  0  0
 19 34  1  0  0  0  0
 21 22  1  0  0  0  0
 21 29  1  0  0  0  0
 21 30  1  0  0  0  0
 22 23  1  0  0  0  0
 22 24  2  0  0  0  0
 23 25  1  0  0  0  0
 23 31  1  0  0  0  0
 24 26  1  0  0  0  0
 24 32  1  0  0  0  0
 25 26  2  0  0  0  0
 25 33  1  0  0  0  0
 34 35  1  0  0  0  0
 34 39  1  0  0  0  0
 35 36  1  0  0  0  0
 35 38  1  0  0  0  0
 35 40  1  0  0  0  0
 36 37  2  0  0  0  0
 36 44  1  0  0  0  0
 38 41  1  0  0  0  0
 38 42  1  0  0  0  0
 38 43  1  0  0  0  0
 44 45  1  0  0  0  0
 44 46  1  0  0  0  0
 45 47  1  0  0  0  0
 45 48  1  0  0  0  0
 45 49  1  0  0  0  0
M  END
$$$$

  -OEChem-02062319083D

 49 49  0     1  0  0  0  0  0999 V2000
   -2.5837   -1.9988    2.8209 C   0  0  0  0  0  0  0  0  0  0  0  0
   -2.8587   -2.7430    1.8921 O   0  0  0  0  0  0  0  0  0  0  0  0
   -2.4039   -2.5530    4.2215 C   0  0  0  0  0  0  0  0  0  0  0  0
   -2.7476   -3.5900    4.2646 H   0  0  0  0  0  0  0  0  0  0  0  0
   -1.3482   -2.5176    4.5028 H   0  0  0  0  0  0  0  0  0  0  0  0
   -2.9842   -1.9636    4.9353 H   0  0  0  0  0  0  0  0  0  0  0  0
   -2.3939   -0.6530    2.5836 N   0  0  0  0  0  0  0  0  0  0  0  0
   -2.3020   -0.1147    1.2207 C   0  0  2  0  0  0  0  0  0  0  0  0
   -0.9411   -0.4473    0.5756 C   0  0  0  0  0  0  0  0  0  0  0  0
    0.1051   -0.2806    1.1845 O   0  0  0  0  0  0  0  0  0  0  0  0
   -2.5192    1.3988    1.2871 C   0  0  0  0  0  0  0  0  0  0  0  0
   -1.9394   -0.1306    3.3277 H   0  0  0  0  0  0  0  0  0  0  0  0
   -3.0930   -0.5467    0.5988 H   0  0  0  0  0  0  0  0  0  0  0  0
   -1.7423    1.8743    1.8943 H   0  0  0  0  0  0  0  0  0  0  0  0
   -2.4865    1.8312    0.2819 H   0  0  0  0  0  0  0  0  0  0  0  0
   -3.4953    1.6239    1.7279 H   0  0  0  0  0  0  0  0  0  0  0  0
   -0.7551   -0.4815   -0.7825 N   0  0  0  0  0  0  0  0  0  0  0  0
   -1.2832   -1.6227   -1.5484 C   0  0  2  0  0  0  0  0  0  0  0  0
   -0.6990   -2.9783   -1.1097 C   0  0  0  0  0  0  0  0  0  0  0  0
   -1.4057   -3.9745   -1.1625 O   0  0  0  0  0  0  0  0  0  0  0  0
   -1.0238   -1.4074   -3.0456 C   0  0  0  0  0  0  0  0  0  0  0  0
   -1.7947   -0.2144   -3.5463 C   0  0  0  0  0  0  0  0  0  0  0  0
   -3.1551   -0.1225   -3.7435 N   0  0  0  0  0  0  0  0  0  0  0  0
   -1.3019    1.0062   -3.9259 C   0  0  0  0  0  0  0  0  0  0  0  0
   -3.4399    1.1422   -4.2236 C   0  0  0  0  0  0  0  0  0  0  0  0
   -2.3357    1.8408   -4.3368 N   0  0  0  0  0  0  0  0  0  0  0  0
    0.1995   -0.2188   -1.0119 H   0  0  0  0  0  0  0  0  0  0  0  0
   -2.3659   -1.6866   -1.3944 H   0  0  0  0  0  0  0  0  0  0  0  0
   -1.3325   -2.2949   -3.6092 H   0  0  0  0  0  0  0  0  0  0  0  0
    0.0475   -1.2626   -3.2202 H   0  0  0  0  0  0  0  0  0  0  0  0
   -3.8408   -0.8589   -3.5862 H   0  0  0  0  0  0  0  0  0  0  0  0
   -0.2525    1.2852   -3.9060 H   0  0  0  0  0  0  0  0  0  0  0  0
   -4.4326    1.5071   -4.4721 H   0  0  0  0  0  0  0  0  0  0  0  0
    0.6558   -3.1316   -0.8788 N   0  0  0  0  0  0  0  0  0  0  0  0
    1.2735   -4.4200   -0.5242 C   0  0  2  0  0  0  0  0  0  0  0  0
    0.9853   -4.8546    0.9360 C   0  0  0  0  0  0  0  0  0  0  0  0
    1.8918   -5.1338    1.7119 O   0  0  0  0  0  0  0  0  0  0  0  0
    2.7730   -4.2947   -0.8233 C   0  0  0  0  0  0  0  0  0  0  0  0
    1.1677   -2.2849   -0.6427 H   0  0  0  0  0  0  0  0  0  0  0  0
    0.8698   -5.2056   -1.1719 H   0  0  0  0  0  0  0  0  0  0  0  0
    3.2317   -3.5329   -0.1846 H   0  0  0  0  0  0  0  0  0  0  0  0
    3.2784   -5.2484   -0.6396 H   0  0  0  0  0  0  0  0  0  0  0  0
    2.9315   -4.0177   -1.8698 H   0  0  0  0  0  0  0  0  0  0  0  0
   -0.3205   -4.9660    1.3720 N   0  0  0  0  0  0  0  0  0  0  0  0
   -0.7035   -5.4306    2.6964 C   0  0  0  0  0  0  0  0  0  0  0  0
   -1.0532   -4.7232    0.6994 H   0  0  0  0  0  0  0  0  0  0  0  0
   -0.3687   -6.4611    2.8525 H   0  0  0  0  0  0  0  0  0  0  0  0
   -0.2609   -4.7937    3.4689 H   0  0  0  0  0  0  0  0  0  0  0  0
   -1.7922   -5.4005    2.8021 H   0  0  0  0  0  0  0  0  0  0  0  0
  1  2  2  0  0  0  0
  1  3  1  0  0  0  0
  1  7  1  0  0  0  0
  3  4  1  0  0  0  0
  3  5  1  0  0  0  0
  3  6  1  0  0  0  0
  7  8  1  0  0  0  0
  7 12  1  0  0  0  0
  8  9  1  0  0  0  0
  8 11  1  0  0  0  0
  8 13  1  0  0  0  0
  9 10  2  0  0  0  0
  9 17  1  0  0  0  0
 11 14  1  0  0  0  0
 11 15  1  0  0  0  0
 11 16  1  0  0  0  0
 17 18  1  0  0  0  0
 17 27  1  0  0  0  0
 18 19  1  0  0  0  0
 18 21  1  0  0  0  0
 18 28  1  0  0  0  0
 19 20  2  0  0  0  0
 19 34  1  0  0  0  0
 21 22  1  0  0  0  0
 21 29  1  0  0  0  0
 21 30  1  0  0  0  0
 22 23  1  0  0  0  0
 22 24  2  0  0  0  0
 23 25  1  0  0  0  0
 23 31  1  0  0  0  0
 24 26  1  0  0  0  0
 24 32  1  0  0  0  0
 25 26  2  0  0  0  0
 25 33  1  0  0  0  0
 34 35  1  0  0  0  0
 34 39  1  0  0  0  0
 35 36  1  0  0  0  0
 35 38  1  0  0  0  0
 35 40  1  0  0  0  0
 36 37  2  0  0  0  0
 36 44  1  0  0  0  0
 38 41  1  0  0  0  0
 38 42  1  0  0  0  0
 38 43  1  0  0  0  0
 44 45  1  0  0  0  0
 44 46  1  0  0  0  0
 45 47  1  0  0  0  0
 45 48  1  0  0  0  0
 45 49  1  0  0  0  0
M  END
$$$$

  -OEChem-02062319083D

 49 49  0     1  0  0  0  0  0999 V2000
   -2.8017   -1.8258    2.8890 C   0  0  0  0  0  0  0  0  0  0  0  0
   -3.2889   -2.5112    2.0037 O   0  0  0  0  0  0  0  0  0  0  0  0
   -2.5915   -2.4016    4.2763 C   0  0  0  0  0  0  0  0  0  0  0  0
   -3.1452   -3.3381    4.3841 H   0  0  0  0  0  0  0  0  0  0  0  0
   -1.5286   -2.5978    4.4388 H   0  0  0  0  0  0  0  0  0  0  0  0
   -2.9447   -1.6972    5.0333 H   0  0  0  0  0  0  0  0  0  0  0  0
   -2.3947   -0.5374    2.6126 N   0  0  0  0  0  0  0  0  0  0  0  0
   -2.3043   -0.0239    1.2400 C   0  0  2  0  0  0  0  0  0  0  0  0
   -0.9551   -0.4000    0.5925 C   0  0  0  0  0  0  0  0  0  0  0  0
    0.0929   -0.2926    1.2108 O   0  0  0  0  0  0  0  0  0  0  0  0
   -2.4743    1.4960    1.2876 C   0  0  0  0  0  0  0  0  0  0  0  0
   -1.7962   -0.1041    3.3111 H   0  0  0  0  0  0  0  0  0  0  0  0
   -3.1149   -0.4361    0.6311 H   0  0  0  0  0  0  0  0  0  0  0  0
   -1.6767    1.9553    1.8805 H   0  0  0  0  0  0  0  0  0  0  0  0
   -2.4383    1.9130    0.2761 H   0  0  0  0  0  0  0  0  0  0  0  0
   -3.4383    1.7566    1.7355 H   0  0  0  0  0  0  0  0  0  0  0  0
   -0.7680   -0.5049   -0.7637 N   0  0  0  0  0  0  0  0  0  0  0  0
   -1.5454   -1.4640   -1.5670 C   0  0  2  0  0  0  0  0  0  0  0  0
   -1.3461   -2.9278   -1.1323 C   0  0  0  0  0  0  0  0  0  0  0  0
   -2.2794   -3.7112   -1.2234 O   0  0  0  0  0  0  0  0  0  0  0  0
   -1.1718   -1.3161   -3.0488 C   0  0  0  0  0  0  0  0  0  0  0  0
   -1.5881    0.0362   -3.5649 C   0  0  0  0  0  0  0  0  0  0  0  0
   -2.8661    0.4668   -3.8478 N   0  0  0  0  0  0  0  0  0  0  0  0
   -0.7832    1.0995   -3.8788 C   0  0  0  0  0  0  0  0  0  0  0  0
   -2.7939    1.7681   -4.3091 C   0  0  0  0  0  0  0  0  0  0  0  0
   -1.5459    2.1700   -4.3316 N   0  0  0  0  0  0  0  0  0  0  0  0
    0.2157   -0.4140   -1.0044 H   0  0  0  0  0  0  0  0  0  0  0  0
   -2.6134   -1.2454   -1.4624 H   0  0  0  0  0  0  0  0  0  0  0  0
   -1.6700   -2.0931   -3.6390 H   0  0  0  0  0  0  0  0  0  0  0  0
   -0.0920   -1.4491   -3.1749 H   0  0  0  0  0  0  0  0  0  0  0  0
   -3.7220   -0.0781   -3.7608 H   0  0  0  0  0  0  0  0  0  0  0  0
    0.2985    1.1086   -3.7848 H   0  0  0  0  0  0  0  0  0  0  0  0
   -3.6446    2.3725   -4.6107 H   0  0  0  0  0  0  0  0  0  0  0  0
   -0.0830   -3.4208   -0.8627 N   0  0  0  0  0  0  0  0  0  0  0  0
    0.2046   -4.8400   -0.6008 C   0  0  2  0  0  0  0  0  0  0  0  0
   -0.1898   -5.2919    0.8278 C   0  0  0  0  0  0  0  0  0  0  0  0
    0.6208   -5.8260    1.5761 O   0  0  0  0  0  0  0  0  0  0  0  0
    1.6918   -5.0583   -0.9073 C   0  0  0  0  0  0  0  0  0  0  0  0
    0.6365   -2.7382   -0.6387 H   0  0  0  0  0  0  0  0  0  0  0  0
   -0.3716   -5.4606   -1.2954 H   0  0  0  0  0  0  0  0  0  0  0  0
    2.3159   -4.4715   -0.2255 H   0  0  0  0  0  0  0  0  0  0  0  0
    1.9520   -6.1156   -0.7909 H   0  0  0  0  0  0  0  0  0  0  0  0
    1.9175   -4.7591   -1.9353 H   0  0  0  0  0  0  0  0  0  0  0  0
   -1.4900   -5.1291    1.2629 N   0  0  0  0  0  0  0  0  0  0  0  0
   -1.9807   -5.5894    2.5535 C   0  0  0  0  0  0  0  0  0  0  0  0
   -2.1366   -4.6562    0.6252 H   0  0  0  0  0  0  0  0  0  0  0  0
   -1.4124   -5.1263    3.3663 H   0  0  0  0  0  0  0  0  0  0  0  0
   -3.0355   -5.3223    2.6705 H   0  0  0  0  0  0  0  0  0  0  0  0
   -1.8880   -6.6775    2.6323 H   0  0  0  0  0  0  0  0  0  0  0  0
  1  2  2  0  0  0  0
  1  3  1  0  0  0  0
  1  7  1  0  0  0  0
  3  4  1  0  0  0  0
  3  5  1  0  0  0  0
  3  6  1  0  0  0  0
  7  8  1  0  0  0  0
  7 12  1  0  0  0  0
  8  9  1  0  0  0  0
  8 11  1  0  0  0  0
  8 13  1  0  0  0  0
  9 10  2  0  0  0  0
  9 17  1  0  0  0  0
 11 14  1  0  0  0  0
 11 15  1  0  0  0  0
 11 16  1  0  0  0  0
 17 18  1  0  0  0  0
 17 27  1  0  0  0  0
 18 19  1  0  0  0  0
 18 21  1  0  0  0  0
 18 28  1  0  0  0  0
 19 20  2  0  0  0  0
 19 34  1  0  0  0  0
 21 22  1  0  0  0  0
 21 29  1  0  0  0  0
 21 30  1  0  0  0  0
 22 23  1  0  0  0  0
 22 24  2  0  0  0  0
 23 25  1  0  0  0  0
 23 31  1  0  0  0  0
 24 26  1  0  0  0  0
 24 32  1  0  0  0  0
 25 26  2  0  0  0  0
 25 33  1  0  0  0  0
 34 35  1  0  0  0  0
 34 39  1  0  0  0  0
 35 36  1  0  0  0  0
 35 38  1  0  0  0  0
 35 40  1  0  0  0  0
 36 37  2  0  0  0  0
 36 44  1  0  0  0  0
 38 41  1  0  0  0  0
 38 42  1  0  0  0  0
 38 43  1  0  0  0  0
 44 45  1  0  0  0  0
 44 46  1  0  0  0  0
 45 47  1  0  0  0  0
 45 48  1  0  0  0  0
 45 49  1  0  0  0  0
M  END
$$$$

  -OEChem-02062319083D

 49 49  0     1  0  0  0  0  0999 V2000
   -3.1907   -1.3491    3.4165 C   0  0  0  0  0  0  0  0  0  0  0  0
   -4.2589   -1.6369    2.9004 O   0  0  0  0  0  0  0  0  0  0  0  0
   -2.9149   -1.7353    4.8572 C   0  0  0  0  0  0  0  0  0  0  0  0
   -2.7238   -0.8401    5.4537 H   0  0  0  0  0  0  0  0  0  0  0  0
   -3.7759   -2.2620    5.2779 H   0  0  0  0  0  0  0  0  0  0  0  0
   -2.0422   -2.3911    4.9074 H   0  0  0  0  0  0  0  0  0  0  0  0
   -2.2220   -0.6949    2.6859 N   0  0  0  0  0  0  0  0  0  0  0  0
   -2.2958   -0.4590    1.2378 C   0  0  2  0  0  0  0  0  0  0  0  0
   -0.9439   -0.7621    0.5559 C   0  0  0  0  0  0  0  0  0  0  0  0
    0.0951   -0.8026    1.1972 O   0  0  0  0  0  0  0  0  0  0  0  0
   -2.7050    0.9987    1.0119 C   0  0  0  0  0  0  0  0  0  0  0  0
   -1.3012   -0.6133    3.1157 H   0  0  0  0  0  0  0  0  0  0  0  0
   -3.0467   -1.1168    0.7875 H   0  0  0  0  0  0  0  0  0  0  0  0
   -1.9621    1.6764    1.4443 H   0  0  0  0  0  0  0  0  0  0  0  0
   -2.7905    1.2135   -0.0576 H   0  0  0  0  0  0  0  0  0  0  0  0
   -3.6734    1.1959    1.4821 H   0  0  0  0  0  0  0  0  0  0  0  0
   -0.7491   -0.7343   -0.8056 N   0  0  0  0  0  0  0  0  0  0  0  0
   -1.7031   -1.3481   -1.7434 C   0  0  2  0  0  0  0  0  0  0  0  0
   -1.8772   -2.8577   -1.5072 C   0  0  0  0  0  0  0  0  0  0  0  0
   -3.0045   -3.3292   -1.4784 O   0  0  0  0  0  0  0  0  0  0  0  0
   -1.2479   -1.1018   -3.1880 C   0  0  0  0  0  0  0  0  0  0  0  0
   -1.2763    0.3700   -3.5062 C   0  0  0  0  0  0  0  0  0  0  0  0
   -2.3864    1.1718   -3.6640 N   0  0  0  0  0  0  0  0  0  0  0  0
   -0.2098    1.2019   -3.7262 C   0  0  0  0  0  0  0  0  0  0  0  0
   -1.9585    2.4525   -3.9611 C   0  0  0  0  0  0  0  0  0  0  0  0
   -0.6485    2.4919   -4.0004 N   0  0  0  0  0  0  0  0  0  0  0  0
    0.2363   -0.7467   -1.0567 H   0  0  0  0  0  0  0  0  0  0  0  0
   -2.6867   -0.8838   -1.6149 H   0  0  0  0  0  0  0  0  0  0  0  0
   -1.9111   -1.6299   -3.8820 H   0  0  0  0  0  0  0  0  0  0  0  0
   -0.2369   -1.4972   -3.3332 H   0  0  0  0  0  0  0  0  0  0  0  0
   -3.3600    0.8800   -3.6008 H   0  0  0  0  0  0  0  0  0  0  0  0
    0.8325    0.8989   -3.6897 H   0  0  0  0  0  0  0  0  0  0  0  0
   -2.6094    3.3038   -4.1383 H   0  0  0  0  0  0  0  0  0  0  0  0
   -0.7878   -3.6826   -1.2972 N   0  0  0  0  0  0  0  0  0  0  0  0
   -0.9133   -5.0934   -0.8989 C   0  0  2  0  0  0  0  0  0  0  0  0
   -1.3087   -5.2505    0.5911 C   0  0  0  0  0  0  0  0  0  0  0  0
   -0.5622   -5.7833    1.4026 O   0  0  0  0  0  0  0  0  0  0  0  0
    0.4112   -5.7868   -1.2414 C   0  0  0  0  0  0  0  0  0  0  0  0
    0.1048   -3.2243   -1.1319 H   0  0  0  0  0  0  0  0  0  0  0  0
   -1.7000   -5.5726   -1.4916 H   0  0  0  0  0  0  0  0  0  0  0  0
    1.2355   -5.3502   -0.6685 H   0  0  0  0  0  0  0  0  0  0  0  0
    0.3521   -6.8537   -1.0027 H   0  0  0  0  0  0  0  0  0  0  0  0
    0.6320   -5.6842   -2.3083 H   0  0  0  0  0  0  0  0  0  0  0  0
   -2.5267   -4.7615    1.0210 N   0  0  0  0  0  0  0  0  0  0  0  0
   -3.0078   -4.8541    2.3921 C   0  0  0  0  0  0  0  0  0  0  0  0
   -3.1116   -4.3049    0.3170 H   0  0  0  0  0  0  0  0  0  0  0  0
   -2.3164   -4.3515    3.0758 H   0  0  0  0  0  0  0  0  0  0  0  0
   -3.9893   -4.3781    2.4801 H   0  0  0  0  0  0  0  0  0  0  0  0
   -3.1037   -5.9021    2.6939 H   0  0  0  0  0  0  0  0  0  0  0  0
  1  2  2  0  0  0  0
  1  3  1  0  0  0  0
  1  7  1  0  0  0  0
  3  4  1  0  0  0  0
  3  5  1  0  0  0  0
  3  6  1  0  0  0  0
  7  8  1  0  0  0  0
  7 12  1  0  0  0  0
  8  9  1  0  0  0  0
  8 11  1  0  0  0  0
  8 13  1  0  0  0  0
  9 10  2  0  0  0  0
  9 17  1  0  0  0  0
 11 14  1  0  0  0  0
 11 15  1  0  0  0  0
 11 16  1  0  0  0  0
 17 18  1  0  0  0  0
 17 27  1  0  0  0  0
 18 19  1  0  0  0  0
 18 21  1  0  0  0  0
 18 28  1  0  0  0  0
 19 20  2  0  0  0  0
 19 34  1  0  0  0  0
 21 22  1  0  0  0  0
 21 29  1  0  0  0  0
 21 30  1  0  0  0  0
 22 23  1  0  0  0  0
 22 24  2  0  0  0  0
 23 25  1  0  0  0  0
 23 31  1  0  0  0  0
 24 26  1  0  0  0  0
 24 32  1  0  0  0  0
 25 26  2  0  0  0  0
 25 33  1  0  0  0  0
 34 35  1  0  0  0  0
 34 39  1  0  0  0  0
 35 36  1  0  0  0  0
 35 38  1  0  0  0  0
 35 40  1  0  0  0  0
 36 37  2  0  0  0  0
 36 44  1  0  0  0  0
 38 41  1  0  0  0  0
 38 42  1  0  0  0  0
 38 43  1  0  0  0  0
 44 45  1  0  0  0  0
 44 46  1  0  0  0  0
 45 47  1  0  0  0  0
 45 48  1  0  0  0  0
 45 49  1  0  0  0  0
M  END
$$$$

  -OEChem-02062319083D

 49 49  0     1  0  0  0  0  0999 V2000
   -3.5825   -1.0938    3.3511 C   0  0  0  0  0  0  0  0  0  0  0  0
   -4.6694   -1.1903    2.8039 O   0  0  0  0  0  0  0  0  0  0  0  0
   -3.4278   -1.4766    4.8108 C   0  0  0  0  0  0  0  0  0  0  0  0
   -3.0513   -0.6248    5.3824 H   0  0  0  0  0  0  0  0  0  0  0  0
   -4.3932   -1.7798    5.2257 H   0  0  0  0  0  0  0  0  0  0  0  0
   -2.7260   -2.3092    4.9060 H   0  0  0  0  0  0  0  0  0  0  0  0
   -2.4886   -0.6551    2.6366 N   0  0  0  0  0  0  0  0  0  0  0  0
   -2.4907   -0.3782    1.1947 C   0  0  2  0  0  0  0  0  0  0  0  0
   -1.0896   -0.6076    0.5845 C   0  0  0  0  0  0  0  0  0  0  0  0
   -0.0883   -0.6267    1.2843 O   0  0  0  0  0  0  0  0  0  0  0  0
   -2.9380    1.0714    0.9794 C   0  0  0  0  0  0  0  0  0  0  0  0
   -1.5823   -0.6774    3.1031 H   0  0  0  0  0  0  0  0  0  0  0  0
   -3.1940   -1.0526    0.6952 H   0  0  0  0  0  0  0  0  0  0  0  0
   -2.2552    1.7615    1.4855 H   0  0  0  0  0  0  0  0  0  0  0  0
   -2.9530    1.3169   -0.0865 H   0  0  0  0  0  0  0  0  0  0  0  0
   -3.9454    1.2208    1.3807 H   0  0  0  0  0  0  0  0  0  0  0  0
   -0.8245   -0.6563   -0.7657 N   0  0  0  0  0  0  0  0  0  0  0  0
   -1.7831   -1.1191   -1.7822 C   0  0  2  0  0  0  0  0  0  0  0  0
   -2.2244   -2.5746   -1.5543 C   0  0  0  0  0  0  0  0  0  0  0  0
   -3.4091   -2.8620   -1.6418 O   0  0  0  0  0  0  0  0  0  0  0  0
   -1.1707   -0.9788   -3.1828 C   0  0  0  0  0  0  0  0  0  0  0  0
   -0.9176    0.4698   -3.5089 C   0  0  0  0  0  0  0  0  0  0  0  0
   -1.8555    1.4605   -3.7070 N   0  0  0  0  0  0  0  0  0  0  0  0
    0.2899    1.0893   -3.7000 C   0  0  0  0  0  0  0  0  0  0  0  0
   -1.1908    2.6377   -3.9965 C   0  0  0  0  0  0  0  0  0  0  0  0
    0.1045    2.4347   -3.9950 N   0  0  0  0  0  0  0  0  0  0  0  0
    0.1686   -0.6774   -0.9854 H   0  0  0  0  0  0  0  0  0  0  0  0
   -2.6828   -0.4965   -1.7409 H   0  0  0  0  0  0  0  0  0  0  0  0
   -1.8542   -1.3971   -3.9300 H   0  0  0  0  0  0  0  0  0  0  0  0
   -0.2344   -1.5443   -3.2400 H   0  0  0  0  0  0  0  0  0  0  0  0
   -2.8675    1.3537   -3.6723 H   0  0  0  0  0  0  0  0  0  0  0  0
    1.2573    0.6010   -3.6294 H   0  0  0  0  0  0  0  0  0  0  0  0
   -1.6687    3.5923   -4.1977 H   0  0  0  0  0  0  0  0  0  0  0  0
   -1.3038   -3.5581   -1.2453 N   0  0  0  0  0  0  0  0  0  0  0  0
   -1.6759   -4.9354   -0.8860 C   0  0  2  0  0  0  0  0  0  0  0  0
   -2.2711   -5.0382    0.5410 C   0  0  0  0  0  0  0  0  0  0  0  0
   -1.7029   -5.6561    1.4330 O   0  0  0  0  0  0  0  0  0  0  0  0
   -0.4274   -5.8065   -1.0727 C   0  0  0  0  0  0  0  0  0  0  0  0
   -0.3661   -3.2437   -1.0083 H   0  0  0  0  0  0  0  0  0  0  0  0
   -2.4422   -5.2995   -1.5789 H   0  0  0  0  0  0  0  0  0  0  0  0
    0.3740   -5.4825   -0.4007 H   0  0  0  0  0  0  0  0  0  0  0  0
   -0.6597   -6.8534   -0.8524 H   0  0  0  0  0  0  0  0  0  0  0  0
   -0.0678   -5.7429   -2.1042 H   0  0  0  0  0  0  0  0  0  0  0  0
   -3.4693   -4.4107    0.8179 N   0  0  0  0  0  0  0  0  0  0  0  0
   -4.1330   -4.4511    2.1133 C   0  0  0  0  0  0  0  0  0  0  0  0
   -3.8924   -3.8743    0.0564 H   0  0  0  0  0  0  0  0  0  0  0  0
   -4.4116   -5.4785    2.3684 H   0  0  0  0  0  0  0  0  0  0  0  0
   -3.4734   -4.0602    2.8942 H   0  0  0  0  0  0  0  0  0  0  0  0
   -5.0417   -3.8417    2.0903 H   0  0  0  0  0  0  0  0  0  0  0  0
  1  2  2  0  0  0  0
  1  3  1  0  0  0  0
  1  7  1  0  0  0  0
  3  4  1  0  0  0  0
  3  5  1  0  0  0  0
  3  6  1  0  0  0  0
  7  8  1  0  0  0  0
  7 12  1  0  0  0  0
  8  9  1  0  0  0  0
  8 11  1  0  0  0  0
  8 13  1  0  0  0  0
  9 10  2  0  0  0  0
  9 17  1  0  0  0  0
 11 14  1  0  0  0  0
 11 15  1  0  0  0  0
 11 16  1  0  0  0  0
 17 18  1  0  0  0  0
 17 27  1  0  0  0  0
 18 19  1  0  0  0  0
 18 21  1  0  0  0  0
 18 28  1  0  0  0  0
 19 20  2  0  0  0  0
 19 34  1  0  0  0  0
 21 22  1  0  0  0  0
 21 29  1  0  0  0  0
 21 30  1  0  0  0  0
 22 23  1  0  0  0  0
 22 24  2  0  0  0  0
 23 25  1  0  0  0  0
 23 31  1  0  0  0  0
 24 26  1  0  0  0  0
 24 32  1  0  0  0  0
 25 26  2  0  0  0  0
 25 33  1  0  0  0  0
 34 35  1  0  0  0  0
 34 39  1  0  0  0  0
 35 36  1  0  0  0  0
 35 38  1  0  0  0  0
 35 40  1  0  0  0  0
 36 37  2  0  0  0  0
 36 44  1  0  0  0  0
 38 41  1  0  0  0  0
 38 42  1  0  0  0  0
 38 43  1  0  0  0  0
 44 45  1  0  0  0  0
 44 46  1  0  0  0  0
 45 47  1  0  0  0  0
 45 48  1  0  0  0  0
 45 49  1  0  0  0  0
M  END
$$$$

  -OEChem-02062319083D

 49 49  0     1  0  0  0  0  0999 V2000
   -2.5559   -1.5051    3.0043 C   0  0  0  0  0  0  0  0  0  0  0  0
   -2.5217   -2.3361    2.1111 O   0  0  0  0  0  0  0  0  0  0  0  0
   -2.4251   -1.9324    4.4532 C   0  0  0  0  0  0  0  0  0  0  0  0
   -3.2842   -1.5779    5.0275 H   0  0  0  0  0  0  0  0  0  0  0  0
   -2.3842   -3.0237    4.5193 H   0  0  0  0  0  0  0  0  0  0  0  0
   -1.5095   -1.5187    4.8828 H   0  0  0  0  0  0  0  0  0  0  0  0
   -2.6683   -0.1693    2.6744 N   0  0  0  0  0  0  0  0  0  0  0  0
   -2.5670    0.2802    1.2791 C   0  0  2  0  0  0  0  0  0  0  0  0
   -1.1755   -0.0281    0.6733 C   0  0  0  0  0  0  0  0  0  0  0  0
   -0.1533    0.1573    1.3165 O   0  0  0  0  0  0  0  0  0  0  0  0
   -2.8481    1.7833    1.2351 C   0  0  0  0  0  0  0  0  0  0  0  0
   -2.4410    0.4939    3.4095 H   0  0  0  0  0  0  0  0  0  0  0  0
   -3.3340   -0.2317    0.6909 H   0  0  0  0  0  0  0  0  0  0  0  0
   -2.1008    2.3321    1.8178 H   0  0  0  0  0  0  0  0  0  0  0  0
   -2.8161    2.1455    0.2027 H   0  0  0  0  0  0  0  0  0  0  0  0
   -3.8397    1.9971    1.6461 H   0  0  0  0  0  0  0  0  0  0  0  0
   -0.9492   -0.3464   -0.6467 N   0  0  0  0  0  0  0  0  0  0  0  0
   -1.9550   -0.7502   -1.6433 C   0  0  2  0  0  0  0  0  0  0  0  0
   -2.7528   -2.0284   -1.3141 C   0  0  0  0  0  0  0  0  0  0  0  0
   -3.9210   -2.0875   -1.6750 O   0  0  0  0  0  0  0  0  0  0  0  0
   -1.2605   -0.9520   -2.9992 C   0  0  0  0  0  0  0  0  0  0  0  0
   -0.6653    0.3375   -3.5013 C   0  0  0  0  0  0  0  0  0  0  0  0
   -1.3404    1.4499   -3.9550 N   0  0  0  0  0  0  0  0  0  0  0  0
    0.6611    0.6503   -3.6464 C   0  0  0  0  0  0  0  0  0  0  0  0
   -0.4094    2.3942   -4.3459 C   0  0  0  0  0  0  0  0  0  0  0  0
    0.8040    1.9325   -4.1639 N   0  0  0  0  0  0  0  0  0  0  0  0
    0.0357   -0.3895   -0.8982 H   0  0  0  0  0  0  0  0  0  0  0  0
   -2.6842    0.0595   -1.7491 H   0  0  0  0  0  0  0  0  0  0  0  0
   -1.9841   -1.3173   -3.7366 H   0  0  0  0  0  0  0  0  0  0  0  0
   -0.4774   -1.7122   -2.9034 H   0  0  0  0  0  0  0  0  0  0  0  0
   -2.3502    1.5584   -4.0271 H   0  0  0  0  0  0  0  0  0  0  0  0
    1.4861   -0.0096   -3.3949 H   0  0  0  0  0  0  0  0  0  0  0  0
   -0.6454    3.3755   -4.7477 H   0  0  0  0  0  0  0  0  0  0  0  0
   -2.1340   -3.1678   -0.8373 N   0  0  0  0  0  0  0  0  0  0  0  0
   -2.7728   -4.4949   -0.7689 C   0  0  2  0  0  0  0  0  0  0  0  0
   -3.7937   -4.6609    0.3871 C   0  0  0  0  0  0  0  0  0  0  0  0
   -3.7182   -5.5879    1.1872 O   0  0  0  0  0  0  0  0  0  0  0  0
   -1.6381   -5.5250   -0.7021 C   0  0  0  0  0  0  0  0  0  0  0  0
   -1.2931   -3.0197   -0.2825 H   0  0  0  0  0  0  0  0  0  0  0  0
   -3.3266   -4.6702   -1.6968 H   0  0  0  0  0  0  0  0  0  0  0  0
   -1.0609   -5.4003    0.2199 H   0  0  0  0  0  0  0  0  0  0  0  0
   -2.0452   -6.5411   -0.7200 H   0  0  0  0  0  0  0  0  0  0  0  0
   -0.9652   -5.4095   -1.5569 H   0  0  0  0  0  0  0  0  0  0  0  0
   -4.8765   -3.8067    0.4557 N   0  0  0  0  0  0  0  0  0  0  0  0
   -5.8294   -3.7998    1.5551 C   0  0  0  0  0  0  0  0  0  0  0  0
   -4.8659   -3.0264   -0.2036 H   0  0  0  0  0  0  0  0  0  0  0  0
   -6.3160   -4.7763    1.6473 H   0  0  0  0  0  0  0  0  0  0  0  0
   -5.3214   -3.5671    2.4967 H   0  0  0  0  0  0  0  0  0  0  0  0
   -6.6012   -3.0446    1.3791 H   0  0  0  0  0  0  0  0  0  0  0  0
  1  2  2  0  0  0  0
  1  3  1  0  0  0  0
  1  7  1  0  0  0  0
  3  4  1  0  0  0  0
  3  5  1  0  0  0  0
  3  6  1  0  0  0  0
  7  8  1  0  0  0  0
  7 12  1  0  0  0  0
  8  9  1  0  0  0  0
  8 11  1  0  0  0  0
  8 13  1  0  0  0  0
  9 10  2  0  0  0  0
  9 17  1  0  0  0  0
 11 14  1  0  0  0  0
 11 15  1  0  0  0  0
 11 16  1  0  0  0  0
 17 18  1  0  0  0  0
 17 27  1  0  0  0  0
 18 19  1  0  0  0  0
 18 21  1  0  0  0  0
 18 28  1  0  0  0  0
 19 20  2  0  0  0  0
 19 34  1  0  0  0  0
 21 22  1  0  0  0  0
 21 29  1  0  0  0  0
 21 30  1  0  0  0  0
 22 23  1  0  0  0  0
 22 24  2  0  0  0  0
 23 25  1  0  0  0  0
 23 31  1  0  0  0  0
 24 26  1  0  0  0  0
 24 32  1  0  0  0  0
 25 26  2  0  0  0  0
 25 33  1  0  0  0  0
 34 35  1  0  0  0  0
 34 39  1  0  0  0  0
 35 36  1  0  0  0  0
 35 38  1  0  0  0  0
 35 40  1  0  0  0  0
 36 37  2  0  0  0  0
 36 44  1  0  0  0  0
 38 41  1  0  0  0  0
 38 42  1  0  0  0  0
 38 43  1  0  0  0  0
 44 45  1  0  0  0  0
 44 46  1  0  0  0  0
 45 47  1  0  0  0  0
 45 48  1  0  0  0  0
 45 49  1  0  0  0  0
M  END
$$$$

  -OEChem-02062319083D

 49 49  0     1  0  0  0  0  0999 V2000
   -2.4456   -1.6852    2.6963 C   0  0  0  0  0  0  0  0  0  0  0  0
   -2.0046   -2.3469    1.7685 O   0  0  0  0  0  0  0  0  0  0  0  0
   -2.6824   -2.3399    4.0432 C   0  0  0  0  0  0  0  0  0  0  0  0
   -2.4780   -3.4127    3.9792 H   0  0  0  0  0  0  0  0  0  0  0  0
   -2.0249   -1.8987    4.7960 H   0  0  0  0  0  0  0  0  0  0  0  0
   -3.7225   -2.2020    4.3481 H   0  0  0  0  0  0  0  0  0  0  0  0
   -2.7359   -0.3436    2.5197 N   0  0  0  0  0  0  0  0  0  0  0  0
   -2.5582    0.3833    1.2507 C   0  0  2  0  0  0  0  0  0  0  0  0
   -1.1693    0.1408    0.6036 C   0  0  0  0  0  0  0  0  0  0  0  0
   -0.1407    0.4020    1.2086 O   0  0  0  0  0  0  0  0  0  0  0  0
   -2.7523    1.8759    1.5303 C   0  0  0  0  0  0  0  0  0  0  0  0
   -2.9903    0.1821    3.3500 H   0  0  0  0  0  0  0  0  0  0  0  0
   -3.3395    0.0625    0.5597 H   0  0  0  0  0  0  0  0  0  0  0  0
   -2.0035    2.2345    2.2445 H   0  0  0  0  0  0  0  0  0  0  0  0
   -2.6501    2.4512    0.6048 H   0  0  0  0  0  0  0  0  0  0  0  0
   -3.7481    2.0612    1.9444 H   0  0  0  0  0  0  0  0  0  0  0  0
   -0.9604   -0.2281   -0.7081 N   0  0  0  0  0  0  0  0  0  0  0  0
   -1.9722   -0.4619   -1.7534 C   0  0  2  0  0  0  0  0  0  0  0  0
   -3.0074   -1.5704   -1.4753 C   0  0  0  0  0  0  0  0  0  0  0  0
   -4.1628   -1.3691   -1.8296 O   0  0  0  0  0  0  0  0  0  0  0  0
   -1.2524   -0.8125   -3.0651 C   0  0  0  0  0  0  0  0  0  0  0  0
   -0.3687    0.3178   -3.5256 C   0  0  0  0  0  0  0  0  0  0  0  0
   -0.7574    1.5705   -3.9490 N   0  0  0  0  0  0  0  0  0  0  0  0
    0.9958    0.3132   -3.6531 C   0  0  0  0  0  0  0  0  0  0  0  0
    0.3747    2.2801   -4.3046 C   0  0  0  0  0  0  0  0  0  0  0  0
    1.4426    1.5399   -4.1301 N   0  0  0  0  0  0  0  0  0  0  0  0
    0.0191   -0.1983   -0.9834 H   0  0  0  0  0  0  0  0  0  0  0  0
   -2.5315    0.4670   -1.9040 H   0  0  0  0  0  0  0  0  0  0  0  0
   -1.9907   -1.0242   -3.8465 H   0  0  0  0  0  0  0  0  0  0  0  0
   -0.6531   -1.7190   -2.9249 H   0  0  0  0  0  0  0  0  0  0  0  0
   -1.7120    1.9165   -4.0217 H   0  0  0  0  0  0  0  0  0  0  0  0
    1.6391   -0.5292   -3.4168 H   0  0  0  0  0  0  0  0  0  0  0  0
    0.3819    3.3005   -4.6772 H   0  0  0  0  0  0  0  0  0  0  0  0
   -2.6632   -2.8074   -0.9664 N   0  0  0  0  0  0  0  0  0  0  0  0
   -3.6441   -3.8809   -0.7180 C   0  0  2  0  0  0  0  0  0  0  0  0
   -4.5678   -3.6159    0.5031 C   0  0  0  0  0  0  0  0  0  0  0  0
   -4.6974   -4.4247    1.4159 O   0  0  0  0  0  0  0  0  0  0  0  0
   -2.8446   -5.1808   -0.5714 C   0  0  0  0  0  0  0  0  0  0  0  0
   -1.8507   -2.7937   -0.3439 H   0  0  0  0  0  0  0  0  0  0  0  0
   -4.2949   -3.9836   -1.5923 H   0  0  0  0  0  0  0  0  0  0  0  0
   -2.1908   -5.1298    0.3056 H   0  0  0  0  0  0  0  0  0  0  0  0
   -3.5212   -6.0325   -0.4503 H   0  0  0  0  0  0  0  0  0  0  0  0
   -2.2284   -5.3540   -1.4586 H   0  0  0  0  0  0  0  0  0  0  0  0
   -5.3216   -2.4584    0.5456 N   0  0  0  0  0  0  0  0  0  0  0  0
   -6.2831   -2.1457    1.5926 C   0  0  0  0  0  0  0  0  0  0  0  0
   -5.2528   -1.8526   -0.2752 H   0  0  0  0  0  0  0  0  0  0  0  0
   -7.0919   -2.8836    1.6019 H   0  0  0  0  0  0  0  0  0  0  0  0
   -5.7947   -2.1445    2.5722 H   0  0  0  0  0  0  0  0  0  0  0  0
   -6.7173   -1.1563    1.4216 H   0  0  0  0  0  0  0  0  0  0  0  0
  1  2  2  0  0  0  0
  1  3  1  0  0  0  0
  1  7  1  0  0  0  0
  3  4  1  0  0  0  0
  3  5  1  0  0  0  0
  3  6  1  0  0  0  0
  7  8  1  0  0  0  0
  7 12  1  0  0  0  0
  8  9  1  0  0  0  0
  8 11  1  0  0  0  0
  8 13  1  0  0  0  0
  9 10  2  0  0  0  0
  9 17  1  0  0  0  0
 11 14  1  0  0  0  0
 11 15  1  0  0  0  0
 11 16  1  0  0  0  0
 17 18  1  0  0  0  0
 17 27  1  0  0  0  0
 18 19  1  0  0  0  0
 18 21  1  0  0  0  0
 18 28  1  0  0  0  0
 19 20  2  0  0  0  0
 19 34  1  0  0  0  0
 21 22  1  0  0  0  0
 21 29  1  0  0  0  0
 21 30  1  0  0  0  0
 22 23  1  0  0  0  0
 22 24  2  0  0  0  0
 23 25  1  0  0  0  0
 23 31  1  0  0  0  0
 24 26  1  0  0  0  0
 24 32  1  0  0  0  0
 25 26  2  0  0  0  0
 25 33  1  0  0  0  0
 34 35  1  0  0  0  0
 34 39  1  0  0  0  0
 35 36  1  0  0  0  0
 35 38  1  0  0  0  0
 35 40  1  0  0  0  0
 36 37  2  0  0  0  0
 36 44  1  0  0  0  0
 38 41  1  0  0  0  0
 38 42  1  0  0  0  0
 38 43  1  0  0  0  0
 44 45  1  0  0  0  0
 44 46  1  0  0  0  0
 45 47  1  0  0  0  0
 45 48  1  0  0  0  0
 45 49  1  0  0  0  0
M  END
$$$$

  -OEChem-02062319083D

 49 49  0     1  0  0  0  0  0999 V2000
   -2.4976   -1.6298    2.5290 C   0  0  0  0  0  0  0  0  0  0  0  0
   -2.0476   -2.2349    1.5661 O   0  0  0  0  0  0  0  0  0  0  0  0
   -2.8133   -2.3788    3.8088 C   0  0  0  0  0  0  0  0  0  0  0  0
   -2.5428   -3.4332    3.7040 H   0  0  0  0  0  0  0  0  0  0  0  0
   -2.2528   -1.9517    4.6436 H   0  0  0  0  0  0  0  0  0  0  0  0
   -3.8836   -2.3138    4.0211 H   0  0  0  0  0  0  0  0  0  0  0  0
   -2.7359   -0.2683    2.4562 N   0  0  0  0  0  0  0  0  0  0  0  0
   -2.5264    0.5631    1.2577 C   0  0  2  0  0  0  0  0  0  0  0  0
   -1.1492    0.3273    0.5816 C   0  0  0  0  0  0  0  0  0  0  0  0
   -0.1105    0.5626    1.1799 O   0  0  0  0  0  0  0  0  0  0  0  0
   -2.6585    2.0276    1.6835 C   0  0  0  0  0  0  0  0  0  0  0  0
   -3.0441    0.1838    3.3110 H   0  0  0  0  0  0  0  0  0  0  0  0
   -3.3230    0.3511    0.5458 H   0  0  0  0  0  0  0  0  0  0  0  0
   -1.9005    2.2811    2.4324 H   0  0  0  0  0  0  0  0  0  0  0  0
   -2.5259    2.6875    0.8204 H   0  0  0  0  0  0  0  0  0  0  0  0
   -3.6488    2.2127    2.1108 H   0  0  0  0  0  0  0  0  0  0  0  0
   -0.9523   -0.1181   -0.7099 N   0  0  0  0  0  0  0  0  0  0  0  0
   -1.9307   -0.1756   -1.8119 C   0  0  2  0  0  0  0  0  0  0  0  0
   -3.1860   -1.0398   -1.5831 C   0  0  0  0  0  0  0  0  0  0  0  0
   -4.2640   -0.6010   -1.9664 O   0  0  0  0  0  0  0  0  0  0  0  0
   -1.2212   -0.7075   -3.0669 C   0  0  0  0  0  0  0  0  0  0  0  0
   -0.0711    0.1799   -3.4677 C   0  0  0  0  0  0  0  0  0  0  0  0
   -0.1283    1.4841   -3.9095 N   0  0  0  0  0  0  0  0  0  0  0  0
    1.2600   -0.1446   -3.5063 C   0  0  0  0  0  0  0  0  0  0  0  0
    1.1585    1.9058   -4.1883 C   0  0  0  0  0  0  0  0  0  0  0  0
    2.0102    0.9383   -3.9493 N   0  0  0  0  0  0  0  0  0  0  0  0
    0.0340   -0.1416   -0.9622 H   0  0  0  0  0  0  0  0  0  0  0  0
   -2.2771    0.8429   -2.0141 H   0  0  0  0  0  0  0  0  0  0  0  0
   -1.9323   -0.7614   -3.8984 H   0  0  0  0  0  0  0  0  0  0  0  0
   -0.8571   -1.7238   -2.8793 H   0  0  0  0  0  0  0  0  0  0  0  0
   -0.9679    2.0453   -4.0365 H   0  0  0  0  0  0  0  0  0  0  0  0
    1.6727   -1.1105   -3.2305 H   0  0  0  0  0  0  0  0  0  0  0  0
    1.4276    2.8927   -4.5542 H   0  0  0  0  0  0  0  0  0  0  0  0
   -3.1298   -2.3044   -1.0318 N   0  0  0  0  0  0  0  0  0  0  0  0
   -4.3305   -3.1019   -0.7245 C   0  0  2  0  0  0  0  0  0  0  0  0
   -5.1338   -2.5537    0.4854 C   0  0  0  0  0  0  0  0  0  0  0  0
   -5.2909   -3.1942    1.5194 O   0  0  0  0  0  0  0  0  0  0  0  0
   -3.8642   -4.5467   -0.5093 C   0  0  0  0  0  0  0  0  0  0  0  0
   -2.3195   -2.4665   -0.4243 H   0  0  0  0  0  0  0  0  0  0  0  0
   -5.0028   -3.0926   -1.5886 H   0  0  0  0  0  0  0  0  0  0  0  0
   -3.1832   -4.6073    0.3461 H   0  0  0  0  0  0  0  0  0  0  0  0
   -4.7219   -5.1983   -0.3152 H   0  0  0  0  0  0  0  0  0  0  0  0
   -3.3431   -4.9158   -1.3977 H   0  0  0  0  0  0  0  0  0  0  0  0
   -5.7098   -1.3009    0.4014 N   0  0  0  0  0  0  0  0  0  0  0  0
   -6.4957   -0.6863    1.4620 C   0  0  0  0  0  0  0  0  0  0  0  0
   -5.5564   -0.7944   -0.4741 H   0  0  0  0  0  0  0  0  0  0  0  0
   -7.3742   -1.2989    1.6896 H   0  0  0  0  0  0  0  0  0  0  0  0
   -5.8946   -0.5784    2.3704 H   0  0  0  0  0  0  0  0  0  0  0  0
   -6.8369    0.3062    1.1526 H   0  0  0  0  0  0  0  0  0  0  0  0
  1  2  2  0  0  0  0
  1  3  1  0  0  0  0
  1  7  1  0  0  0  0
  3  4  1  0  0  0  0
  3  5  1  0  0  0  0
  3  6  1  0  0  0  0
  7  8  1  0  0  0  0
  7 12  1  0  0  0  0
  8  9  1  0  0  0  0
  8 11  1  0  0  0  0
  8 13  1  0  0  0  0
  9 10  2  0  0  0  0
  9 17  1  0  0  0  0
 11 14  1  0  0  0  0
 11 15  1  0  0  0  0
 11 16  1  0  0  0  0
 17 18  1  0  0  0  0
 17 27  1  0  0  0  0
 18 19  1  0  0  0  0
 18 21  1  0  0  0  0
 18 28  1  0  0  0  0
 19 20  2  0  0  0  0
 19 34  1  0  0  0  0
 21 22  1  0  0  0  0
 21 29  1  0  0  0  0
 21 30  1  0  0  0  0
 22 23  1  0  0  0  0
 22 24  2  0  0  0  0
 23 25  1  0  0  0  0
 23 31  1  0  0  0  0
 24 26  1  0  0  0  0
 24 32  1  0  0  0  0
 25 26  2  0  0  0  0
 25 33  1  0  0  0  0
 34 35  1  0  0  0  0
 34 39  1  0  0  0  0
 35 36  1  0  0  0  0
 35 38  1  0  0  0  0
 35 40  1  0  0  0  0
 36 37  2  0  0  0  0
 36 44  1  0  0  0  0
 38 41  1  0  0  0  0
 38 42  1  0  0  0  0
 38 43  1  0  0  0  0
 44 45  1  0  0  0  0
 44 46  1  0  0  0  0
 45 47  1  0  0  0  0
 45 48  1  0  0  0  0
 45 49  1  0  0  0  0
M  END
$$$$

  -OEChem-02062319083D

 49 49  0     1  0  0  0  0  0999 V2000
   -2.5575   -1.5322    2.3996 C   0  0  0  0  0  0  0  0  0  0  0  0
   -2.2050   -2.1006    1.3754 O   0  0  0  0  0  0  0  0  0  0  0  0
   -2.8920   -2.3449    3.6354 C   0  0  0  0  0  0  0  0  0  0  0  0
   -2.7102   -3.4069    3.4490 H   0  0  0  0  0  0  0  0  0  0  0  0
   -2.2718   -2.0240    4.4756 H   0  0  0  0  0  0  0  0  0  0  0  0
   -3.9459   -2.2101    3.8929 H   0  0  0  0  0  0  0  0  0  0  0  0
   -2.6541   -0.1531    2.4397 N   0  0  0  0  0  0  0  0  0  0  0  0
   -2.4160    0.7436    1.2963 C   0  0  2  0  0  0  0  0  0  0  0  0
   -1.0609    0.4876    0.5835 C   0  0  0  0  0  0  0  0  0  0  0  0
   -0.0059    0.6588    1.1749 O   0  0  0  0  0  0  0  0  0  0  0  0
   -2.4698    2.1807    1.8213 C   0  0  0  0  0  0  0  0  0  0  0  0
   -2.9244    0.2560    3.3283 H   0  0  0  0  0  0  0  0  0  0  0  0
   -3.2308    0.6254    0.5862 H   0  0  0  0  0  0  0  0  0  0  0  0
   -1.6943    2.3441    2.5773 H   0  0  0  0  0  0  0  0  0  0  0  0
   -2.3104    2.8897    1.0027 H   0  0  0  0  0  0  0  0  0  0  0  0
   -3.4460    2.3867    2.2707 H   0  0  0  0  0  0  0  0  0  0  0  0
   -0.8952   -0.0313   -0.6857 N   0  0  0  0  0  0  0  0  0  0  0  0
   -1.8042    0.0974   -1.8410 C   0  0  2  0  0  0  0  0  0  0  0  0
   -3.2300   -0.4615   -1.6734 C   0  0  0  0  0  0  0  0  0  0  0  0
   -4.1723    0.2078   -2.0804 O   0  0  0  0  0  0  0  0  0  0  0  0
   -1.1587   -0.6027   -3.0469 C   0  0  0  0  0  0  0  0  0  0  0  0
    0.1947   -0.0179   -3.3637 C   0  0  0  0  0  0  0  0  0  0  0  0
    0.4955    1.2843   -3.7012 N   0  0  0  0  0  0  0  0  0  0  0  0
    1.3976   -0.6742   -3.3954 C   0  0  0  0  0  0  0  0  0  0  0  0
    1.8588    1.3750   -3.9127 C   0  0  0  0  0  0  0  0  0  0  0  0
    2.4205    0.2043   -3.7329 N   0  0  0  0  0  0  0  0  0  0  0  0
    0.0910   -0.1629   -0.9047 H   0  0  0  0  0  0  0  0  0  0  0  0
   -1.9091    1.1620   -2.0738 H   0  0  0  0  0  0  0  0  0  0  0  0
   -1.8061   -0.4959   -3.9242 H   0  0  0  0  0  0  0  0  0  0  0  0
   -1.0579   -1.6740   -2.8393 H   0  0  0  0  0  0  0  0  0  0  0  0
   -0.1629    2.0549   -3.7945 H   0  0  0  0  0  0  0  0  0  0  0  0
    1.5352   -1.7307   -3.1843 H   0  0  0  0  0  0  0  0  0  0  0  0
    2.3903    2.2815   -4.1886 H   0  0  0  0  0  0  0  0  0  0  0  0
   -3.4750   -1.6942   -1.1007 N   0  0  0  0  0  0  0  0  0  0  0  0
   -4.8288   -2.1850   -0.7938 C   0  0  2  0  0  0  0  0  0  0  0  0
   -5.4835   -1.4305    0.3924 C   0  0  0  0  0  0  0  0  0  0  0  0
   -5.6606   -1.9506    1.4890 O   0  0  0  0  0  0  0  0  0  0  0  0
   -4.7218   -3.6931   -0.5393 C   0  0  0  0  0  0  0  0  0  0  0  0
   -2.7182   -2.0520   -0.5062 H   0  0  0  0  0  0  0  0  0  0  0  0
   -5.4738   -2.0399   -1.6667 H   0  0  0  0  0  0  0  0  0  0  0  0
   -4.0801   -3.8947    0.3243 H   0  0  0  0  0  0  0  0  0  0  0  0
   -5.7116   -4.1152   -0.3398 H   0  0  0  0  0  0  0  0  0  0  0  0
   -4.2990   -4.1983   -1.4127 H   0  0  0  0  0  0  0  0  0  0  0  0
   -5.8664   -0.1147    0.2190 N   0  0  0  0  0  0  0  0  0  0  0  0
   -6.4251    0.7192    1.2743 C   0  0  0  0  0  0  0  0  0  0  0  0
   -5.6123    0.3095   -0.6769 H   0  0  0  0  0  0  0  0  0  0  0  0
   -7.3518    0.2799    1.6578 H   0  0  0  0  0  0  0  0  0  0  0  0
   -5.7135    0.8201    2.1003 H   0  0  0  0  0  0  0  0  0  0  0  0
   -6.6514    1.7173    0.8862 H   0  0  0  0  0  0  0  0  0  0  0  0
  1  2  2  0  0  0  0
  1  3  1  0  0  0  0
  1  7  1  0  0  0  0
  3  4  1  0  0  0  0
  3  5  1  0  0  0  0
  3  6  1  0  0  0  0
  7  8  1  0  0  0  0
  7 12  1  0  0  0  0
  8  9  1  0  0  0  0
  8 11  1  0  0  0  0
  8 13  1  0  0  0  0
  9 10  2  0  0  0  0
  9 17  1  0  0  0  0
 11 14  1  0  0  0  0
 11 15  1  0  0  0  0
 11 16  1  0  0  0  0
 17 18  1  0  0  0  0
 17 27  1  0  0  0  0
 18 19  1  0  0  0  0
 18 21  1  0  0  0  0
 18 28  1  0  0  0  0
 19 20  2  0  0  0  0
 19 34  1  0  0  0  0
 21 22  1  0  0  0  0
 21 29  1  0  0  0  0
 21 30  1  0  0  0  0
 22 23  1  0  0  0  0
 22 24  2  0  0  0  0
 23 25  1  0  0  0  0
 23 31  1  0  0  0  0
 24 26  1  0  0  0  0
 24 32  1  0  0  0  0
 25 26  2  0  0  0  0
 25 33  1  0  0  0  0
 34 35  1  0  0  0  0
 34 39  1  0  0  0  0
 35 36  1  0  0  0  0
 35 38  1  0  0  0  0
 35 40  1  0  0  0  0
 36 37  2  0  0  0  0
 36 44  1  0  0  0  0
 38 41  1  0  0  0  0
 38 42  1  0  0  0  0
 38 43  1  0  0  0  0
 44 45  1  0  0  0  0
 44 46  1  0  0  0  0
 45 47  1  0  0  0  0
 45 48  1  0  0  0  0
 45 49  1  0  0  0  0
M  END
$$$$

  -OEChem-02062319083D

 49 49  0     1  0  0  0  0  0999 V2000
   -2.5901   -1.3773    2.2944 C   0  0  0  0  0  0  0  0  0  0  0  0
   -2.3858   -1.9003    1.2080 O   0  0  0  0  0  0  0  0  0  0  0  0
   -3.0285   -2.2252    3.4722 C   0  0  0  0  0  0  0  0  0  0  0  0
   -3.0549   -3.2808    3.1888 H   0  0  0  0  0  0  0  0  0  0  0  0
   -2.3317   -2.1008    4.3043 H   0  0  0  0  0  0  0  0  0  0  0  0
   -4.0291   -1.9232    3.7920 H   0  0  0  0  0  0  0  0  0  0  0  0
   -2.4333   -0.0147    2.4553 N   0  0  0  0  0  0  0  0  0  0  0  0
   -2.1723    0.9320    1.3605 C   0  0  2  0  0  0  0  0  0  0  0  0
   -0.8636    0.6428    0.5777 C   0  0  0  0  0  0  0  0  0  0  0  0
    0.2209    0.7544    1.1288 O   0  0  0  0  0  0  0  0  0  0  0  0
   -2.1190    2.3329    1.9767 C   0  0  0  0  0  0  0  0  0  0  0  0
   -2.6255    0.3572    3.3798 H   0  0  0  0  0  0  0  0  0  0  0  0
   -3.0153    0.9131    0.6759 H   0  0  0  0  0  0  0  0  0  0  0  0
   -1.2980    2.4064    2.6977 H   0  0  0  0  0  0  0  0  0  0  0  0
   -1.9631    3.0843    1.1964 H   0  0  0  0  0  0  0  0  0  0  0  0
   -3.0570    2.5602    2.4920 H   0  0  0  0  0  0  0  0  0  0  0  0
   -0.7701    0.0535   -0.6680 N   0  0  0  0  0  0  0  0  0  0  0  0
   -1.5976    0.3642   -1.8505 C   0  0  2  0  0  0  0  0  0  0  0  0
   -3.1179    0.1526   -1.7184 C   0  0  0  0  0  0  0  0  0  0  0  0
   -3.8825    1.0210   -2.1218 O   0  0  0  0  0  0  0  0  0  0  0  0
   -1.1023   -0.4900   -3.0280 C   0  0  0  0  0  0  0  0  0  0  0  0
    0.3704   -0.2855   -3.2812 C   0  0  0  0  0  0  0  0  0  0  0  0
    1.0282    0.8909   -3.5704 N   0  0  0  0  0  0  0  0  0  0  0  0
    1.3498   -1.2443   -3.2856 C   0  0  0  0  0  0  0  0  0  0  0  0
    2.3723    0.6094   -3.7301 C   0  0  0  0  0  0  0  0  0  0  0  0
    2.5863   -0.6730   -3.5619 N   0  0  0  0  0  0  0  0  0  0  0  0
    0.1974   -0.1936   -0.8718 H   0  0  0  0  0  0  0  0  0  0  0  0
   -1.4477    1.4191   -2.1010 H   0  0  0  0  0  0  0  0  0  0  0  0
   -1.6595   -0.2246   -3.9331 H   0  0  0  0  0  0  0  0  0  0  0  0
   -1.2943   -1.5489   -2.8204 H   0  0  0  0  0  0  0  0  0  0  0  0
    0.6096    1.8143   -3.6605 H   0  0  0  0  0  0  0  0  0  0  0  0
    1.1853   -2.3012   -3.0971 H   0  0  0  0  0  0  0  0  0  0  0  0
    3.1414    1.3406   -3.9622 H   0  0  0  0  0  0  0  0  0  0  0  0
   -3.6385   -0.9861   -1.1355 N   0  0  0  0  0  0  0  0  0  0  0  0
   -5.0691   -1.1802   -0.8580 C   0  0  2  0  0  0  0  0  0  0  0  0
   -5.5565   -0.3229    0.3351 C   0  0  0  0  0  0  0  0  0  0  0  0
   -5.7865   -0.8018    1.4404 O   0  0  0  0  0  0  0  0  0  0  0  0
   -5.2984   -2.6797   -0.6380 C   0  0  0  0  0  0  0  0  0  0  0  0
   -2.9801   -1.5280   -0.5626 H   0  0  0  0  0  0  0  0  0  0  0  0
   -5.6540   -0.8809   -1.7338 H   0  0  0  0  0  0  0  0  0  0  0  0
   -4.7271   -3.0364    0.2251 H   0  0  0  0  0  0  0  0  0  0  0  0
   -6.3593   -2.8784   -0.4566 H   0  0  0  0  0  0  0  0  0  0  0  0
   -4.9855   -3.2454   -1.5207 H   0  0  0  0  0  0  0  0  0  0  0  0
   -5.7025    1.0388    0.1564 N   0  0  0  0  0  0  0  0  0  0  0  0
   -6.1161    1.9597    1.2055 C   0  0  0  0  0  0  0  0  0  0  0  0
   -5.3812    1.4094   -0.7415 H   0  0  0  0  0  0  0  0  0  0  0  0
   -7.1416    1.7407    1.5208 H   0  0  0  0  0  0  0  0  0  0  0  0
   -5.4554    1.8761    2.0742 H   0  0  0  0  0  0  0  0  0  0  0  0
   -6.0779    2.9901    0.8391 H   0  0  0  0  0  0  0  0  0  0  0  0
  1  2  2  0  0  0  0
  1  3  1  0  0  0  0
  1  7  1  0  0  0  0
  3  4  1  0  0  0  0
  3  5  1  0  0  0  0
  3  6  1  0  0  0  0
  7  8  1  0  0  0  0
  7 12  1  0  0  0  0
  8  9  1  0  0  0  0
  8 11  1  0  0  0  0
  8 13  1  0  0  0  0
  9 10  2  0  0  0  0
  9 17  1  0  0  0  0
 11 14  1  0  0  0  0
 11 15  1  0  0  0  0
 11 16  1  0  0  0  0
 17 18  1  0  0  0  0
 17 27  1  0  0  0  0
 18 19  1  0  0  0  0
 18 21  1  0  0  0  0
 18 28  1  0  0  0  0
 19 20  2  0  0  0  0
 19 34  1  0  0  0  0
 21 22  1  0  0  0  0
 21 29  1  0  0  0  0
 21 30  1  0  0  0  0
 22 23  1  0  0  0  0
 22 24  2  0  0  0  0
 23 25  1  0  0  0  0
 23 31  1  0  0  0  0
 24 26  1  0  0  0  0
 24 32  1  0  0  0  0
 25 26  2  0  0  0  0
 25 33  1  0  0  0  0
 34 35  1  0  0  0  0
 34 39  1  0  0  0  0
 35 36  1  0  0  0  0
 35 38  1  0  0  0  0
 35 40  1  0  0  0  0
 36 37  2  0  0  0  0
 36 44  1  0  0  0  0
 38 41  1  0  0  0  0
 38 42  1  0  0  0  0
 38 43  1  0  0  0  0
 44 45  1  0  0  0  0
 44 46  1  0  0  0  0
 45 47  1  0  0  0  0
 45 48  1  0  0  0  0
 45 49  1  0  0  0  0
M  END
$$$$

  -OEChem-02062319083D

 49 49  0     1  0  0  0  0  0999 V2000
   -2.6103   -1.2930    2.2504 C   0  0  0  0  0  0  0  0  0  0  0  0
   -2.7730   -1.6508    1.0924 O   0  0  0  0  0  0  0  0  0  0  0  0
   -2.7847   -2.2858    3.3835 C   0  0  0  0  0  0  0  0  0  0  0  0
   -3.0829   -3.2609    2.9882 H   0  0  0  0  0  0  0  0  0  0  0  0
   -1.8444   -2.3996    3.9287 H   0  0  0  0  0  0  0  0  0  0  0  0
   -3.5582   -1.9344    4.0711 H   0  0  0  0  0  0  0  0  0  0  0  0
   -2.2309    0.0048    2.5266 N   0  0  0  0  0  0  0  0  0  0  0  0
   -1.9698    1.0166    1.4945 C   0  0  2  0  0  0  0  0  0  0  0  0
   -0.6907    0.7070    0.6764 C   0  0  0  0  0  0  0  0  0  0  0  0
    0.3979    0.7155    1.2307 O   0  0  0  0  0  0  0  0  0  0  0  0
   -1.8535    2.3745    2.1929 C   0  0  0  0  0  0  0  0  0  0  0  0
   -1.9775    0.2166    3.4870 H   0  0  0  0  0  0  0  0  0  0  0  0
   -2.8266    1.0700    0.8283 H   0  0  0  0  0  0  0  0  0  0  0  0
   -1.0112    2.3801    2.8928 H   0  0  0  0  0  0  0  0  0  0  0  0
   -2.7699    2.5957    2.7484 H   0  0  0  0  0  0  0  0  0  0  0  0
   -1.6963    3.1676    1.4552 H   0  0  0  0  0  0  0  0  0  0  0  0
   -0.6486    0.0772   -0.5503 N   0  0  0  0  0  0  0  0  0  0  0  0
   -1.3112    0.5701   -1.7730 C   0  0  2  0  0  0  0  0  0  0  0  0
   -2.8428    0.7306   -1.7373 C   0  0  0  0  0  0  0  0  0  0  0  0
   -3.3464    1.7516   -2.1888 O   0  0  0  0  0  0  0  0  0  0  0  0
   -0.9614   -0.3815   -2.9279 C   0  0  0  0  0  0  0  0  0  0  0  0
    0.5308   -0.5395   -3.0828 C   0  0  0  0  0  0  0  0  0  0  0  0
    1.4695    0.4432   -3.3146 N   0  0  0  0  0  0  0  0  0  0  0  0
    1.2501   -1.7053   -3.0331 C   0  0  0  0  0  0  0  0  0  0  0  0
    2.7148   -0.1529   -3.3866 C   0  0  0  0  0  0  0  0  0  0  0  0
    2.6037   -1.4482   -3.2181 N   0  0  0  0  0  0  0  0  0  0  0  0
    0.2831   -0.3041   -0.7095 H   0  0  0  0  0  0  0  0  0  0  0  0
   -0.9003    1.5587   -2.0027 H   0  0  0  0  0  0  0  0  0  0  0  0
   -1.3783    0.0085   -3.8630 H   0  0  0  0  0  0  0  0  0  0  0  0
   -1.4161   -1.3619   -2.7459 H   0  0  0  0  0  0  0  0  0  0  0  0
    1.2915    1.4392   -3.4263 H   0  0  0  0  0  0  0  0  0  0  0  0
    0.8252   -2.6912   -2.8681 H   0  0  0  0  0  0  0  0  0  0  0  0
    3.6506    0.3717   -3.5585 H   0  0  0  0  0  0  0  0  0  0  0  0
   -3.6637   -0.2431   -1.2014 N   0  0  0  0  0  0  0  0  0  0  0  0
   -5.1243   -0.1171   -1.0782 C   0  0  2  0  0  0  0  0  0  0  0  0
   -5.5440    0.8337    0.0695 C   0  0  0  0  0  0  0  0  0  0  0  0
   -6.1308    0.4375    1.0696 O   0  0  0  0  0  0  0  0  0  0  0  0
   -5.6919   -1.5321   -0.9135 C   0  0  0  0  0  0  0  0  0  0  0  0
   -3.2036   -0.9512   -0.6166 H   0  0  0  0  0  0  0  0  0  0  0  0
   -5.5324    0.2980   -2.0055 H   0  0  0  0  0  0  0  0  0  0  0  0
   -5.3172   -1.9944    0.0055 H   0  0  0  0  0  0  0  0  0  0  0  0
   -6.7847   -1.4993   -0.8630 H   0  0  0  0  0  0  0  0  0  0  0  0
   -5.4036   -2.1599   -1.7618 H   0  0  0  0  0  0  0  0  0  0  0  0
   -5.2365    2.1766   -0.0316 N   0  0  0  0  0  0  0  0  0  0  0  0
   -5.5847    3.1736    0.9710 C   0  0  0  0  0  0  0  0  0  0  0  0
   -4.7142    2.4580   -0.8653 H   0  0  0  0  0  0  0  0  0  0  0  0
   -6.6725    3.2610    1.0604 H   0  0  0  0  0  0  0  0  0  0  0  0
   -5.1719    2.8974    1.9466 H   0  0  0  0  0  0  0  0  0  0  0  0
   -5.1802    4.1503    0.6886 H   0  0  0  0  0  0  0  0  0  0  0  0
  1  2  2  0  0  0  0
  1  3  1  0  0  0  0
  1  7  1  0  0  0  0
  3  4  1  0  0  0  0
  3  5  1  0  0  0  0
  3  6  1  0  0  0  0
  7  8  1  0  0  0  0
  7 12  1  0  0  0  0
  8  9  1  0  0  0  0
  8 11  1  0  0  0  0
  8 13  1  0  0  0  0
  9 10  2  0  0  0  0
  9 17  1  0  0  0  0
 11 14  1  0  0  0  0
 11 15  1  0  0  0  0
 11 16  1  0  0  0  0
 17 18  1  0  0  0  0
 17 27  1  0  0  0  0
 18 19  1  0  0  0  0
 18 21  1  0  0  0  0
 18 28  1  0  0  0  0
 19 20  2  0  0  0  0
 19 34  1  0  0  0  0
 21 22  1  0  0  0  0
 21 29  1  0  0  0  0
 21 30  1  0  0  0  0
 22 23  1  0  0  0  0
 22 24  2  0  0  0  0
 23 25  1  0  0  0  0
 23 31  1  0  0  0  0
 24 26  1  0  0  0  0
 24 32  1  0  0  0  0
 25 26  2  0  0  0  0
 25 33  1  0  0  0  0
 34 35  1  0  0  0  0
 34 39  1  0  0  0  0
 35 36  1  0  0  0  0
 35 38  1  0  0  0  0
 35 40  1  0  0  0  0
 36 37  2  0  0  0  0
 36 44  1  0  0  0  0
 38 41  1  0  0  0  0
 38 42  1  0  0  0  0
 38 43  1  0  0  0  0
 44 45  1  0  0  0  0
 44 46  1  0  0  0  0
 45 47  1  0  0  0  0
 45 48  1  0  0  0  0
 45 49  1  0  0  0  0
M  END
$$$$

  -OEChem-02062319083D

 49 49  0     1  0  0  0  0  0999 V2000
   -3.0599   -1.3256    1.8488 C   0  0  0  0  0  0  0  0  0  0  0  0
   -3.2801   -1.3255    0.6461 O   0  0  0  0  0  0  0  0  0  0  0  0
   -3.5221   -2.4887    2.7052 C   0  0  0  0  0  0  0  0  0  0  0  0
   -4.0714   -3.2116    2.0958 H   0  0  0  0  0  0  0  0  0  0  0  0
   -2.6595   -2.9885    3.1524 H   0  0  0  0  0  0  0  0  0  0  0  0
   -4.1794   -2.1285    3.5004 H   0  0  0  0  0  0  0  0  0  0  0  0
   -2.3593   -0.2857    2.4250 N   0  0  0  0  0  0  0  0  0  0  0  0
   -1.8002    0.8426    1.6690 C   0  0  2  0  0  0  0  0  0  0  0  0
   -0.5324    0.4399    0.8760 C   0  0  0  0  0  0  0  0  0  0  0  0
    0.5073    0.2071    1.4737 O   0  0  0  0  0  0  0  0  0  0  0  0
   -1.5047    1.9696    2.6631 C   0  0  0  0  0  0  0  0  0  0  0  0
   -2.0814   -0.3989    3.3956 H   0  0  0  0  0  0  0  0  0  0  0  0
   -2.5510    1.2193    0.9788 H   0  0  0  0  0  0  0  0  0  0  0  0
   -1.1190    2.8476    2.1356 H   0  0  0  0  0  0  0  0  0  0  0  0
   -2.4191    2.2583    3.1909 H   0  0  0  0  0  0  0  0  0  0  0  0
   -0.7603    1.6530    3.4009 H   0  0  0  0  0  0  0  0  0  0  0  0
   -0.5461   -0.1176   -0.3843 N   0  0  0  0  0  0  0  0  0  0  0  0
   -0.8335    0.6691   -1.5980 C   0  0  2  0  0  0  0  0  0  0  0  0
   -2.2050    1.3659   -1.6800 C   0  0  0  0  0  0  0  0  0  0  0  0
   -2.2580    2.5362   -2.0364 O   0  0  0  0  0  0  0  0  0  0  0  0
   -0.6935   -0.2570   -2.8161 C   0  0  0  0  0  0  0  0  0  0  0  0
    0.6508   -0.9417   -2.8389 C   0  0  0  0  0  0  0  0  0  0  0  0
    1.9021   -0.3627   -2.8330 N   0  0  0  0  0  0  0  0  0  0  0  0
    0.8899   -2.2909   -2.8730 C   0  0  0  0  0  0  0  0  0  0  0  0
    2.8480   -1.3710   -2.8543 C   0  0  0  0  0  0  0  0  0  0  0  0
    2.2574   -2.5412   -2.8773 N   0  0  0  0  0  0  0  0  0  0  0  0
    0.2643   -0.7267   -0.4904 H   0  0  0  0  0  0  0  0  0  0  0  0
   -0.0785    1.4588   -1.6750 H   0  0  0  0  0  0  0  0  0  0  0  0
   -0.8145    0.3261   -3.7356 H   0  0  0  0  0  0  0  0  0  0  0  0
   -1.4876   -1.0119   -2.7964 H   0  0  0  0  0  0  0  0  0  0  0  0
    2.1106    0.6338   -2.8212 H   0  0  0  0  0  0  0  0  0  0  0  0
    0.1210   -3.0577   -2.8885 H   0  0  0  0  0  0  0  0  0  0  0  0
    3.9238   -1.2204   -2.8525 H   0  0  0  0  0  0  0  0  0  0  0  0
   -3.3753    0.7173   -1.3352 N   0  0  0  0  0  0  0  0  0  0  0  0
   -4.7020    1.3531   -1.3196 C   0  0  2  0  0  0  0  0  0  0  0  0
   -4.9019    2.2888   -0.1016 C   0  0  0  0  0  0  0  0  0  0  0  0
   -5.7345    2.0638    0.7685 O   0  0  0  0  0  0  0  0  0  0  0  0
   -5.7454    0.2314   -1.3798 C   0  0  0  0  0  0  0  0  0  0  0  0
   -3.2747   -0.1812   -0.8473 H   0  0  0  0  0  0  0  0  0  0  0  0
   -4.8202    1.9662   -2.2193 H   0  0  0  0  0  0  0  0  0  0  0  0
   -5.6753   -0.4074   -0.4933 H   0  0  0  0  0  0  0  0  0  0  0  0
   -6.7542    0.6538   -1.4226 H   0  0  0  0  0  0  0  0  0  0  0  0
   -5.5906   -0.3869   -2.2691 H   0  0  0  0  0  0  0  0  0  0  0  0
   -4.1049    3.4105    0.0175 N   0  0  0  0  0  0  0  0  0  0  0  0
   -4.2196    4.3848    1.0935 C   0  0  0  0  0  0  0  0  0  0  0  0
   -3.4115    3.5510   -0.7217 H   0  0  0  0  0  0  0  0  0  0  0  0
   -4.1032    3.8977    2.0670 H   0  0  0  0  0  0  0  0  0  0  0  0
   -3.4431    5.1492    0.9942 H   0  0  0  0  0  0  0  0  0  0  0  0
   -5.1975    4.8763    1.0601 H   0  0  0  0  0  0  0  0  0  0  0  0
  1  2  2  0  0  0  0
  1  3  1  0  0  0  0
  1  7  1  0  0  0  0
  3  4  1  0  0  0  0
  3  5  1  0  0  0  0
  3  6  1  0  0  0  0
  7  8  1  0  0  0  0
  7 12  1  0  0  0  0
  8  9  1  0  0  0  0
  8 11  1  0  0  0  0
  8 13  1  0  0  0  0
  9 10  2  0  0  0  0
  9 17  1  0  0  0  0
 11 14  1  0  0  0  0
 11 15  1  0  0  0  0
 11 16  1  0  0  0  0
 17 18  1  0  0  0  0
 17 27  1  0  0  0  0
 18 19  1  0  0  0  0
 18 21  1  0  0  0  0
 18 28  1  0  0  0  0
 19 20  2  0  0  0  0
 19 34  1  0  0  0  0
 21 22  1  0  0  0  0
 21 29  1  0  0  0  0
 21 30  1  0  0  0  0
 22 23  1  0  0  0  0
 22 24  2  0  0  0  0
 23 25  1  0  0  0  0
 23 31  1  0  0  0  0
 24 26  1  0  0  0  0
 24 32  1  0  0  0  0
 25 26  2  0  0  0  0
 25 33  1  0  0  0  0
 34 35  1  0  0  0  0
 34 39  1  0  0  0  0
 35 36  1  0  0  0  0
 35 38  1  0  0  0  0
 35 40  1  0  0  0  0
 36 37  2  0  0  0  0
 36 44  1  0  0  0  0
 38 41  1  0  0  0  0
 38 42  1  0  0  0  0
 38 43  1  0  0  0  0
 44 45  1  0  0  0  0
 44 46  1  0  0  0  0
 45 47  1  0  0  0  0
 45 48  1  0  0  0  0
 45 49  1  0  0  0  0
M  END
$$$$

  -OEChem-02062319083D

 49 49  0     1  0  0  0  0  0999 V2000
   -2.9704   -1.1404    1.6866 C   0  0  0  0  0  0  0  0  0  0  0  0
   -2.9457   -1.1624    0.4635 O   0  0  0  0  0  0  0  0  0  0  0  0
   -3.8486   -2.1130    2.4496 C   0  0  0  0  0  0  0  0  0  0  0  0
   -4.3879   -2.7621    1.7538 H   0  0  0  0  0  0  0  0  0  0  0  0
   -3.2361   -2.7351    3.1072 H   0  0  0  0  0  0  0  0  0  0  0  0
   -4.5766   -1.5644    3.0525 H   0  0  0  0  0  0  0  0  0  0  0  0
   -2.1679   -0.2505    2.3707 N   0  0  0  0  0  0  0  0  0  0  0  0
   -1.4690    0.8911    1.7559 C   0  0  2  0  0  0  0  0  0  0  0  0
   -0.2506    0.4818    0.8836 C   0  0  0  0  0  0  0  0  0  0  0  0
    0.8166    1.0686    0.9949 O   0  0  0  0  0  0  0  0  0  0  0  0
   -1.0786    1.8324    2.9028 C   0  0  0  0  0  0  0  0  0  0  0  0
   -2.2690   -0.2457    3.3824 H   0  0  0  0  0  0  0  0  0  0  0  0
   -2.1659    1.4378    1.1230 H   0  0  0  0  0  0  0  0  0  0  0  0
   -0.3644    1.3461    3.5749 H   0  0  0  0  0  0  0  0  0  0  0  0
   -0.6164    2.7430    2.5077 H   0  0  0  0  0  0  0  0  0  0  0  0
   -1.9638    2.1223    3.4775 H   0  0  0  0  0  0  0  0  0  0  0  0
   -0.3942   -0.1948   -0.3134 N   0  0  0  0  0  0  0  0  0  0  0  0
   -0.5321    0.5696   -1.5742 C   0  0  2  0  0  0  0  0  0  0  0  0
   -1.7446    1.5182   -1.6640 C   0  0  0  0  0  0  0  0  0  0  0  0
   -1.6054    2.6710   -2.0505 O   0  0  0  0  0  0  0  0  0  0  0  0
   -0.5629   -0.4180   -2.7527 C   0  0  0  0  0  0  0  0  0  0  0  0
    0.7606   -1.1248   -2.9283 C   0  0  0  0  0  0  0  0  0  0  0  0
    1.8107   -1.1962   -2.0378 N   0  0  0  0  0  0  0  0  0  0  0  0
    1.1943   -1.8193   -4.0266 C   0  0  0  0  0  0  0  0  0  0  0  0
    2.8311   -1.9248   -2.6159 C   0  0  0  0  0  0  0  0  0  0  0  0
    2.4777   -2.3150   -3.8178 N   0  0  0  0  0  0  0  0  0  0  0  0
   -1.1342   -0.8950   -0.2242 H   0  0  0  0  0  0  0  0  0  0  0  0
    0.3548    1.2040   -1.6898 H   0  0  0  0  0  0  0  0  0  0  0  0
   -0.7994    0.1191   -3.6777 H   0  0  0  0  0  0  0  0  0  0  0  0
   -1.3522   -1.1590   -2.5892 H   0  0  0  0  0  0  0  0  0  0  0  0
    1.8327   -0.7748   -1.1075 H   0  0  0  0  0  0  0  0  0  0  0  0
    0.6185   -1.9622   -4.9361 H   0  0  0  0  0  0  0  0  0  0  0  0
    3.7862   -2.1442   -2.1468 H   0  0  0  0  0  0  0  0  0  0  0  0
   -3.0012    1.1062   -1.2617 N   0  0  0  0  0  0  0  0  0  0  0  0
   -4.1788    1.9815   -1.1935 C   0  0  2  0  0  0  0  0  0  0  0  0
   -4.1210    2.9292    0.0276 C   0  0  0  0  0  0  0  0  0  0  0  0
   -4.7855    2.7237    1.0373 O   0  0  0  0  0  0  0  0  0  0  0  0
   -5.4177    1.0784   -1.1864 C   0  0  0  0  0  0  0  0  0  0  0  0
   -3.0677    0.1819   -0.8265 H   0  0  0  0  0  0  0  0  0  0  0  0
   -4.2259    2.6067   -2.0917 H   0  0  0  0  0  0  0  0  0  0  0  0
   -5.4078    0.4138   -0.3164 H   0  0  0  0  0  0  0  0  0  0  0  0
   -6.3284    1.6845   -1.1489 H   0  0  0  0  0  0  0  0  0  0  0  0
   -5.4466    0.4660   -2.0928 H   0  0  0  0  0  0  0  0  0  0  0  0
   -3.2131    3.9695    0.0205 N   0  0  0  0  0  0  0  0  0  0  0  0
   -2.9808    4.8553    1.1530 C   0  0  0  0  0  0  0  0  0  0  0  0
   -2.5580    3.9846   -0.7665 H   0  0  0  0  0  0  0  0  0  0  0  0
   -2.2106    5.5914    0.9029 H   0  0  0  0  0  0  0  0  0  0  0  0
   -3.8991    5.3919    1.4140 H   0  0  0  0  0  0  0  0  0  0  0  0
   -2.6460    4.2855    2.0254 H   0  0  0  0  0  0  0  0  0  0  0  0
  1  2  2  0  0  0  0
  1  3  1  0  0  0  0
  1  7  1  0  0  0  0
  3  4  1  0  0  0  0
  3  5  1  0  0  0  0
  3  6  1  0  0  0  0
  7  8  1  0  0  0  0
  7 12  1  0  0  0  0
  8  9  1  0  0  0  0
  8 11  1  0  0  0  0
  8 13  1  0  0  0  0
  9 10  2  0  0  0  0
  9 17  1  0  0  0  0
 11 14  1  0  0  0  0
 11 15  1  0  0  0  0
 11 16  1  0  0  0  0
 17 18  1  0  0  0  0
 17 27  1  0  0  0  0
 18 19  1  0  0  0  0
 18 21  1  0  0  0  0
 18 28  1  0  0  0  0
 19 20  2  0  0  0  0
 19 34  1  0  0  0  0
 21 22  1  0  0  0  0
 21 29  1  0  0  0  0
 21 30  1  0  0  0  0
 22 23  1  0  0  0  0
 22 24  2  0  0  0  0
 23 25  1  0  0  0  0
 23 31  1  0  0  0  0
 24 26  1  0  0  0  0
 24 32  1  0  0  0  0
 25 26  2  0  0  0  0
 25 33  1  0  0  0  0
 34 35  1  0  0  0  0
 34 39  1  0  0  0  0
 35 36  1  0  0  0  0
 35 38  1  0  0  0  0
 35 40  1  0  0  0  0
 36 37  2  0  0  0  0
 36 44  1  0  0  0  0
 38 41  1  0  0  0  0
 38 42  1  0  0  0  0
 38 43  1  0  0  0  0
 44 45  1  0  0  0  0
 44 46  1  0  0  0  0
 45 47  1  0  0  0  0
 45 48  1  0  0  0  0
 45 49  1  0  0  0  0
M  END
$$$$

  -OEChem-02062319083D

 49 49  0     1  0  0  0  0  0999 V2000
   -2.7561   -0.9458    1.6380 C   0  0  0  0  0  0  0  0  0  0  0  0
   -2.9076   -0.7452    0.4407 O   0  0  0  0  0  0  0  0  0  0  0  0
   -3.5870   -1.9964    2.3487 C   0  0  0  0  0  0  0  0  0  0  0  0
   -4.2823   -2.4663    1.6474 H   0  0  0  0  0  0  0  0  0  0  0  0
   -2.9370   -2.7682    2.7684 H   0  0  0  0  0  0  0  0  0  0  0  0
   -4.1616   -1.5352    3.1559 H   0  0  0  0  0  0  0  0  0  0  0  0
   -1.7846   -0.2482    2.3261 N   0  0  0  0  0  0  0  0  0  0  0  0
   -1.0695    0.9274    1.7988 C   0  0  2  0  0  0  0  0  0  0  0  0
    0.0538    0.5735    0.7868 C   0  0  0  0  0  0  0  0  0  0  0  0
    1.0867    1.2291    0.7596 O   0  0  0  0  0  0  0  0  0  0  0  0
   -0.5416    1.7014    3.0136 C   0  0  0  0  0  0  0  0  0  0  0  0
   -1.7220   -0.4283    3.3248 H   0  0  0  0  0  0  0  0  0  0  0  0
   -1.7811    1.5776    1.2852 H   0  0  0  0  0  0  0  0  0  0  0  0
    0.1891    1.1019    3.5658 H   0  0  0  0  0  0  0  0  0  0  0  0
   -0.0559    2.6288    2.6936 H   0  0  0  0  0  0  0  0  0  0  0  0
   -1.3644    1.9637    3.6859 H   0  0  0  0  0  0  0  0  0  0  0  0
   -0.2501   -0.1257   -0.3664 N   0  0  0  0  0  0  0  0  0  0  0  0
   -0.2815    0.5848   -1.6609 C   0  0  2  0  0  0  0  0  0  0  0  0
   -1.3080    1.7312   -1.7295 C   0  0  0  0  0  0  0  0  0  0  0  0
   -0.9908    2.8193   -2.1922 O   0  0  0  0  0  0  0  0  0  0  0  0
   -0.5615   -0.4144   -2.7947 C   0  0  0  0  0  0  0  0  0  0  0  0
    0.4430   -1.5404   -2.8169 C   0  0  0  0  0  0  0  0  0  0  0  0
    1.7818   -1.4880   -2.4931 N   0  0  0  0  0  0  0  0  0  0  0  0
    0.2163   -2.8514   -3.1428 C   0  0  0  0  0  0  0  0  0  0  0  0
    2.3138   -2.7556   -2.6286 C   0  0  0  0  0  0  0  0  0  0  0  0
    1.3860   -3.5947   -3.0241 N   0  0  0  0  0  0  0  0  0  0  0  0
   -1.0651   -0.7252   -0.2266 H   0  0  0  0  0  0  0  0  0  0  0  0
    0.7026    1.0337   -1.8351 H   0  0  0  0  0  0  0  0  0  0  0  0
   -0.5154    0.1152   -3.7523 H   0  0  0  0  0  0  0  0  0  0  0  0
   -1.5713   -0.8262   -2.6918 H   0  0  0  0  0  0  0  0  0  0  0  0
    2.2833   -0.6755   -2.1375 H   0  0  0  0  0  0  0  0  0  0  0  0
   -0.7440   -3.2571   -3.4465 H   0  0  0  0  0  0  0  0  0  0  0  0
    3.3485   -3.0223   -2.4322 H   0  0  0  0  0  0  0  0  0  0  0  0
   -2.5938    1.5604   -1.2510 N   0  0  0  0  0  0  0  0  0  0  0  0
   -3.5710    2.6480   -1.1130 C   0  0  2  0  0  0  0  0  0  0  0  0
   -3.2255    3.5861    0.0690 C   0  0  0  0  0  0  0  0  0  0  0  0
   -3.8652    3.5715    1.1147 O   0  0  0  0  0  0  0  0  0  0  0  0
   -4.9528    1.9994   -0.9714 C   0  0  0  0  0  0  0  0  0  0  0  0
   -2.7974    0.6746   -0.7794 H   0  0  0  0  0  0  0  0  0  0  0  0
   -3.5764    3.2558   -2.0241 H   0  0  0  0  0  0  0  0  0  0  0  0
   -4.9910    1.3622   -0.0819 H   0  0  0  0  0  0  0  0  0  0  0  0
   -5.7252    2.7693   -0.8794 H   0  0  0  0  0  0  0  0  0  0  0  0
   -5.1773    1.3864   -1.8495 H   0  0  0  0  0  0  0  0  0  0  0  0
   -2.1077    4.3915   -0.0203 N   0  0  0  0  0  0  0  0  0  0  0  0
   -1.6109    5.2207    1.0690 C   0  0  0  0  0  0  0  0  0  0  0  0
   -1.5151    4.2422   -0.8421 H   0  0  0  0  0  0  0  0  0  0  0  0
   -0.6997    5.7414    0.7589 H   0  0  0  0  0  0  0  0  0  0  0  0
   -2.3581    5.9700    1.3503 H   0  0  0  0  0  0  0  0  0  0  0  0
   -1.3786    4.6075    1.9453 H   0  0  0  0  0  0  0  0  0  0  0  0
  1  2  2  0  0  0  0
  1  3  1  0  0  0  0
  1  7  1  0  0  0  0
  3  4  1  0  0  0  0
  3  5  1  0  0  0  0
  3  6  1  0  0  0  0
  7  8  1  0  0  0  0
  7 12  1  0  0  0  0
  8  9  1  0  0  0  0
  8 11  1  0  0  0  0
  8 13  1  0  0  0  0
  9 10  2  0  0  0  0
  9 17  1  0  0  0  0
 11 14  1  0  0  0  0
 11 15  1  0  0  0  0
 11 16  1  0  0  0  0
 17 18  1  0  0  0  0
 17 27  1  0  0  0  0
 18 19  1  0  0  0  0
 18 21  1  0  0  0  0
 18 28  1  0  0  0  0
 19 20  2  0  0  0  0
 19 34  1  0  0  0  0
 21 22  1  0  0  0  0
 21 29  1  0  0  0  0
 21 30  1  0  0  0  0
 22 23  1  0  0  0  0
 22 24  2  0  0  0  0
 23 25  1  0  0  0  0
 23 31  1  0  0  0  0
 24 26  1  0  0  0  0
 24 32  1  0  0  0  0
 25 26  2  0  0  0  0
 25 33  1  0  0  0  0
 34 35  1  0  0  0  0
 34 39  1  0  0  0  0
 35 36  1  0  0  0  0
 35 38  1  0  0  0  0
 35 40  1  0  0  0  0
 36 37  2  0  0  0  0
 36 44  1  0  0  0  0
 38 41  1  0  0  0  0
 38 42  1  0  0  0  0
 38 43  1  0  0  0  0
 44 45  1  0  0  0  0
 44 46  1  0  0  0  0
 45 47  1  0  0  0  0
 45 48  1  0  0  0  0
 45 49  1  0  0  0  0
M  END
$$$$

  -OEChem-02062319083D

 49 49  0     1  0  0  0  0  0999 V2000
   -2.8709   -0.7269    1.3710 C   0  0  0  0  0  0  0  0  0  0  0  0
   -2.9031   -0.3308    0.2140 O   0  0  0  0  0  0  0  0  0  0  0  0
   -3.8642   -1.7663    1.8525 C   0  0  0  0  0  0  0  0  0  0  0  0
   -4.5771   -2.0047    1.0581 H   0  0  0  0  0  0  0  0  0  0  0  0
   -3.3389   -2.6806    2.1393 H   0  0  0  0  0  0  0  0  0  0  0  0
   -4.4158   -1.3848    2.7154 H   0  0  0  0  0  0  0  0  0  0  0  0
   -1.8751   -0.2769    2.2141 N   0  0  0  0  0  0  0  0  0  0  0  0
   -1.0004    0.8753    1.9281 C   0  0  2  0  0  0  0  0  0  0  0  0
    0.1636    0.5612    0.9522 C   0  0  0  0  0  0  0  0  0  0  0  0
    1.2072    1.1981    1.0038 O   0  0  0  0  0  0  0  0  0  0  0  0
   -0.4946    1.3899    3.2813 C   0  0  0  0  0  0  0  0  0  0  0  0
   -1.9093   -0.6150    3.1724 H   0  0  0  0  0  0  0  0  0  0  0  0
   -1.5968    1.6712    1.4714 H   0  0  0  0  0  0  0  0  0  0  0  0
    0.1326    0.6368    3.7686 H   0  0  0  0  0  0  0  0  0  0  0  0
    0.0993    2.2994    3.1476 H   0  0  0  0  0  0  0  0  0  0  0  0
   -1.3363    1.6295    3.9385 H   0  0  0  0  0  0  0  0  0  0  0  0
   -0.1000   -0.1380   -0.2104 N   0  0  0  0  0  0  0  0  0  0  0  0
    0.1927    0.4664   -1.5231 C   0  0  2  0  0  0  0  0  0  0  0  0
   -0.5859    1.7741   -1.7556 C   0  0  0  0  0  0  0  0  0  0  0  0
   -0.0178    2.7658   -2.1950 O   0  0  0  0  0  0  0  0  0  0  0  0
   -0.1372   -0.5304   -2.6451 C   0  0  0  0  0  0  0  0  0  0  0  0
    0.5569   -1.8538   -2.4397 C   0  0  0  0  0  0  0  0  0  0  0  0
    1.8679   -2.0741   -2.0774 N   0  0  0  0  0  0  0  0  0  0  0  0
    0.0121   -3.1054   -2.5526 C   0  0  0  0  0  0  0  0  0  0  0  0
    2.0682   -3.4373   -1.9751 C   0  0  0  0  0  0  0  0  0  0  0  0
    0.9606   -4.0799   -2.2603 N   0  0  0  0  0  0  0  0  0  0  0  0
   -0.9994   -0.6183   -0.1682 H   0  0  0  0  0  0  0  0  0  0  0  0
    1.2600    0.7075   -1.5736 H   0  0  0  0  0  0  0  0  0  0  0  0
    0.1807   -0.1065   -3.6037 H   0  0  0  0  0  0  0  0  0  0  0  0
   -1.2197   -0.6908   -2.6959 H   0  0  0  0  0  0  0  0  0  0  0  0
    2.5610   -1.3605   -1.8597 H   0  0  0  0  0  0  0  0  0  0  0  0
   -1.0195   -3.3100   -2.8230 H   0  0  0  0  0  0  0  0  0  0  0  0
    3.0046   -3.9109   -1.6950 H   0  0  0  0  0  0  0  0  0  0  0  0
   -1.9313    1.8544   -1.4430 N   0  0  0  0  0  0  0  0  0  0  0  0
   -2.6653    3.1234   -1.3612 C   0  0  2  0  0  0  0  0  0  0  0  0
   -2.2541    3.9316   -0.1073 C   0  0  0  0  0  0  0  0  0  0  0  0
   -2.9730    3.9957    0.8839 O   0  0  0  0  0  0  0  0  0  0  0  0
   -4.1615    2.7909   -1.3896 C   0  0  0  0  0  0  0  0  0  0  0  0
   -2.3394    1.0431   -0.9698 H   0  0  0  0  0  0  0  0  0  0  0  0
   -2.4408    3.7392   -2.2387 H   0  0  0  0  0  0  0  0  0  0  0  0
   -4.4343    2.1634   -0.5348 H   0  0  0  0  0  0  0  0  0  0  0  0
   -4.7546    3.7100   -1.3486 H   0  0  0  0  0  0  0  0  0  0  0  0
   -4.4145    2.2556   -2.3098 H   0  0  0  0  0  0  0  0  0  0  0  0
   -0.9972    4.5014   -0.0649 N   0  0  0  0  0  0  0  0  0  0  0  0
   -0.4222    5.1046    1.1292 C   0  0  0  0  0  0  0  0  0  0  0  0
   -0.3719    4.2435   -0.8339 H   0  0  0  0  0  0  0  0  0  0  0  0
   -1.0938    5.8670    1.5377 H   0  0  0  0  0  0  0  0  0  0  0  0
   -0.2443    4.3432    1.8945 H   0  0  0  0  0  0  0  0  0  0  0  0
    0.5314    5.5825    0.8857 H   0  0  0  0  0  0  0  0  0  0  0  0
  1  2  2  0  0  0  0
  1  3  1  0  0  0  0
  1  7  1  0  0  0  0
  3  4  1  0  0  0  0
  3  5  1  0  0  0  0
  3  6  1  0  0  0  0
  7  8  1  0  0  0  0
  7 12  1  0  0  0  0
  8  9  1  0  0  0  0
  8 11  1  0  0  0  0
  8 13  1  0  0  0  0
  9 10  2  0  0  0  0
  9 17  1  0  0  0  0
 11 14  1  0  0  0  0
 11 15  1  0  0  0  0
 11 16  1  0  0  0  0
 17 18  1  0  0  0  0
 17 27  1  0  0  0  0
 18 19  1  0  0  0  0
 18 21  1  0  0  0  0
 18 28  1  0  0  0  0
 19 20  2  0  0  0  0
 19 34  1  0  0  0  0
 21 22  1  0  0  0  0
 21 29  1  0  0  0  0
 21 30  1  0  0  0  0
 22 23  1  0  0  0  0
 22 24  2  0  0  0  0
 23 25  1  0  0  0  0
 23 31  1  0  0  0  0
 24 26  1  0  0  0  0
 24 32  1  0  0  0  0
 25 26  2  0  0  0  0
 25 33  1  0  0  0  0
 34 35  1  0  0  0  0
 34 39  1  0  0  0  0
 35 36  1  0  0  0  0
 35 38  1  0  0  0  0
 35 40  1  0  0  0  0
 36 37  2  0  0  0  0
 36 44  1  0  0  0  0
 38 41  1  0  0  0  0
 38 42  1  0  0  0  0
 38 43  1  0  0  0  0
 44 45  1  0  0  0  0
 44 46  1  0  0  0  0
 45 47  1  0  0  0  0
 45 48  1  0  0  0  0
 45 49  1  0  0  0  0
M  END
$$$$

  -OEChem-02062319083D

 49 49  0     1  0  0  0  0  0999 V2000
   -2.1914   -1.8376    3.1073 C   0  0  0  0  0  0  0  0  0  0  0  0
   -2.5824   -2.5794    2.2194 O   0  0  0  0  0  0  0  0  0  0  0  0
   -1.9189   -2.3812    4.4967 C   0  0  0  0  0  0  0  0  0  0  0  0
   -2.1004   -3.4593    4.5224 H   0  0  0  0  0  0  0  0  0  0  0  0
   -0.8787   -2.1929    4.7735 H   0  0  0  0  0  0  0  0  0  0  0  0
   -2.5763   -1.8960    5.2222 H   0  0  0  0  0  0  0  0  0  0  0  0
   -1.9641   -0.5054    2.8321 N   0  0  0  0  0  0  0  0  0  0  0  0
   -1.9926    0.0300    1.4655 C   0  0  2  0  0  0  0  0  0  0  0  0
   -0.6673   -0.2544    0.7221 C   0  0  0  0  0  0  0  0  0  0  0  0
    0.3897    0.0486    1.2615 O   0  0  0  0  0  0  0  0  0  0  0  0
   -2.2868    1.5279    1.5712 C   0  0  0  0  0  0  0  0  0  0  0  0
   -1.4383    0.0145    3.5299 H   0  0  0  0  0  0  0  0  0  0  0  0
   -2.8081   -0.4383    0.9040 H   0  0  0  0  0  0  0  0  0  0  0  0
   -1.4619    2.0496    2.0663 H   0  0  0  0  0  0  0  0  0  0  0  0
   -2.4295    1.9620    0.5796 H   0  0  0  0  0  0  0  0  0  0  0  0
   -3.2007    1.6979    2.1490 H   0  0  0  0  0  0  0  0  0  0  0  0
   -0.6517   -0.4395   -0.6500 N   0  0  0  0  0  0  0  0  0  0  0  0
    0.3524    0.1893   -1.5337 C   0  0  2  0  0  0  0  0  0  0  0  0
    0.3632    1.7279   -1.5006 C   0  0  0  0  0  0  0  0  0  0  0  0
    1.4254    2.3354   -1.4904 O   0  0  0  0  0  0  0  0  0  0  0  0
    0.1470   -0.2722   -2.9862 C   0  0  0  0  0  0  0  0  0  0  0  0
    0.0647   -1.7741   -3.1047 C   0  0  0  0  0  0  0  0  0  0  0  0
    0.7966   -2.7239   -2.4237 N   0  0  0  0  0  0  0  0  0  0  0  0
   -0.7704   -2.4962   -3.9161 C   0  0  0  0  0  0  0  0  0  0  0  0
    0.3774   -3.9753   -2.8340 C   0  0  0  0  0  0  0  0  0  0  0  0
   -0.5672   -3.8589   -3.7365 N   0  0  0  0  0  0  0  0  0  0  0  0
   -1.5198   -0.7603   -1.0716 H   0  0  0  0  0  0  0  0  0  0  0  0
    1.3458   -0.1401   -1.2083 H   0  0  0  0  0  0  0  0  0  0  0  0
    0.9884    0.0843   -3.5905 H   0  0  0  0  0  0  0  0  0  0  0  0
   -0.7644    0.1747   -3.3969 H   0  0  0  0  0  0  0  0  0  0  0  0
    1.4973   -2.5470   -1.7057 H   0  0  0  0  0  0  0  0  0  0  0  0
   -1.4955   -2.0663   -4.6009 H   0  0  0  0  0  0  0  0  0  0  0  0
    0.7686   -4.9186   -2.4633 H   0  0  0  0  0  0  0  0  0  0  0  0
   -0.8153    2.4504   -1.5478 N   0  0  0  0  0  0  0  0  0  0  0  0
   -0.8733    3.9119   -1.3927 C   0  0  2  0  0  0  0  0  0  0  0  0
   -0.6536    4.3422    0.0783 C   0  0  0  0  0  0  0  0  0  0  0  0
   -1.5663    4.8009    0.7552 O   0  0  0  0  0  0  0  0  0  0  0  0
   -2.2161    4.3866   -1.9613 C   0  0  0  0  0  0  0  0  0  0  0  0
   -1.6787    1.9242   -1.4644 H   0  0  0  0  0  0  0  0  0  0  0  0
   -0.0790    4.3768   -1.9871 H   0  0  0  0  0  0  0  0  0  0  0  0
   -3.0503    3.9494   -1.4034 H   0  0  0  0  0  0  0  0  0  0  0  0
   -2.2902    5.4768   -1.8945 H   0  0  0  0  0  0  0  0  0  0  0  0
   -2.3079    4.0987   -3.0130 H   0  0  0  0  0  0  0  0  0  0  0  0
    0.5785    4.1254    0.6624 N   0  0  0  0  0  0  0  0  0  0  0  0
    0.8582    4.3376    2.0756 C   0  0  0  0  0  0  0  0  0  0  0  0
    1.2518    3.5983    0.0992 H   0  0  0  0  0  0  0  0  0  0  0  0
    0.6059    5.3622    2.3678 H   0  0  0  0  0  0  0  0  0  0  0  0
    0.2789    3.6417    2.6902 H   0  0  0  0  0  0  0  0  0  0  0  0
    1.9215    4.1749    2.2760 H   0  0  0  0  0  0  0  0  0  0  0  0
  1  2  2  0  0  0  0
  1  3  1  0  0  0  0
  1  7  1  0  0  0  0
  3  4  1  0  0  0  0
  3  5  1  0  0  0  0
  3  6  1  0  0  0  0
  7  8  1  0  0  0  0
  7 12  1  0  0  0  0
  8  9  1  0  0  0  0
  8 11  1  0  0  0  0
  8 13  1  0  0  0  0
  9 10  2  0  0  0  0
  9 17  1  0  0  0  0
 11 14  1  0  0  0  0
 11 15  1  0  0  0  0
 11 16  1  0  0  0  0
 17 18  1  0  0  0  0
 17 27  1  0  0  0  0
 18 19  1  0  0  0  0
 18 21  1  0  0  0  0
 18 28  1  0  0  0  0
 19 20  2  0  0  0  0
 19 34  1  0  0  0  0
 21 22  1  0  0  0  0
 21 29  1  0  0  0  0
 21 30  1  0  0  0  0
 22 23  1  0  0  0  0
 22 24  2  0  0  0  0
 23 25  1  0  0  0  0
 23 31  1  0  0  0  0
 24 26  1  0  0  0  0
 24 32  1  0  0  0  0
 25 26  2  0  0  0  0
 25 33  1  0  0  0  0
 34 35  1  0  0  0  0
 34 39  1  0  0  0  0
 35 36  1  0  0  0  0
 35 38  1  0  0  0  0
 35 40  1  0  0  0  0
 36 37  2  0  0  0  0
 36 44  1  0  0  0  0
 38 41  1  0  0  0  0
 38 42  1  0  0  0  0
 38 43  1  0  0  0  0
 44 45  1  0  0  0  0
 44 46  1  0  0  0  0
 45 47  1  0  0  0  0
 45 48  1  0  0  0  0
 45 49  1  0  0  0  0
M  END
$$$$

  -OEChem-02062319083D

 49 49  0     1  0  0  0  0  0999 V2000
   -2.0855   -1.7548    3.0846 C   0  0  0  0  0  0  0  0  0  0  0  0
   -2.4231   -2.5365    2.2086 O   0  0  0  0  0  0  0  0  0  0  0  0
   -1.8258   -2.2501    4.4947 C   0  0  0  0  0  0  0  0  0  0  0  0
   -1.9595   -3.3345    4.5440 H   0  0  0  0  0  0  0  0  0  0  0  0
   -0.8026   -2.0083    4.7931 H   0  0  0  0  0  0  0  0  0  0  0  0
   -2.5230   -1.7770    5.1905 H   0  0  0  0  0  0  0  0  0  0  0  0
   -1.9046   -0.4221    2.7780 N   0  0  0  0  0  0  0  0  0  0  0  0
   -1.9055    0.0656    1.3936 C   0  0  2  0  0  0  0  0  0  0  0  0
   -0.5746   -0.2426    0.6741 C   0  0  0  0  0  0  0  0  0  0  0  0
    0.4874   -0.0206    1.2425 O   0  0  0  0  0  0  0  0  0  0  0  0
   -2.1766    1.5717    1.4310 C   0  0  0  0  0  0  0  0  0  0  0  0
   -1.4168    0.1363    3.4733 H   0  0  0  0  0  0  0  0  0  0  0  0
   -2.7160   -0.4159    0.8359 H   0  0  0  0  0  0  0  0  0  0  0  0
   -1.3883    2.0917    1.9844 H   0  0  0  0  0  0  0  0  0  0  0  0
   -2.2154    1.9816    0.4178 H   0  0  0  0  0  0  0  0  0  0  0  0
   -3.1343    1.7738    1.9208 H   0  0  0  0  0  0  0  0  0  0  0  0
   -0.5552   -0.4397   -0.6956 N   0  0  0  0  0  0  0  0  0  0  0  0
    0.6009   -0.1196   -1.5558 C   0  0  2  0  0  0  0  0  0  0  0  0
    0.9955    1.3669   -1.5104 C   0  0  0  0  0  0  0  0  0  0  0  0
    2.1715    1.6949   -1.4258 O   0  0  0  0  0  0  0  0  0  0  0  0
    0.3165   -0.5269   -3.0118 C   0  0  0  0  0  0  0  0  0  0  0  0
   -0.2400   -1.9259   -3.1149 C   0  0  0  0  0  0  0  0  0  0  0  0
    0.1412   -3.0496   -2.4119 N   0  0  0  0  0  0  0  0  0  0  0  0
   -1.2592   -2.3528   -3.9253 C   0  0  0  0  0  0  0  0  0  0  0  0
   -0.6599   -4.1047   -2.8068 C   0  0  0  0  0  0  0  0  0  0  0  0
   -1.5117   -3.7036   -3.7202 N   0  0  0  0  0  0  0  0  0  0  0  0
   -1.4280   -0.7173   -1.1389 H   0  0  0  0  0  0  0  0  0  0  0  0
    1.4640   -0.6925   -1.1990 H   0  0  0  0  0  0  0  0  0  0  0  0
    1.2493   -0.4707   -3.5835 H   0  0  0  0  0  0  0  0  0  0  0  0
   -0.3903    0.1754   -3.4665 H   0  0  0  0  0  0  0  0  0  0  0  0
    0.8609   -3.0986   -1.6924 H   0  0  0  0  0  0  0  0  0  0  0  0
   -1.8033   -1.7227   -4.6228 H   0  0  0  0  0  0  0  0  0  0  0  0
   -0.5983   -5.1171   -2.4176 H   0  0  0  0  0  0  0  0  0  0  0  0
    0.0253    2.3502   -1.5850 N   0  0  0  0  0  0  0  0  0  0  0  0
    0.2953    3.7574   -1.2563 C   0  0  2  0  0  0  0  0  0  0  0  0
    0.4615    3.9561    0.2702 C   0  0  0  0  0  0  0  0  0  0  0  0
   -0.3984    4.5177    0.9396 O   0  0  0  0  0  0  0  0  0  0  0  0
   -0.8421    4.5984   -1.8485 C   0  0  0  0  0  0  0  0  0  0  0  0
   -0.9351    2.0288   -1.5219 H   0  0  0  0  0  0  0  0  0  0  0  0
    1.2293    4.0774   -1.7311 H   0  0  0  0  0  0  0  0  0  0  0  0
   -1.8033    4.3162   -1.4069 H   0  0  0  0  0  0  0  0  0  0  0  0
   -0.6695    5.6610   -1.6493 H   0  0  0  0  0  0  0  0  0  0  0  0
   -0.8983    4.4545   -2.9319 H   0  0  0  0  0  0  0  0  0  0  0  0
    1.5529    3.3930    0.9008 N   0  0  0  0  0  0  0  0  0  0  0  0
    1.6822    3.2894    2.3473 C   0  0  0  0  0  0  0  0  0  0  0  0
    2.1274    2.7791    0.3170 H   0  0  0  0  0  0  0  0  0  0  0  0
    1.5940    4.2758    2.8143 H   0  0  0  0  0  0  0  0  0  0  0  0
    0.9063    2.6335    2.7543 H   0  0  0  0  0  0  0  0  0  0  0  0
    2.6597    2.8721    2.6069 H   0  0  0  0  0  0  0  0  0  0  0  0
  1  2  2  0  0  0  0
  1  3  1  0  0  0  0
  1  7  1  0  0  0  0
  3  4  1  0  0  0  0
  3  5  1  0  0  0  0
  3  6  1  0  0  0  0
  7  8  1  0  0  0  0
  7 12  1  0  0  0  0
  8  9  1  0  0  0  0
  8 11  1  0  0  0  0
  8 13  1  0  0  0  0
  9 10  2  0  0  0  0
  9 17  1  0  0  0  0
 11 14  1  0  0  0  0
 11 15  1  0  0  0  0
 11 16  1  0  0  0  0
 17 18  1  0  0  0  0
 17 27  1  0  0  0  0
 18 19  1  0  0  0  0
 18 21  1  0  0  0  0
 18 28  1  0  0  0  0
 19 20  2  0  0  0  0
 19 34  1  0  0  0  0
 21 22  1  0  0  0  0
 21 29  1  0  0  0  0
 21 30  1  0  0  0  0
 22 23  1  0  0  0  0
 22 24  2  0  0  0  0
 23 25  1  0  0  0  0
 23 31  1  0  0  0  0
 24 26  1  0  0  0  0
 24 32  1  0  0  0  0
 25 26  2  0  0  0  0
 25 33  1  0  0  0  0
 34 35  1  0  0  0  0
 34 39  1  0  0  0  0
 35 36  1  0  0  0  0
 35 38  1  0  0  0  0
 35 40  1  0  0  0  0
 36 37  2  0  0  0  0
 36 44  1  0  0  0  0
 38 41  1  0  0  0  0
 38 42  1  0  0  0  0
 38 43  1  0  0  0  0
 44 45  1  0  0  0  0
 44 46  1  0  0  0  0
 45 47  1  0  0  0  0
 45 48  1  0  0  0  0
 45 49  1  0  0  0  0
M  END
$$$$

  -OEChem-02062319083D

 49 49  0     1  0  0  0  0  0999 V2000
   -2.6733   -1.6408    1.6532 C   0  0  0  0  0  0  0  0  0  0  0  0
   -2.8451   -1.2914    0.4912 O   0  0  0  0  0  0  0  0  0  0  0  0
   -3.3588   -2.8865    2.1809 C   0  0  0  0  0  0  0  0  0  0  0  0
   -4.0182   -3.3092    1.4176 H   0  0  0  0  0  0  0  0  0  0  0  0
   -2.6123   -3.6363    2.4555 H   0  0  0  0  0  0  0  0  0  0  0  0
   -3.9572   -2.6393    3.0614 H   0  0  0  0  0  0  0  0  0  0  0  0
   -1.8073   -0.9362    2.4646 N   0  0  0  0  0  0  0  0  0  0  0  0
   -1.0940    0.2859    2.0614 C   0  0  2  0  0  0  0  0  0  0  0  0
    0.0768   -0.0014    1.0903 C   0  0  0  0  0  0  0  0  0  0  0  0
    1.2406    0.2270    1.3875 O   0  0  0  0  0  0  0  0  0  0  0  0
   -0.6404    1.0044    3.3379 C   0  0  0  0  0  0  0  0  0  0  0  0
   -1.6432   -1.3027    3.3987 H   0  0  0  0  0  0  0  0  0  0  0  0
   -1.7889    0.9532    1.5404 H   0  0  0  0  0  0  0  0  0  0  0  0
    0.0738    0.3901    3.8959 H   0  0  0  0  0  0  0  0  0  0  0  0
   -0.1558    1.9532    3.0843 H   0  0  0  0  0  0  0  0  0  0  0  0
   -1.4984    1.2197    3.9822 H   0  0  0  0  0  0  0  0  0  0  0  0
   -0.2217   -0.3787   -0.2040 N   0  0  0  0  0  0  0  0  0  0  0  0
    0.7296   -0.3880   -1.3271 C   0  0  2  0  0  0  0  0  0  0  0  0
    1.3101    1.0106   -1.6020 C   0  0  0  0  0  0  0  0  0  0  0  0
    2.5105    1.1697   -1.7811 O   0  0  0  0  0  0  0  0  0  0  0  0
    0.0326   -0.9091   -2.5946 C   0  0  0  0  0  0  0  0  0  0  0  0
   -0.4916   -2.3135   -2.4173 C   0  0  0  0  0  0  0  0  0  0  0  0
   -1.6166   -2.7302   -1.7343 N   0  0  0  0  0  0  0  0  0  0  0  0
    0.0322   -3.4620   -2.9516 C   0  0  0  0  0  0  0  0  0  0  0  0
   -1.7227   -4.1007   -1.8636 C   0  0  0  0  0  0  0  0  0  0  0  0
   -0.7380   -4.5640   -2.5943 N   0  0  0  0  0  0  0  0  0  0  0  0
   -1.1928   -0.6420   -0.3767 H   0  0  0  0  0  0  0  0  0  0  0  0
    1.5653   -1.0532   -1.0824 H   0  0  0  0  0  0  0  0  0  0  0  0
    0.7513   -0.8972   -3.4218 H   0  0  0  0  0  0  0  0  0  0  0  0
   -0.7952   -0.2478   -2.8701 H   0  0  0  0  0  0  0  0  0  0  0  0
   -2.2558   -2.1460   -1.1889 H   0  0  0  0  0  0  0  0  0  0  0  0
    0.9241   -3.5072   -3.5699 H   0  0  0  0  0  0  0  0  0  0  0  0
   -2.5066   -4.7095   -1.4226 H   0  0  0  0  0  0  0  0  0  0  0  0
    0.4706    2.1100   -1.6252 N   0  0  0  0  0  0  0  0  0  0  0  0
    0.9738    3.4855   -1.5185 C   0  0  2  0  0  0  0  0  0  0  0  0
    1.4065    3.8023   -0.0674 C   0  0  0  0  0  0  0  0  0  0  0  0
    0.7157    4.5005    0.6667 O   0  0  0  0  0  0  0  0  0  0  0  0
   -0.1200    4.4262   -2.0369 C   0  0  0  0  0  0  0  0  0  0  0  0
   -0.4794    1.9361   -1.3115 H   0  0  0  0  0  0  0  0  0  0  0  0
    1.8532    3.6139   -2.1592 H   0  0  0  0  0  0  0  0  0  0  0  0
   -1.0298    4.3313   -1.4358 H   0  0  0  0  0  0  0  0  0  0  0  0
    0.2206    5.4654   -1.9867 H   0  0  0  0  0  0  0  0  0  0  0  0
   -0.3616    4.1911   -3.0780 H   0  0  0  0  0  0  0  0  0  0  0  0
    2.5459    3.2041    0.4321 N   0  0  0  0  0  0  0  0  0  0  0  0
    2.9060    3.2292    1.8429 C   0  0  0  0  0  0  0  0  0  0  0  0
    2.9392    2.4618   -0.1520 H   0  0  0  0  0  0  0  0  0  0  0  0
    2.9559    4.2594    2.2104 H   0  0  0  0  0  0  0  0  0  0  0  0
    2.1692    2.6777    2.4350 H   0  0  0  0  0  0  0  0  0  0  0  0
    3.8857    2.7644    1.9886 H   0  0  0  0  0  0  0  0  0  0  0  0
  1  2  2  0  0  0  0
  1  3  1  0  0  0  0
  1  7  1  0  0  0  0
  3  4  1  0  0  0  0
  3  5  1  0  0  0  0
  3  6  1  0  0  0  0
  7  8  1  0  0  0  0
  7 12  1  0  0  0  0
  8  9  1  0  0  0  0
  8 11  1  0  0  0  0
  8 13  1  0  0  0  0
  9 10  2  0  0  0  0
  9 17  1  0  0  0  0
 11 14  1  0  0  0  0
 11 15  1  0  0  0  0
 11 16  1  0  0  0  0
 17 18  1  0  0  0  0
 17 27  1  0  0  0  0
 18 19  1  0  0  0  0
 18 21  1  0  0  0  0
 18 28  1  0  0  0  0
 19 20  2  0  0  0  0
 19 34  1  0  0  0  0
 21 22  1  0  0  0  0
 21 29  1  0  0  0  0
 21 30  1  0  0  0  0
 22 23  1  0  0  0  0
 22 24  2  0  0  0  0
 23 25  1  0  0  0  0
 23 31  1  0  0  0  0
 24 26  1  0  0  0  0
 24 32  1  0  0  0  0
 25 26  2  0  0  0  0
 25 33  1  0  0  0  0
 34 35  1  0  0  0  0
 34 39  1  0  0  0  0
 35 36  1  0  0  0  0
 35 38  1  0  0  0  0
 35 40  1  0  0  0  0
 36 37  2  0  0  0  0
 36 44  1  0  0  0  0
 38 41  1  0  0  0  0
 38 42  1  0  0  0  0
 38 43  1  0  0  0  0
 44 45  1  0  0  0  0
 44 46  1  0  0  0  0
 45 47  1  0  0  0  0
 45 48  1  0  0  0  0
 45 49  1  0  0  0  0
M  END
$$$$
