
  -OEChem-05262214473D

 54 53  0     1  0  0  0  0  0999 V2000
    2.6714    2.8829   -3.0005 C   0  0  0  0  0  0  0  0  0  0  0  0
    3.1741    2.4398   -1.9745 O   0  0  0  0  0  0  0  0  0  0  0  0
    3.5527    3.3077   -4.1279 C   0  0  0  0  0  0  0  0  0  0  0  0
    3.8407    4.3691   -4.0597 H   0  0  0  0  0  0  0  0  0  0  0  0
    4.5024    2.7495   -4.1526 H   0  0  0  0  0  0  0  0  0  0  0  0
    3.1208    3.1887   -5.1345 H   0  0  0  0  0  0  0  0  0  0  0  0
    1.3174    3.0407   -3.2467 N   0  0  0  0  0  0  0  0  0  0  0  0
    0.2944    2.6927   -2.2960 C   0  0  2  0  0  0  0  0  0  0  0  0
    0.2976    1.1783   -2.1349 C   0  0  0  0  0  0  0  0  0  0  0  0
    0.7500    0.4142   -2.9850 O   0  0  0  0  0  0  0  0  0  0  0  0
   -1.0710    3.1886   -2.7460 C   0  0  0  0  0  0  0  0  0  0  0  0
    1.0312    3.4224   -4.1464 H   0  0  0  0  0  0  0  0  0  0  0  0
    0.5725    3.1622   -1.3461 H   0  0  0  0  0  0  0  0  0  0  0  0
   -1.3666    2.7292   -3.6963 H   0  0  0  0  0  0  0  0  0  0  0  0
   -1.8434    2.9482   -2.0082 H   0  0  0  0  0  0  0  0  0  0  0  0
   -1.0632    4.2744   -2.8901 H   0  0  0  0  0  0  0  0  0  0  0  0
   -0.3037    0.7742   -0.9484 N   0  0  0  0  0  0  0  0  0  0  0  0
   -0.4352   -0.6095   -0.5718 C   0  0  2  0  0  0  0  0  0  0  0  0
   -1.1381   -0.6871    0.7795 C   0  0  0  0  0  0  0  0  0  0  0  0
   -1.5331    0.3058    1.3876 O   0  0  0  0  0  0  0  0  0  0  0  0
    0.9139   -1.3379   -0.5845 C   0  0  0  0  0  0  0  0  0  0  0  0
    1.5176   -1.5133   -1.9841 C   0  0  0  0  0  0  0  0  0  0  0  0
    2.8476   -2.2679   -1.9217 C   0  0  0  0  0  0  0  0  0  0  0  0
    3.4553   -2.4185   -3.3084 C   0  0  0  0  0  0  0  0  0  0  0  0
    4.7502   -3.1319   -3.1966 N   0  3  0  0  0  0  0  0  0  0  0  0
   -0.6336    1.4811   -0.2948 H   0  0  0  0  0  0  0  0  0  0  0  0
   -1.0937   -1.0632   -1.3224 H   0  0  0  0  0  0  0  0  0  0  0  0
    1.6234   -0.7787    0.0391 H   0  0  0  0  0  0  0  0  0  0  0  0
    0.7993   -2.3260   -0.1219 H   0  0  0  0  0  0  0  0  0  0  0  0
    0.8209   -2.0650   -2.6259 H   0  0  0  0  0  0  0  0  0  0  0  0
    1.6802   -0.5333   -2.4478 H   0  0  0  0  0  0  0  0  0  0  0  0
    2.6877   -3.2578   -1.4765 H   0  0  0  0  0  0  0  0  0  0  0  0
    3.5446   -1.7301   -1.2669 H   0  0  0  0  0  0  0  0  0  0  0  0
    2.8209   -3.0141   -3.9716 H   0  0  0  0  0  0  0  0  0  0  0  0
    3.6655   -1.4498   -3.7715 H   0  0  0  0  0  0  0  0  0  0  0  0
    5.3334   -2.9676   -4.0244 H   0  0  0  0  0  0  0  0  0  0  0  0
    4.6055   -4.1439   -3.1087 H   0  0  0  0  0  0  0  0  0  0  0  0
    5.2745   -2.8155   -2.3734 H   0  0  0  0  0  0  0  0  0  0  0  0
   -1.3027   -1.9949    1.2125 N   0  0  0  0  0  0  0  0  0  0  0  0
   -1.9574   -2.3161    2.4583 C   0  0  2  0  0  0  0  0  0  0  0  0
   -1.6811   -3.7809    2.7707 C   0  0  0  0  0  0  0  0  0  0  0  0
   -1.3738   -4.6038    1.9108 O   0  0  0  0  0  0  0  0  0  0  0  0
   -3.4526   -2.0492    2.3825 C   0  0  0  0  0  0  0  0  0  0  0  0
   -0.9508   -2.7516    0.6336 H   0  0  0  0  0  0  0  0  0  0  0  0
   -1.4996   -1.6853    3.2280 H   0  0  0  0  0  0  0  0  0  0  0  0
   -3.9287   -2.6722    1.6165 H   0  0  0  0  0  0  0  0  0  0  0  0
   -3.9433   -2.2662    3.3370 H   0  0  0  0  0  0  0  0  0  0  0  0
   -3.6492   -1.0020    2.1283 H   0  0  0  0  0  0  0  0  0  0  0  0
   -1.8602   -4.0703    4.1162 N   0  0  0  0  0  0  0  0  0  0  0  0
   -1.6708   -5.3945    4.6608 C   0  0  0  0  0  0  0  0  0  0  0  0
   -2.0970   -3.3220    4.7610 H   0  0  0  0  0  0  0  0  0  0  0  0
   -2.6306   -5.9318    4.6619 H   0  0  0  0  0  0  0  0  0  0  0  0
   -0.9440   -5.9438    4.0443 H   0  0  0  0  0  0  0  0  0  0  0  0
   -1.2931   -5.3166    5.6910 H   0  0  0  0  0  0  0  0  0  0  0  0
  1  3  1  0  0  0  0
  1  7  1  0  0  0  0
  1  2  2  0  0  0  0
 40 41  1  0  0  0  0
 41 49  1  0  0  0  0
 41 42  2  0  0  0  0
  8  9  1  0  0  0  0
  9 17  1  0  0  0  0
  9 10  2  0  0  0  0
 18 19  1  0  0  0  0
 19 39  1  0  0  0  0
 19 20  2  0  0  0  0
 40 43  1  0  0  0  0
  8 11  1  0  0  0  0
 49 50  1  0  0  0  0
 22 23  1  0  0  0  0
 21 22  1  0  0  0  0
 23 24  1  0  0  0  0
 18 21  1  0  0  0  0
 24 25  1  0  0  0  0
 39 40  1  0  0  0  0
  7  8  1  0  0  0  0
 17 18  1  0  0  0  0
  3  4  1  0  0  0  0
  3  5  1  0  0  0  0
  3  6  1  0  0  0  0
 43 46  1  0  0  0  0
 43 47  1  0  0  0  0
 43 48  1  0  0  0  0
 11 14  1  0  0  0  0
 11 15  1  0  0  0  0
 11 16  1  0  0  0  0
 50 52  1  0  0  0  0
 50 53  1  0  0  0  0
 50 54  1  0  0  0  0
 22 30  1  0  0  0  0
 22 31  1  0  0  0  0
 23 32  1  0  0  0  0
 23 33  1  0  0  0  0
 21 28  1  0  0  0  0
 21 29  1  0  0  0  0
 24 34  1  0  0  0  0
 24 35  1  0  0  0  0
 40 45  1  0  0  0  0
  8 13  1  0  0  0  0
 18 27  1  0  0  0  0
 49 51  1  0  0  0  0
  7 12  1  0  0  0  0
 39 44  1  0  0  0  0
 17 26  1  0  0  0  0
 25 36  1  0  0  0  0
 25 37  1  0  0  0  0
 25 38  1  0  0  0  0
M  CHG  1  25   1
M  END
$$$$

  -OEChem-05262214473D

 54 53  0     1  0  0  0  0  0999 V2000
    2.6714    2.8829   -3.0005 C   0  0  0  0  0  0  0  0  0  0  0  0
    3.1741    2.4398   -1.9745 O   0  0  0  0  0  0  0  0  0  0  0  0
    3.5527    3.3077   -4.1279 C   0  0  0  0  0  0  0  0  0  0  0  0
    3.8407    4.3691   -4.0597 H   0  0  0  0  0  0  0  0  0  0  0  0
    4.5024    2.7495   -4.1526 H   0  0  0  0  0  0  0  0  0  0  0  0
    3.1208    3.1887   -5.1345 H   0  0  0  0  0  0  0  0  0  0  0  0
    1.3174    3.0407   -3.2467 N   0  0  0  0  0  0  0  0  0  0  0  0
    0.2944    2.6927   -2.2960 C   0  0  2  0  0  0  0  0  0  0  0  0
    0.2976    1.1783   -2.1349 C   0  0  0  0  0  0  0  0  0  0  0  0
    0.7500    0.4142   -2.9850 O   0  0  0  0  0  0  0  0  0  0  0  0
   -1.0710    3.1886   -2.7460 C   0  0  0  0  0  0  0  0  0  0  0  0
    1.0312    3.4224   -4.1464 H   0  0  0  0  0  0  0  0  0  0  0  0
    0.5725    3.1622   -1.3461 H   0  0  0  0  0  0  0  0  0  0  0  0
   -1.3666    2.7292   -3.6963 H   0  0  0  0  0  0  0  0  0  0  0  0
   -1.8434    2.9482   -2.0082 H   0  0  0  0  0  0  0  0  0  0  0  0
   -1.0632    4.2744   -2.8901 H   0  0  0  0  0  0  0  0  0  0  0  0
   -0.3037    0.7742   -0.9484 N   0  0  0  0  0  0  0  0  0  0  0  0
   -0.4352   -0.6095   -0.5718 C   0  0  2  0  0  0  0  0  0  0  0  0
   -1.1381   -0.6871    0.7795 C   0  0  0  0  0  0  0  0  0  0  0  0
   -1.7658    0.2527    1.2635 O   0  0  0  0  0  0  0  0  0  0  0  0
    0.9139   -1.3379   -0.5845 C   0  0  0  0  0  0  0  0  0  0  0  0
    1.5176   -1.5133   -1.9841 C   0  0  0  0  0  0  0  0  0  0  0  0
    2.8476   -2.2679   -1.9217 C   0  0  0  0  0  0  0  0  0  0  0  0
    3.4553   -2.4185   -3.3084 C   0  0  0  0  0  0  0  0  0  0  0  0
    4.7502   -3.1319   -3.1966 N   0  3  0  0  0  0  0  0  0  0  0  0
   -0.6336    1.4811   -0.2948 H   0  0  0  0  0  0  0  0  0  0  0  0
   -1.0937   -1.0632   -1.3224 H   0  0  0  0  0  0  0  0  0  0  0  0
    1.6234   -0.7787    0.0391 H   0  0  0  0  0  0  0  0  0  0  0  0
    0.7993   -2.3260   -0.1219 H   0  0  0  0  0  0  0  0  0  0  0  0
    0.8209   -2.0650   -2.6259 H   0  0  0  0  0  0  0  0  0  0  0  0
    1.6802   -0.5333   -2.4478 H   0  0  0  0  0  0  0  0  0  0  0  0
    2.6877   -3.2578   -1.4765 H   0  0  0  0  0  0  0  0  0  0  0  0
    3.5446   -1.7301   -1.2669 H   0  0  0  0  0  0  0  0  0  0  0  0
    2.8209   -3.0141   -3.9716 H   0  0  0  0  0  0  0  0  0  0  0  0
    3.6655   -1.4498   -3.7715 H   0  0  0  0  0  0  0  0  0  0  0  0
    5.3334   -2.9676   -4.0244 H   0  0  0  0  0  0  0  0  0  0  0  0
    4.6055   -4.1439   -3.1087 H   0  0  0  0  0  0  0  0  0  0  0  0
    5.2745   -2.8155   -2.3734 H   0  0  0  0  0  0  0  0  0  0  0  0
   -1.0111   -1.9374    1.3675 N   0  0  0  0  0  0  0  0  0  0  0  0
   -1.6086   -2.2517    2.6434 C   0  0  2  0  0  0  0  0  0  0  0  0
   -1.0135   -3.5663    3.1303 C   0  0  0  0  0  0  0  0  0  0  0  0
   -0.5030   -4.3917    2.3758 O   0  0  0  0  0  0  0  0  0  0  0  0
   -3.1226   -2.3468    2.5370 C   0  0  0  0  0  0  0  0  0  0  0  0
   -0.4801   -2.6555    0.8839 H   0  0  0  0  0  0  0  0  0  0  0  0
   -1.3281   -1.4463    3.3309 H   0  0  0  0  0  0  0  0  0  0  0  0
   -3.4228   -3.1484    1.8523 H   0  0  0  0  0  0  0  0  0  0  0  0
   -3.5764   -2.5570    3.5111 H   0  0  0  0  0  0  0  0  0  0  0  0
   -3.5463   -1.4103    2.1584 H   0  0  0  0  0  0  0  0  0  0  0  0
   -1.1580   -3.7287    4.5010 N   0  0  0  0  0  0  0  0  0  0  0  0
   -0.6858   -4.9002    5.2014 C   0  0  0  0  0  0  0  0  0  0  0  0
   -1.5769   -2.9844    5.0509 H   0  0  0  0  0  0  0  0  0  0  0  0
   -1.4972   -5.6400    5.2682 H   0  0  0  0  0  0  0  0  0  0  0  0
    0.1637   -5.3361    4.6553 H   0  0  0  0  0  0  0  0  0  0  0  0
   -0.3640   -4.6167    6.2144 H   0  0  0  0  0  0  0  0  0  0  0  0
  1  3  1  0  0  0  0
  1  7  1  0  0  0  0
  1  2  2  0  0  0  0
 40 41  1  0  0  0  0
 41 49  1  0  0  0  0
 41 42  2  0  0  0  0
  8  9  1  0  0  0  0
  9 17  1  0  0  0  0
  9 10  2  0  0  0  0
 18 19  1  0  0  0  0
 19 39  1  0  0  0  0
 19 20  2  0  0  0  0
 40 43  1  0  0  0  0
  8 11  1  0  0  0  0
 49 50  1  0  0  0  0
 22 23  1  0  0  0  0
 21 22  1  0  0  0  0
 23 24  1  0  0  0  0
 18 21  1  0  0  0  0
 24 25  1  0  0  0  0
 39 40  1  0  0  0  0
  7  8  1  0  0  0  0
 17 18  1  0  0  0  0
  3  4  1  0  0  0  0
  3  5  1  0  0  0  0
  3  6  1  0  0  0  0
 43 46  1  0  0  0  0
 43 47  1  0  0  0  0
 43 48  1  0  0  0  0
 11 14  1  0  0  0  0
 11 15  1  0  0  0  0
 11 16  1  0  0  0  0
 50 52  1  0  0  0  0
 50 53  1  0  0  0  0
 50 54  1  0  0  0  0
 22 30  1  0  0  0  0
 22 31  1  0  0  0  0
 23 32  1  0  0  0  0
 23 33  1  0  0  0  0
 21 28  1  0  0  0  0
 21 29  1  0  0  0  0
 24 34  1  0  0  0  0
 24 35  1  0  0  0  0
 40 45  1  0  0  0  0
  8 13  1  0  0  0  0
 18 27  1  0  0  0  0
 49 51  1  0  0  0  0
  7 12  1  0  0  0  0
 39 44  1  0  0  0  0
 17 26  1  0  0  0  0
 25 36  1  0  0  0  0
 25 37  1  0  0  0  0
 25 38  1  0  0  0  0
M  CHG  1  25   1
M  END
$$$$

  -OEChem-05262214473D

 54 53  0     1  0  0  0  0  0999 V2000
    2.6714    2.8829   -3.0005 C   0  0  0  0  0  0  0  0  0  0  0  0
    3.1741    2.4398   -1.9745 O   0  0  0  0  0  0  0  0  0  0  0  0
    3.5527    3.3077   -4.1279 C   0  0  0  0  0  0  0  0  0  0  0  0
    3.8407    4.3691   -4.0597 H   0  0  0  0  0  0  0  0  0  0  0  0
    4.5024    2.7495   -4.1526 H   0  0  0  0  0  0  0  0  0  0  0  0
    3.1208    3.1887   -5.1345 H   0  0  0  0  0  0  0  0  0  0  0  0
    1.3174    3.0407   -3.2467 N   0  0  0  0  0  0  0  0  0  0  0  0
    0.2944    2.6927   -2.2960 C   0  0  2  0  0  0  0  0  0  0  0  0
    0.2976    1.1783   -2.1349 C   0  0  0  0  0  0  0  0  0  0  0  0
    0.7500    0.4142   -2.9850 O   0  0  0  0  0  0  0  0  0  0  0  0
   -1.0710    3.1886   -2.7460 C   0  0  0  0  0  0  0  0  0  0  0  0
    1.0312    3.4224   -4.1464 H   0  0  0  0  0  0  0  0  0  0  0  0
    0.5725    3.1622   -1.3461 H   0  0  0  0  0  0  0  0  0  0  0  0
   -1.3666    2.7292   -3.6963 H   0  0  0  0  0  0  0  0  0  0  0  0
   -1.8434    2.9482   -2.0082 H   0  0  0  0  0  0  0  0  0  0  0  0
   -1.0632    4.2744   -2.8901 H   0  0  0  0  0  0  0  0  0  0  0  0
   -0.3037    0.7742   -0.9484 N   0  0  0  0  0  0  0  0  0  0  0  0
   -0.4352   -0.6095   -0.5718 C   0  0  2  0  0  0  0  0  0  0  0  0
   -1.1381   -0.6871    0.7795 C   0  0  0  0  0  0  0  0  0  0  0  0
   -1.9768    0.1333    1.1469 O   0  0  0  0  0  0  0  0  0  0  0  0
    0.9139   -1.3379   -0.5845 C   0  0  0  0  0  0  0  0  0  0  0  0
    1.5176   -1.5133   -1.9841 C   0  0  0  0  0  0  0  0  0  0  0  0
    2.8476   -2.2679   -1.9217 C   0  0  0  0  0  0  0  0  0  0  0  0
    3.4553   -2.4185   -3.3084 C   0  0  0  0  0  0  0  0  0  0  0  0
    4.7502   -3.1319   -3.1966 N   0  3  0  0  0  0  0  0  0  0  0  0
   -0.6336    1.4811   -0.2948 H   0  0  0  0  0  0  0  0  0  0  0  0
   -1.0937   -1.0632   -1.3224 H   0  0  0  0  0  0  0  0  0  0  0  0
    1.6234   -0.7787    0.0391 H   0  0  0  0  0  0  0  0  0  0  0  0
    0.7993   -2.3260   -0.1219 H   0  0  0  0  0  0  0  0  0  0  0  0
    0.8209   -2.0650   -2.6259 H   0  0  0  0  0  0  0  0  0  0  0  0
    1.6802   -0.5333   -2.4478 H   0  0  0  0  0  0  0  0  0  0  0  0
    2.6877   -3.2578   -1.4765 H   0  0  0  0  0  0  0  0  0  0  0  0
    3.5446   -1.7301   -1.2669 H   0  0  0  0  0  0  0  0  0  0  0  0
    2.8209   -3.0141   -3.9716 H   0  0  0  0  0  0  0  0  0  0  0  0
    3.6655   -1.4498   -3.7715 H   0  0  0  0  0  0  0  0  0  0  0  0
    5.3334   -2.9676   -4.0244 H   0  0  0  0  0  0  0  0  0  0  0  0
    4.6055   -4.1439   -3.1087 H   0  0  0  0  0  0  0  0  0  0  0  0
    5.2745   -2.8155   -2.3734 H   0  0  0  0  0  0  0  0  0  0  0  0
   -0.7447   -1.7964    1.5141 N   0  0  0  0  0  0  0  0  0  0  0  0
   -1.2889   -2.0873    2.8191 C   0  0  2  0  0  0  0  0  0  0  0  0
   -0.4225   -3.1630    3.4608 C   0  0  0  0  0  0  0  0  0  0  0  0
    0.2833   -3.9318    2.8112 O   0  0  0  0  0  0  0  0  0  0  0  0
   -2.7377   -2.5402    2.7261 C   0  0  0  0  0  0  0  0  0  0  0  0
   -0.0507   -2.4249    1.1204 H   0  0  0  0  0  0  0  0  0  0  0  0
   -1.2186   -1.1638    3.4041 H   0  0  0  0  0  0  0  0  0  0  0  0
   -2.8280   -3.4642    2.1435 H   0  0  0  0  0  0  0  0  0  0  0  0
   -3.1576   -2.7330    3.7188 H   0  0  0  0  0  0  0  0  0  0  0  0
   -3.3538   -1.7776    2.2374 H   0  0  0  0  0  0  0  0  0  0  0  0
   -0.5632   -3.1917    4.8412 N   0  0  0  0  0  0  0  0  0  0  0  0
    0.1451   -4.1323    5.6776 C   0  0  0  0  0  0  0  0  0  0  0  0
   -1.1558   -2.5045    5.2975 H   0  0  0  0  0  0  0  0  0  0  0  0
   -0.4772   -5.0258    5.8339 H   0  0  0  0  0  0  0  0  0  0  0  0
    1.0862   -4.4222    5.1876 H   0  0  0  0  0  0  0  0  0  0  0  0
    0.3661   -3.6652    6.6487 H   0  0  0  0  0  0  0  0  0  0  0  0
  1  3  1  0  0  0  0
  1  7  1  0  0  0  0
  1  2  2  0  0  0  0
 40 41  1  0  0  0  0
 41 49  1  0  0  0  0
 41 42  2  0  0  0  0
  8  9  1  0  0  0  0
  9 17  1  0  0  0  0
  9 10  2  0  0  0  0
 18 19  1  0  0  0  0
 19 39  1  0  0  0  0
 19 20  2  0  0  0  0
 40 43  1  0  0  0  0
  8 11  1  0  0  0  0
 49 50  1  0  0  0  0
 22 23  1  0  0  0  0
 21 22  1  0  0  0  0
 23 24  1  0  0  0  0
 18 21  1  0  0  0  0
 24 25  1  0  0  0  0
 39 40  1  0  0  0  0
  7  8  1  0  0  0  0
 17 18  1  0  0  0  0
  3  4  1  0  0  0  0
  3  5  1  0  0  0  0
  3  6  1  0  0  0  0
 43 46  1  0  0  0  0
 43 47  1  0  0  0  0
 43 48  1  0  0  0  0
 11 14  1  0  0  0  0
 11 15  1  0  0  0  0
 11 16  1  0  0  0  0
 50 52  1  0  0  0  0
 50 53  1  0  0  0  0
 50 54  1  0  0  0  0
 22 30  1  0  0  0  0
 22 31  1  0  0  0  0
 23 32  1  0  0  0  0
 23 33  1  0  0  0  0
 21 28  1  0  0  0  0
 21 29  1  0  0  0  0
 24 34  1  0  0  0  0
 24 35  1  0  0  0  0
 40 45  1  0  0  0  0
  8 13  1  0  0  0  0
 18 27  1  0  0  0  0
 49 51  1  0  0  0  0
  7 12  1  0  0  0  0
 39 44  1  0  0  0  0
 17 26  1  0  0  0  0
 25 36  1  0  0  0  0
 25 37  1  0  0  0  0
 25 38  1  0  0  0  0
M  CHG  1  25   1
M  END
$$$$

  -OEChem-05262214473D

 54 53  0     1  0  0  0  0  0999 V2000
    2.6714    2.8829   -3.0005 C   0  0  0  0  0  0  0  0  0  0  0  0
    3.1741    2.4398   -1.9745 O   0  0  0  0  0  0  0  0  0  0  0  0
    3.5527    3.3077   -4.1279 C   0  0  0  0  0  0  0  0  0  0  0  0
    3.8407    4.3691   -4.0597 H   0  0  0  0  0  0  0  0  0  0  0  0
    4.5024    2.7495   -4.1526 H   0  0  0  0  0  0  0  0  0  0  0  0
    3.1208    3.1887   -5.1345 H   0  0  0  0  0  0  0  0  0  0  0  0
    1.3174    3.0407   -3.2467 N   0  0  0  0  0  0  0  0  0  0  0  0
    0.2944    2.6927   -2.2960 C   0  0  2  0  0  0  0  0  0  0  0  0
    0.2976    1.1783   -2.1349 C   0  0  0  0  0  0  0  0  0  0  0  0
    0.7500    0.4142   -2.9850 O   0  0  0  0  0  0  0  0  0  0  0  0
   -1.0710    3.1886   -2.7460 C   0  0  0  0  0  0  0  0  0  0  0  0
    1.0312    3.4224   -4.1464 H   0  0  0  0  0  0  0  0  0  0  0  0
    0.5725    3.1622   -1.3461 H   0  0  0  0  0  0  0  0  0  0  0  0
   -1.3666    2.7292   -3.6963 H   0  0  0  0  0  0  0  0  0  0  0  0
   -1.8434    2.9482   -2.0082 H   0  0  0  0  0  0  0  0  0  0  0  0
   -1.0632    4.2744   -2.8901 H   0  0  0  0  0  0  0  0  0  0  0  0
   -0.3037    0.7742   -0.9484 N   0  0  0  0  0  0  0  0  0  0  0  0
   -0.4352   -0.6095   -0.5718 C   0  0  2  0  0  0  0  0  0  0  0  0
   -1.1381   -0.6871    0.7795 C   0  0  0  0  0  0  0  0  0  0  0  0
   -2.1517   -0.0444    1.0457 O   0  0  0  0  0  0  0  0  0  0  0  0
    0.9139   -1.3379   -0.5845 C   0  0  0  0  0  0  0  0  0  0  0  0
    1.5176   -1.5133   -1.9841 C   0  0  0  0  0  0  0  0  0  0  0  0
    2.8476   -2.2679   -1.9217 C   0  0  0  0  0  0  0  0  0  0  0  0
    3.4553   -2.4185   -3.3084 C   0  0  0  0  0  0  0  0  0  0  0  0
    4.7502   -3.1319   -3.1966 N   0  3  0  0  0  0  0  0  0  0  0  0
   -0.6336    1.4811   -0.2948 H   0  0  0  0  0  0  0  0  0  0  0  0
   -1.0937   -1.0632   -1.3224 H   0  0  0  0  0  0  0  0  0  0  0  0
    1.6234   -0.7787    0.0391 H   0  0  0  0  0  0  0  0  0  0  0  0
    0.7993   -2.3260   -0.1219 H   0  0  0  0  0  0  0  0  0  0  0  0
    0.8209   -2.0650   -2.6259 H   0  0  0  0  0  0  0  0  0  0  0  0
    1.6802   -0.5333   -2.4478 H   0  0  0  0  0  0  0  0  0  0  0  0
    2.6877   -3.2578   -1.4765 H   0  0  0  0  0  0  0  0  0  0  0  0
    3.5446   -1.7301   -1.2669 H   0  0  0  0  0  0  0  0  0  0  0  0
    2.8209   -3.0141   -3.9716 H   0  0  0  0  0  0  0  0  0  0  0  0
    3.6655   -1.4498   -3.7715 H   0  0  0  0  0  0  0  0  0  0  0  0
    5.3334   -2.9676   -4.0244 H   0  0  0  0  0  0  0  0  0  0  0  0
    4.6055   -4.1439   -3.1087 H   0  0  0  0  0  0  0  0  0  0  0  0
    5.2745   -2.8155   -2.3734 H   0  0  0  0  0  0  0  0  0  0  0  0
   -0.5217   -1.5817    1.6424 N   0  0  0  0  0  0  0  0  0  0  0  0
   -1.0201   -1.8343    2.9734 C   0  0  2  0  0  0  0  0  0  0  0  0
    0.0515   -2.5985    3.7397 C   0  0  0  0  0  0  0  0  0  0  0  0
    0.9316   -3.2552    3.1872 O   0  0  0  0  0  0  0  0  0  0  0  0
   -2.3240   -2.6161    2.9369 C   0  0  0  0  0  0  0  0  0  0  0  0
    0.3080   -2.0755    1.3271 H   0  0  0  0  0  0  0  0  0  0  0  0
   -1.1786   -0.8572    3.4425 H   0  0  0  0  0  0  0  0  0  0  0  0
   -2.1850   -3.5982    2.4702 H   0  0  0  0  0  0  0  0  0  0  0  0
   -2.7155   -2.7821    3.9459 H   0  0  0  0  0  0  0  0  0  0  0  0
   -3.0845   -2.0788    2.3601 H   0  0  0  0  0  0  0  0  0  0  0  0
   -0.1162   -2.4962    5.1136 N   0  0  0  0  0  0  0  0  0  0  0  0
    0.7653   -3.1433    6.0570 C   0  0  0  0  0  0  0  0  0  0  0  0
   -0.8624   -1.9149    5.4839 H   0  0  0  0  0  0  0  0  0  0  0  0
    0.3597   -4.1312    6.3205 H   0  0  0  0  0  0  0  0  0  0  0  0
    1.7608   -3.2645    5.6049 H   0  0  0  0  0  0  0  0  0  0  0  0
    0.8473   -2.5269    6.9644 H   0  0  0  0  0  0  0  0  0  0  0  0
  1  3  1  0  0  0  0
  1  7  1  0  0  0  0
  1  2  2  0  0  0  0
 40 41  1  0  0  0  0
 41 49  1  0  0  0  0
 41 42  2  0  0  0  0
  8  9  1  0  0  0  0
  9 17  1  0  0  0  0
  9 10  2  0  0  0  0
 18 19  1  0  0  0  0
 19 39  1  0  0  0  0
 19 20  2  0  0  0  0
 40 43  1  0  0  0  0
  8 11  1  0  0  0  0
 49 50  1  0  0  0  0
 22 23  1  0  0  0  0
 21 22  1  0  0  0  0
 23 24  1  0  0  0  0
 18 21  1  0  0  0  0
 24 25  1  0  0  0  0
 39 40  1  0  0  0  0
  7  8  1  0  0  0  0
 17 18  1  0  0  0  0
  3  4  1  0  0  0  0
  3  5  1  0  0  0  0
  3  6  1  0  0  0  0
 43 46  1  0  0  0  0
 43 47  1  0  0  0  0
 43 48  1  0  0  0  0
 11 14  1  0  0  0  0
 11 15  1  0  0  0  0
 11 16  1  0  0  0  0
 50 52  1  0  0  0  0
 50 53  1  0  0  0  0
 50 54  1  0  0  0  0
 22 30  1  0  0  0  0
 22 31  1  0  0  0  0
 23 32  1  0  0  0  0
 23 33  1  0  0  0  0
 21 28  1  0  0  0  0
 21 29  1  0  0  0  0
 24 34  1  0  0  0  0
 24 35  1  0  0  0  0
 40 45  1  0  0  0  0
  8 13  1  0  0  0  0
 18 27  1  0  0  0  0
 49 51  1  0  0  0  0
  7 12  1  0  0  0  0
 39 44  1  0  0  0  0
 17 26  1  0  0  0  0
 25 36  1  0  0  0  0
 25 37  1  0  0  0  0
 25 38  1  0  0  0  0
M  CHG  1  25   1
M  END
$$$$

  -OEChem-05262214473D

 54 53  0     1  0  0  0  0  0999 V2000
    2.6714    2.8829   -3.0005 C   0  0  0  0  0  0  0  0  0  0  0  0
    3.1741    2.4398   -1.9745 O   0  0  0  0  0  0  0  0  0  0  0  0
    3.5527    3.3077   -4.1279 C   0  0  0  0  0  0  0  0  0  0  0  0
    3.8407    4.3691   -4.0597 H   0  0  0  0  0  0  0  0  0  0  0  0
    4.5024    2.7495   -4.1526 H   0  0  0  0  0  0  0  0  0  0  0  0
    3.1208    3.1887   -5.1345 H   0  0  0  0  0  0  0  0  0  0  0  0
    1.3174    3.0407   -3.2467 N   0  0  0  0  0  0  0  0  0  0  0  0
    0.2944    2.6927   -2.2960 C   0  0  2  0  0  0  0  0  0  0  0  0
    0.2976    1.1783   -2.1349 C   0  0  0  0  0  0  0  0  0  0  0  0
    0.7500    0.4142   -2.9850 O   0  0  0  0  0  0  0  0  0  0  0  0
   -1.0710    3.1886   -2.7460 C   0  0  0  0  0  0  0  0  0  0  0  0
    1.0312    3.4224   -4.1464 H   0  0  0  0  0  0  0  0  0  0  0  0
    0.5725    3.1622   -1.3461 H   0  0  0  0  0  0  0  0  0  0  0  0
   -1.3666    2.7292   -3.6963 H   0  0  0  0  0  0  0  0  0  0  0  0
   -1.8434    2.9482   -2.0082 H   0  0  0  0  0  0  0  0  0  0  0  0
   -1.0632    4.2744   -2.8901 H   0  0  0  0  0  0  0  0  0  0  0  0
   -0.3037    0.7742   -0.9484 N   0  0  0  0  0  0  0  0  0  0  0  0
   -0.4352   -0.6095   -0.5718 C   0  0  2  0  0  0  0  0  0  0  0  0
   -1.1381   -0.6871    0.7795 C   0  0  0  0  0  0  0  0  0  0  0  0
   -2.2786   -0.2681    0.9669 O   0  0  0  0  0  0  0  0  0  0  0  0
    0.9139   -1.3379   -0.5845 C   0  0  0  0  0  0  0  0  0  0  0  0
    1.5176   -1.5133   -1.9841 C   0  0  0  0  0  0  0  0  0  0  0  0
    2.8476   -2.2679   -1.9217 C   0  0  0  0  0  0  0  0  0  0  0  0
    3.4553   -2.4185   -3.3084 C   0  0  0  0  0  0  0  0  0  0  0  0
    4.7502   -3.1319   -3.1966 N   0  3  0  0  0  0  0  0  0  0  0  0
   -0.6336    1.4811   -0.2948 H   0  0  0  0  0  0  0  0  0  0  0  0
   -1.0937   -1.0632   -1.3224 H   0  0  0  0  0  0  0  0  0  0  0  0
    1.6234   -0.7787    0.0391 H   0  0  0  0  0  0  0  0  0  0  0  0
    0.7993   -2.3260   -0.1219 H   0  0  0  0  0  0  0  0  0  0  0  0
    0.8209   -2.0650   -2.6259 H   0  0  0  0  0  0  0  0  0  0  0  0
    1.6802   -0.5333   -2.4478 H   0  0  0  0  0  0  0  0  0  0  0  0
    2.6877   -3.2578   -1.4765 H   0  0  0  0  0  0  0  0  0  0  0  0
    3.5446   -1.7301   -1.2669 H   0  0  0  0  0  0  0  0  0  0  0  0
    2.8209   -3.0141   -3.9716 H   0  0  0  0  0  0  0  0  0  0  0  0
    3.6655   -1.4498   -3.7715 H   0  0  0  0  0  0  0  0  0  0  0  0
    5.3334   -2.9676   -4.0244 H   0  0  0  0  0  0  0  0  0  0  0  0
    4.6055   -4.1439   -3.1087 H   0  0  0  0  0  0  0  0  0  0  0  0
    5.2745   -2.8155   -2.3734 H   0  0  0  0  0  0  0  0  0  0  0  0
   -0.3571   -1.3079    1.7437 N   0  0  0  0  0  0  0  0  0  0  0  0
   -0.8205   -1.5099    3.0958 C   0  0  2  0  0  0  0  0  0  0  0  0
    0.3762   -1.9113    3.9480 C   0  0  0  0  0  0  0  0  0  0  0  0
    1.3978   -2.4082    3.4783 O   0  0  0  0  0  0  0  0  0  0  0  0
   -1.9097   -2.5695    3.1550 C   0  0  0  0  0  0  0  0  0  0  0  0
    0.5716   -1.6311    1.4897 H   0  0  0  0  0  0  0  0  0  0  0  0
   -1.2107   -0.5472    3.4436 H   0  0  0  0  0  0  0  0  0  0  0  0
   -1.5374   -3.5411    2.8103 H   0  0  0  0  0  0  0  0  0  0  0  0
   -2.2801   -2.7012    4.1770 H   0  0  0  0  0  0  0  0  0  0  0  0
   -2.7571   -2.2933    2.5181 H   0  0  0  0  0  0  0  0  0  0  0  0
    0.1524   -1.6893    5.2996 N   0  0  0  0  0  0  0  0  0  0  0  0
    1.1326   -2.0005    6.3137 C   0  0  0  0  0  0  0  0  0  0  0  0
   -0.7166   -1.2559    5.5976 H   0  0  0  0  0  0  0  0  0  0  0  0
    0.9565   -3.0172    6.6949 H   0  0  0  0  0  0  0  0  0  0  0  0
    2.1413   -1.9417    5.8787 H   0  0  0  0  0  0  0  0  0  0  0  0
    1.0470   -1.2793    7.1398 H   0  0  0  0  0  0  0  0  0  0  0  0
  1  3  1  0  0  0  0
  1  7  1  0  0  0  0
  1  2  2  0  0  0  0
 40 41  1  0  0  0  0
 41 49  1  0  0  0  0
 41 42  2  0  0  0  0
  8  9  1  0  0  0  0
  9 17  1  0  0  0  0
  9 10  2  0  0  0  0
 18 19  1  0  0  0  0
 19 39  1  0  0  0  0
 19 20  2  0  0  0  0
 40 43  1  0  0  0  0
  8 11  1  0  0  0  0
 49 50  1  0  0  0  0
 22 23  1  0  0  0  0
 21 22  1  0  0  0  0
 23 24  1  0  0  0  0
 18 21  1  0  0  0  0
 24 25  1  0  0  0  0
 39 40  1  0  0  0  0
  7  8  1  0  0  0  0
 17 18  1  0  0  0  0
  3  4  1  0  0  0  0
  3  5  1  0  0  0  0
  3  6  1  0  0  0  0
 43 46  1  0  0  0  0
 43 47  1  0  0  0  0
 43 48  1  0  0  0  0
 11 14  1  0  0  0  0
 11 15  1  0  0  0  0
 11 16  1  0  0  0  0
 50 52  1  0  0  0  0
 50 53  1  0  0  0  0
 50 54  1  0  0  0  0
 22 30  1  0  0  0  0
 22 31  1  0  0  0  0
 23 32  1  0  0  0  0
 23 33  1  0  0  0  0
 21 28  1  0  0  0  0
 21 29  1  0  0  0  0
 24 34  1  0  0  0  0
 24 35  1  0  0  0  0
 40 45  1  0  0  0  0
  8 13  1  0  0  0  0
 18 27  1  0  0  0  0
 49 51  1  0  0  0  0
  7 12  1  0  0  0  0
 39 44  1  0  0  0  0
 17 26  1  0  0  0  0
 25 36  1  0  0  0  0
 25 37  1  0  0  0  0
 25 38  1  0  0  0  0
M  CHG  1  25   1
M  END
$$$$

  -OEChem-05262214473D

 54 53  0     1  0  0  0  0  0999 V2000
    2.6714    2.8829   -3.0005 C   0  0  0  0  0  0  0  0  0  0  0  0
    3.1741    2.4398   -1.9745 O   0  0  0  0  0  0  0  0  0  0  0  0
    3.5527    3.3077   -4.1279 C   0  0  0  0  0  0  0  0  0  0  0  0
    3.8407    4.3691   -4.0597 H   0  0  0  0  0  0  0  0  0  0  0  0
    4.5024    2.7495   -4.1526 H   0  0  0  0  0  0  0  0  0  0  0  0
    3.1208    3.1887   -5.1345 H   0  0  0  0  0  0  0  0  0  0  0  0
    1.3174    3.0407   -3.2467 N   0  0  0  0  0  0  0  0  0  0  0  0
    0.2944    2.6927   -2.2960 C   0  0  2  0  0  0  0  0  0  0  0  0
    0.2976    1.1783   -2.1349 C   0  0  0  0  0  0  0  0  0  0  0  0
    0.7500    0.4142   -2.9850 O   0  0  0  0  0  0  0  0  0  0  0  0
   -1.0710    3.1886   -2.7460 C   0  0  0  0  0  0  0  0  0  0  0  0
    1.0312    3.4224   -4.1464 H   0  0  0  0  0  0  0  0  0  0  0  0
    0.5725    3.1622   -1.3461 H   0  0  0  0  0  0  0  0  0  0  0  0
   -1.3666    2.7292   -3.6963 H   0  0  0  0  0  0  0  0  0  0  0  0
   -1.8434    2.9482   -2.0082 H   0  0  0  0  0  0  0  0  0  0  0  0
   -1.0632    4.2744   -2.8901 H   0  0  0  0  0  0  0  0  0  0  0  0
   -0.3037    0.7742   -0.9484 N   0  0  0  0  0  0  0  0  0  0  0  0
   -0.4352   -0.6095   -0.5718 C   0  0  2  0  0  0  0  0  0  0  0  0
   -1.1381   -0.6871    0.7795 C   0  0  0  0  0  0  0  0  0  0  0  0
   -2.3488   -0.5228    0.9157 O   0  0  0  0  0  0  0  0  0  0  0  0
    0.9139   -1.3379   -0.5845 C   0  0  0  0  0  0  0  0  0  0  0  0
    1.5176   -1.5133   -1.9841 C   0  0  0  0  0  0  0  0  0  0  0  0
    2.8476   -2.2679   -1.9217 C   0  0  0  0  0  0  0  0  0  0  0  0
    3.4553   -2.4185   -3.3084 C   0  0  0  0  0  0  0  0  0  0  0  0
    4.7502   -3.1319   -3.1966 N   0  3  0  0  0  0  0  0  0  0  0  0
   -0.6336    1.4811   -0.2948 H   0  0  0  0  0  0  0  0  0  0  0  0
   -1.0937   -1.0632   -1.3224 H   0  0  0  0  0  0  0  0  0  0  0  0
    1.6234   -0.7787    0.0391 H   0  0  0  0  0  0  0  0  0  0  0  0
    0.7993   -2.3260   -0.1219 H   0  0  0  0  0  0  0  0  0  0  0  0
    0.8209   -2.0650   -2.6259 H   0  0  0  0  0  0  0  0  0  0  0  0
    1.6802   -0.5333   -2.4478 H   0  0  0  0  0  0  0  0  0  0  0  0
    2.6877   -3.2578   -1.4765 H   0  0  0  0  0  0  0  0  0  0  0  0
    3.5446   -1.7301   -1.2669 H   0  0  0  0  0  0  0  0  0  0  0  0
    2.8209   -3.0141   -3.9716 H   0  0  0  0  0  0  0  0  0  0  0  0
    3.6655   -1.4498   -3.7715 H   0  0  0  0  0  0  0  0  0  0  0  0
    5.3334   -2.9676   -4.0244 H   0  0  0  0  0  0  0  0  0  0  0  0
    4.6055   -4.1439   -3.1087 H   0  0  0  0  0  0  0  0  0  0  0  0
    5.2745   -2.8155   -2.3734 H   0  0  0  0  0  0  0  0  0  0  0  0
   -0.2623   -0.9936    1.8111 N   0  0  0  0  0  0  0  0  0  0  0  0
   -0.7037   -1.1362    3.1780 C   0  0  2  0  0  0  0  0  0  0  0  0
    0.5296   -1.1482    4.0716 C   0  0  0  0  0  0  0  0  0  0  0  0
    1.6499   -1.4484    3.6646 O   0  0  0  0  0  0  0  0  0  0  0  0
   -1.5232   -2.4034    3.3656 C   0  0  0  0  0  0  0  0  0  0  0  0
    0.7223   -1.1219    1.5973 H   0  0  0  0  0  0  0  0  0  0  0  0
   -1.3129   -0.2550    3.4072 H   0  0  0  0  0  0  0  0  0  0  0  0
   -0.9295   -3.2969    3.1405 H   0  0  0  0  0  0  0  0  0  0  0  0
   -1.8812   -2.4955    4.3963 H   0  0  0  0  0  0  0  0  0  0  0  0
   -2.3936   -2.4066    2.7007 H   0  0  0  0  0  0  0  0  0  0  0  0
    0.2244   -0.8261    5.3866 N   0  0  0  0  0  0  0  0  0  0  0  0
    1.2220   -0.7818    6.4301 C   0  0  0  0  0  0  0  0  0  0  0  0
   -0.7284   -0.5723    5.6307 H   0  0  0  0  0  0  0  0  0  0  0  0
    1.2726   -1.7595    6.9315 H   0  0  0  0  0  0  0  0  0  0  0  0
    2.2019   -0.5441    5.9905 H   0  0  0  0  0  0  0  0  0  0  0  0
    0.9515   -0.0075    7.1632 H   0  0  0  0  0  0  0  0  0  0  0  0
  1  3  1  0  0  0  0
  1  7  1  0  0  0  0
  1  2  2  0  0  0  0
 40 41  1  0  0  0  0
 41 49  1  0  0  0  0
 41 42  2  0  0  0  0
  8  9  1  0  0  0  0
  9 17  1  0  0  0  0
  9 10  2  0  0  0  0
 18 19  1  0  0  0  0
 19 39  1  0  0  0  0
 19 20  2  0  0  0  0
 40 43  1  0  0  0  0
  8 11  1  0  0  0  0
 49 50  1  0  0  0  0
 22 23  1  0  0  0  0
 21 22  1  0  0  0  0
 23 24  1  0  0  0  0
 18 21  1  0  0  0  0
 24 25  1  0  0  0  0
 39 40  1  0  0  0  0
  7  8  1  0  0  0  0
 17 18  1  0  0  0  0
  3  4  1  0  0  0  0
  3  5  1  0  0  0  0
  3  6  1  0  0  0  0
 43 46  1  0  0  0  0
 43 47  1  0  0  0  0
 43 48  1  0  0  0  0
 11 14  1  0  0  0  0
 11 15  1  0  0  0  0
 11 16  1  0  0  0  0
 50 52  1  0  0  0  0
 50 53  1  0  0  0  0
 50 54  1  0  0  0  0
 22 30  1  0  0  0  0
 22 31  1  0  0  0  0
 23 32  1  0  0  0  0
 23 33  1  0  0  0  0
 21 28  1  0  0  0  0
 21 29  1  0  0  0  0
 24 34  1  0  0  0  0
 24 35  1  0  0  0  0
 40 45  1  0  0  0  0
  8 13  1  0  0  0  0
 18 27  1  0  0  0  0
 49 51  1  0  0  0  0
  7 12  1  0  0  0  0
 39 44  1  0  0  0  0
 17 26  1  0  0  0  0
 25 36  1  0  0  0  0
 25 37  1  0  0  0  0
 25 38  1  0  0  0  0
M  CHG  1  25   1
M  END
$$$$

  -OEChem-05262214473D

 54 53  0     1  0  0  0  0  0999 V2000
    2.6714    2.8829   -3.0005 C   0  0  0  0  0  0  0  0  0  0  0  0
    3.1741    2.4398   -1.9745 O   0  0  0  0  0  0  0  0  0  0  0  0
    3.5527    3.3077   -4.1279 C   0  0  0  0  0  0  0  0  0  0  0  0
    3.8407    4.3691   -4.0597 H   0  0  0  0  0  0  0  0  0  0  0  0
    4.5024    2.7495   -4.1526 H   0  0  0  0  0  0  0  0  0  0  0  0
    3.1208    3.1887   -5.1345 H   0  0  0  0  0  0  0  0  0  0  0  0
    1.3174    3.0407   -3.2467 N   0  0  0  0  0  0  0  0  0  0  0  0
    0.2944    2.6927   -2.2960 C   0  0  2  0  0  0  0  0  0  0  0  0
    0.2976    1.1783   -2.1349 C   0  0  0  0  0  0  0  0  0  0  0  0
    0.7500    0.4142   -2.9850 O   0  0  0  0  0  0  0  0  0  0  0  0
   -1.0710    3.1886   -2.7460 C   0  0  0  0  0  0  0  0  0  0  0  0
    1.0312    3.4224   -4.1464 H   0  0  0  0  0  0  0  0  0  0  0  0
    0.5725    3.1622   -1.3461 H   0  0  0  0  0  0  0  0  0  0  0  0
   -1.3666    2.7292   -3.6963 H   0  0  0  0  0  0  0  0  0  0  0  0
   -1.8434    2.9482   -2.0082 H   0  0  0  0  0  0  0  0  0  0  0  0
   -1.0632    4.2744   -2.8901 H   0  0  0  0  0  0  0  0  0  0  0  0
   -0.3037    0.7742   -0.9484 N   0  0  0  0  0  0  0  0  0  0  0  0
   -0.4352   -0.6095   -0.5718 C   0  0  2  0  0  0  0  0  0  0  0  0
   -1.1381   -0.6871    0.7795 C   0  0  0  0  0  0  0  0  0  0  0  0
   -2.3576   -0.7910    0.8958 O   0  0  0  0  0  0  0  0  0  0  0  0
    0.9139   -1.3379   -0.5845 C   0  0  0  0  0  0  0  0  0  0  0  0
    1.5176   -1.5133   -1.9841 C   0  0  0  0  0  0  0  0  0  0  0  0
    2.8476   -2.2679   -1.9217 C   0  0  0  0  0  0  0  0  0  0  0  0
    3.4553   -2.4185   -3.3084 C   0  0  0  0  0  0  0  0  0  0  0  0
    4.7502   -3.1319   -3.1966 N   0  3  0  0  0  0  0  0  0  0  0  0
   -0.6336    1.4811   -0.2948 H   0  0  0  0  0  0  0  0  0  0  0  0
   -1.0937   -1.0632   -1.3224 H   0  0  0  0  0  0  0  0  0  0  0  0
    1.6234   -0.7787    0.0391 H   0  0  0  0  0  0  0  0  0  0  0  0
    0.7993   -2.3260   -0.1219 H   0  0  0  0  0  0  0  0  0  0  0  0
    0.8209   -2.0650   -2.6259 H   0  0  0  0  0  0  0  0  0  0  0  0
    1.6802   -0.5333   -2.4478 H   0  0  0  0  0  0  0  0  0  0  0  0
    2.6877   -3.2578   -1.4765 H   0  0  0  0  0  0  0  0  0  0  0  0
    3.5446   -1.7301   -1.2669 H   0  0  0  0  0  0  0  0  0  0  0  0
    2.8209   -3.0141   -3.9716 H   0  0  0  0  0  0  0  0  0  0  0  0
    3.6655   -1.4498   -3.7715 H   0  0  0  0  0  0  0  0  0  0  0  0
    5.3334   -2.9676   -4.0244 H   0  0  0  0  0  0  0  0  0  0  0  0
    4.6055   -4.1439   -3.1087 H   0  0  0  0  0  0  0  0  0  0  0  0
    5.2745   -2.8155   -2.3734 H   0  0  0  0  0  0  0  0  0  0  0  0
   -0.2437   -0.6602    1.8399 N   0  0  0  0  0  0  0  0  0  0  0  0
   -0.6777   -0.7386    3.2144 C   0  0  2  0  0  0  0  0  0  0  0  0
    0.5010   -0.3612    4.1020 C   0  0  0  0  0  0  0  0  0  0  0  0
    1.6710   -0.4413    3.7333 O   0  0  0  0  0  0  0  0  0  0  0  0
   -1.1906   -2.1293    3.5543 C   0  0  0  0  0  0  0  0  0  0  0  0
    0.7496   -0.5828    1.6424 H   0  0  0  0  0  0  0  0  0  0  0  0
   -1.4781   -0.0006    3.3359 H   0  0  0  0  0  0  0  0  0  0  0  0
   -0.4026   -2.8823    3.4383 H   0  0  0  0  0  0  0  0  0  0  0  0
   -1.5459   -2.1793    4.5888 H   0  0  0  0  0  0  0  0  0  0  0  0
   -2.0190   -2.4109    2.8953 H   0  0  0  0  0  0  0  0  0  0  0  0
    0.0948    0.0346    5.3687 N   0  0  0  0  0  0  0  0  0  0  0  0
    1.0273    0.4298    6.3984 C   0  0  0  0  0  0  0  0  0  0  0  0
   -0.8970    0.0892    5.5810 H   0  0  0  0  0  0  0  0  0  0  0  0
    1.2864   -0.4441    7.0142 H   0  0  0  0  0  0  0  0  0  0  0  0
    1.9385    0.8331    5.9326 H   0  0  0  0  0  0  0  0  0  0  0  0
    0.5672    1.2018    7.0328 H   0  0  0  0  0  0  0  0  0  0  0  0
  1  3  1  0  0  0  0
  1  7  1  0  0  0  0
  1  2  2  0  0  0  0
 40 41  1  0  0  0  0
 41 49  1  0  0  0  0
 41 42  2  0  0  0  0
  8  9  1  0  0  0  0
  9 17  1  0  0  0  0
  9 10  2  0  0  0  0
 18 19  1  0  0  0  0
 19 39  1  0  0  0  0
 19 20  2  0  0  0  0
 40 43  1  0  0  0  0
  8 11  1  0  0  0  0
 49 50  1  0  0  0  0
 22 23  1  0  0  0  0
 21 22  1  0  0  0  0
 23 24  1  0  0  0  0
 18 21  1  0  0  0  0
 24 25  1  0  0  0  0
 39 40  1  0  0  0  0
  7  8  1  0  0  0  0
 17 18  1  0  0  0  0
  3  4  1  0  0  0  0
  3  5  1  0  0  0  0
  3  6  1  0  0  0  0
 43 46  1  0  0  0  0
 43 47  1  0  0  0  0
 43 48  1  0  0  0  0
 11 14  1  0  0  0  0
 11 15  1  0  0  0  0
 11 16  1  0  0  0  0
 50 52  1  0  0  0  0
 50 53  1  0  0  0  0
 50 54  1  0  0  0  0
 22 30  1  0  0  0  0
 22 31  1  0  0  0  0
 23 32  1  0  0  0  0
 23 33  1  0  0  0  0
 21 28  1  0  0  0  0
 21 29  1  0  0  0  0
 24 34  1  0  0  0  0
 24 35  1  0  0  0  0
 40 45  1  0  0  0  0
  8 13  1  0  0  0  0
 18 27  1  0  0  0  0
 49 51  1  0  0  0  0
  7 12  1  0  0  0  0
 39 44  1  0  0  0  0
 17 26  1  0  0  0  0
 25 36  1  0  0  0  0
 25 37  1  0  0  0  0
 25 38  1  0  0  0  0
M  CHG  1  25   1
M  END
$$$$

  -OEChem-05262214473D

 54 53  0     1  0  0  0  0  0999 V2000
    2.6714    2.8829   -3.0005 C   0  0  0  0  0  0  0  0  0  0  0  0
    3.1741    2.4398   -1.9745 O   0  0  0  0  0  0  0  0  0  0  0  0
    3.5527    3.3077   -4.1279 C   0  0  0  0  0  0  0  0  0  0  0  0
    3.8407    4.3691   -4.0597 H   0  0  0  0  0  0  0  0  0  0  0  0
    4.5024    2.7495   -4.1526 H   0  0  0  0  0  0  0  0  0  0  0  0
    3.1208    3.1887   -5.1345 H   0  0  0  0  0  0  0  0  0  0  0  0
    1.3174    3.0407   -3.2467 N   0  0  0  0  0  0  0  0  0  0  0  0
    0.2944    2.6927   -2.2960 C   0  0  2  0  0  0  0  0  0  0  0  0
    0.2976    1.1783   -2.1349 C   0  0  0  0  0  0  0  0  0  0  0  0
    0.7500    0.4142   -2.9850 O   0  0  0  0  0  0  0  0  0  0  0  0
   -1.0710    3.1886   -2.7460 C   0  0  0  0  0  0  0  0  0  0  0  0
    1.0312    3.4224   -4.1464 H   0  0  0  0  0  0  0  0  0  0  0  0
    0.5725    3.1622   -1.3461 H   0  0  0  0  0  0  0  0  0  0  0  0
   -1.3666    2.7292   -3.6963 H   0  0  0  0  0  0  0  0  0  0  0  0
   -1.8434    2.9482   -2.0082 H   0  0  0  0  0  0  0  0  0  0  0  0
   -1.0632    4.2744   -2.8901 H   0  0  0  0  0  0  0  0  0  0  0  0
   -0.3037    0.7742   -0.9484 N   0  0  0  0  0  0  0  0  0  0  0  0
   -0.4352   -0.6095   -0.5718 C   0  0  2  0  0  0  0  0  0  0  0  0
   -1.1381   -0.6871    0.7795 C   0  0  0  0  0  0  0  0  0  0  0  0
   -2.3042   -1.0544    0.9084 O   0  0  0  0  0  0  0  0  0  0  0  0
    0.9139   -1.3379   -0.5845 C   0  0  0  0  0  0  0  0  0  0  0  0
    1.5176   -1.5133   -1.9841 C   0  0  0  0  0  0  0  0  0  0  0  0
    2.8476   -2.2679   -1.9217 C   0  0  0  0  0  0  0  0  0  0  0  0
    3.4553   -2.4185   -3.3084 C   0  0  0  0  0  0  0  0  0  0  0  0
    4.7502   -3.1319   -3.1966 N   0  3  0  0  0  0  0  0  0  0  0  0
   -0.6336    1.4811   -0.2948 H   0  0  0  0  0  0  0  0  0  0  0  0
   -1.0937   -1.0632   -1.3224 H   0  0  0  0  0  0  0  0  0  0  0  0
    1.6234   -0.7787    0.0391 H   0  0  0  0  0  0  0  0  0  0  0  0
    0.7993   -2.3260   -0.1219 H   0  0  0  0  0  0  0  0  0  0  0  0
    0.8209   -2.0650   -2.6259 H   0  0  0  0  0  0  0  0  0  0  0  0
    1.6802   -0.5333   -2.4478 H   0  0  0  0  0  0  0  0  0  0  0  0
    2.6877   -3.2578   -1.4765 H   0  0  0  0  0  0  0  0  0  0  0  0
    3.5446   -1.7301   -1.2669 H   0  0  0  0  0  0  0  0  0  0  0  0
    2.8209   -3.0141   -3.9716 H   0  0  0  0  0  0  0  0  0  0  0  0
    3.6655   -1.4498   -3.7715 H   0  0  0  0  0  0  0  0  0  0  0  0
    5.3334   -2.9676   -4.0244 H   0  0  0  0  0  0  0  0  0  0  0  0
    4.6055   -4.1439   -3.1087 H   0  0  0  0  0  0  0  0  0  0  0  0
    5.2745   -2.8155   -2.3734 H   0  0  0  0  0  0  0  0  0  0  0  0
   -0.3026   -0.3305    1.8282 N   0  0  0  0  0  0  0  0  0  0  0  0
   -0.7442   -0.3442    3.2024 C   0  0  2  0  0  0  0  0  0  0  0  0
    0.2926    0.3961    4.0370 C   0  0  0  0  0  0  0  0  0  0  0  0
    1.4594    0.5445    3.6799 O   0  0  0  0  0  0  0  0  0  0  0  0
   -0.9348   -1.7657    3.7082 C   0  0  0  0  0  0  0  0  0  0  0  0
    0.6517   -0.0504    1.6221 H   0  0  0  0  0  0  0  0  0  0  0  0
   -1.6951    0.1988    3.2345 H   0  0  0  0  0  0  0  0  0  0  0  0
    0.0073   -2.3254    3.6835 H   0  0  0  0  0  0  0  0  0  0  0  0
   -1.2971   -1.7739    4.7415 H   0  0  0  0  0  0  0  0  0  0  0  0
   -1.6587   -2.3060    3.0887 H   0  0  0  0  0  0  0  0  0  0  0  0
   -0.2274    0.8340    5.2470 N   0  0  0  0  0  0  0  0  0  0  0  0
    0.5618    1.5516    6.2207 C   0  0  0  0  0  0  0  0  0  0  0  0
   -1.2109    0.6836    5.4519 H   0  0  0  0  0  0  0  0  0  0  0  0
    0.9970    0.8396    6.9374 H   0  0  0  0  0  0  0  0  0  0  0  0
    1.3690    2.0961    5.7089 H   0  0  0  0  0  0  0  0  0  0  0  0
   -0.0795    2.2662    6.7575 H   0  0  0  0  0  0  0  0  0  0  0  0
  1  3  1  0  0  0  0
  1  7  1  0  0  0  0
  1  2  2  0  0  0  0
 40 41  1  0  0  0  0
 41 49  1  0  0  0  0
 41 42  2  0  0  0  0
  8  9  1  0  0  0  0
  9 17  1  0  0  0  0
  9 10  2  0  0  0  0
 18 19  1  0  0  0  0
 19 39  1  0  0  0  0
 19 20  2  0  0  0  0
 40 43  1  0  0  0  0
  8 11  1  0  0  0  0
 49 50  1  0  0  0  0
 22 23  1  0  0  0  0
 21 22  1  0  0  0  0
 23 24  1  0  0  0  0
 18 21  1  0  0  0  0
 24 25  1  0  0  0  0
 39 40  1  0  0  0  0
  7  8  1  0  0  0  0
 17 18  1  0  0  0  0
  3  4  1  0  0  0  0
  3  5  1  0  0  0  0
  3  6  1  0  0  0  0
 43 46  1  0  0  0  0
 43 47  1  0  0  0  0
 43 48  1  0  0  0  0
 11 14  1  0  0  0  0
 11 15  1  0  0  0  0
 11 16  1  0  0  0  0
 50 52  1  0  0  0  0
 50 53  1  0  0  0  0
 50 54  1  0  0  0  0
 22 30  1  0  0  0  0
 22 31  1  0  0  0  0
 23 32  1  0  0  0  0
 23 33  1  0  0  0  0
 21 28  1  0  0  0  0
 21 29  1  0  0  0  0
 24 34  1  0  0  0  0
 24 35  1  0  0  0  0
 40 45  1  0  0  0  0
  8 13  1  0  0  0  0
 18 27  1  0  0  0  0
 49 51  1  0  0  0  0
  7 12  1  0  0  0  0
 39 44  1  0  0  0  0
 17 26  1  0  0  0  0
 25 36  1  0  0  0  0
 25 37  1  0  0  0  0
 25 38  1  0  0  0  0
M  CHG  1  25   1
M  END
$$$$

  -OEChem-05262214473D

 54 53  0     1  0  0  0  0  0999 V2000
    2.6714    2.8829   -3.0005 C   0  0  0  0  0  0  0  0  0  0  0  0
    3.1741    2.4398   -1.9745 O   0  0  0  0  0  0  0  0  0  0  0  0
    3.5527    3.3077   -4.1279 C   0  0  0  0  0  0  0  0  0  0  0  0
    3.8407    4.3691   -4.0597 H   0  0  0  0  0  0  0  0  0  0  0  0
    4.5024    2.7495   -4.1526 H   0  0  0  0  0  0  0  0  0  0  0  0
    3.1208    3.1887   -5.1345 H   0  0  0  0  0  0  0  0  0  0  0  0
    1.3174    3.0407   -3.2467 N   0  0  0  0  0  0  0  0  0  0  0  0
    0.2944    2.6927   -2.2960 C   0  0  2  0  0  0  0  0  0  0  0  0
    0.2976    1.1783   -2.1349 C   0  0  0  0  0  0  0  0  0  0  0  0
    0.7500    0.4142   -2.9850 O   0  0  0  0  0  0  0  0  0  0  0  0
   -1.0710    3.1886   -2.7460 C   0  0  0  0  0  0  0  0  0  0  0  0
    1.0312    3.4224   -4.1464 H   0  0  0  0  0  0  0  0  0  0  0  0
    0.5725    3.1622   -1.3461 H   0  0  0  0  0  0  0  0  0  0  0  0
   -1.3666    2.7292   -3.6963 H   0  0  0  0  0  0  0  0  0  0  0  0
   -1.8434    2.9482   -2.0082 H   0  0  0  0  0  0  0  0  0  0  0  0
   -1.0632    4.2744   -2.8901 H   0  0  0  0  0  0  0  0  0  0  0  0
   -0.3037    0.7742   -0.9484 N   0  0  0  0  0  0  0  0  0  0  0  0
   -0.4352   -0.6095   -0.5718 C   0  0  2  0  0  0  0  0  0  0  0  0
   -1.1381   -0.6871    0.7795 C   0  0  0  0  0  0  0  0  0  0  0  0
   -2.1925   -1.2951    0.9527 O   0  0  0  0  0  0  0  0  0  0  0  0
    0.9139   -1.3379   -0.5845 C   0  0  0  0  0  0  0  0  0  0  0  0
    1.5176   -1.5133   -1.9841 C   0  0  0  0  0  0  0  0  0  0  0  0
    2.8476   -2.2679   -1.9217 C   0  0  0  0  0  0  0  0  0  0  0  0
    3.4553   -2.4185   -3.3084 C   0  0  0  0  0  0  0  0  0  0  0  0
    4.7502   -3.1319   -3.1966 N   0  3  0  0  0  0  0  0  0  0  0  0
   -0.6336    1.4811   -0.2948 H   0  0  0  0  0  0  0  0  0  0  0  0
   -1.0937   -1.0632   -1.3224 H   0  0  0  0  0  0  0  0  0  0  0  0
    1.6234   -0.7787    0.0391 H   0  0  0  0  0  0  0  0  0  0  0  0
    0.7993   -2.3260   -0.1219 H   0  0  0  0  0  0  0  0  0  0  0  0
    0.8209   -2.0650   -2.6259 H   0  0  0  0  0  0  0  0  0  0  0  0
    1.6802   -0.5333   -2.4478 H   0  0  0  0  0  0  0  0  0  0  0  0
    2.6877   -3.2578   -1.4765 H   0  0  0  0  0  0  0  0  0  0  0  0
    3.5446   -1.7301   -1.2669 H   0  0  0  0  0  0  0  0  0  0  0  0
    2.8209   -3.0141   -3.9716 H   0  0  0  0  0  0  0  0  0  0  0  0
    3.6655   -1.4498   -3.7715 H   0  0  0  0  0  0  0  0  0  0  0  0
    5.3334   -2.9676   -4.0244 H   0  0  0  0  0  0  0  0  0  0  0  0
    4.6055   -4.1439   -3.1087 H   0  0  0  0  0  0  0  0  0  0  0  0
    5.2745   -2.8155   -2.3734 H   0  0  0  0  0  0  0  0  0  0  0  0
   -0.4349   -0.0269    1.7768 N   0  0  0  0  0  0  0  0  0  0  0  0
   -0.8987    0.0200    3.1430 C   0  0  2  0  0  0  0  0  0  0  0  0
   -0.0815    1.0720    3.8813 C   0  0  0  0  0  0  0  0  0  0  0  0
    1.0297    1.4419    3.5080 O   0  0  0  0  0  0  0  0  0  0  0  0
   -0.7731   -1.3374    3.8169 C   0  0  0  0  0  0  0  0  0  0  0  0
    0.4353    0.4391    1.5377 H   0  0  0  0  0  0  0  0  0  0  0  0
   -1.9490    0.3296    3.1099 H   0  0  0  0  0  0  0  0  0  0  0  0
    0.2723   -1.6642    3.8593 H   0  0  0  0  0  0  0  0  0  0  0  0
   -1.1518   -1.3072    4.8439 H   0  0  0  0  0  0  0  0  0  0  0  0
   -1.3373   -2.0989    3.2677 H   0  0  0  0  0  0  0  0  0  0  0  0
   -0.7205    1.5178    5.0298 N   0  0  0  0  0  0  0  0  0  0  0  0
   -0.1428    2.5073    5.9091 C   0  0  0  0  0  0  0  0  0  0  0  0
   -1.6487    1.1703    5.2521 H   0  0  0  0  0  0  0  0  0  0  0  0
    0.4240    2.0040    6.7062 H   0  0  0  0  0  0  0  0  0  0  0  0
    0.5322    3.1588    5.3347 H   0  0  0  0  0  0  0  0  0  0  0  0
   -0.9447    3.1132    6.3562 H   0  0  0  0  0  0  0  0  0  0  0  0
  1  3  1  0  0  0  0
  1  7  1  0  0  0  0
  1  2  2  0  0  0  0
 40 41  1  0  0  0  0
 41 49  1  0  0  0  0
 41 42  2  0  0  0  0
  8  9  1  0  0  0  0
  9 17  1  0  0  0  0
  9 10  2  0  0  0  0
 18 19  1  0  0  0  0
 19 39  1  0  0  0  0
 19 20  2  0  0  0  0
 40 43  1  0  0  0  0
  8 11  1  0  0  0  0
 49 50  1  0  0  0  0
 22 23  1  0  0  0  0
 21 22  1  0  0  0  0
 23 24  1  0  0  0  0
 18 21  1  0  0  0  0
 24 25  1  0  0  0  0
 39 40  1  0  0  0  0
  7  8  1  0  0  0  0
 17 18  1  0  0  0  0
  3  4  1  0  0  0  0
  3  5  1  0  0  0  0
  3  6  1  0  0  0  0
 43 46  1  0  0  0  0
 43 47  1  0  0  0  0
 43 48  1  0  0  0  0
 11 14  1  0  0  0  0
 11 15  1  0  0  0  0
 11 16  1  0  0  0  0
 50 52  1  0  0  0  0
 50 53  1  0  0  0  0
 50 54  1  0  0  0  0
 22 30  1  0  0  0  0
 22 31  1  0  0  0  0
 23 32  1  0  0  0  0
 23 33  1  0  0  0  0
 21 28  1  0  0  0  0
 21 29  1  0  0  0  0
 24 34  1  0  0  0  0
 24 35  1  0  0  0  0
 40 45  1  0  0  0  0
  8 13  1  0  0  0  0
 18 27  1  0  0  0  0
 49 51  1  0  0  0  0
  7 12  1  0  0  0  0
 39 44  1  0  0  0  0
 17 26  1  0  0  0  0
 25 36  1  0  0  0  0
 25 37  1  0  0  0  0
 25 38  1  0  0  0  0
M  CHG  1  25   1
M  END
$$$$

  -OEChem-05262214473D

 54 53  0     1  0  0  0  0  0999 V2000
    2.6714    2.8829   -3.0005 C   0  0  0  0  0  0  0  0  0  0  0  0
    3.1741    2.4398   -1.9745 O   0  0  0  0  0  0  0  0  0  0  0  0
    3.5527    3.3077   -4.1279 C   0  0  0  0  0  0  0  0  0  0  0  0
    3.8407    4.3691   -4.0597 H   0  0  0  0  0  0  0  0  0  0  0  0
    4.5024    2.7495   -4.1526 H   0  0  0  0  0  0  0  0  0  0  0  0
    3.1208    3.1887   -5.1345 H   0  0  0  0  0  0  0  0  0  0  0  0
    1.3174    3.0407   -3.2467 N   0  0  0  0  0  0  0  0  0  0  0  0
    0.2944    2.6927   -2.2960 C   0  0  2  0  0  0  0  0  0  0  0  0
    0.2976    1.1783   -2.1349 C   0  0  0  0  0  0  0  0  0  0  0  0
    0.7500    0.4142   -2.9850 O   0  0  0  0  0  0  0  0  0  0  0  0
   -1.0710    3.1886   -2.7460 C   0  0  0  0  0  0  0  0  0  0  0  0
    1.0312    3.4224   -4.1464 H   0  0  0  0  0  0  0  0  0  0  0  0
    0.5725    3.1622   -1.3461 H   0  0  0  0  0  0  0  0  0  0  0  0
   -1.3666    2.7292   -3.6963 H   0  0  0  0  0  0  0  0  0  0  0  0
   -1.8434    2.9482   -2.0082 H   0  0  0  0  0  0  0  0  0  0  0  0
   -1.0632    4.2744   -2.8901 H   0  0  0  0  0  0  0  0  0  0  0  0
   -0.3037    0.7742   -0.9484 N   0  0  0  0  0  0  0  0  0  0  0  0
   -0.4352   -0.6095   -0.5718 C   0  0  2  0  0  0  0  0  0  0  0  0
   -1.1381   -0.6871    0.7795 C   0  0  0  0  0  0  0  0  0  0  0  0
   -2.0299   -1.4967    1.0257 O   0  0  0  0  0  0  0  0  0  0  0  0
    0.9139   -1.3379   -0.5845 C   0  0  0  0  0  0  0  0  0  0  0  0
    1.5176   -1.5133   -1.9841 C   0  0  0  0  0  0  0  0  0  0  0  0
    2.8476   -2.2679   -1.9217 C   0  0  0  0  0  0  0  0  0  0  0  0
    3.4553   -2.4185   -3.3084 C   0  0  0  0  0  0  0  0  0  0  0  0
    4.7502   -3.1319   -3.1966 N   0  3  0  0  0  0  0  0  0  0  0  0
   -0.6336    1.4811   -0.2948 H   0  0  0  0  0  0  0  0  0  0  0  0
   -1.0937   -1.0632   -1.3224 H   0  0  0  0  0  0  0  0  0  0  0  0
    1.6234   -0.7787    0.0391 H   0  0  0  0  0  0  0  0  0  0  0  0
    0.7993   -2.3260   -0.1219 H   0  0  0  0  0  0  0  0  0  0  0  0
    0.8209   -2.0650   -2.6259 H   0  0  0  0  0  0  0  0  0  0  0  0
    1.6802   -0.5333   -2.4478 H   0  0  0  0  0  0  0  0  0  0  0  0
    2.6877   -3.2578   -1.4765 H   0  0  0  0  0  0  0  0  0  0  0  0
    3.5446   -1.7301   -1.2669 H   0  0  0  0  0  0  0  0  0  0  0  0
    2.8209   -3.0141   -3.9716 H   0  0  0  0  0  0  0  0  0  0  0  0
    3.6655   -1.4498   -3.7715 H   0  0  0  0  0  0  0  0  0  0  0  0
    5.3334   -2.9676   -4.0244 H   0  0  0  0  0  0  0  0  0  0  0  0
    4.6055   -4.1439   -3.1087 H   0  0  0  0  0  0  0  0  0  0  0  0
    5.2745   -2.8155   -2.3734 H   0  0  0  0  0  0  0  0  0  0  0  0
   -0.6316    0.2299    1.6893 N   0  0  0  0  0  0  0  0  0  0  0  0
   -1.1307    0.3293    3.0401 C   0  0  2  0  0  0  0  0  0  0  0  0
   -0.5959    1.6205    3.6453 C   0  0  0  0  0  0  0  0  0  0  0  0
    0.4112    2.1896    3.2292 O   0  0  0  0  0  0  0  0  0  0  0  0
   -0.7165   -0.8738    3.8730 C   0  0  0  0  0  0  0  0  0  0  0  0
    0.1152    0.8521    1.3949 H   0  0  0  0  0  0  0  0  0  0  0  0
   -2.2227    0.3827    2.9707 H   0  0  0  0  0  0  0  0  0  0  0  0
    0.3744   -0.9439    3.9537 H   0  0  0  0  0  0  0  0  0  0  0  0
   -1.1197   -0.8107    4.8890 H   0  0  0  0  0  0  0  0  0  0  0  0
   -1.0767   -1.8039    3.4202 H   0  0  0  0  0  0  0  0  0  0  0  0
   -1.3506    2.0394    4.7320 N   0  0  0  0  0  0  0  0  0  0  0  0
   -1.0384    3.2317    5.4849 C   0  0  0  0  0  0  0  0  0  0  0  0
   -2.1805    1.5163    4.9954 H   0  0  0  0  0  0  0  0  0  0  0  0
   -0.3934    2.9698    6.3366 H   0  0  0  0  0  0  0  0  0  0  0  0
   -0.5149    3.9487    4.8355 H   0  0  0  0  0  0  0  0  0  0  0  0
   -1.9694    3.6851    5.8561 H   0  0  0  0  0  0  0  0  0  0  0  0
  1  3  1  0  0  0  0
  1  7  1  0  0  0  0
  1  2  2  0  0  0  0
 40 41  1  0  0  0  0
 41 49  1  0  0  0  0
 41 42  2  0  0  0  0
  8  9  1  0  0  0  0
  9 17  1  0  0  0  0
  9 10  2  0  0  0  0
 18 19  1  0  0  0  0
 19 39  1  0  0  0  0
 19 20  2  0  0  0  0
 40 43  1  0  0  0  0
  8 11  1  0  0  0  0
 49 50  1  0  0  0  0
 22 23  1  0  0  0  0
 21 22  1  0  0  0  0
 23 24  1  0  0  0  0
 18 21  1  0  0  0  0
 24 25  1  0  0  0  0
 39 40  1  0  0  0  0
  7  8  1  0  0  0  0
 17 18  1  0  0  0  0
  3  4  1  0  0  0  0
  3  5  1  0  0  0  0
  3  6  1  0  0  0  0
 43 46  1  0  0  0  0
 43 47  1  0  0  0  0
 43 48  1  0  0  0  0
 11 14  1  0  0  0  0
 11 15  1  0  0  0  0
 11 16  1  0  0  0  0
 50 52  1  0  0  0  0
 50 53  1  0  0  0  0
 50 54  1  0  0  0  0
 22 30  1  0  0  0  0
 22 31  1  0  0  0  0
 23 32  1  0  0  0  0
 23 33  1  0  0  0  0
 21 28  1  0  0  0  0
 21 29  1  0  0  0  0
 24 34  1  0  0  0  0
 24 35  1  0  0  0  0
 40 45  1  0  0  0  0
  8 13  1  0  0  0  0
 18 27  1  0  0  0  0
 49 51  1  0  0  0  0
  7 12  1  0  0  0  0
 39 44  1  0  0  0  0
 17 26  1  0  0  0  0
 25 36  1  0  0  0  0
 25 37  1  0  0  0  0
 25 38  1  0  0  0  0
M  CHG  1  25   1
M  END
$$$$

  -OEChem-05262214473D

 54 53  0     1  0  0  0  0  0999 V2000
    2.6714    2.8829   -3.0005 C   0  0  0  0  0  0  0  0  0  0  0  0
    3.1741    2.4398   -1.9745 O   0  0  0  0  0  0  0  0  0  0  0  0
    3.5527    3.3077   -4.1279 C   0  0  0  0  0  0  0  0  0  0  0  0
    3.8407    4.3691   -4.0597 H   0  0  0  0  0  0  0  0  0  0  0  0
    4.5024    2.7495   -4.1526 H   0  0  0  0  0  0  0  0  0  0  0  0
    3.1208    3.1887   -5.1345 H   0  0  0  0  0  0  0  0  0  0  0  0
    1.3174    3.0407   -3.2467 N   0  0  0  0  0  0  0  0  0  0  0  0
    0.2944    2.6927   -2.2960 C   0  0  2  0  0  0  0  0  0  0  0  0
    0.2976    1.1783   -2.1349 C   0  0  0  0  0  0  0  0  0  0  0  0
    0.7500    0.4142   -2.9850 O   0  0  0  0  0  0  0  0  0  0  0  0
   -1.0710    3.1886   -2.7460 C   0  0  0  0  0  0  0  0  0  0  0  0
    1.0312    3.4224   -4.1464 H   0  0  0  0  0  0  0  0  0  0  0  0
    0.5725    3.1622   -1.3461 H   0  0  0  0  0  0  0  0  0  0  0  0
   -1.3666    2.7292   -3.6963 H   0  0  0  0  0  0  0  0  0  0  0  0
   -1.8434    2.9482   -2.0082 H   0  0  0  0  0  0  0  0  0  0  0  0
   -1.0632    4.2744   -2.8901 H   0  0  0  0  0  0  0  0  0  0  0  0
   -0.3037    0.7742   -0.9484 N   0  0  0  0  0  0  0  0  0  0  0  0
   -0.4352   -0.6095   -0.5718 C   0  0  2  0  0  0  0  0  0  0  0  0
   -1.1381   -0.6871    0.7795 C   0  0  0  0  0  0  0  0  0  0  0  0
   -1.8276   -1.6454    1.1223 O   0  0  0  0  0  0  0  0  0  0  0  0
    0.9139   -1.3379   -0.5845 C   0  0  0  0  0  0  0  0  0  0  0  0
    1.5176   -1.5133   -1.9841 C   0  0  0  0  0  0  0  0  0  0  0  0
    2.8476   -2.2679   -1.9217 C   0  0  0  0  0  0  0  0  0  0  0  0
    3.4553   -2.4185   -3.3084 C   0  0  0  0  0  0  0  0  0  0  0  0
    4.7502   -3.1319   -3.1966 N   0  3  0  0  0  0  0  0  0  0  0  0
   -0.6336    1.4811   -0.2948 H   0  0  0  0  0  0  0  0  0  0  0  0
   -1.0937   -1.0632   -1.3224 H   0  0  0  0  0  0  0  0  0  0  0  0
    1.6234   -0.7787    0.0391 H   0  0  0  0  0  0  0  0  0  0  0  0
    0.7993   -2.3260   -0.1219 H   0  0  0  0  0  0  0  0  0  0  0  0
    0.8209   -2.0650   -2.6259 H   0  0  0  0  0  0  0  0  0  0  0  0
    1.6802   -0.5333   -2.4478 H   0  0  0  0  0  0  0  0  0  0  0  0
    2.6877   -3.2578   -1.4765 H   0  0  0  0  0  0  0  0  0  0  0  0
    3.5446   -1.7301   -1.2669 H   0  0  0  0  0  0  0  0  0  0  0  0
    2.8209   -3.0141   -3.9716 H   0  0  0  0  0  0  0  0  0  0  0  0
    3.6655   -1.4498   -3.7715 H   0  0  0  0  0  0  0  0  0  0  0  0
    5.3334   -2.9676   -4.0244 H   0  0  0  0  0  0  0  0  0  0  0  0
    4.6055   -4.1439   -3.1087 H   0  0  0  0  0  0  0  0  0  0  0  0
    5.2745   -2.8155   -2.3734 H   0  0  0  0  0  0  0  0  0  0  0  0
   -0.8794    0.4224    1.5714 N   0  0  0  0  0  0  0  0  0  0  0  0
   -1.4244    0.5626    2.9007 C   0  0  2  0  0  0  0  0  0  0  0  0
   -1.2154    2.0042    3.3451 C   0  0  0  0  0  0  0  0  0  0  0  0
   -0.3541    2.7367    2.8626 O   0  0  0  0  0  0  0  0  0  0  0  0
   -0.7689   -0.4062    3.8725 C   0  0  0  0  0  0  0  0  0  0  0  0
   -0.2868    1.1607    1.2035 H   0  0  0  0  0  0  0  0  0  0  0  0
   -2.4974    0.3547    2.8262 H   0  0  0  0  0  0  0  0  0  0  0  0
    0.3065   -0.2134    3.9604 H   0  0  0  0  0  0  0  0  0  0  0  0
   -1.2033   -0.3185    4.8739 H   0  0  0  0  0  0  0  0  0  0  0  0
   -0.8946   -1.4409    3.5357 H   0  0  0  0  0  0  0  0  0  0  0  0
   -2.0750    2.3631    4.3739 N   0  0  0  0  0  0  0  0  0  0  0  0
   -2.0641    3.6754    4.9770 C   0  0  0  0  0  0  0  0  0  0  0  0
   -2.7702    1.6978    4.6991 H   0  0  0  0  0  0  0  0  0  0  0  0
   -1.3995    3.6711    5.8536 H   0  0  0  0  0  0  0  0  0  0  0  0
   -1.7009    4.4121    4.2453 H   0  0  0  0  0  0  0  0  0  0  0  0
   -3.0837    3.9429    5.2914 H   0  0  0  0  0  0  0  0  0  0  0  0
  1  3  1  0  0  0  0
  1  7  1  0  0  0  0
  1  2  2  0  0  0  0
 40 41  1  0  0  0  0
 41 49  1  0  0  0  0
 41 42  2  0  0  0  0
  8  9  1  0  0  0  0
  9 17  1  0  0  0  0
  9 10  2  0  0  0  0
 18 19  1  0  0  0  0
 19 39  1  0  0  0  0
 19 20  2  0  0  0  0
 40 43  1  0  0  0  0
  8 11  1  0  0  0  0
 49 50  1  0  0  0  0
 22 23  1  0  0  0  0
 21 22  1  0  0  0  0
 23 24  1  0  0  0  0
 18 21  1  0  0  0  0
 24 25  1  0  0  0  0
 39 40  1  0  0  0  0
  7  8  1  0  0  0  0
 17 18  1  0  0  0  0
  3  4  1  0  0  0  0
  3  5  1  0  0  0  0
  3  6  1  0  0  0  0
 43 46  1  0  0  0  0
 43 47  1  0  0  0  0
 43 48  1  0  0  0  0
 11 14  1  0  0  0  0
 11 15  1  0  0  0  0
 11 16  1  0  0  0  0
 50 52  1  0  0  0  0
 50 53  1  0  0  0  0
 50 54  1  0  0  0  0
 22 30  1  0  0  0  0
 22 31  1  0  0  0  0
 23 32  1  0  0  0  0
 23 33  1  0  0  0  0
 21 28  1  0  0  0  0
 21 29  1  0  0  0  0
 24 34  1  0  0  0  0
 24 35  1  0  0  0  0
 40 45  1  0  0  0  0
  8 13  1  0  0  0  0
 18 27  1  0  0  0  0
 49 51  1  0  0  0  0
  7 12  1  0  0  0  0
 39 44  1  0  0  0  0
 17 26  1  0  0  0  0
 25 36  1  0  0  0  0
 25 37  1  0  0  0  0
 25 38  1  0  0  0  0
M  CHG  1  25   1
M  END
$$$$

  -OEChem-05262214473D

 54 53  0     1  0  0  0  0  0999 V2000
    2.6714    2.8829   -3.0005 C   0  0  0  0  0  0  0  0  0  0  0  0
    3.1741    2.4398   -1.9745 O   0  0  0  0  0  0  0  0  0  0  0  0
    3.5527    3.3077   -4.1279 C   0  0  0  0  0  0  0  0  0  0  0  0
    3.8407    4.3691   -4.0597 H   0  0  0  0  0  0  0  0  0  0  0  0
    4.5024    2.7495   -4.1526 H   0  0  0  0  0  0  0  0  0  0  0  0
    3.1208    3.1887   -5.1345 H   0  0  0  0  0  0  0  0  0  0  0  0
    1.3174    3.0407   -3.2467 N   0  0  0  0  0  0  0  0  0  0  0  0
    0.2944    2.6927   -2.2960 C   0  0  2  0  0  0  0  0  0  0  0  0
    0.2976    1.1783   -2.1349 C   0  0  0  0  0  0  0  0  0  0  0  0
    0.7500    0.4142   -2.9850 O   0  0  0  0  0  0  0  0  0  0  0  0
   -1.0710    3.1886   -2.7460 C   0  0  0  0  0  0  0  0  0  0  0  0
    1.0312    3.4224   -4.1464 H   0  0  0  0  0  0  0  0  0  0  0  0
    0.5725    3.1622   -1.3461 H   0  0  0  0  0  0  0  0  0  0  0  0
   -1.3666    2.7292   -3.6963 H   0  0  0  0  0  0  0  0  0  0  0  0
   -1.8434    2.9482   -2.0082 H   0  0  0  0  0  0  0  0  0  0  0  0
   -1.0632    4.2744   -2.8901 H   0  0  0  0  0  0  0  0  0  0  0  0
   -0.3037    0.7742   -0.9484 N   0  0  0  0  0  0  0  0  0  0  0  0
   -0.4352   -0.6095   -0.5718 C   0  0  2  0  0  0  0  0  0  0  0  0
   -1.1381   -0.6871    0.7795 C   0  0  0  0  0  0  0  0  0  0  0  0
   -1.5994   -1.7312    1.2361 O   0  0  0  0  0  0  0  0  0  0  0  0
    0.9139   -1.3379   -0.5845 C   0  0  0  0  0  0  0  0  0  0  0  0
    1.5176   -1.5133   -1.9841 C   0  0  0  0  0  0  0  0  0  0  0  0
    2.8476   -2.2679   -1.9217 C   0  0  0  0  0  0  0  0  0  0  0  0
    3.4553   -2.4185   -3.3084 C   0  0  0  0  0  0  0  0  0  0  0  0
    4.7502   -3.1319   -3.1966 N   0  3  0  0  0  0  0  0  0  0  0  0
   -0.6336    1.4811   -0.2948 H   0  0  0  0  0  0  0  0  0  0  0  0
   -1.0937   -1.0632   -1.3224 H   0  0  0  0  0  0  0  0  0  0  0  0
    1.6234   -0.7787    0.0391 H   0  0  0  0  0  0  0  0  0  0  0  0
    0.7993   -2.3260   -0.1219 H   0  0  0  0  0  0  0  0  0  0  0  0
    0.8209   -2.0650   -2.6259 H   0  0  0  0  0  0  0  0  0  0  0  0
    1.6802   -0.5333   -2.4478 H   0  0  0  0  0  0  0  0  0  0  0  0
    2.6877   -3.2578   -1.4765 H   0  0  0  0  0  0  0  0  0  0  0  0
    3.5446   -1.7301   -1.2669 H   0  0  0  0  0  0  0  0  0  0  0  0
    2.8209   -3.0141   -3.9716 H   0  0  0  0  0  0  0  0  0  0  0  0
    3.6655   -1.4498   -3.7715 H   0  0  0  0  0  0  0  0  0  0  0  0
    5.3334   -2.9676   -4.0244 H   0  0  0  0  0  0  0  0  0  0  0  0
    4.6055   -4.1439   -3.1087 H   0  0  0  0  0  0  0  0  0  0  0  0
    5.2745   -2.8155   -2.3734 H   0  0  0  0  0  0  0  0  0  0  0  0
   -1.1614    0.5374    1.4314 N   0  0  0  0  0  0  0  0  0  0  0  0
   -1.7598    0.7040    2.7344 C   0  0  2  0  0  0  0  0  0  0  0  0
   -1.8978    2.1970    3.0012 C   0  0  0  0  0  0  0  0  0  0  0  0
   -1.2140    3.0460    2.4331 O   0  0  0  0  0  0  0  0  0  0  0  0
   -0.9268    0.0333    3.8157 C   0  0  0  0  0  0  0  0  0  0  0  0
   -0.7434    1.3437    0.9766 H   0  0  0  0  0  0  0  0  0  0  0  0
   -2.7544    0.2475    2.6864 H   0  0  0  0  0  0  0  0  0  0  0  0
    0.0734    0.4774    3.8788 H   0  0  0  0  0  0  0  0  0  0  0  0
   -1.3966    0.1360    4.7994 H   0  0  0  0  0  0  0  0  0  0  0  0
   -0.8035   -1.0348    3.6064 H   0  0  0  0  0  0  0  0  0  0  0  0
   -2.8443    2.4670    3.9798 N   0  0  0  0  0  0  0  0  0  0  0  0
   -3.1498    3.8082    4.4200 C   0  0  0  0  0  0  0  0  0  0  0  0
   -3.3776    1.7026    4.3835 H   0  0  0  0  0  0  0  0  0  0  0  0
   -2.5258    4.0602    5.2901 H   0  0  0  0  0  0  0  0  0  0  0  0
   -2.9449    4.5173    3.6043 H   0  0  0  0  0  0  0  0  0  0  0  0
   -4.2117    3.8690    4.7005 H   0  0  0  0  0  0  0  0  0  0  0  0
  1  3  1  0  0  0  0
  1  7  1  0  0  0  0
  1  2  2  0  0  0  0
 40 41  1  0  0  0  0
 41 49  1  0  0  0  0
 41 42  2  0  0  0  0
  8  9  1  0  0  0  0
  9 17  1  0  0  0  0
  9 10  2  0  0  0  0
 18 19  1  0  0  0  0
 19 39  1  0  0  0  0
 19 20  2  0  0  0  0
 40 43  1  0  0  0  0
  8 11  1  0  0  0  0
 49 50  1  0  0  0  0
 22 23  1  0  0  0  0
 21 22  1  0  0  0  0
 23 24  1  0  0  0  0
 18 21  1  0  0  0  0
 24 25  1  0  0  0  0
 39 40  1  0  0  0  0
  7  8  1  0  0  0  0
 17 18  1  0  0  0  0
  3  4  1  0  0  0  0
  3  5  1  0  0  0  0
  3  6  1  0  0  0  0
 43 46  1  0  0  0  0
 43 47  1  0  0  0  0
 43 48  1  0  0  0  0
 11 14  1  0  0  0  0
 11 15  1  0  0  0  0
 11 16  1  0  0  0  0
 50 52  1  0  0  0  0
 50 53  1  0  0  0  0
 50 54  1  0  0  0  0
 22 30  1  0  0  0  0
 22 31  1  0  0  0  0
 23 32  1  0  0  0  0
 23 33  1  0  0  0  0
 21 28  1  0  0  0  0
 21 29  1  0  0  0  0
 24 34  1  0  0  0  0
 24 35  1  0  0  0  0
 40 45  1  0  0  0  0
  8 13  1  0  0  0  0
 18 27  1  0  0  0  0
 49 51  1  0  0  0  0
  7 12  1  0  0  0  0
 39 44  1  0  0  0  0
 17 26  1  0  0  0  0
 25 36  1  0  0  0  0
 25 37  1  0  0  0  0
 25 38  1  0  0  0  0
M  CHG  1  25   1
M  END
$$$$

  -OEChem-05262214473D

 54 53  0     1  0  0  0  0  0999 V2000
    2.6714    2.8829   -3.0005 C   0  0  0  0  0  0  0  0  0  0  0  0
    3.1741    2.4398   -1.9745 O   0  0  0  0  0  0  0  0  0  0  0  0
    3.5527    3.3077   -4.1279 C   0  0  0  0  0  0  0  0  0  0  0  0
    3.8407    4.3691   -4.0597 H   0  0  0  0  0  0  0  0  0  0  0  0
    4.5024    2.7495   -4.1526 H   0  0  0  0  0  0  0  0  0  0  0  0
    3.1208    3.1887   -5.1345 H   0  0  0  0  0  0  0  0  0  0  0  0
    1.3174    3.0407   -3.2467 N   0  0  0  0  0  0  0  0  0  0  0  0
    0.2944    2.6927   -2.2960 C   0  0  2  0  0  0  0  0  0  0  0  0
    0.2976    1.1783   -2.1349 C   0  0  0  0  0  0  0  0  0  0  0  0
    0.7500    0.4142   -2.9850 O   0  0  0  0  0  0  0  0  0  0  0  0
   -1.0710    3.1886   -2.7460 C   0  0  0  0  0  0  0  0  0  0  0  0
    1.0312    3.4224   -4.1464 H   0  0  0  0  0  0  0  0  0  0  0  0
    0.5725    3.1622   -1.3461 H   0  0  0  0  0  0  0  0  0  0  0  0
   -1.3666    2.7292   -3.6963 H   0  0  0  0  0  0  0  0  0  0  0  0
   -1.8434    2.9482   -2.0082 H   0  0  0  0  0  0  0  0  0  0  0  0
   -1.0632    4.2744   -2.8901 H   0  0  0  0  0  0  0  0  0  0  0  0
   -0.3037    0.7742   -0.9484 N   0  0  0  0  0  0  0  0  0  0  0  0
   -0.4352   -0.6095   -0.5718 C   0  0  2  0  0  0  0  0  0  0  0  0
   -1.1381   -0.6871    0.7795 C   0  0  0  0  0  0  0  0  0  0  0  0
   -1.3608   -1.7481    1.3592 O   0  0  0  0  0  0  0  0  0  0  0  0
    0.9139   -1.3379   -0.5845 C   0  0  0  0  0  0  0  0  0  0  0  0
    1.5176   -1.5133   -1.9841 C   0  0  0  0  0  0  0  0  0  0  0  0
    2.8476   -2.2679   -1.9217 C   0  0  0  0  0  0  0  0  0  0  0  0
    3.4553   -2.4185   -3.3084 C   0  0  0  0  0  0  0  0  0  0  0  0
    4.7502   -3.1319   -3.1966 N   0  3  0  0  0  0  0  0  0  0  0  0
   -0.6336    1.4811   -0.2948 H   0  0  0  0  0  0  0  0  0  0  0  0
   -1.0937   -1.0632   -1.3224 H   0  0  0  0  0  0  0  0  0  0  0  0
    1.6234   -0.7787    0.0391 H   0  0  0  0  0  0  0  0  0  0  0  0
    0.7993   -2.3260   -0.1219 H   0  0  0  0  0  0  0  0  0  0  0  0
    0.8209   -2.0650   -2.6259 H   0  0  0  0  0  0  0  0  0  0  0  0
    1.6802   -0.5333   -2.4478 H   0  0  0  0  0  0  0  0  0  0  0  0
    2.6877   -3.2578   -1.4765 H   0  0  0  0  0  0  0  0  0  0  0  0
    3.5446   -1.7301   -1.2669 H   0  0  0  0  0  0  0  0  0  0  0  0
    2.8209   -3.0141   -3.9716 H   0  0  0  0  0  0  0  0  0  0  0  0
    3.6655   -1.4498   -3.7715 H   0  0  0  0  0  0  0  0  0  0  0  0
    5.3334   -2.9676   -4.0244 H   0  0  0  0  0  0  0  0  0  0  0  0
    4.6055   -4.1439   -3.1087 H   0  0  0  0  0  0  0  0  0  0  0  0
    5.2745   -2.8155   -2.3734 H   0  0  0  0  0  0  0  0  0  0  0  0
   -1.4582    0.5672    1.2787 N   0  0  0  0  0  0  0  0  0  0  0  0
   -2.1139    0.7438    2.5526 C   0  0  2  0  0  0  0  0  0  0  0  0
   -2.5967    2.1857    2.6371 C   0  0  0  0  0  0  0  0  0  0  0  0
   -2.1099    3.0963    1.9701 O   0  0  0  0  0  0  0  0  0  0  0  0
   -1.1793    0.4149    3.7063 C   0  0  0  0  0  0  0  0  0  0  0  0
   -1.2234    1.3887    0.7295 H   0  0  0  0  0  0  0  0  0  0  0  0
   -2.9762    0.0682    2.5607 H   0  0  0  0  0  0  0  0  0  0  0  0
   -0.3092    1.0815    3.7145 H   0  0  0  0  0  0  0  0  0  0  0  0
   -1.6866    0.5218    4.6707 H   0  0  0  0  0  0  0  0  0  0  0  0
   -0.8096   -0.6131    3.6275 H   0  0  0  0  0  0  0  0  0  0  0  0
   -3.6059    2.3440    3.5766 N   0  0  0  0  0  0  0  0  0  0  0  0
   -4.2217    3.6211    3.8517 C   0  0  0  0  0  0  0  0  0  0  0  0
   -3.9612    1.5303    4.0701 H   0  0  0  0  0  0  0  0  0  0  0  0
   -3.6956    4.1105    4.6846 H   0  0  0  0  0  0  0  0  0  0  0  0
   -4.1622    4.2572    2.9563 H   0  0  0  0  0  0  0  0  0  0  0  0
   -5.2766    3.4684    4.1237 H   0  0  0  0  0  0  0  0  0  0  0  0
  1  3  1  0  0  0  0
  1  7  1  0  0  0  0
  1  2  2  0  0  0  0
 40 41  1  0  0  0  0
 41 49  1  0  0  0  0
 41 42  2  0  0  0  0
  8  9  1  0  0  0  0
  9 17  1  0  0  0  0
  9 10  2  0  0  0  0
 18 19  1  0  0  0  0
 19 39  1  0  0  0  0
 19 20  2  0  0  0  0
 40 43  1  0  0  0  0
  8 11  1  0  0  0  0
 49 50  1  0  0  0  0
 22 23  1  0  0  0  0
 21 22  1  0  0  0  0
 23 24  1  0  0  0  0
 18 21  1  0  0  0  0
 24 25  1  0  0  0  0
 39 40  1  0  0  0  0
  7  8  1  0  0  0  0
 17 18  1  0  0  0  0
  3  4  1  0  0  0  0
  3  5  1  0  0  0  0
  3  6  1  0  0  0  0
 43 46  1  0  0  0  0
 43 47  1  0  0  0  0
 43 48  1  0  0  0  0
 11 14  1  0  0  0  0
 11 15  1  0  0  0  0
 11 16  1  0  0  0  0
 50 52  1  0  0  0  0
 50 53  1  0  0  0  0
 50 54  1  0  0  0  0
 22 30  1  0  0  0  0
 22 31  1  0  0  0  0
 23 32  1  0  0  0  0
 23 33  1  0  0  0  0
 21 28  1  0  0  0  0
 21 29  1  0  0  0  0
 24 34  1  0  0  0  0
 24 35  1  0  0  0  0
 40 45  1  0  0  0  0
  8 13  1  0  0  0  0
 18 27  1  0  0  0  0
 49 51  1  0  0  0  0
  7 12  1  0  0  0  0
 39 44  1  0  0  0  0
 17 26  1  0  0  0  0
 25 36  1  0  0  0  0
 25 37  1  0  0  0  0
 25 38  1  0  0  0  0
M  CHG  1  25   1
M  END
$$$$

  -OEChem-05262214473D

 54 53  0     1  0  0  0  0  0999 V2000
    2.6714    2.8829   -3.0005 C   0  0  0  0  0  0  0  0  0  0  0  0
    3.1741    2.4398   -1.9745 O   0  0  0  0  0  0  0  0  0  0  0  0
    3.5527    3.3077   -4.1279 C   0  0  0  0  0  0  0  0  0  0  0  0
    3.8407    4.3691   -4.0597 H   0  0  0  0  0  0  0  0  0  0  0  0
    4.5024    2.7495   -4.1526 H   0  0  0  0  0  0  0  0  0  0  0  0
    3.1208    3.1887   -5.1345 H   0  0  0  0  0  0  0  0  0  0  0  0
    1.3174    3.0407   -3.2467 N   0  0  0  0  0  0  0  0  0  0  0  0
    0.2944    2.6927   -2.2960 C   0  0  2  0  0  0  0  0  0  0  0  0
    0.2976    1.1783   -2.1349 C   0  0  0  0  0  0  0  0  0  0  0  0
    0.7500    0.4142   -2.9850 O   0  0  0  0  0  0  0  0  0  0  0  0
   -1.0710    3.1886   -2.7460 C   0  0  0  0  0  0  0  0  0  0  0  0
    1.0312    3.4224   -4.1464 H   0  0  0  0  0  0  0  0  0  0  0  0
    0.5725    3.1622   -1.3461 H   0  0  0  0  0  0  0  0  0  0  0  0
   -1.3666    2.7292   -3.6963 H   0  0  0  0  0  0  0  0  0  0  0  0
   -1.8434    2.9482   -2.0082 H   0  0  0  0  0  0  0  0  0  0  0  0
   -1.0632    4.2744   -2.8901 H   0  0  0  0  0  0  0  0  0  0  0  0
   -0.3037    0.7742   -0.9484 N   0  0  0  0  0  0  0  0  0  0  0  0
   -0.4352   -0.6095   -0.5718 C   0  0  2  0  0  0  0  0  0  0  0  0
   -1.1381   -0.6871    0.7795 C   0  0  0  0  0  0  0  0  0  0  0  0
   -1.1280   -1.6951    1.4833 O   0  0  0  0  0  0  0  0  0  0  0  0
    0.9139   -1.3379   -0.5845 C   0  0  0  0  0  0  0  0  0  0  0  0
    1.5176   -1.5133   -1.9841 C   0  0  0  0  0  0  0  0  0  0  0  0
    2.8476   -2.2679   -1.9217 C   0  0  0  0  0  0  0  0  0  0  0  0
    3.4553   -2.4185   -3.3084 C   0  0  0  0  0  0  0  0  0  0  0  0
    4.7502   -3.1319   -3.1966 N   0  3  0  0  0  0  0  0  0  0  0  0
   -0.6336    1.4811   -0.2948 H   0  0  0  0  0  0  0  0  0  0  0  0
   -1.0937   -1.0632   -1.3224 H   0  0  0  0  0  0  0  0  0  0  0  0
    1.6234   -0.7787    0.0391 H   0  0  0  0  0  0  0  0  0  0  0  0
    0.7993   -2.3260   -0.1219 H   0  0  0  0  0  0  0  0  0  0  0  0
    0.8209   -2.0650   -2.6259 H   0  0  0  0  0  0  0  0  0  0  0  0
    1.6802   -0.5333   -2.4478 H   0  0  0  0  0  0  0  0  0  0  0  0
    2.6877   -3.2578   -1.4765 H   0  0  0  0  0  0  0  0  0  0  0  0
    3.5446   -1.7301   -1.2669 H   0  0  0  0  0  0  0  0  0  0  0  0
    2.8209   -3.0141   -3.9716 H   0  0  0  0  0  0  0  0  0  0  0  0
    3.6655   -1.4498   -3.7715 H   0  0  0  0  0  0  0  0  0  0  0  0
    5.3334   -2.9676   -4.0244 H   0  0  0  0  0  0  0  0  0  0  0  0
    4.6055   -4.1439   -3.1087 H   0  0  0  0  0  0  0  0  0  0  0  0
    5.2745   -2.8155   -2.3734 H   0  0  0  0  0  0  0  0  0  0  0  0
   -1.7498    0.5097    1.1238 N   0  0  0  0  0  0  0  0  0  0  0  0
   -2.4627    0.6793    2.3674 C   0  0  2  0  0  0  0  0  0  0  0  0
   -3.2643    1.9711    2.2776 C   0  0  0  0  0  0  0  0  0  0  0  0
   -2.9806    2.8843    1.5051 O   0  0  0  0  0  0  0  0  0  0  0  0
   -1.5093    0.7126    3.5517 C   0  0  0  0  0  0  0  0  0  0  0  0
   -1.6941    1.2926    0.4792 H   0  0  0  0  0  0  0  0  0  0  0  0
   -3.1477   -0.1707    2.4578 H   0  0  0  0  0  0  0  0  0  0  0  0
   -0.8151    1.5577    3.4787 H   0  0  0  0  0  0  0  0  0  0  0  0
   -2.0535    0.8126    4.4966 H   0  0  0  0  0  0  0  0  0  0  0  0
   -0.9124   -0.2048    3.5974 H   0  0  0  0  0  0  0  0  0  0  0  0
   -4.3081    2.0023    3.1918 N   0  0  0  0  0  0  0  0  0  0  0  0
   -5.2066    3.1268    3.3111 C   0  0  0  0  0  0  0  0  0  0  0  0
   -4.4813    1.1927    3.7802 H   0  0  0  0  0  0  0  0  0  0  0  0
   -4.8291    3.8187    4.0784 H   0  0  0  0  0  0  0  0  0  0  0  0
   -5.2699    3.6495    2.3453 H   0  0  0  0  0  0  0  0  0  0  0  0
   -6.2057    2.7685    3.6003 H   0  0  0  0  0  0  0  0  0  0  0  0
  1  3  1  0  0  0  0
  1  7  1  0  0  0  0
  1  2  2  0  0  0  0
 40 41  1  0  0  0  0
 41 49  1  0  0  0  0
 41 42  2  0  0  0  0
  8  9  1  0  0  0  0
  9 17  1  0  0  0  0
  9 10  2  0  0  0  0
 18 19  1  0  0  0  0
 19 39  1  0  0  0  0
 19 20  2  0  0  0  0
 40 43  1  0  0  0  0
  8 11  1  0  0  0  0
 49 50  1  0  0  0  0
 22 23  1  0  0  0  0
 21 22  1  0  0  0  0
 23 24  1  0  0  0  0
 18 21  1  0  0  0  0
 24 25  1  0  0  0  0
 39 40  1  0  0  0  0
  7  8  1  0  0  0  0
 17 18  1  0  0  0  0
  3  4  1  0  0  0  0
  3  5  1  0  0  0  0
  3  6  1  0  0  0  0
 43 46  1  0  0  0  0
 43 47  1  0  0  0  0
 43 48  1  0  0  0  0
 11 14  1  0  0  0  0
 11 15  1  0  0  0  0
 11 16  1  0  0  0  0
 50 52  1  0  0  0  0
 50 53  1  0  0  0  0
 50 54  1  0  0  0  0
 22 30  1  0  0  0  0
 22 31  1  0  0  0  0
 23 32  1  0  0  0  0
 23 33  1  0  0  0  0
 21 28  1  0  0  0  0
 21 29  1  0  0  0  0
 24 34  1  0  0  0  0
 24 35  1  0  0  0  0
 40 45  1  0  0  0  0
  8 13  1  0  0  0  0
 18 27  1  0  0  0  0
 49 51  1  0  0  0  0
  7 12  1  0  0  0  0
 39 44  1  0  0  0  0
 17 26  1  0  0  0  0
 25 36  1  0  0  0  0
 25 37  1  0  0  0  0
 25 38  1  0  0  0  0
M  CHG  1  25   1
M  END
$$$$

  -OEChem-05262214473D

 54 53  0     1  0  0  0  0  0999 V2000
    2.6714    2.8829   -3.0005 C   0  0  0  0  0  0  0  0  0  0  0  0
    3.1741    2.4398   -1.9745 O   0  0  0  0  0  0  0  0  0  0  0  0
    3.5527    3.3077   -4.1279 C   0  0  0  0  0  0  0  0  0  0  0  0
    3.8407    4.3691   -4.0597 H   0  0  0  0  0  0  0  0  0  0  0  0
    4.5024    2.7495   -4.1526 H   0  0  0  0  0  0  0  0  0  0  0  0
    3.1208    3.1887   -5.1345 H   0  0  0  0  0  0  0  0  0  0  0  0
    1.3174    3.0407   -3.2467 N   0  0  0  0  0  0  0  0  0  0  0  0
    0.2944    2.6927   -2.2960 C   0  0  2  0  0  0  0  0  0  0  0  0
    0.2976    1.1783   -2.1349 C   0  0  0  0  0  0  0  0  0  0  0  0
    0.7500    0.4142   -2.9850 O   0  0  0  0  0  0  0  0  0  0  0  0
   -1.0710    3.1886   -2.7460 C   0  0  0  0  0  0  0  0  0  0  0  0
    1.0312    3.4224   -4.1464 H   0  0  0  0  0  0  0  0  0  0  0  0
    0.5725    3.1622   -1.3461 H   0  0  0  0  0  0  0  0  0  0  0  0
   -1.3666    2.7292   -3.6963 H   0  0  0  0  0  0  0  0  0  0  0  0
   -1.8434    2.9482   -2.0082 H   0  0  0  0  0  0  0  0  0  0  0  0
   -1.0632    4.2744   -2.8901 H   0  0  0  0  0  0  0  0  0  0  0  0
   -0.3037    0.7742   -0.9484 N   0  0  0  0  0  0  0  0  0  0  0  0
   -0.4352   -0.6095   -0.5718 C   0  0  2  0  0  0  0  0  0  0  0  0
   -1.1381   -0.6871    0.7795 C   0  0  0  0  0  0  0  0  0  0  0  0
   -0.9170   -1.5756    1.5999 O   0  0  0  0  0  0  0  0  0  0  0  0
    0.9139   -1.3379   -0.5845 C   0  0  0  0  0  0  0  0  0  0  0  0
    1.5176   -1.5133   -1.9841 C   0  0  0  0  0  0  0  0  0  0  0  0
    2.8476   -2.2679   -1.9217 C   0  0  0  0  0  0  0  0  0  0  0  0
    3.4553   -2.4185   -3.3084 C   0  0  0  0  0  0  0  0  0  0  0  0
    4.7502   -3.1319   -3.1966 N   0  3  0  0  0  0  0  0  0  0  0  0
   -0.6336    1.4811   -0.2948 H   0  0  0  0  0  0  0  0  0  0  0  0
   -1.0937   -1.0632   -1.3224 H   0  0  0  0  0  0  0  0  0  0  0  0
    1.6234   -0.7787    0.0391 H   0  0  0  0  0  0  0  0  0  0  0  0
    0.7993   -2.3260   -0.1219 H   0  0  0  0  0  0  0  0  0  0  0  0
    0.8209   -2.0650   -2.6259 H   0  0  0  0  0  0  0  0  0  0  0  0
    1.6802   -0.5333   -2.4478 H   0  0  0  0  0  0  0  0  0  0  0  0
    2.6877   -3.2578   -1.4765 H   0  0  0  0  0  0  0  0  0  0  0  0
    3.5446   -1.7301   -1.2669 H   0  0  0  0  0  0  0  0  0  0  0  0
    2.8209   -3.0141   -3.9716 H   0  0  0  0  0  0  0  0  0  0  0  0
    3.6655   -1.4498   -3.7715 H   0  0  0  0  0  0  0  0  0  0  0  0
    5.3334   -2.9676   -4.0244 H   0  0  0  0  0  0  0  0  0  0  0  0
    4.6055   -4.1439   -3.1087 H   0  0  0  0  0  0  0  0  0  0  0  0
    5.2745   -2.8155   -2.3734 H   0  0  0  0  0  0  0  0  0  0  0  0
   -2.0162    0.3688    0.9772 N   0  0  0  0  0  0  0  0  0  0  0  0
   -2.7824    0.5150    2.1917 C   0  0  2  0  0  0  0  0  0  0  0  0
   -3.8553    1.5679    1.9471 C   0  0  0  0  0  0  0  0  0  0  0  0
   -3.7669    2.4243    1.0697 O   0  0  0  0  0  0  0  0  0  0  0  0
   -1.8942    0.9059    3.3626 C   0  0  0  0  0  0  0  0  0  0  0  0
   -2.1235    1.0620    0.2427 H   0  0  0  0  0  0  0  0  0  0  0  0
   -3.2573   -0.4532    2.3846 H   0  0  0  0  0  0  0  0  0  0  0  0
   -1.4098    1.8735    3.1876 H   0  0  0  0  0  0  0  0  0  0  0  0
   -2.4723    0.9886    4.2889 H   0  0  0  0  0  0  0  0  0  0  0  0
   -1.1050    0.1625    3.5184 H   0  0  0  0  0  0  0  0  0  0  0  0
   -4.9029    1.4654    2.8516 N   0  0  0  0  0  0  0  0  0  0  0  0
   -6.0376    2.3589    2.8349 C   0  0  0  0  0  0  0  0  0  0  0  0
   -4.9024    0.7128    3.5337 H   0  0  0  0  0  0  0  0  0  0  0  0
   -5.8490    3.2045    3.5126 H   0  0  0  0  0  0  0  0  0  0  0  0
   -6.1924    2.7357    1.8131 H   0  0  0  0  0  0  0  0  0  0  0  0
   -6.9357    1.8170    3.1659 H   0  0  0  0  0  0  0  0  0  0  0  0
  1  3  1  0  0  0  0
  1  7  1  0  0  0  0
  1  2  2  0  0  0  0
 40 41  1  0  0  0  0
 41 49  1  0  0  0  0
 41 42  2  0  0  0  0
  8  9  1  0  0  0  0
  9 17  1  0  0  0  0
  9 10  2  0  0  0  0
 18 19  1  0  0  0  0
 19 39  1  0  0  0  0
 19 20  2  0  0  0  0
 40 43  1  0  0  0  0
  8 11  1  0  0  0  0
 49 50  1  0  0  0  0
 22 23  1  0  0  0  0
 21 22  1  0  0  0  0
 23 24  1  0  0  0  0
 18 21  1  0  0  0  0
 24 25  1  0  0  0  0
 39 40  1  0  0  0  0
  7  8  1  0  0  0  0
 17 18  1  0  0  0  0
  3  4  1  0  0  0  0
  3  5  1  0  0  0  0
  3  6  1  0  0  0  0
 43 46  1  0  0  0  0
 43 47  1  0  0  0  0
 43 48  1  0  0  0  0
 11 14  1  0  0  0  0
 11 15  1  0  0  0  0
 11 16  1  0  0  0  0
 50 52  1  0  0  0  0
 50 53  1  0  0  0  0
 50 54  1  0  0  0  0
 22 30  1  0  0  0  0
 22 31  1  0  0  0  0
 23 32  1  0  0  0  0
 23 33  1  0  0  0  0
 21 28  1  0  0  0  0
 21 29  1  0  0  0  0
 24 34  1  0  0  0  0
 24 35  1  0  0  0  0
 40 45  1  0  0  0  0
  8 13  1  0  0  0  0
 18 27  1  0  0  0  0
 49 51  1  0  0  0  0
  7 12  1  0  0  0  0
 39 44  1  0  0  0  0
 17 26  1  0  0  0  0
 25 36  1  0  0  0  0
 25 37  1  0  0  0  0
 25 38  1  0  0  0  0
M  CHG  1  25   1
M  END
$$$$

  -OEChem-05262214473D

 54 53  0     1  0  0  0  0  0999 V2000
    2.6714    2.8829   -3.0005 C   0  0  0  0  0  0  0  0  0  0  0  0
    3.1741    2.4398   -1.9745 O   0  0  0  0  0  0  0  0  0  0  0  0
    3.5527    3.3077   -4.1279 C   0  0  0  0  0  0  0  0  0  0  0  0
    3.8407    4.3691   -4.0597 H   0  0  0  0  0  0  0  0  0  0  0  0
    4.5024    2.7495   -4.1526 H   0  0  0  0  0  0  0  0  0  0  0  0
    3.1208    3.1887   -5.1345 H   0  0  0  0  0  0  0  0  0  0  0  0
    1.3174    3.0407   -3.2467 N   0  0  0  0  0  0  0  0  0  0  0  0
    0.2944    2.6927   -2.2960 C   0  0  2  0  0  0  0  0  0  0  0  0
    0.2976    1.1783   -2.1349 C   0  0  0  0  0  0  0  0  0  0  0  0
    0.7500    0.4142   -2.9850 O   0  0  0  0  0  0  0  0  0  0  0  0
   -1.0710    3.1886   -2.7460 C   0  0  0  0  0  0  0  0  0  0  0  0
    1.0312    3.4224   -4.1464 H   0  0  0  0  0  0  0  0  0  0  0  0
    0.5725    3.1622   -1.3461 H   0  0  0  0  0  0  0  0  0  0  0  0
   -1.3666    2.7292   -3.6963 H   0  0  0  0  0  0  0  0  0  0  0  0
   -1.8434    2.9482   -2.0082 H   0  0  0  0  0  0  0  0  0  0  0  0
   -1.0632    4.2744   -2.8901 H   0  0  0  0  0  0  0  0  0  0  0  0
   -0.3037    0.7742   -0.9484 N   0  0  0  0  0  0  0  0  0  0  0  0
   -0.4352   -0.6095   -0.5718 C   0  0  2  0  0  0  0  0  0  0  0  0
   -1.1381   -0.6871    0.7795 C   0  0  0  0  0  0  0  0  0  0  0  0
   -0.7421   -1.3980    1.7011 O   0  0  0  0  0  0  0  0  0  0  0  0
    0.9139   -1.3379   -0.5845 C   0  0  0  0  0  0  0  0  0  0  0  0
    1.5176   -1.5133   -1.9841 C   0  0  0  0  0  0  0  0  0  0  0  0
    2.8476   -2.2679   -1.9217 C   0  0  0  0  0  0  0  0  0  0  0  0
    3.4553   -2.4185   -3.3084 C   0  0  0  0  0  0  0  0  0  0  0  0
    4.7502   -3.1319   -3.1966 N   0  3  0  0  0  0  0  0  0  0  0  0
   -0.6336    1.4811   -0.2948 H   0  0  0  0  0  0  0  0  0  0  0  0
   -1.0937   -1.0632   -1.3224 H   0  0  0  0  0  0  0  0  0  0  0  0
    1.6234   -0.7787    0.0391 H   0  0  0  0  0  0  0  0  0  0  0  0
    0.7993   -2.3260   -0.1219 H   0  0  0  0  0  0  0  0  0  0  0  0
    0.8209   -2.0650   -2.6259 H   0  0  0  0  0  0  0  0  0  0  0  0
    1.6802   -0.5333   -2.4478 H   0  0  0  0  0  0  0  0  0  0  0  0
    2.6877   -3.2578   -1.4765 H   0  0  0  0  0  0  0  0  0  0  0  0
    3.5446   -1.7301   -1.2669 H   0  0  0  0  0  0  0  0  0  0  0  0
    2.8209   -3.0141   -3.9716 H   0  0  0  0  0  0  0  0  0  0  0  0
    3.6655   -1.4498   -3.7715 H   0  0  0  0  0  0  0  0  0  0  0  0
    5.3334   -2.9676   -4.0244 H   0  0  0  0  0  0  0  0  0  0  0  0
    4.6055   -4.1439   -3.1087 H   0  0  0  0  0  0  0  0  0  0  0  0
    5.2745   -2.8155   -2.3734 H   0  0  0  0  0  0  0  0  0  0  0  0
   -2.2392    0.1541    0.8488 N   0  0  0  0  0  0  0  0  0  0  0  0
   -3.0512    0.2620    2.0374 C   0  0  2  0  0  0  0  0  0  0  0  0
   -4.3293    1.0034    1.6681 C   0  0  0  0  0  0  0  0  0  0  0  0
   -4.4153    1.7478    0.6937 O   0  0  0  0  0  0  0  0  0  0  0  0
   -2.3079    0.9819    3.1518 C   0  0  0  0  0  0  0  0  0  0  0  0
   -2.4822    0.7126    0.0360 H   0  0  0  0  0  0  0  0  0  0  0  0
   -3.2973   -0.7598    2.3462 H   0  0  0  0  0  0  0  0  0  0  0  0
   -2.0529    2.0074    2.8608 H   0  0  0  0  0  0  0  0  0  0  0  0
   -2.9145    1.0377    4.0618 H   0  0  0  0  0  0  0  0  0  0  0  0
   -1.3742    0.4637    3.3956 H   0  0  0  0  0  0  0  0  0  0  0  0
   -5.3499    0.7698    2.5792 N   0  0  0  0  0  0  0  0  0  0  0  0
   -6.6578    1.3699    2.4555 C   0  0  0  0  0  0  0  0  0  0  0  0
   -5.1958    0.1232    3.3472 H   0  0  0  0  0  0  0  0  0  0  0  0
   -6.6859    2.3099    3.0260 H   0  0  0  0  0  0  0  0  0  0  0  0
   -6.8669    1.5779    1.3958 H   0  0  0  0  0  0  0  0  0  0  0  0
   -7.4170    0.6787    2.8503 H   0  0  0  0  0  0  0  0  0  0  0  0
  1  3  1  0  0  0  0
  1  7  1  0  0  0  0
  1  2  2  0  0  0  0
 40 41  1  0  0  0  0
 41 49  1  0  0  0  0
 41 42  2  0  0  0  0
  8  9  1  0  0  0  0
  9 17  1  0  0  0  0
  9 10  2  0  0  0  0
 18 19  1  0  0  0  0
 19 39  1  0  0  0  0
 19 20  2  0  0  0  0
 40 43  1  0  0  0  0
  8 11  1  0  0  0  0
 49 50  1  0  0  0  0
 22 23  1  0  0  0  0
 21 22  1  0  0  0  0
 23 24  1  0  0  0  0
 18 21  1  0  0  0  0
 24 25  1  0  0  0  0
 39 40  1  0  0  0  0
  7  8  1  0  0  0  0
 17 18  1  0  0  0  0
  3  4  1  0  0  0  0
  3  5  1  0  0  0  0
  3  6  1  0  0  0  0
 43 46  1  0  0  0  0
 43 47  1  0  0  0  0
 43 48  1  0  0  0  0
 11 14  1  0  0  0  0
 11 15  1  0  0  0  0
 11 16  1  0  0  0  0
 50 52  1  0  0  0  0
 50 53  1  0  0  0  0
 50 54  1  0  0  0  0
 22 30  1  0  0  0  0
 22 31  1  0  0  0  0
 23 32  1  0  0  0  0
 23 33  1  0  0  0  0
 21 28  1  0  0  0  0
 21 29  1  0  0  0  0
 24 34  1  0  0  0  0
 24 35  1  0  0  0  0
 40 45  1  0  0  0  0
  8 13  1  0  0  0  0
 18 27  1  0  0  0  0
 49 51  1  0  0  0  0
  7 12  1  0  0  0  0
 39 44  1  0  0  0  0
 17 26  1  0  0  0  0
 25 36  1  0  0  0  0
 25 37  1  0  0  0  0
 25 38  1  0  0  0  0
M  CHG  1  25   1
M  END
$$$$

  -OEChem-05262214473D

 54 53  0     1  0  0  0  0  0999 V2000
    2.6714    2.8829   -3.0005 C   0  0  0  0  0  0  0  0  0  0  0  0
    3.1741    2.4398   -1.9745 O   0  0  0  0  0  0  0  0  0  0  0  0
    3.5527    3.3077   -4.1279 C   0  0  0  0  0  0  0  0  0  0  0  0
    3.8407    4.3691   -4.0597 H   0  0  0  0  0  0  0  0  0  0  0  0
    4.5024    2.7495   -4.1526 H   0  0  0  0  0  0  0  0  0  0  0  0
    3.1208    3.1887   -5.1345 H   0  0  0  0  0  0  0  0  0  0  0  0
    1.3174    3.0407   -3.2467 N   0  0  0  0  0  0  0  0  0  0  0  0
    0.2944    2.6927   -2.2960 C   0  0  2  0  0  0  0  0  0  0  0  0
    0.2976    1.1783   -2.1349 C   0  0  0  0  0  0  0  0  0  0  0  0
    0.7500    0.4142   -2.9850 O   0  0  0  0  0  0  0  0  0  0  0  0
   -1.0710    3.1886   -2.7460 C   0  0  0  0  0  0  0  0  0  0  0  0
    1.0312    3.4224   -4.1464 H   0  0  0  0  0  0  0  0  0  0  0  0
    0.5725    3.1622   -1.3461 H   0  0  0  0  0  0  0  0  0  0  0  0
   -1.3666    2.7292   -3.6963 H   0  0  0  0  0  0  0  0  0  0  0  0
   -1.8434    2.9482   -2.0082 H   0  0  0  0  0  0  0  0  0  0  0  0
   -1.0632    4.2744   -2.8901 H   0  0  0  0  0  0  0  0  0  0  0  0
   -0.3037    0.7742   -0.9484 N   0  0  0  0  0  0  0  0  0  0  0  0
   -0.4352   -0.6095   -0.5718 C   0  0  2  0  0  0  0  0  0  0  0  0
   -1.1381   -0.6871    0.7795 C   0  0  0  0  0  0  0  0  0  0  0  0
   -0.6152   -1.1742    1.7799 O   0  0  0  0  0  0  0  0  0  0  0  0
    0.9139   -1.3379   -0.5845 C   0  0  0  0  0  0  0  0  0  0  0  0
    1.5176   -1.5133   -1.9841 C   0  0  0  0  0  0  0  0  0  0  0  0
    2.8476   -2.2679   -1.9217 C   0  0  0  0  0  0  0  0  0  0  0  0
    3.4553   -2.4185   -3.3084 C   0  0  0  0  0  0  0  0  0  0  0  0
    4.7502   -3.1319   -3.1966 N   0  3  0  0  0  0  0  0  0  0  0  0
   -0.6336    1.4811   -0.2948 H   0  0  0  0  0  0  0  0  0  0  0  0
   -1.0937   -1.0632   -1.3224 H   0  0  0  0  0  0  0  0  0  0  0  0
    1.6234   -0.7787    0.0391 H   0  0  0  0  0  0  0  0  0  0  0  0
    0.7993   -2.3260   -0.1219 H   0  0  0  0  0  0  0  0  0  0  0  0
    0.8209   -2.0650   -2.6259 H   0  0  0  0  0  0  0  0  0  0  0  0
    1.6802   -0.5333   -2.4478 H   0  0  0  0  0  0  0  0  0  0  0  0
    2.6877   -3.2578   -1.4765 H   0  0  0  0  0  0  0  0  0  0  0  0
    3.5446   -1.7301   -1.2669 H   0  0  0  0  0  0  0  0  0  0  0  0
    2.8209   -3.0141   -3.9716 H   0  0  0  0  0  0  0  0  0  0  0  0
    3.6655   -1.4498   -3.7715 H   0  0  0  0  0  0  0  0  0  0  0  0
    5.3334   -2.9676   -4.0244 H   0  0  0  0  0  0  0  0  0  0  0  0
    4.6055   -4.1439   -3.1087 H   0  0  0  0  0  0  0  0  0  0  0  0
    5.2745   -2.8155   -2.3734 H   0  0  0  0  0  0  0  0  0  0  0  0
   -2.4038   -0.1198    0.7475 N   0  0  0  0  0  0  0  0  0  0  0  0
   -3.2508   -0.0624    1.9150 C   0  0  2  0  0  0  0  0  0  0  0  0
   -4.6540    0.3162    1.4598 C   0  0  0  0  0  0  0  0  0  0  0  0
   -4.8814    0.9007    0.4026 O   0  0  0  0  0  0  0  0  0  0  0  0
   -2.7222    0.9353    2.9337 C   0  0  0  0  0  0  0  0  0  0  0  0
   -2.7458    0.2682   -0.1266 H   0  0  0  0  0  0  0  0  0  0  0  0
   -3.2651   -1.0698    2.3451 H   0  0  0  0  0  0  0  0  0  0  0  0
   -2.7004    1.9504    2.5207 H   0  0  0  0  0  0  0  0  0  0  0  0
   -3.3498    0.9567    3.8307 H   0  0  0  0  0  0  0  0  0  0  0  0
   -1.7017    0.6782    3.2377 H   0  0  0  0  0  0  0  0  0  0  0  0
   -5.6185   -0.0371    2.3931 N   0  0  0  0  0  0  0  0  0  0  0  0
   -7.0251    0.2271    2.1988 C   0  0  0  0  0  0  0  0  0  0  0  0
   -5.3416   -0.5358    3.2335 H   0  0  0  0  0  0  0  0  0  0  0  0
   -7.2828    1.1959    2.6517 H   0  0  0  0  0  0  0  0  0  0  0  0
   -7.2475    0.2551    1.1219 H   0  0  0  0  0  0  0  0  0  0  0  0
   -7.6167   -0.5689    2.6748 H   0  0  0  0  0  0  0  0  0  0  0  0
  1  3  1  0  0  0  0
  1  7  1  0  0  0  0
  1  2  2  0  0  0  0
 40 41  1  0  0  0  0
 41 49  1  0  0  0  0
 41 42  2  0  0  0  0
  8  9  1  0  0  0  0
  9 17  1  0  0  0  0
  9 10  2  0  0  0  0
 18 19  1  0  0  0  0
 19 39  1  0  0  0  0
 19 20  2  0  0  0  0
 40 43  1  0  0  0  0
  8 11  1  0  0  0  0
 49 50  1  0  0  0  0
 22 23  1  0  0  0  0
 21 22  1  0  0  0  0
 23 24  1  0  0  0  0
 18 21  1  0  0  0  0
 24 25  1  0  0  0  0
 39 40  1  0  0  0  0
  7  8  1  0  0  0  0
 17 18  1  0  0  0  0
  3  4  1  0  0  0  0
  3  5  1  0  0  0  0
  3  6  1  0  0  0  0
 43 46  1  0  0  0  0
 43 47  1  0  0  0  0
 43 48  1  0  0  0  0
 11 14  1  0  0  0  0
 11 15  1  0  0  0  0
 11 16  1  0  0  0  0
 50 52  1  0  0  0  0
 50 53  1  0  0  0  0
 50 54  1  0  0  0  0
 22 30  1  0  0  0  0
 22 31  1  0  0  0  0
 23 32  1  0  0  0  0
 23 33  1  0  0  0  0
 21 28  1  0  0  0  0
 21 29  1  0  0  0  0
 24 34  1  0  0  0  0
 24 35  1  0  0  0  0
 40 45  1  0  0  0  0
  8 13  1  0  0  0  0
 18 27  1  0  0  0  0
 49 51  1  0  0  0  0
  7 12  1  0  0  0  0
 39 44  1  0  0  0  0
 17 26  1  0  0  0  0
 25 36  1  0  0  0  0
 25 37  1  0  0  0  0
 25 38  1  0  0  0  0
M  CHG  1  25   1
M  END
$$$$

  -OEChem-05262214473D

 54 53  0     1  0  0  0  0  0999 V2000
    2.6714    2.8829   -3.0005 C   0  0  0  0  0  0  0  0  0  0  0  0
    3.1741    2.4398   -1.9745 O   0  0  0  0  0  0  0  0  0  0  0  0
    3.5527    3.3077   -4.1279 C   0  0  0  0  0  0  0  0  0  0  0  0
    3.8407    4.3691   -4.0597 H   0  0  0  0  0  0  0  0  0  0  0  0
    4.5024    2.7495   -4.1526 H   0  0  0  0  0  0  0  0  0  0  0  0
    3.1208    3.1887   -5.1345 H   0  0  0  0  0  0  0  0  0  0  0  0
    1.3174    3.0407   -3.2467 N   0  0  0  0  0  0  0  0  0  0  0  0
    0.2944    2.6927   -2.2960 C   0  0  2  0  0  0  0  0  0  0  0  0
    0.2976    1.1783   -2.1349 C   0  0  0  0  0  0  0  0  0  0  0  0
    0.7500    0.4142   -2.9850 O   0  0  0  0  0  0  0  0  0  0  0  0
   -1.0710    3.1886   -2.7460 C   0  0  0  0  0  0  0  0  0  0  0  0
    1.0312    3.4224   -4.1464 H   0  0  0  0  0  0  0  0  0  0  0  0
    0.5725    3.1622   -1.3461 H   0  0  0  0  0  0  0  0  0  0  0  0
   -1.3666    2.7292   -3.6963 H   0  0  0  0  0  0  0  0  0  0  0  0
   -1.8434    2.9482   -2.0082 H   0  0  0  0  0  0  0  0  0  0  0  0
   -1.0632    4.2744   -2.8901 H   0  0  0  0  0  0  0  0  0  0  0  0
   -0.3037    0.7742   -0.9484 N   0  0  0  0  0  0  0  0  0  0  0  0
   -0.4352   -0.6095   -0.5718 C   0  0  2  0  0  0  0  0  0  0  0  0
   -1.1381   -0.6871    0.7795 C   0  0  0  0  0  0  0  0  0  0  0  0
   -0.5450   -0.9196    1.8311 O   0  0  0  0  0  0  0  0  0  0  0  0
    0.9139   -1.3379   -0.5845 C   0  0  0  0  0  0  0  0  0  0  0  0
    1.5176   -1.5133   -1.9841 C   0  0  0  0  0  0  0  0  0  0  0  0
    2.8476   -2.2679   -1.9217 C   0  0  0  0  0  0  0  0  0  0  0  0
    3.4553   -2.4185   -3.3084 C   0  0  0  0  0  0  0  0  0  0  0  0
    4.7502   -3.1319   -3.1966 N   0  3  0  0  0  0  0  0  0  0  0  0
   -0.6336    1.4811   -0.2948 H   0  0  0  0  0  0  0  0  0  0  0  0
   -1.0937   -1.0632   -1.3224 H   0  0  0  0  0  0  0  0  0  0  0  0
    1.6234   -0.7787    0.0391 H   0  0  0  0  0  0  0  0  0  0  0  0
    0.7993   -2.3260   -0.1219 H   0  0  0  0  0  0  0  0  0  0  0  0
    0.8209   -2.0650   -2.6259 H   0  0  0  0  0  0  0  0  0  0  0  0
    1.6802   -0.5333   -2.4478 H   0  0  0  0  0  0  0  0  0  0  0  0
    2.6877   -3.2578   -1.4765 H   0  0  0  0  0  0  0  0  0  0  0  0
    3.5446   -1.7301   -1.2669 H   0  0  0  0  0  0  0  0  0  0  0  0
    2.8209   -3.0141   -3.9716 H   0  0  0  0  0  0  0  0  0  0  0  0
    3.6655   -1.4498   -3.7715 H   0  0  0  0  0  0  0  0  0  0  0  0
    5.3334   -2.9676   -4.0244 H   0  0  0  0  0  0  0  0  0  0  0  0
    4.6055   -4.1439   -3.1087 H   0  0  0  0  0  0  0  0  0  0  0  0
    5.2745   -2.8155   -2.3734 H   0  0  0  0  0  0  0  0  0  0  0  0
   -2.4986   -0.4341    0.6802 N   0  0  0  0  0  0  0  0  0  0  0  0
   -3.3676   -0.4362    1.8328 C   0  0  2  0  0  0  0  0  0  0  0  0
   -4.8073   -0.4469    1.3362 C   0  0  0  0  0  0  0  0  0  0  0  0
   -5.1336   -0.0590    0.2163 O   0  0  0  0  0  0  0  0  0  0  0  0
   -3.1087    0.7692    2.7231 C   0  0  0  0  0  0  0  0  0  0  0  0
   -2.8964   -0.2409   -0.2342 H   0  0  0  0  0  0  0  0  0  0  0  0
   -3.1630   -1.3620    2.3815 H   0  0  0  0  0  0  0  0  0  0  0  0
   -3.3084    1.7062    2.1905 H   0  0  0  0  0  0  0  0  0  0  0  0
   -3.7488    0.7511    3.6114 H   0  0  0  0  0  0  0  0  0  0  0  0
   -2.0651    0.7915    3.0551 H   0  0  0  0  0  0  0  0  0  0  0  0
   -5.6905   -0.9002    2.3061 N   0  0  0  0  0  0  0  0  0  0  0  0
   -7.1145   -0.9916    2.0824 C   0  0  0  0  0  0  0  0  0  0  0  0
   -5.3298   -1.2194    3.2004 H   0  0  0  0  0  0  0  0  0  0  0  0
   -7.5988   -0.0617    2.4151 H   0  0  0  0  0  0  0  0  0  0  0  0
   -7.3081   -1.1425    1.0101 H   0  0  0  0  0  0  0  0  0  0  0  0
   -7.5211   -1.8406    2.6515 H   0  0  0  0  0  0  0  0  0  0  0  0
  1  3  1  0  0  0  0
  1  7  1  0  0  0  0
  1  2  2  0  0  0  0
 40 41  1  0  0  0  0
 41 49  1  0  0  0  0
 41 42  2  0  0  0  0
  8  9  1  0  0  0  0
  9 17  1  0  0  0  0
  9 10  2  0  0  0  0
 18 19  1  0  0  0  0
 19 39  1  0  0  0  0
 19 20  2  0  0  0  0
 40 43  1  0  0  0  0
  8 11  1  0  0  0  0
 49 50  1  0  0  0  0
 22 23  1  0  0  0  0
 21 22  1  0  0  0  0
 23 24  1  0  0  0  0
 18 21  1  0  0  0  0
 24 25  1  0  0  0  0
 39 40  1  0  0  0  0
  7  8  1  0  0  0  0
 17 18  1  0  0  0  0
  3  4  1  0  0  0  0
  3  5  1  0  0  0  0
  3  6  1  0  0  0  0
 43 46  1  0  0  0  0
 43 47  1  0  0  0  0
 43 48  1  0  0  0  0
 11 14  1  0  0  0  0
 11 15  1  0  0  0  0
 11 16  1  0  0  0  0
 50 52  1  0  0  0  0
 50 53  1  0  0  0  0
 50 54  1  0  0  0  0
 22 30  1  0  0  0  0
 22 31  1  0  0  0  0
 23 32  1  0  0  0  0
 23 33  1  0  0  0  0
 21 28  1  0  0  0  0
 21 29  1  0  0  0  0
 24 34  1  0  0  0  0
 24 35  1  0  0  0  0
 40 45  1  0  0  0  0
  8 13  1  0  0  0  0
 18 27  1  0  0  0  0
 49 51  1  0  0  0  0
  7 12  1  0  0  0  0
 39 44  1  0  0  0  0
 17 26  1  0  0  0  0
 25 36  1  0  0  0  0
 25 37  1  0  0  0  0
 25 38  1  0  0  0  0
M  CHG  1  25   1
M  END
$$$$

  -OEChem-05262214473D

 54 53  0     1  0  0  0  0  0999 V2000
    2.6714    2.8829   -3.0005 C   0  0  0  0  0  0  0  0  0  0  0  0
    3.1741    2.4398   -1.9745 O   0  0  0  0  0  0  0  0  0  0  0  0
    3.5527    3.3077   -4.1279 C   0  0  0  0  0  0  0  0  0  0  0  0
    3.8407    4.3691   -4.0597 H   0  0  0  0  0  0  0  0  0  0  0  0
    4.5024    2.7495   -4.1526 H   0  0  0  0  0  0  0  0  0  0  0  0
    3.1208    3.1887   -5.1345 H   0  0  0  0  0  0  0  0  0  0  0  0
    1.3174    3.0407   -3.2467 N   0  0  0  0  0  0  0  0  0  0  0  0
    0.2944    2.6927   -2.2960 C   0  0  2  0  0  0  0  0  0  0  0  0
    0.2976    1.1783   -2.1349 C   0  0  0  0  0  0  0  0  0  0  0  0
    0.7500    0.4142   -2.9850 O   0  0  0  0  0  0  0  0  0  0  0  0
   -1.0710    3.1886   -2.7460 C   0  0  0  0  0  0  0  0  0  0  0  0
    1.0312    3.4224   -4.1464 H   0  0  0  0  0  0  0  0  0  0  0  0
    0.5725    3.1622   -1.3461 H   0  0  0  0  0  0  0  0  0  0  0  0
   -1.3666    2.7292   -3.6963 H   0  0  0  0  0  0  0  0  0  0  0  0
   -1.8434    2.9482   -2.0082 H   0  0  0  0  0  0  0  0  0  0  0  0
   -1.0632    4.2744   -2.8901 H   0  0  0  0  0  0  0  0  0  0  0  0
   -0.3037    0.7742   -0.9484 N   0  0  0  0  0  0  0  0  0  0  0  0
   -0.4352   -0.6095   -0.5718 C   0  0  2  0  0  0  0  0  0  0  0  0
   -1.1381   -0.6871    0.7795 C   0  0  0  0  0  0  0  0  0  0  0  0
   -0.5363   -0.6514    1.8510 O   0  0  0  0  0  0  0  0  0  0  0  0
    0.9139   -1.3379   -0.5845 C   0  0  0  0  0  0  0  0  0  0  0  0
    1.5176   -1.5133   -1.9841 C   0  0  0  0  0  0  0  0  0  0  0  0
    2.8476   -2.2679   -1.9217 C   0  0  0  0  0  0  0  0  0  0  0  0
    3.4553   -2.4185   -3.3084 C   0  0  0  0  0  0  0  0  0  0  0  0
    4.7502   -3.1319   -3.1966 N   0  3  0  0  0  0  0  0  0  0  0  0
   -0.6336    1.4811   -0.2948 H   0  0  0  0  0  0  0  0  0  0  0  0
   -1.0937   -1.0632   -1.3224 H   0  0  0  0  0  0  0  0  0  0  0  0
    1.6234   -0.7787    0.0391 H   0  0  0  0  0  0  0  0  0  0  0  0
    0.7993   -2.3260   -0.1219 H   0  0  0  0  0  0  0  0  0  0  0  0
    0.8209   -2.0650   -2.6259 H   0  0  0  0  0  0  0  0  0  0  0  0
    1.6802   -0.5333   -2.4478 H   0  0  0  0  0  0  0  0  0  0  0  0
    2.6877   -3.2578   -1.4765 H   0  0  0  0  0  0  0  0  0  0  0  0
    3.5446   -1.7301   -1.2669 H   0  0  0  0  0  0  0  0  0  0  0  0
    2.8209   -3.0141   -3.9716 H   0  0  0  0  0  0  0  0  0  0  0  0
    3.6655   -1.4498   -3.7715 H   0  0  0  0  0  0  0  0  0  0  0  0
    5.3334   -2.9676   -4.0244 H   0  0  0  0  0  0  0  0  0  0  0  0
    4.6055   -4.1439   -3.1087 H   0  0  0  0  0  0  0  0  0  0  0  0
    5.2745   -2.8155   -2.3734 H   0  0  0  0  0  0  0  0  0  0  0  0
   -2.5172   -0.7675    0.6513 N   0  0  0  0  0  0  0  0  0  0  0  0
   -3.3936   -0.8338    1.7964 C   0  0  2  0  0  0  0  0  0  0  0  0
   -4.7788   -1.2340    1.3059 C   0  0  0  0  0  0  0  0  0  0  0  0
   -5.1546   -1.0662    0.1476 O   0  0  0  0  0  0  0  0  0  0  0  0
   -3.4413    0.4950    2.5344 C   0  0  0  0  0  0  0  0  0  0  0  0
   -2.9238   -0.7801   -0.2793 H   0  0  0  0  0  0  0  0  0  0  0  0
   -2.9978   -1.6164    2.4528 H   0  0  0  0  0  0  0  0  0  0  0  0
   -3.8353    1.2915    1.8927 H   0  0  0  0  0  0  0  0  0  0  0  0
   -4.0840    0.4349    3.4189 H   0  0  0  0  0  0  0  0  0  0  0  0
   -2.4398    0.7958    2.8605 H   0  0  0  0  0  0  0  0  0  0  0  0
   -5.5610   -1.7609    2.3241 N   0  0  0  0  0  0  0  0  0  0  0  0
   -6.9197   -2.2032    2.1141 C   0  0  0  0  0  0  0  0  0  0  0  0
   -5.1612   -1.8809    3.2501 H   0  0  0  0  0  0  0  0  0  0  0  0
   -7.6126   -1.3772    2.3323 H   0  0  0  0  0  0  0  0  0  0  0  0
   -7.0447   -2.5197    1.0681 H   0  0  0  0  0  0  0  0  0  0  0  0
   -7.1369   -3.0499    2.7819 H   0  0  0  0  0  0  0  0  0  0  0  0
  1  3  1  0  0  0  0
  1  7  1  0  0  0  0
  1  2  2  0  0  0  0
 40 41  1  0  0  0  0
 41 49  1  0  0  0  0
 41 42  2  0  0  0  0
  8  9  1  0  0  0  0
  9 17  1  0  0  0  0
  9 10  2  0  0  0  0
 18 19  1  0  0  0  0
 19 39  1  0  0  0  0
 19 20  2  0  0  0  0
 40 43  1  0  0  0  0
  8 11  1  0  0  0  0
 49 50  1  0  0  0  0
 22 23  1  0  0  0  0
 21 22  1  0  0  0  0
 23 24  1  0  0  0  0
 18 21  1  0  0  0  0
 24 25  1  0  0  0  0
 39 40  1  0  0  0  0
  7  8  1  0  0  0  0
 17 18  1  0  0  0  0
  3  4  1  0  0  0  0
  3  5  1  0  0  0  0
  3  6  1  0  0  0  0
 43 46  1  0  0  0  0
 43 47  1  0  0  0  0
 43 48  1  0  0  0  0
 11 14  1  0  0  0  0
 11 15  1  0  0  0  0
 11 16  1  0  0  0  0
 50 52  1  0  0  0  0
 50 53  1  0  0  0  0
 50 54  1  0  0  0  0
 22 30  1  0  0  0  0
 22 31  1  0  0  0  0
 23 32  1  0  0  0  0
 23 33  1  0  0  0  0
 21 28  1  0  0  0  0
 21 29  1  0  0  0  0
 24 34  1  0  0  0  0
 24 35  1  0  0  0  0
 40 45  1  0  0  0  0
  8 13  1  0  0  0  0
 18 27  1  0  0  0  0
 49 51  1  0  0  0  0
  7 12  1  0  0  0  0
 39 44  1  0  0  0  0
 17 26  1  0  0  0  0
 25 36  1  0  0  0  0
 25 37  1  0  0  0  0
 25 38  1  0  0  0  0
M  CHG  1  25   1
M  END
$$$$

  -OEChem-05262214473D

 54 53  0     1  0  0  0  0  0999 V2000
    2.6714    2.8829   -3.0005 C   0  0  0  0  0  0  0  0  0  0  0  0
    3.1741    2.4398   -1.9745 O   0  0  0  0  0  0  0  0  0  0  0  0
    3.5527    3.3077   -4.1279 C   0  0  0  0  0  0  0  0  0  0  0  0
    3.8407    4.3691   -4.0597 H   0  0  0  0  0  0  0  0  0  0  0  0
    4.5024    2.7495   -4.1526 H   0  0  0  0  0  0  0  0  0  0  0  0
    3.1208    3.1887   -5.1345 H   0  0  0  0  0  0  0  0  0  0  0  0
    1.3174    3.0407   -3.2467 N   0  0  0  0  0  0  0  0  0  0  0  0
    0.2944    2.6927   -2.2960 C   0  0  2  0  0  0  0  0  0  0  0  0
    0.2976    1.1783   -2.1349 C   0  0  0  0  0  0  0  0  0  0  0  0
    0.7500    0.4142   -2.9850 O   0  0  0  0  0  0  0  0  0  0  0  0
   -1.0710    3.1886   -2.7460 C   0  0  0  0  0  0  0  0  0  0  0  0
    1.0312    3.4224   -4.1464 H   0  0  0  0  0  0  0  0  0  0  0  0
    0.5725    3.1622   -1.3461 H   0  0  0  0  0  0  0  0  0  0  0  0
   -1.3666    2.7292   -3.6963 H   0  0  0  0  0  0  0  0  0  0  0  0
   -1.8434    2.9482   -2.0082 H   0  0  0  0  0  0  0  0  0  0  0  0
   -1.0632    4.2744   -2.8901 H   0  0  0  0  0  0  0  0  0  0  0  0
   -0.3037    0.7742   -0.9484 N   0  0  0  0  0  0  0  0  0  0  0  0
   -0.4352   -0.6095   -0.5718 C   0  0  2  0  0  0  0  0  0  0  0  0
   -1.1381   -0.6871    0.7795 C   0  0  0  0  0  0  0  0  0  0  0  0
   -0.5896   -0.3880    1.8384 O   0  0  0  0  0  0  0  0  0  0  0  0
    0.9139   -1.3379   -0.5845 C   0  0  0  0  0  0  0  0  0  0  0  0
    1.5176   -1.5133   -1.9841 C   0  0  0  0  0  0  0  0  0  0  0  0
    2.8476   -2.2679   -1.9217 C   0  0  0  0  0  0  0  0  0  0  0  0
    3.4553   -2.4185   -3.3084 C   0  0  0  0  0  0  0  0  0  0  0  0
    4.7502   -3.1319   -3.1966 N   0  3  0  0  0  0  0  0  0  0  0  0
   -0.6336    1.4811   -0.2948 H   0  0  0  0  0  0  0  0  0  0  0  0
   -1.0937   -1.0632   -1.3224 H   0  0  0  0  0  0  0  0  0  0  0  0
    1.6234   -0.7787    0.0391 H   0  0  0  0  0  0  0  0  0  0  0  0
    0.7993   -2.3260   -0.1219 H   0  0  0  0  0  0  0  0  0  0  0  0
    0.8209   -2.0650   -2.6259 H   0  0  0  0  0  0  0  0  0  0  0  0
    1.6802   -0.5333   -2.4478 H   0  0  0  0  0  0  0  0  0  0  0  0
    2.6877   -3.2578   -1.4765 H   0  0  0  0  0  0  0  0  0  0  0  0
    3.5446   -1.7301   -1.2669 H   0  0  0  0  0  0  0  0  0  0  0  0
    2.8209   -3.0141   -3.9716 H   0  0  0  0  0  0  0  0  0  0  0  0
    3.6655   -1.4498   -3.7715 H   0  0  0  0  0  0  0  0  0  0  0  0
    5.3334   -2.9676   -4.0244 H   0  0  0  0  0  0  0  0  0  0  0  0
    4.6055   -4.1439   -3.1087 H   0  0  0  0  0  0  0  0  0  0  0  0
    5.2745   -2.8155   -2.3734 H   0  0  0  0  0  0  0  0  0  0  0  0
   -2.4583   -1.0972    0.6630 N   0  0  0  0  0  0  0  0  0  0  0  0
   -3.3271   -1.2281    1.8084 C   0  0  2  0  0  0  0  0  0  0  0  0
   -4.5704   -1.9912    1.3708 C   0  0  0  0  0  0  0  0  0  0  0  0
   -4.9431   -2.0520    0.2010 O   0  0  0  0  0  0  0  0  0  0  0  0
   -3.6971    0.1314    2.3805 C   0  0  0  0  0  0  0  0  0  0  0  0
   -2.8259   -1.3125   -0.2590 H   0  0  0  0  0  0  0  0  0  0  0  0
   -2.7808   -1.8158    2.5542 H   0  0  0  0  0  0  0  0  0  0  0  0
   -4.2452    0.7346    1.6475 H   0  0  0  0  0  0  0  0  0  0  0  0
   -4.3328    0.0295    3.2662 H   0  0  0  0  0  0  0  0  0  0  0  0
   -2.8001    0.6909    2.6671 H   0  0  0  0  0  0  0  0  0  0  0  0
   -5.2387   -2.5604    2.4458 N   0  0  0  0  0  0  0  0  0  0  0  0
   -6.4542   -3.3250    2.2918 C   0  0  0  0  0  0  0  0  0  0  0  0
   -4.8473   -2.4753    3.3792 H   0  0  0  0  0  0  0  0  0  0  0  0
   -7.3232   -2.6609    2.4092 H   0  0  0  0  0  0  0  0  0  0  0  0
   -6.4751   -3.7827    1.2918 H   0  0  0  0  0  0  0  0  0  0  0  0
   -6.4902   -4.1144    3.0571 H   0  0  0  0  0  0  0  0  0  0  0  0
  1  3  1  0  0  0  0
  1  7  1  0  0  0  0
  1  2  2  0  0  0  0
 40 41  1  0  0  0  0
 41 49  1  0  0  0  0
 41 42  2  0  0  0  0
  8  9  1  0  0  0  0
  9 17  1  0  0  0  0
  9 10  2  0  0  0  0
 18 19  1  0  0  0  0
 19 39  1  0  0  0  0
 19 20  2  0  0  0  0
 40 43  1  0  0  0  0
  8 11  1  0  0  0  0
 49 50  1  0  0  0  0
 22 23  1  0  0  0  0
 21 22  1  0  0  0  0
 23 24  1  0  0  0  0
 18 21  1  0  0  0  0
 24 25  1  0  0  0  0
 39 40  1  0  0  0  0
  7  8  1  0  0  0  0
 17 18  1  0  0  0  0
  3  4  1  0  0  0  0
  3  5  1  0  0  0  0
  3  6  1  0  0  0  0
 43 46  1  0  0  0  0
 43 47  1  0  0  0  0
 43 48  1  0  0  0  0
 11 14  1  0  0  0  0
 11 15  1  0  0  0  0
 11 16  1  0  0  0  0
 50 52  1  0  0  0  0
 50 53  1  0  0  0  0
 50 54  1  0  0  0  0
 22 30  1  0  0  0  0
 22 31  1  0  0  0  0
 23 32  1  0  0  0  0
 23 33  1  0  0  0  0
 21 28  1  0  0  0  0
 21 29  1  0  0  0  0
 24 34  1  0  0  0  0
 24 35  1  0  0  0  0
 40 45  1  0  0  0  0
  8 13  1  0  0  0  0
 18 27  1  0  0  0  0
 49 51  1  0  0  0  0
  7 12  1  0  0  0  0
 39 44  1  0  0  0  0
 17 26  1  0  0  0  0
 25 36  1  0  0  0  0
 25 37  1  0  0  0  0
 25 38  1  0  0  0  0
M  CHG  1  25   1
M  END
$$$$

  -OEChem-05262214473D

 54 53  0     1  0  0  0  0  0999 V2000
    2.6714    2.8829   -3.0005 C   0  0  0  0  0  0  0  0  0  0  0  0
    3.1741    2.4398   -1.9745 O   0  0  0  0  0  0  0  0  0  0  0  0
    3.5527    3.3077   -4.1279 C   0  0  0  0  0  0  0  0  0  0  0  0
    3.8407    4.3691   -4.0597 H   0  0  0  0  0  0  0  0  0  0  0  0
    4.5024    2.7495   -4.1526 H   0  0  0  0  0  0  0  0  0  0  0  0
    3.1208    3.1887   -5.1345 H   0  0  0  0  0  0  0  0  0  0  0  0
    1.3174    3.0407   -3.2467 N   0  0  0  0  0  0  0  0  0  0  0  0
    0.2944    2.6927   -2.2960 C   0  0  2  0  0  0  0  0  0  0  0  0
    0.2976    1.1783   -2.1349 C   0  0  0  0  0  0  0  0  0  0  0  0
    0.7500    0.4142   -2.9850 O   0  0  0  0  0  0  0  0  0  0  0  0
   -1.0710    3.1886   -2.7460 C   0  0  0  0  0  0  0  0  0  0  0  0
    1.0312    3.4224   -4.1464 H   0  0  0  0  0  0  0  0  0  0  0  0
    0.5725    3.1622   -1.3461 H   0  0  0  0  0  0  0  0  0  0  0  0
   -1.3666    2.7292   -3.6963 H   0  0  0  0  0  0  0  0  0  0  0  0
   -1.8434    2.9482   -2.0082 H   0  0  0  0  0  0  0  0  0  0  0  0
   -1.0632    4.2744   -2.8901 H   0  0  0  0  0  0  0  0  0  0  0  0
   -0.3037    0.7742   -0.9484 N   0  0  0  0  0  0  0  0  0  0  0  0
   -0.4352   -0.6095   -0.5718 C   0  0  2  0  0  0  0  0  0  0  0  0
   -1.1381   -0.6871    0.7795 C   0  0  0  0  0  0  0  0  0  0  0  0
   -0.7013   -0.1473    1.7941 O   0  0  0  0  0  0  0  0  0  0  0  0
    0.9139   -1.3379   -0.5845 C   0  0  0  0  0  0  0  0  0  0  0  0
    1.5176   -1.5133   -1.9841 C   0  0  0  0  0  0  0  0  0  0  0  0
    2.8476   -2.2679   -1.9217 C   0  0  0  0  0  0  0  0  0  0  0  0
    3.4553   -2.4185   -3.3084 C   0  0  0  0  0  0  0  0  0  0  0  0
    4.7502   -3.1319   -3.1966 N   0  3  0  0  0  0  0  0  0  0  0  0
   -0.6336    1.4811   -0.2948 H   0  0  0  0  0  0  0  0  0  0  0  0
   -1.0937   -1.0632   -1.3224 H   0  0  0  0  0  0  0  0  0  0  0  0
    1.6234   -0.7787    0.0391 H   0  0  0  0  0  0  0  0  0  0  0  0
    0.7993   -2.3260   -0.1219 H   0  0  0  0  0  0  0  0  0  0  0  0
    0.8209   -2.0650   -2.6259 H   0  0  0  0  0  0  0  0  0  0  0  0
    1.6802   -0.5333   -2.4478 H   0  0  0  0  0  0  0  0  0  0  0  0
    2.6877   -3.2578   -1.4765 H   0  0  0  0  0  0  0  0  0  0  0  0
    3.5446   -1.7301   -1.2669 H   0  0  0  0  0  0  0  0  0  0  0  0
    2.8209   -3.0141   -3.9716 H   0  0  0  0  0  0  0  0  0  0  0  0
    3.6655   -1.4498   -3.7715 H   0  0  0  0  0  0  0  0  0  0  0  0
    5.3334   -2.9676   -4.0244 H   0  0  0  0  0  0  0  0  0  0  0  0
    4.6055   -4.1439   -3.1087 H   0  0  0  0  0  0  0  0  0  0  0  0
    5.2745   -2.8155   -2.3734 H   0  0  0  0  0  0  0  0  0  0  0  0
   -2.3260   -1.4008    0.7144 N   0  0  0  0  0  0  0  0  0  0  0  0
   -3.1726   -1.5924    1.8678 C   0  0  2  0  0  0  0  0  0  0  0  0
   -4.1963   -2.6671    1.5266 C   0  0  0  0  0  0  0  0  0  0  0  0
   -4.5134   -2.9493    0.3729 O   0  0  0  0  0  0  0  0  0  0  0  0
   -3.8588   -0.2968    2.2718 C   0  0  0  0  0  0  0  0  0  0  0  0
   -2.6095   -1.8020   -0.1746 H   0  0  0  0  0  0  0  0  0  0  0  0
   -2.5268   -1.9466    2.6787 H   0  0  0  0  0  0  0  0  0  0  0  0
   -4.5102    0.0735    1.4717 H   0  0  0  0  0  0  0  0  0  0  0  0
   -4.4782   -0.4373    3.1638 H   0  0  0  0  0  0  0  0  0  0  0  0
   -3.1215    0.4838    2.4881 H   0  0  0  0  0  0  0  0  0  0  0  0
   -4.7457   -3.2442    2.6629 N   0  0  0  0  0  0  0  0  0  0  0  0
   -5.7497   -4.2807    2.6034 C   0  0  0  0  0  0  0  0  0  0  0  0
   -4.4095   -2.9620    3.5790 H   0  0  0  0  0  0  0  0  0  0  0  0
   -6.7503   -3.8253    2.6403 H   0  0  0  0  0  0  0  0  0  0  0  0
   -5.6383   -4.8454    1.6659 H   0  0  0  0  0  0  0  0  0  0  0  0
   -5.6250   -4.9614    3.4584 H   0  0  0  0  0  0  0  0  0  0  0  0
  1  3  1  0  0  0  0
  1  7  1  0  0  0  0
  1  2  2  0  0  0  0
 40 41  1  0  0  0  0
 41 49  1  0  0  0  0
 41 42  2  0  0  0  0
  8  9  1  0  0  0  0
  9 17  1  0  0  0  0
  9 10  2  0  0  0  0
 18 19  1  0  0  0  0
 19 39  1  0  0  0  0
 19 20  2  0  0  0  0
 40 43  1  0  0  0  0
  8 11  1  0  0  0  0
 49 50  1  0  0  0  0
 22 23  1  0  0  0  0
 21 22  1  0  0  0  0
 23 24  1  0  0  0  0
 18 21  1  0  0  0  0
 24 25  1  0  0  0  0
 39 40  1  0  0  0  0
  7  8  1  0  0  0  0
 17 18  1  0  0  0  0
  3  4  1  0  0  0  0
  3  5  1  0  0  0  0
  3  6  1  0  0  0  0
 43 46  1  0  0  0  0
 43 47  1  0  0  0  0
 43 48  1  0  0  0  0
 11 14  1  0  0  0  0
 11 15  1  0  0  0  0
 11 16  1  0  0  0  0
 50 52  1  0  0  0  0
 50 53  1  0  0  0  0
 50 54  1  0  0  0  0
 22 30  1  0  0  0  0
 22 31  1  0  0  0  0
 23 32  1  0  0  0  0
 23 33  1  0  0  0  0
 21 28  1  0  0  0  0
 21 29  1  0  0  0  0
 24 34  1  0  0  0  0
 24 35  1  0  0  0  0
 40 45  1  0  0  0  0
  8 13  1  0  0  0  0
 18 27  1  0  0  0  0
 49 51  1  0  0  0  0
  7 12  1  0  0  0  0
 39 44  1  0  0  0  0
 17 26  1  0  0  0  0
 25 36  1  0  0  0  0
 25 37  1  0  0  0  0
 25 38  1  0  0  0  0
M  CHG  1  25   1
M  END
$$$$

  -OEChem-05262214473D

 54 53  0     1  0  0  0  0  0999 V2000
    2.6714    2.8829   -3.0005 C   0  0  0  0  0  0  0  0  0  0  0  0
    3.1741    2.4398   -1.9745 O   0  0  0  0  0  0  0  0  0  0  0  0
    3.5527    3.3077   -4.1279 C   0  0  0  0  0  0  0  0  0  0  0  0
    3.8407    4.3691   -4.0597 H   0  0  0  0  0  0  0  0  0  0  0  0
    4.5024    2.7495   -4.1526 H   0  0  0  0  0  0  0  0  0  0  0  0
    3.1208    3.1887   -5.1345 H   0  0  0  0  0  0  0  0  0  0  0  0
    1.3174    3.0407   -3.2467 N   0  0  0  0  0  0  0  0  0  0  0  0
    0.2944    2.6927   -2.2960 C   0  0  2  0  0  0  0  0  0  0  0  0
    0.2976    1.1783   -2.1349 C   0  0  0  0  0  0  0  0  0  0  0  0
    0.7500    0.4142   -2.9850 O   0  0  0  0  0  0  0  0  0  0  0  0
   -1.0710    3.1886   -2.7460 C   0  0  0  0  0  0  0  0  0  0  0  0
    1.0312    3.4224   -4.1464 H   0  0  0  0  0  0  0  0  0  0  0  0
    0.5725    3.1622   -1.3461 H   0  0  0  0  0  0  0  0  0  0  0  0
   -1.3666    2.7292   -3.6963 H   0  0  0  0  0  0  0  0  0  0  0  0
   -1.8434    2.9482   -2.0082 H   0  0  0  0  0  0  0  0  0  0  0  0
   -1.0632    4.2744   -2.8901 H   0  0  0  0  0  0  0  0  0  0  0  0
   -0.3037    0.7742   -0.9484 N   0  0  0  0  0  0  0  0  0  0  0  0
   -0.4352   -0.6095   -0.5718 C   0  0  2  0  0  0  0  0  0  0  0  0
   -1.1381   -0.6871    0.7795 C   0  0  0  0  0  0  0  0  0  0  0  0
   -0.8639    0.0543    1.7211 O   0  0  0  0  0  0  0  0  0  0  0  0
    0.9139   -1.3379   -0.5845 C   0  0  0  0  0  0  0  0  0  0  0  0
    1.5176   -1.5133   -1.9841 C   0  0  0  0  0  0  0  0  0  0  0  0
    2.8476   -2.2679   -1.9217 C   0  0  0  0  0  0  0  0  0  0  0  0
    3.4553   -2.4185   -3.3084 C   0  0  0  0  0  0  0  0  0  0  0  0
    4.7502   -3.1319   -3.1966 N   0  3  0  0  0  0  0  0  0  0  0  0
   -0.6336    1.4811   -0.2948 H   0  0  0  0  0  0  0  0  0  0  0  0
   -1.0937   -1.0632   -1.3224 H   0  0  0  0  0  0  0  0  0  0  0  0
    1.6234   -0.7787    0.0391 H   0  0  0  0  0  0  0  0  0  0  0  0
    0.7993   -2.3260   -0.1219 H   0  0  0  0  0  0  0  0  0  0  0  0
    0.8209   -2.0650   -2.6259 H   0  0  0  0  0  0  0  0  0  0  0  0
    1.6802   -0.5333   -2.4478 H   0  0  0  0  0  0  0  0  0  0  0  0
    2.6877   -3.2578   -1.4765 H   0  0  0  0  0  0  0  0  0  0  0  0
    3.5446   -1.7301   -1.2669 H   0  0  0  0  0  0  0  0  0  0  0  0
    2.8209   -3.0141   -3.9716 H   0  0  0  0  0  0  0  0  0  0  0  0
    3.6655   -1.4498   -3.7715 H   0  0  0  0  0  0  0  0  0  0  0  0
    5.3334   -2.9676   -4.0244 H   0  0  0  0  0  0  0  0  0  0  0  0
    4.6055   -4.1439   -3.1087 H   0  0  0  0  0  0  0  0  0  0  0  0
    5.2745   -2.8155   -2.3734 H   0  0  0  0  0  0  0  0  0  0  0  0
   -2.1293   -1.6576    0.8020 N   0  0  0  0  0  0  0  0  0  0  0  0
   -2.9406   -1.9017    1.9707 C   0  0  2  0  0  0  0  0  0  0  0  0
   -3.6819   -3.2157    1.7626 C   0  0  0  0  0  0  0  0  0  0  0  0
   -3.8948   -3.6970    0.6517 O   0  0  0  0  0  0  0  0  0  0  0  0
   -3.9154   -0.7605    2.2158 C   0  0  0  0  0  0  0  0  0  0  0  0
   -2.2894   -2.2150   -0.0318 H   0  0  0  0  0  0  0  0  0  0  0  0
   -2.2532   -1.9997    2.8180 H   0  0  0  0  0  0  0  0  0  0  0  0
   -4.6122   -0.6469    1.3773 H   0  0  0  0  0  0  0  0  0  0  0  0
   -4.5102   -0.9337    3.1187 H   0  0  0  0  0  0  0  0  0  0  0  0
   -3.3821    0.1887    2.3356 H   0  0  0  0  0  0  0  0  0  0  0  0
   -4.1155   -3.7657    2.9607 N   0  0  0  0  0  0  0  0  0  0  0  0
   -4.8540   -5.0051    3.0276 C   0  0  0  0  0  0  0  0  0  0  0  0
   -3.8776   -3.3080    3.8358 H   0  0  0  0  0  0  0  0  0  0  0  0
   -5.9329   -4.7911    3.0099 H   0  0  0  0  0  0  0  0  0  0  0  0
   -4.5913   -5.6353    2.1651 H   0  0  0  0  0  0  0  0  0  0  0  0
   -4.6003   -5.5333    3.9585 H   0  0  0  0  0  0  0  0  0  0  0  0
  1  3  1  0  0  0  0
  1  7  1  0  0  0  0
  1  2  2  0  0  0  0
 40 41  1  0  0  0  0
 41 49  1  0  0  0  0
 41 42  2  0  0  0  0
  8  9  1  0  0  0  0
  9 17  1  0  0  0  0
  9 10  2  0  0  0  0
 18 19  1  0  0  0  0
 19 39  1  0  0  0  0
 19 20  2  0  0  0  0
 40 43  1  0  0  0  0
  8 11  1  0  0  0  0
 49 50  1  0  0  0  0
 22 23  1  0  0  0  0
 21 22  1  0  0  0  0
 23 24  1  0  0  0  0
 18 21  1  0  0  0  0
 24 25  1  0  0  0  0
 39 40  1  0  0  0  0
  7  8  1  0  0  0  0
 17 18  1  0  0  0  0
  3  4  1  0  0  0  0
  3  5  1  0  0  0  0
  3  6  1  0  0  0  0
 43 46  1  0  0  0  0
 43 47  1  0  0  0  0
 43 48  1  0  0  0  0
 11 14  1  0  0  0  0
 11 15  1  0  0  0  0
 11 16  1  0  0  0  0
 50 52  1  0  0  0  0
 50 53  1  0  0  0  0
 50 54  1  0  0  0  0
 22 30  1  0  0  0  0
 22 31  1  0  0  0  0
 23 32  1  0  0  0  0
 23 33  1  0  0  0  0
 21 28  1  0  0  0  0
 21 29  1  0  0  0  0
 24 34  1  0  0  0  0
 24 35  1  0  0  0  0
 40 45  1  0  0  0  0
  8 13  1  0  0  0  0
 18 27  1  0  0  0  0
 49 51  1  0  0  0  0
  7 12  1  0  0  0  0
 39 44  1  0  0  0  0
 17 26  1  0  0  0  0
 25 36  1  0  0  0  0
 25 37  1  0  0  0  0
 25 38  1  0  0  0  0
M  CHG  1  25   1
M  END
$$$$

  -OEChem-05262214473D

 54 53  0     1  0  0  0  0  0999 V2000
    2.6714    2.8829   -3.0005 C   0  0  0  0  0  0  0  0  0  0  0  0
    3.1741    2.4398   -1.9745 O   0  0  0  0  0  0  0  0  0  0  0  0
    3.5527    3.3077   -4.1279 C   0  0  0  0  0  0  0  0  0  0  0  0
    3.8407    4.3691   -4.0597 H   0  0  0  0  0  0  0  0  0  0  0  0
    4.5024    2.7495   -4.1526 H   0  0  0  0  0  0  0  0  0  0  0  0
    3.1208    3.1887   -5.1345 H   0  0  0  0  0  0  0  0  0  0  0  0
    1.3174    3.0407   -3.2467 N   0  0  0  0  0  0  0  0  0  0  0  0
    0.2944    2.6927   -2.2960 C   0  0  2  0  0  0  0  0  0  0  0  0
    0.2976    1.1783   -2.1349 C   0  0  0  0  0  0  0  0  0  0  0  0
    0.7500    0.4142   -2.9850 O   0  0  0  0  0  0  0  0  0  0  0  0
   -1.0710    3.1886   -2.7460 C   0  0  0  0  0  0  0  0  0  0  0  0
    1.0312    3.4224   -4.1464 H   0  0  0  0  0  0  0  0  0  0  0  0
    0.5725    3.1622   -1.3461 H   0  0  0  0  0  0  0  0  0  0  0  0
   -1.3666    2.7292   -3.6963 H   0  0  0  0  0  0  0  0  0  0  0  0
   -1.8434    2.9482   -2.0082 H   0  0  0  0  0  0  0  0  0  0  0  0
   -1.0632    4.2744   -2.8901 H   0  0  0  0  0  0  0  0  0  0  0  0
   -0.3037    0.7742   -0.9484 N   0  0  0  0  0  0  0  0  0  0  0  0
   -0.4352   -0.6095   -0.5718 C   0  0  2  0  0  0  0  0  0  0  0  0
   -1.1381   -0.6871    0.7795 C   0  0  0  0  0  0  0  0  0  0  0  0
   -1.0662    0.2031    1.6245 O   0  0  0  0  0  0  0  0  0  0  0  0
    0.9139   -1.3379   -0.5845 C   0  0  0  0  0  0  0  0  0  0  0  0
    1.5176   -1.5133   -1.9841 C   0  0  0  0  0  0  0  0  0  0  0  0
    2.8476   -2.2679   -1.9217 C   0  0  0  0  0  0  0  0  0  0  0  0
    3.4553   -2.4185   -3.3084 C   0  0  0  0  0  0  0  0  0  0  0  0
    4.7502   -3.1319   -3.1966 N   0  3  0  0  0  0  0  0  0  0  0  0
   -0.6336    1.4811   -0.2948 H   0  0  0  0  0  0  0  0  0  0  0  0
   -1.0937   -1.0632   -1.3224 H   0  0  0  0  0  0  0  0  0  0  0  0
    1.6234   -0.7787    0.0391 H   0  0  0  0  0  0  0  0  0  0  0  0
    0.7993   -2.3260   -0.1219 H   0  0  0  0  0  0  0  0  0  0  0  0
    0.8209   -2.0650   -2.6259 H   0  0  0  0  0  0  0  0  0  0  0  0
    1.6802   -0.5333   -2.4478 H   0  0  0  0  0  0  0  0  0  0  0  0
    2.6877   -3.2578   -1.4765 H   0  0  0  0  0  0  0  0  0  0  0  0
    3.5446   -1.7301   -1.2669 H   0  0  0  0  0  0  0  0  0  0  0  0
    2.8209   -3.0141   -3.9716 H   0  0  0  0  0  0  0  0  0  0  0  0
    3.6655   -1.4498   -3.7715 H   0  0  0  0  0  0  0  0  0  0  0  0
    5.3334   -2.9676   -4.0244 H   0  0  0  0  0  0  0  0  0  0  0  0
    4.6055   -4.1439   -3.1087 H   0  0  0  0  0  0  0  0  0  0  0  0
    5.2745   -2.8155   -2.3734 H   0  0  0  0  0  0  0  0  0  0  0  0
   -1.8815   -1.8501    0.9198 N   0  0  0  0  0  0  0  0  0  0  0  0
   -2.6469   -2.1349    2.1101 C   0  0  2  0  0  0  0  0  0  0  0  0
   -3.0624   -3.5994    2.0627 C   0  0  0  0  0  0  0  0  0  0  0  0
   -3.1295   -4.2442    1.0183 O   0  0  0  0  0  0  0  0  0  0  0  0
   -3.8630   -1.2280    2.2162 C   0  0  0  0  0  0  0  0  0  0  0  0
   -1.8874   -2.5236    0.1596 H   0  0  0  0  0  0  0  0  0  0  0  0
   -1.9785   -1.9717    2.9625 H   0  0  0  0  0  0  0  0  0  0  0  0
   -4.5444   -1.3773    1.3707 H   0  0  0  0  0  0  0  0  0  0  0  0
   -4.4267   -1.4259    3.1338 H   0  0  0  0  0  0  0  0  0  0  0  0
   -3.5641   -0.1742    2.2201 H   0  0  0  0  0  0  0  0  0  0  0  0
   -3.3911   -4.0895    3.3189 N   0  0  0  0  0  0  0  0  0  0  0  0
   -3.8284   -5.4488    3.5355 C   0  0  0  0  0  0  0  0  0  0  0  0
   -3.2879   -3.4895    4.1320 H   0  0  0  0  0  0  0  0  0  0  0  0
   -4.9267   -5.4924    3.4930 H   0  0  0  0  0  0  0  0  0  0  0  0
   -3.4053   -6.0987    2.7553 H   0  0  0  0  0  0  0  0  0  0  0  0
   -3.4860   -5.7910    4.5232 H   0  0  0  0  0  0  0  0  0  0  0  0
  1  3  1  0  0  0  0
  1  7  1  0  0  0  0
  1  2  2  0  0  0  0
 40 41  1  0  0  0  0
 41 49  1  0  0  0  0
 41 42  2  0  0  0  0
  8  9  1  0  0  0  0
  9 17  1  0  0  0  0
  9 10  2  0  0  0  0
 18 19  1  0  0  0  0
 19 39  1  0  0  0  0
 19 20  2  0  0  0  0
 40 43  1  0  0  0  0
  8 11  1  0  0  0  0
 49 50  1  0  0  0  0
 22 23  1  0  0  0  0
 21 22  1  0  0  0  0
 23 24  1  0  0  0  0
 18 21  1  0  0  0  0
 24 25  1  0  0  0  0
 39 40  1  0  0  0  0
  7  8  1  0  0  0  0
 17 18  1  0  0  0  0
  3  4  1  0  0  0  0
  3  5  1  0  0  0  0
  3  6  1  0  0  0  0
 43 46  1  0  0  0  0
 43 47  1  0  0  0  0
 43 48  1  0  0  0  0
 11 14  1  0  0  0  0
 11 15  1  0  0  0  0
 11 16  1  0  0  0  0
 50 52  1  0  0  0  0
 50 53  1  0  0  0  0
 50 54  1  0  0  0  0
 22 30  1  0  0  0  0
 22 31  1  0  0  0  0
 23 32  1  0  0  0  0
 23 33  1  0  0  0  0
 21 28  1  0  0  0  0
 21 29  1  0  0  0  0
 24 34  1  0  0  0  0
 24 35  1  0  0  0  0
 40 45  1  0  0  0  0
  8 13  1  0  0  0  0
 18 27  1  0  0  0  0
 49 51  1  0  0  0  0
  7 12  1  0  0  0  0
 39 44  1  0  0  0  0
 17 26  1  0  0  0  0
 25 36  1  0  0  0  0
 25 37  1  0  0  0  0
 25 38  1  0  0  0  0
M  CHG  1  25   1
M  END
$$$$

  -OEChem-05262214473D

 54 53  0     1  0  0  0  0  0999 V2000
    2.6714    2.8829   -3.0005 C   0  0  0  0  0  0  0  0  0  0  0  0
    3.1741    2.4398   -1.9745 O   0  0  0  0  0  0  0  0  0  0  0  0
    3.5527    3.3077   -4.1279 C   0  0  0  0  0  0  0  0  0  0  0  0
    3.8407    4.3691   -4.0597 H   0  0  0  0  0  0  0  0  0  0  0  0
    4.5024    2.7495   -4.1526 H   0  0  0  0  0  0  0  0  0  0  0  0
    3.1208    3.1887   -5.1345 H   0  0  0  0  0  0  0  0  0  0  0  0
    1.3174    3.0407   -3.2467 N   0  0  0  0  0  0  0  0  0  0  0  0
    0.2944    2.6927   -2.2960 C   0  0  2  0  0  0  0  0  0  0  0  0
    0.2976    1.1783   -2.1349 C   0  0  0  0  0  0  0  0  0  0  0  0
    0.7500    0.4142   -2.9850 O   0  0  0  0  0  0  0  0  0  0  0  0
   -1.0710    3.1886   -2.7460 C   0  0  0  0  0  0  0  0  0  0  0  0
    1.0312    3.4224   -4.1464 H   0  0  0  0  0  0  0  0  0  0  0  0
    0.5725    3.1622   -1.3461 H   0  0  0  0  0  0  0  0  0  0  0  0
   -1.3666    2.7292   -3.6963 H   0  0  0  0  0  0  0  0  0  0  0  0
   -1.8434    2.9482   -2.0082 H   0  0  0  0  0  0  0  0  0  0  0  0
   -1.0632    4.2744   -2.8901 H   0  0  0  0  0  0  0  0  0  0  0  0
   -0.3037    0.7742   -0.9484 N   0  0  0  0  0  0  0  0  0  0  0  0
   -0.4352   -0.6095   -0.5718 C   0  0  2  0  0  0  0  0  0  0  0  0
   -1.1381   -0.6871    0.7795 C   0  0  0  0  0  0  0  0  0  0  0  0
   -1.2944    0.2889    1.5107 O   0  0  0  0  0  0  0  0  0  0  0  0
    0.9139   -1.3379   -0.5845 C   0  0  0  0  0  0  0  0  0  0  0  0
    1.5176   -1.5133   -1.9841 C   0  0  0  0  0  0  0  0  0  0  0  0
    2.8476   -2.2679   -1.9217 C   0  0  0  0  0  0  0  0  0  0  0  0
    3.4553   -2.4185   -3.3084 C   0  0  0  0  0  0  0  0  0  0  0  0
    4.7502   -3.1319   -3.1966 N   0  3  0  0  0  0  0  0  0  0  0  0
   -0.6336    1.4811   -0.2948 H   0  0  0  0  0  0  0  0  0  0  0  0
   -1.0937   -1.0632   -1.3224 H   0  0  0  0  0  0  0  0  0  0  0  0
    1.6234   -0.7787    0.0391 H   0  0  0  0  0  0  0  0  0  0  0  0
    0.7993   -2.3260   -0.1219 H   0  0  0  0  0  0  0  0  0  0  0  0
    0.8209   -2.0650   -2.6259 H   0  0  0  0  0  0  0  0  0  0  0  0
    1.6802   -0.5333   -2.4478 H   0  0  0  0  0  0  0  0  0  0  0  0
    2.6877   -3.2578   -1.4765 H   0  0  0  0  0  0  0  0  0  0  0  0
    3.5446   -1.7301   -1.2669 H   0  0  0  0  0  0  0  0  0  0  0  0
    2.8209   -3.0141   -3.9716 H   0  0  0  0  0  0  0  0  0  0  0  0
    3.6655   -1.4498   -3.7715 H   0  0  0  0  0  0  0  0  0  0  0  0
    5.3334   -2.9676   -4.0244 H   0  0  0  0  0  0  0  0  0  0  0  0
    4.6055   -4.1439   -3.1087 H   0  0  0  0  0  0  0  0  0  0  0  0
    5.2745   -2.8155   -2.3734 H   0  0  0  0  0  0  0  0  0  0  0  0
   -1.5996   -1.9651    1.0598 N   0  0  0  0  0  0  0  0  0  0  0  0
   -2.3115   -2.2763    2.2764 C   0  0  2  0  0  0  0  0  0  0  0  0
   -2.3800   -3.7922    2.4066 C   0  0  0  0  0  0  0  0  0  0  0  0
   -2.2696   -4.5535    1.4478 O   0  0  0  0  0  0  0  0  0  0  0  0
   -3.7051   -1.6676    2.2730 C   0  0  0  0  0  0  0  0  0  0  0  0
   -1.4308   -2.7066    0.3865 H   0  0  0  0  0  0  0  0  0  0  0  0
   -1.7214   -1.8645    3.1023 H   0  0  0  0  0  0  0  0  0  0  0  0
   -4.3112   -2.0682    1.4523 H   0  0  0  0  0  0  0  0  0  0  0  0
   -4.2333   -1.8804    3.2083 H   0  0  0  0  0  0  0  0  0  0  0  0
   -3.6552   -0.5804    2.1494 H   0  0  0  0  0  0  0  0  0  0  0  0
   -2.6219   -4.1933    3.7130 N   0  0  0  0  0  0  0  0  0  0  0  0
   -2.7427   -5.5816    4.0926 C   0  0  0  0  0  0  0  0  0  0  0  0
   -2.6806   -3.4943    4.4476 H   0  0  0  0  0  0  0  0  0  0  0  0
   -3.8004   -5.8815    4.0564 H   0  0  0  0  0  0  0  0  0  0  0  0
   -2.1613   -6.2039    3.3963 H   0  0  0  0  0  0  0  0  0  0  0  0
   -2.3580   -5.7171    5.1141 H   0  0  0  0  0  0  0  0  0  0  0  0
  1  3  1  0  0  0  0
  1  7  1  0  0  0  0
  1  2  2  0  0  0  0
 40 41  1  0  0  0  0
 41 49  1  0  0  0  0
 41 42  2  0  0  0  0
  8  9  1  0  0  0  0
  9 17  1  0  0  0  0
  9 10  2  0  0  0  0
 18 19  1  0  0  0  0
 19 39  1  0  0  0  0
 19 20  2  0  0  0  0
 40 43  1  0  0  0  0
  8 11  1  0  0  0  0
 49 50  1  0  0  0  0
 22 23  1  0  0  0  0
 21 22  1  0  0  0  0
 23 24  1  0  0  0  0
 18 21  1  0  0  0  0
 24 25  1  0  0  0  0
 39 40  1  0  0  0  0
  7  8  1  0  0  0  0
 17 18  1  0  0  0  0
  3  4  1  0  0  0  0
  3  5  1  0  0  0  0
  3  6  1  0  0  0  0
 43 46  1  0  0  0  0
 43 47  1  0  0  0  0
 43 48  1  0  0  0  0
 11 14  1  0  0  0  0
 11 15  1  0  0  0  0
 11 16  1  0  0  0  0
 50 52  1  0  0  0  0
 50 53  1  0  0  0  0
 50 54  1  0  0  0  0
 22 30  1  0  0  0  0
 22 31  1  0  0  0  0
 23 32  1  0  0  0  0
 23 33  1  0  0  0  0
 21 28  1  0  0  0  0
 21 29  1  0  0  0  0
 24 34  1  0  0  0  0
 24 35  1  0  0  0  0
 40 45  1  0  0  0  0
  8 13  1  0  0  0  0
 18 27  1  0  0  0  0
 49 51  1  0  0  0  0
  7 12  1  0  0  0  0
 39 44  1  0  0  0  0
 17 26  1  0  0  0  0
 25 36  1  0  0  0  0
 25 37  1  0  0  0  0
 25 38  1  0  0  0  0
M  CHG  1  25   1
M  END
$$$$

  -OEChem-05262214473D

 54 53  0     1  0  0  0  0  0999 V2000
    2.6714    2.8829   -3.0005 C   0  0  0  0  0  0  0  0  0  0  0  0
    3.1741    2.4398   -1.9745 O   0  0  0  0  0  0  0  0  0  0  0  0
    3.5527    3.3077   -4.1279 C   0  0  0  0  0  0  0  0  0  0  0  0
    3.8407    4.3691   -4.0597 H   0  0  0  0  0  0  0  0  0  0  0  0
    4.5024    2.7495   -4.1526 H   0  0  0  0  0  0  0  0  0  0  0  0
    3.1208    3.1887   -5.1345 H   0  0  0  0  0  0  0  0  0  0  0  0
    1.3174    3.0407   -3.2467 N   0  0  0  0  0  0  0  0  0  0  0  0
    0.2944    2.6927   -2.2960 C   0  0  2  0  0  0  0  0  0  0  0  0
    0.2976    1.1783   -2.1349 C   0  0  0  0  0  0  0  0  0  0  0  0
    0.7500    0.4142   -2.9850 O   0  0  0  0  0  0  0  0  0  0  0  0
   -1.0710    3.1886   -2.7460 C   0  0  0  0  0  0  0  0  0  0  0  0
    1.0312    3.4224   -4.1464 H   0  0  0  0  0  0  0  0  0  0  0  0
    0.5725    3.1622   -1.3461 H   0  0  0  0  0  0  0  0  0  0  0  0
   -1.3666    2.7292   -3.6963 H   0  0  0  0  0  0  0  0  0  0  0  0
   -1.8434    2.9482   -2.0082 H   0  0  0  0  0  0  0  0  0  0  0  0
   -1.0632    4.2744   -2.8901 H   0  0  0  0  0  0  0  0  0  0  0  0
   -0.3037    0.7742   -0.9484 N   0  0  0  0  0  0  0  0  0  0  0  0
   -0.4352   -0.6095   -0.5718 C   0  0  2  0  0  0  0  0  0  0  0  0
   -1.4465   -0.7162    0.5649 C   0  0  0  0  0  0  0  0  0  0  0  0
   -2.0440    0.2554    1.0238 O   0  0  0  0  0  0  0  0  0  0  0  0
    0.9186   -1.2408   -0.2262 C   0  0  0  0  0  0  0  0  0  0  0  0
    1.8624   -1.3942   -1.4261 C   0  0  0  0  0  0  0  0  0  0  0  0
    3.1807   -2.0519   -1.0117 C   0  0  0  0  0  0  0  0  0  0  0  0
    4.1237   -2.1801   -2.1989 C   0  0  0  0  0  0  0  0  0  0  0  0
    5.3931   -2.7985   -1.7467 N   0  3  0  0  0  0  0  0  0  0  0  0
   -0.6336    1.4811   -0.2948 H   0  0  0  0  0  0  0  0  0  0  0  0
   -0.8548   -1.1199   -1.4472 H   0  0  0  0  0  0  0  0  0  0  0  0
    1.4124   -0.6236    0.5355 H   0  0  0  0  0  0  0  0  0  0  0  0
    0.7564   -2.2274    0.2251 H   0  0  0  0  0  0  0  0  0  0  0  0
    1.3851   -2.0034   -2.2025 H   0  0  0  0  0  0  0  0  0  0  0  0
    2.0719   -0.4123   -1.8663 H   0  0  0  0  0  0  0  0  0  0  0  0
    2.9792   -3.0438   -0.5884 H   0  0  0  0  0  0  0  0  0  0  0  0
    3.6560   -1.4564   -0.2223 H   0  0  0  0  0  0  0  0  0  0  0  0
    3.7147   -2.8290   -2.9791 H   0  0  0  0  0  0  0  0  0  0  0  0
    4.3796   -1.2061   -2.6264 H   0  0  0  0  0  0  0  0  0  0  0  0
    6.1525   -2.6059   -2.4089 H   0  0  0  0  0  0  0  0  0  0  0  0
    5.2967   -3.8168   -1.6648 H   0  0  0  0  0  0  0  0  0  0  0  0
    5.6738   -2.4334   -0.8299 H   0  0  0  0  0  0  0  0  0  0  0  0
   -1.6290   -2.0257    0.9855 N   0  0  0  0  0  0  0  0  0  0  0  0
   -2.5516   -2.3735    2.0397 C   0  0  2  0  0  0  0  0  0  0  0  0
   -2.2679   -3.8102    2.4579 C   0  0  0  0  0  0  0  0  0  0  0  0
   -1.7032   -4.6222    1.7280 O   0  0  0  0  0  0  0  0  0  0  0  0
   -3.9947   -2.2141    1.5871 C   0  0  0  0  0  0  0  0  0  0  0  0
   -1.0956   -2.7642    0.5365 H   0  0  0  0  0  0  0  0  0  0  0  0
   -2.3422   -1.7003    2.8782 H   0  0  0  0  0  0  0  0  0  0  0  0
   -4.2232   -2.8807    0.7475 H   0  0  0  0  0  0  0  0  0  0  0  0
   -4.6929   -2.4508    2.3967 H   0  0  0  0  0  0  0  0  0  0  0  0
   -4.1889   -1.1873    1.2586 H   0  0  0  0  0  0  0  0  0  0  0  0
   -2.7579   -4.0912    3.7256 N   0  0  0  0  0  0  0  0  0  0  0  0
   -2.6251   -5.3904    4.3425 C   0  0  0  0  0  0  0  0  0  0  0  0
   -3.1960   -3.3519    4.2672 H   0  0  0  0  0  0  0  0  0  0  0  0
   -3.5180   -5.9941    4.1230 H   0  0  0  0  0  0  0  0  0  0  0  0
   -1.7335   -5.8962    3.9435 H   0  0  0  0  0  0  0  0  0  0  0  0
   -2.5223   -5.2704    5.4311 H   0  0  0  0  0  0  0  0  0  0  0  0
  1  3  1  0  0  0  0
  1  7  1  0  0  0  0
  1  2  2  0  0  0  0
 40 41  1  0  0  0  0
 41 49  1  0  0  0  0
 41 42  2  0  0  0  0
  8  9  1  0  0  0  0
  9 17  1  0  0  0  0
  9 10  2  0  0  0  0
 18 19  1  0  0  0  0
 19 39  1  0  0  0  0
 19 20  2  0  0  0  0
 40 43  1  0  0  0  0
  8 11  1  0  0  0  0
 49 50  1  0  0  0  0
 22 23  1  0  0  0  0
 21 22  1  0  0  0  0
 23 24  1  0  0  0  0
 18 21  1  0  0  0  0
 24 25  1  0  0  0  0
 39 40  1  0  0  0  0
  7  8  1  0  0  0  0
 17 18  1  0  0  0  0
  3  4  1  0  0  0  0
  3  5  1  0  0  0  0
  3  6  1  0  0  0  0
 43 46  1  0  0  0  0
 43 47  1  0  0  0  0
 43 48  1  0  0  0  0
 11 14  1  0  0  0  0
 11 15  1  0  0  0  0
 11 16  1  0  0  0  0
 50 52  1  0  0  0  0
 50 53  1  0  0  0  0
 50 54  1  0  0  0  0
 22 30  1  0  0  0  0
 22 31  1  0  0  0  0
 23 32  1  0  0  0  0
 23 33  1  0  0  0  0
 21 28  1  0  0  0  0
 21 29  1  0  0  0  0
 24 34  1  0  0  0  0
 24 35  1  0  0  0  0
 40 45  1  0  0  0  0
  8 13  1  0  0  0  0
 18 27  1  0  0  0  0
 49 51  1  0  0  0  0
  7 12  1  0  0  0  0
 39 44  1  0  0  0  0
 17 26  1  0  0  0  0
 25 36  1  0  0  0  0
 25 37  1  0  0  0  0
 25 38  1  0  0  0  0
M  CHG  1  25   1
M  END
$$$$

  -OEChem-05262214473D

 54 53  0     1  0  0  0  0  0999 V2000
    2.6714    2.8829   -3.0005 C   0  0  0  0  0  0  0  0  0  0  0  0
    3.1741    2.4398   -1.9745 O   0  0  0  0  0  0  0  0  0  0  0  0
    3.5527    3.3077   -4.1279 C   0  0  0  0  0  0  0  0  0  0  0  0
    3.8407    4.3691   -4.0597 H   0  0  0  0  0  0  0  0  0  0  0  0
    4.5024    2.7495   -4.1526 H   0  0  0  0  0  0  0  0  0  0  0  0
    3.1208    3.1887   -5.1345 H   0  0  0  0  0  0  0  0  0  0  0  0
    1.3174    3.0407   -3.2467 N   0  0  0  0  0  0  0  0  0  0  0  0
    0.2944    2.6927   -2.2960 C   0  0  2  0  0  0  0  0  0  0  0  0
    0.2976    1.1783   -2.1349 C   0  0  0  0  0  0  0  0  0  0  0  0
    0.7500    0.4142   -2.9850 O   0  0  0  0  0  0  0  0  0  0  0  0
   -1.0710    3.1886   -2.7460 C   0  0  0  0  0  0  0  0  0  0  0  0
    1.0312    3.4224   -4.1464 H   0  0  0  0  0  0  0  0  0  0  0  0
    0.5725    3.1622   -1.3461 H   0  0  0  0  0  0  0  0  0  0  0  0
   -1.3666    2.7292   -3.6963 H   0  0  0  0  0  0  0  0  0  0  0  0
   -1.8434    2.9482   -2.0082 H   0  0  0  0  0  0  0  0  0  0  0  0
   -1.0632    4.2744   -2.8901 H   0  0  0  0  0  0  0  0  0  0  0  0
   -0.3037    0.7742   -0.9484 N   0  0  0  0  0  0  0  0  0  0  0  0
   -0.4352   -0.6095   -0.5718 C   0  0  2  0  0  0  0  0  0  0  0  0
   -1.4465   -0.7162    0.5649 C   0  0  0  0  0  0  0  0  0  0  0  0
   -2.2345    0.1841    0.8476 O   0  0  0  0  0  0  0  0  0  0  0  0
    0.9186   -1.2408   -0.2262 C   0  0  0  0  0  0  0  0  0  0  0  0
    1.8624   -1.3942   -1.4261 C   0  0  0  0  0  0  0  0  0  0  0  0
    3.1807   -2.0519   -1.0117 C   0  0  0  0  0  0  0  0  0  0  0  0
    4.1237   -2.1801   -2.1989 C   0  0  0  0  0  0  0  0  0  0  0  0
    5.3931   -2.7985   -1.7467 N   0  3  0  0  0  0  0  0  0  0  0  0
   -0.6336    1.4811   -0.2948 H   0  0  0  0  0  0  0  0  0  0  0  0
   -0.8548   -1.1199   -1.4472 H   0  0  0  0  0  0  0  0  0  0  0  0
    1.4124   -0.6236    0.5355 H   0  0  0  0  0  0  0  0  0  0  0  0
    0.7564   -2.2274    0.2251 H   0  0  0  0  0  0  0  0  0  0  0  0
    1.3851   -2.0034   -2.2025 H   0  0  0  0  0  0  0  0  0  0  0  0
    2.0719   -0.4123   -1.8663 H   0  0  0  0  0  0  0  0  0  0  0  0
    2.9792   -3.0438   -0.5884 H   0  0  0  0  0  0  0  0  0  0  0  0
    3.6560   -1.4564   -0.2223 H   0  0  0  0  0  0  0  0  0  0  0  0
    3.7147   -2.8290   -2.9791 H   0  0  0  0  0  0  0  0  0  0  0  0
    4.3796   -1.2061   -2.6264 H   0  0  0  0  0  0  0  0  0  0  0  0
    6.1525   -2.6059   -2.4089 H   0  0  0  0  0  0  0  0  0  0  0  0
    5.2967   -3.8168   -1.6648 H   0  0  0  0  0  0  0  0  0  0  0  0
    5.6738   -2.4334   -0.8299 H   0  0  0  0  0  0  0  0  0  0  0  0
   -1.3897   -1.9453    1.2059 N   0  0  0  0  0  0  0  0  0  0  0  0
   -2.2649   -2.2818    2.3033 C   0  0  2  0  0  0  0  0  0  0  0  0
   -1.7264   -3.5436    2.9646 C   0  0  0  0  0  0  0  0  0  0  0  0
   -0.9916   -4.3422    2.3873 O   0  0  0  0  0  0  0  0  0  0  0  0
   -3.6951   -2.4853    1.8281 C   0  0  0  0  0  0  0  0  0  0  0  0
   -0.7094   -2.6314    0.8925 H   0  0  0  0  0  0  0  0  0  0  0  0
   -2.2176   -1.4483    3.0126 H   0  0  0  0  0  0  0  0  0  0  0  0
   -3.7624   -3.3163    1.1166 H   0  0  0  0  0  0  0  0  0  0  0  0
   -4.3630   -2.7123    2.6656 H   0  0  0  0  0  0  0  0  0  0  0  0
   -4.0706   -1.5869    1.3263 H   0  0  0  0  0  0  0  0  0  0  0  0
   -2.1976   -3.6951    4.2612 N   0  0  0  0  0  0  0  0  0  0  0  0
   -1.8403   -4.8196    5.0942 C   0  0  0  0  0  0  0  0  0  0  0  0
   -2.7876   -2.9741    4.6659 H   0  0  0  0  0  0  0  0  0  0  0  0
   -2.5930   -5.6138    4.9815 H   0  0  0  0  0  0  0  0  0  0  0  0
   -0.8550   -5.2026    4.7901 H   0  0  0  0  0  0  0  0  0  0  0  0
   -1.8004   -4.4988    6.1456 H   0  0  0  0  0  0  0  0  0  0  0  0
  1  3  1  0  0  0  0
  1  7  1  0  0  0  0
  1  2  2  0  0  0  0
 40 41  1  0  0  0  0
 41 49  1  0  0  0  0
 41 42  2  0  0  0  0
  8  9  1  0  0  0  0
  9 17  1  0  0  0  0
  9 10  2  0  0  0  0
 18 19  1  0  0  0  0
 19 39  1  0  0  0  0
 19 20  2  0  0  0  0
 40 43  1  0  0  0  0
  8 11  1  0  0  0  0
 49 50  1  0  0  0  0
 22 23  1  0  0  0  0
 21 22  1  0  0  0  0
 23 24  1  0  0  0  0
 18 21  1  0  0  0  0
 24 25  1  0  0  0  0
 39 40  1  0  0  0  0
  7  8  1  0  0  0  0
 17 18  1  0  0  0  0
  3  4  1  0  0  0  0
  3  5  1  0  0  0  0
  3  6  1  0  0  0  0
 43 46  1  0  0  0  0
 43 47  1  0  0  0  0
 43 48  1  0  0  0  0
 11 14  1  0  0  0  0
 11 15  1  0  0  0  0
 11 16  1  0  0  0  0
 50 52  1  0  0  0  0
 50 53  1  0  0  0  0
 50 54  1  0  0  0  0
 22 30  1  0  0  0  0
 22 31  1  0  0  0  0
 23 32  1  0  0  0  0
 23 33  1  0  0  0  0
 21 28  1  0  0  0  0
 21 29  1  0  0  0  0
 24 34  1  0  0  0  0
 24 35  1  0  0  0  0
 40 45  1  0  0  0  0
  8 13  1  0  0  0  0
 18 27  1  0  0  0  0
 49 51  1  0  0  0  0
  7 12  1  0  0  0  0
 39 44  1  0  0  0  0
 17 26  1  0  0  0  0
 25 36  1  0  0  0  0
 25 37  1  0  0  0  0
 25 38  1  0  0  0  0
M  CHG  1  25   1
M  END
$$$$

  -OEChem-05262214473D

 54 53  0     1  0  0  0  0  0999 V2000
    2.6714    2.8829   -3.0005 C   0  0  0  0  0  0  0  0  0  0  0  0
    3.1741    2.4398   -1.9745 O   0  0  0  0  0  0  0  0  0  0  0  0
    3.5527    3.3077   -4.1279 C   0  0  0  0  0  0  0  0  0  0  0  0
    3.8407    4.3691   -4.0597 H   0  0  0  0  0  0  0  0  0  0  0  0
    4.5024    2.7495   -4.1526 H   0  0  0  0  0  0  0  0  0  0  0  0
    3.1208    3.1887   -5.1345 H   0  0  0  0  0  0  0  0  0  0  0  0
    1.3174    3.0407   -3.2467 N   0  0  0  0  0  0  0  0  0  0  0  0
    0.2944    2.6927   -2.2960 C   0  0  2  0  0  0  0  0  0  0  0  0
    0.2976    1.1783   -2.1349 C   0  0  0  0  0  0  0  0  0  0  0  0
    0.7500    0.4142   -2.9850 O   0  0  0  0  0  0  0  0  0  0  0  0
   -1.0710    3.1886   -2.7460 C   0  0  0  0  0  0  0  0  0  0  0  0
    1.0312    3.4224   -4.1464 H   0  0  0  0  0  0  0  0  0  0  0  0
    0.5725    3.1622   -1.3461 H   0  0  0  0  0  0  0  0  0  0  0  0
   -1.3666    2.7292   -3.6963 H   0  0  0  0  0  0  0  0  0  0  0  0
   -1.8434    2.9482   -2.0082 H   0  0  0  0  0  0  0  0  0  0  0  0
   -1.0632    4.2744   -2.8901 H   0  0  0  0  0  0  0  0  0  0  0  0
   -0.3037    0.7742   -0.9484 N   0  0  0  0  0  0  0  0  0  0  0  0
   -0.4352   -0.6095   -0.5718 C   0  0  2  0  0  0  0  0  0  0  0  0
   -1.4465   -0.7162    0.5649 C   0  0  0  0  0  0  0  0  0  0  0  0
   -2.4016    0.0483    0.6862 O   0  0  0  0  0  0  0  0  0  0  0  0
    0.9186   -1.2408   -0.2262 C   0  0  0  0  0  0  0  0  0  0  0  0
    1.8624   -1.3942   -1.4261 C   0  0  0  0  0  0  0  0  0  0  0  0
    3.1807   -2.0519   -1.0117 C   0  0  0  0  0  0  0  0  0  0  0  0
    4.1237   -2.1801   -2.1989 C   0  0  0  0  0  0  0  0  0  0  0  0
    5.3931   -2.7985   -1.7467 N   0  3  0  0  0  0  0  0  0  0  0  0
   -0.6336    1.4811   -0.2948 H   0  0  0  0  0  0  0  0  0  0  0  0
   -0.8548   -1.1199   -1.4472 H   0  0  0  0  0  0  0  0  0  0  0  0
    1.4124   -0.6236    0.5355 H   0  0  0  0  0  0  0  0  0  0  0  0
    0.7564   -2.2274    0.2251 H   0  0  0  0  0  0  0  0  0  0  0  0
    1.3851   -2.0034   -2.2025 H   0  0  0  0  0  0  0  0  0  0  0  0
    2.0719   -0.4123   -1.8663 H   0  0  0  0  0  0  0  0  0  0  0  0
    2.9792   -3.0438   -0.5884 H   0  0  0  0  0  0  0  0  0  0  0  0
    3.6560   -1.4564   -0.2223 H   0  0  0  0  0  0  0  0  0  0  0  0
    3.7147   -2.8290   -2.9791 H   0  0  0  0  0  0  0  0  0  0  0  0
    4.3796   -1.2061   -2.6264 H   0  0  0  0  0  0  0  0  0  0  0  0
    6.1525   -2.6059   -2.4089 H   0  0  0  0  0  0  0  0  0  0  0  0
    5.2967   -3.8168   -1.6648 H   0  0  0  0  0  0  0  0  0  0  0  0
    5.6738   -2.4334   -0.8299 H   0  0  0  0  0  0  0  0  0  0  0  0
   -1.1780   -1.7837    1.4094 N   0  0  0  0  0  0  0  0  0  0  0  0
   -2.0105   -2.0926    2.5474 C   0  0  2  0  0  0  0  0  0  0  0  0
   -1.2639   -3.0946    3.4182 C   0  0  0  0  0  0  0  0  0  0  0  0
   -0.3702   -3.8213    2.9889 O   0  0  0  0  0  0  0  0  0  0  0  0
   -3.3579   -2.6481    2.1128 C   0  0  0  0  0  0  0  0  0  0  0  0
   -0.3685   -2.3675    1.2205 H   0  0  0  0  0  0  0  0  0  0  0  0
   -2.1483   -1.1578    3.1015 H   0  0  0  0  0  0  0  0  0  0  0  0
   -3.2400   -3.5849    1.5561 H   0  0  0  0  0  0  0  0  0  0  0  0
   -3.9988   -2.8551    2.9762 H   0  0  0  0  0  0  0  0  0  0  0  0
   -3.8805   -1.9384    1.4624 H   0  0  0  0  0  0  0  0  0  0  0  0
   -1.7424   -3.1124    4.7208 N   0  0  0  0  0  0  0  0  0  0  0  0
   -1.2059   -3.9878    5.7366 C   0  0  0  0  0  0  0  0  0  0  0  0
   -2.4733   -2.4619    4.9936 H   0  0  0  0  0  0  0  0  0  0  0  0
   -1.7884   -4.9206    5.7624 H   0  0  0  0  0  0  0  0  0  0  0  0
   -0.1556   -4.2179    5.5047 H   0  0  0  0  0  0  0  0  0  0  0  0
   -1.2649   -3.4917    6.7165 H   0  0  0  0  0  0  0  0  0  0  0  0
  1  3  1  0  0  0  0
  1  7  1  0  0  0  0
  1  2  2  0  0  0  0
 40 41  1  0  0  0  0
 41 49  1  0  0  0  0
 41 42  2  0  0  0  0
  8  9  1  0  0  0  0
  9 17  1  0  0  0  0
  9 10  2  0  0  0  0
 18 19  1  0  0  0  0
 19 39  1  0  0  0  0
 19 20  2  0  0  0  0
 40 43  1  0  0  0  0
  8 11  1  0  0  0  0
 49 50  1  0  0  0  0
 22 23  1  0  0  0  0
 21 22  1  0  0  0  0
 23 24  1  0  0  0  0
 18 21  1  0  0  0  0
 24 25  1  0  0  0  0
 39 40  1  0  0  0  0
  7  8  1  0  0  0  0
 17 18  1  0  0  0  0
  3  4  1  0  0  0  0
  3  5  1  0  0  0  0
  3  6  1  0  0  0  0
 43 46  1  0  0  0  0
 43 47  1  0  0  0  0
 43 48  1  0  0  0  0
 11 14  1  0  0  0  0
 11 15  1  0  0  0  0
 11 16  1  0  0  0  0
 50 52  1  0  0  0  0
 50 53  1  0  0  0  0
 50 54  1  0  0  0  0
 22 30  1  0  0  0  0
 22 31  1  0  0  0  0
 23 32  1  0  0  0  0
 23 33  1  0  0  0  0
 21 28  1  0  0  0  0
 21 29  1  0  0  0  0
 24 34  1  0  0  0  0
 24 35  1  0  0  0  0
 40 45  1  0  0  0  0
  8 13  1  0  0  0  0
 18 27  1  0  0  0  0
 49 51  1  0  0  0  0
  7 12  1  0  0  0  0
 39 44  1  0  0  0  0
 17 26  1  0  0  0  0
 25 36  1  0  0  0  0
 25 37  1  0  0  0  0
 25 38  1  0  0  0  0
M  CHG  1  25   1
M  END
$$$$

  -OEChem-05262214473D

 54 53  0     1  0  0  0  0  0999 V2000
    2.6714    2.8829   -3.0005 C   0  0  0  0  0  0  0  0  0  0  0  0
    3.1741    2.4398   -1.9745 O   0  0  0  0  0  0  0  0  0  0  0  0
    3.5527    3.3077   -4.1279 C   0  0  0  0  0  0  0  0  0  0  0  0
    3.8407    4.3691   -4.0597 H   0  0  0  0  0  0  0  0  0  0  0  0
    4.5024    2.7495   -4.1526 H   0  0  0  0  0  0  0  0  0  0  0  0
    3.1208    3.1887   -5.1345 H   0  0  0  0  0  0  0  0  0  0  0  0
    1.3174    3.0407   -3.2467 N   0  0  0  0  0  0  0  0  0  0  0  0
    0.2944    2.6927   -2.2960 C   0  0  2  0  0  0  0  0  0  0  0  0
    0.2976    1.1783   -2.1349 C   0  0  0  0  0  0  0  0  0  0  0  0
    0.7500    0.4142   -2.9850 O   0  0  0  0  0  0  0  0  0  0  0  0
   -1.0710    3.1886   -2.7460 C   0  0  0  0  0  0  0  0  0  0  0  0
    1.0312    3.4224   -4.1464 H   0  0  0  0  0  0  0  0  0  0  0  0
    0.5725    3.1622   -1.3461 H   0  0  0  0  0  0  0  0  0  0  0  0
   -1.3666    2.7292   -3.6963 H   0  0  0  0  0  0  0  0  0  0  0  0
   -1.8434    2.9482   -2.0082 H   0  0  0  0  0  0  0  0  0  0  0  0
   -1.0632    4.2744   -2.8901 H   0  0  0  0  0  0  0  0  0  0  0  0
   -0.3037    0.7742   -0.9484 N   0  0  0  0  0  0  0  0  0  0  0  0
   -0.4352   -0.6095   -0.5718 C   0  0  2  0  0  0  0  0  0  0  0  0
   -1.4465   -0.7162    0.5649 C   0  0  0  0  0  0  0  0  0  0  0  0
   -2.5339   -0.1427    0.5507 O   0  0  0  0  0  0  0  0  0  0  0  0
    0.9186   -1.2408   -0.2262 C   0  0  0  0  0  0  0  0  0  0  0  0
    1.8624   -1.3942   -1.4261 C   0  0  0  0  0  0  0  0  0  0  0  0
    3.1807   -2.0519   -1.0117 C   0  0  0  0  0  0  0  0  0  0  0  0
    4.1237   -2.1801   -2.1989 C   0  0  0  0  0  0  0  0  0  0  0  0
    5.3931   -2.7985   -1.7467 N   0  3  0  0  0  0  0  0  0  0  0  0
   -0.6336    1.4811   -0.2948 H   0  0  0  0  0  0  0  0  0  0  0  0
   -0.8548   -1.1199   -1.4472 H   0  0  0  0  0  0  0  0  0  0  0  0
    1.4124   -0.6236    0.5355 H   0  0  0  0  0  0  0  0  0  0  0  0
    0.7564   -2.2274    0.2251 H   0  0  0  0  0  0  0  0  0  0  0  0
    1.3851   -2.0034   -2.2025 H   0  0  0  0  0  0  0  0  0  0  0  0
    2.0719   -0.4123   -1.8663 H   0  0  0  0  0  0  0  0  0  0  0  0
    2.9792   -3.0438   -0.5884 H   0  0  0  0  0  0  0  0  0  0  0  0
    3.6560   -1.4564   -0.2223 H   0  0  0  0  0  0  0  0  0  0  0  0
    3.7147   -2.8290   -2.9791 H   0  0  0  0  0  0  0  0  0  0  0  0
    4.3796   -1.2061   -2.6264 H   0  0  0  0  0  0  0  0  0  0  0  0
    6.1525   -2.6059   -2.4089 H   0  0  0  0  0  0  0  0  0  0  0  0
    5.2967   -3.8168   -1.6648 H   0  0  0  0  0  0  0  0  0  0  0  0
    5.6738   -2.4334   -0.8299 H   0  0  0  0  0  0  0  0  0  0  0  0
   -1.0083   -1.5519    1.5820 N   0  0  0  0  0  0  0  0  0  0  0  0
   -1.8057   -1.8190    2.7553 C   0  0  2  0  0  0  0  0  0  0  0  0
   -0.9120   -2.4939    3.7875 C   0  0  0  0  0  0  0  0  0  0  0  0
    0.1187   -3.0950    3.4919 O   0  0  0  0  0  0  0  0  0  0  0  0
   -3.0058   -2.6914    2.4219 C   0  0  0  0  0  0  0  0  0  0  0  0
   -0.0961   -1.9905    1.4982 H   0  0  0  0  0  0  0  0  0  0  0  0
   -2.1390   -0.8485    3.1388 H   0  0  0  0  0  0  0  0  0  0  0  0
   -2.6916   -3.6681    2.0362 H   0  0  0  0  0  0  0  0  0  0  0  0
   -3.6251   -2.8695    3.3073 H   0  0  0  0  0  0  0  0  0  0  0  0
   -3.6315   -2.2179    1.6577 H   0  0  0  0  0  0  0  0  0  0  0  0
   -1.4235   -2.3829    5.0729 N   0  0  0  0  0  0  0  0  0  0  0  0
   -0.7653   -2.9518    6.2258 C   0  0  0  0  0  0  0  0  0  0  0  0
   -2.2745   -1.8503    5.2279 H   0  0  0  0  0  0  0  0  0  0  0  0
   -1.1591   -3.9619    6.4122 H   0  0  0  0  0  0  0  0  0  0  0  0
    0.3172   -3.0092    6.0386 H   0  0  0  0  0  0  0  0  0  0  0  0
   -0.9523   -2.3175    7.1048 H   0  0  0  0  0  0  0  0  0  0  0  0
  1  3  1  0  0  0  0
  1  7  1  0  0  0  0
  1  2  2  0  0  0  0
 40 41  1  0  0  0  0
 41 49  1  0  0  0  0
 41 42  2  0  0  0  0
  8  9  1  0  0  0  0
  9 17  1  0  0  0  0
  9 10  2  0  0  0  0
 18 19  1  0  0  0  0
 19 39  1  0  0  0  0
 19 20  2  0  0  0  0
 40 43  1  0  0  0  0
  8 11  1  0  0  0  0
 49 50  1  0  0  0  0
 22 23  1  0  0  0  0
 21 22  1  0  0  0  0
 23 24  1  0  0  0  0
 18 21  1  0  0  0  0
 24 25  1  0  0  0  0
 39 40  1  0  0  0  0
  7  8  1  0  0  0  0
 17 18  1  0  0  0  0
  3  4  1  0  0  0  0
  3  5  1  0  0  0  0
  3  6  1  0  0  0  0
 43 46  1  0  0  0  0
 43 47  1  0  0  0  0
 43 48  1  0  0  0  0
 11 14  1  0  0  0  0
 11 15  1  0  0  0  0
 11 16  1  0  0  0  0
 50 52  1  0  0  0  0
 50 53  1  0  0  0  0
 50 54  1  0  0  0  0
 22 30  1  0  0  0  0
 22 31  1  0  0  0  0
 23 32  1  0  0  0  0
 23 33  1  0  0  0  0
 21 28  1  0  0  0  0
 21 29  1  0  0  0  0
 24 34  1  0  0  0  0
 24 35  1  0  0  0  0
 40 45  1  0  0  0  0
  8 13  1  0  0  0  0
 18 27  1  0  0  0  0
 49 51  1  0  0  0  0
  7 12  1  0  0  0  0
 39 44  1  0  0  0  0
 17 26  1  0  0  0  0
 25 36  1  0  0  0  0
 25 37  1  0  0  0  0
 25 38  1  0  0  0  0
M  CHG  1  25   1
M  END
$$$$

  -OEChem-05262214473D

 54 53  0     1  0  0  0  0  0999 V2000
    2.6714    2.8829   -3.0005 C   0  0  0  0  0  0  0  0  0  0  0  0
    3.1741    2.4398   -1.9745 O   0  0  0  0  0  0  0  0  0  0  0  0
    3.5527    3.3077   -4.1279 C   0  0  0  0  0  0  0  0  0  0  0  0
    3.8407    4.3691   -4.0597 H   0  0  0  0  0  0  0  0  0  0  0  0
    4.5024    2.7495   -4.1526 H   0  0  0  0  0  0  0  0  0  0  0  0
    3.1208    3.1887   -5.1345 H   0  0  0  0  0  0  0  0  0  0  0  0
    1.3174    3.0407   -3.2467 N   0  0  0  0  0  0  0  0  0  0  0  0
    0.2944    2.6927   -2.2960 C   0  0  2  0  0  0  0  0  0  0  0  0
    0.2976    1.1783   -2.1349 C   0  0  0  0  0  0  0  0  0  0  0  0
    0.7500    0.4142   -2.9850 O   0  0  0  0  0  0  0  0  0  0  0  0
   -1.0710    3.1886   -2.7460 C   0  0  0  0  0  0  0  0  0  0  0  0
    1.0312    3.4224   -4.1464 H   0  0  0  0  0  0  0  0  0  0  0  0
    0.5725    3.1622   -1.3461 H   0  0  0  0  0  0  0  0  0  0  0  0
   -1.3666    2.7292   -3.6963 H   0  0  0  0  0  0  0  0  0  0  0  0
   -1.8434    2.9482   -2.0082 H   0  0  0  0  0  0  0  0  0  0  0  0
   -1.0632    4.2744   -2.8901 H   0  0  0  0  0  0  0  0  0  0  0  0
   -0.3037    0.7742   -0.9484 N   0  0  0  0  0  0  0  0  0  0  0  0
   -0.4352   -0.6095   -0.5718 C   0  0  2  0  0  0  0  0  0  0  0  0
   -1.4465   -0.7162    0.5649 C   0  0  0  0  0  0  0  0  0  0  0  0
   -2.6223   -0.3761    0.4501 O   0  0  0  0  0  0  0  0  0  0  0  0
    0.9186   -1.2408   -0.2262 C   0  0  0  0  0  0  0  0  0  0  0  0
    1.8624   -1.3942   -1.4261 C   0  0  0  0  0  0  0  0  0  0  0  0
    3.1807   -2.0519   -1.0117 C   0  0  0  0  0  0  0  0  0  0  0  0
    4.1237   -2.1801   -2.1989 C   0  0  0  0  0  0  0  0  0  0  0  0
    5.3931   -2.7985   -1.7467 N   0  3  0  0  0  0  0  0  0  0  0  0
   -0.6336    1.4811   -0.2948 H   0  0  0  0  0  0  0  0  0  0  0  0
   -0.8548   -1.1199   -1.4472 H   0  0  0  0  0  0  0  0  0  0  0  0
    1.4124   -0.6236    0.5355 H   0  0  0  0  0  0  0  0  0  0  0  0
    0.7564   -2.2274    0.2251 H   0  0  0  0  0  0  0  0  0  0  0  0
    1.3851   -2.0034   -2.2025 H   0  0  0  0  0  0  0  0  0  0  0  0
    2.0719   -0.4123   -1.8663 H   0  0  0  0  0  0  0  0  0  0  0  0
    2.9792   -3.0438   -0.5884 H   0  0  0  0  0  0  0  0  0  0  0  0
    3.6560   -1.4564   -0.2223 H   0  0  0  0  0  0  0  0  0  0  0  0
    3.7147   -2.8290   -2.9791 H   0  0  0  0  0  0  0  0  0  0  0  0
    4.3796   -1.2061   -2.6264 H   0  0  0  0  0  0  0  0  0  0  0  0
    6.1525   -2.6059   -2.4089 H   0  0  0  0  0  0  0  0  0  0  0  0
    5.2967   -3.8168   -1.6648 H   0  0  0  0  0  0  0  0  0  0  0  0
    5.6738   -2.4334   -0.8299 H   0  0  0  0  0  0  0  0  0  0  0  0
   -0.8923   -1.2656    1.7121 N   0  0  0  0  0  0  0  0  0  0  0  0
   -1.6643   -1.4795    2.9129 C   0  0  2  0  0  0  0  0  0  0  0  0
   -0.6947   -1.7824    4.0476 C   0  0  0  0  0  0  0  0  0  0  0  0
    0.4416   -2.2129    3.8620 O   0  0  0  0  0  0  0  0  0  0  0  0
   -2.6630   -2.6123    2.7343 C   0  0  0  0  0  0  0  0  0  0  0  0
    0.0893   -1.5262    1.7068 H   0  0  0  0  0  0  0  0  0  0  0  0
   -2.1904   -0.5416    3.1219 H   0  0  0  0  0  0  0  0  0  0  0  0
   -2.1544   -3.5603    2.5241 H   0  0  0  0  0  0  0  0  0  0  0  0
   -3.2673   -2.7544    3.6363 H   0  0  0  0  0  0  0  0  0  0  0  0
   -3.3407   -2.4064    1.8987 H   0  0  0  0  0  0  0  0  0  0  0  0
   -1.2626   -1.5564    5.2937 N   0  0  0  0  0  0  0  0  0  0  0  0
   -0.5483   -1.7822    6.5285 C   0  0  0  0  0  0  0  0  0  0  0  0
   -2.2046   -1.1810    5.3528 H   0  0  0  0  0  0  0  0  0  0  0  0
   -0.7479   -2.8029    6.8867 H   0  0  0  0  0  0  0  0  0  0  0  0
    0.5309   -1.6589    6.3555 H   0  0  0  0  0  0  0  0  0  0  0  0
   -0.8839   -1.0565    7.2840 H   0  0  0  0  0  0  0  0  0  0  0  0
  1  3  1  0  0  0  0
  1  7  1  0  0  0  0
  1  2  2  0  0  0  0
 40 41  1  0  0  0  0
 41 49  1  0  0  0  0
 41 42  2  0  0  0  0
  8  9  1  0  0  0  0
  9 17  1  0  0  0  0
  9 10  2  0  0  0  0
 18 19  1  0  0  0  0
 19 39  1  0  0  0  0
 19 20  2  0  0  0  0
 40 43  1  0  0  0  0
  8 11  1  0  0  0  0
 49 50  1  0  0  0  0
 22 23  1  0  0  0  0
 21 22  1  0  0  0  0
 23 24  1  0  0  0  0
 18 21  1  0  0  0  0
 24 25  1  0  0  0  0
 39 40  1  0  0  0  0
  7  8  1  0  0  0  0
 17 18  1  0  0  0  0
  3  4  1  0  0  0  0
  3  5  1  0  0  0  0
  3  6  1  0  0  0  0
 43 46  1  0  0  0  0
 43 47  1  0  0  0  0
 43 48  1  0  0  0  0
 11 14  1  0  0  0  0
 11 15  1  0  0  0  0
 11 16  1  0  0  0  0
 50 52  1  0  0  0  0
 50 53  1  0  0  0  0
 50 54  1  0  0  0  0
 22 30  1  0  0  0  0
 22 31  1  0  0  0  0
 23 32  1  0  0  0  0
 23 33  1  0  0  0  0
 21 28  1  0  0  0  0
 21 29  1  0  0  0  0
 24 34  1  0  0  0  0
 24 35  1  0  0  0  0
 40 45  1  0  0  0  0
  8 13  1  0  0  0  0
 18 27  1  0  0  0  0
 49 51  1  0  0  0  0
  7 12  1  0  0  0  0
 39 44  1  0  0  0  0
 17 26  1  0  0  0  0
 25 36  1  0  0  0  0
 25 37  1  0  0  0  0
 25 38  1  0  0  0  0
M  CHG  1  25   1
M  END
$$$$

  -OEChem-05262214473D

 54 53  0     1  0  0  0  0  0999 V2000
    2.6714    2.8829   -3.0005 C   0  0  0  0  0  0  0  0  0  0  0  0
    3.1741    2.4398   -1.9745 O   0  0  0  0  0  0  0  0  0  0  0  0
    3.5527    3.3077   -4.1279 C   0  0  0  0  0  0  0  0  0  0  0  0
    3.8407    4.3691   -4.0597 H   0  0  0  0  0  0  0  0  0  0  0  0
    4.5024    2.7495   -4.1526 H   0  0  0  0  0  0  0  0  0  0  0  0
    3.1208    3.1887   -5.1345 H   0  0  0  0  0  0  0  0  0  0  0  0
    1.3174    3.0407   -3.2467 N   0  0  0  0  0  0  0  0  0  0  0  0
    0.2944    2.6927   -2.2960 C   0  0  2  0  0  0  0  0  0  0  0  0
    0.2976    1.1783   -2.1349 C   0  0  0  0  0  0  0  0  0  0  0  0
    0.7500    0.4142   -2.9850 O   0  0  0  0  0  0  0  0  0  0  0  0
   -1.0710    3.1886   -2.7460 C   0  0  0  0  0  0  0  0  0  0  0  0
    1.0312    3.4224   -4.1464 H   0  0  0  0  0  0  0  0  0  0  0  0
    0.5725    3.1622   -1.3461 H   0  0  0  0  0  0  0  0  0  0  0  0
   -1.3666    2.7292   -3.6963 H   0  0  0  0  0  0  0  0  0  0  0  0
   -1.8434    2.9482   -2.0082 H   0  0  0  0  0  0  0  0  0  0  0  0
   -1.0632    4.2744   -2.8901 H   0  0  0  0  0  0  0  0  0  0  0  0
   -0.3037    0.7742   -0.9484 N   0  0  0  0  0  0  0  0  0  0  0  0
   -0.4352   -0.6095   -0.5718 C   0  0  2  0  0  0  0  0  0  0  0  0
   -1.4465   -0.7162    0.5649 C   0  0  0  0  0  0  0  0  0  0  0  0
   -2.6609   -0.6358    0.3914 O   0  0  0  0  0  0  0  0  0  0  0  0
    0.9186   -1.2408   -0.2262 C   0  0  0  0  0  0  0  0  0  0  0  0
    1.8624   -1.3942   -1.4261 C   0  0  0  0  0  0  0  0  0  0  0  0
    3.1807   -2.0519   -1.0117 C   0  0  0  0  0  0  0  0  0  0  0  0
    4.1237   -2.1801   -2.1989 C   0  0  0  0  0  0  0  0  0  0  0  0
    5.3931   -2.7985   -1.7467 N   0  3  0  0  0  0  0  0  0  0  0  0
   -0.6336    1.4811   -0.2948 H   0  0  0  0  0  0  0  0  0  0  0  0
   -0.8548   -1.1199   -1.4472 H   0  0  0  0  0  0  0  0  0  0  0  0
    1.4124   -0.6236    0.5355 H   0  0  0  0  0  0  0  0  0  0  0  0
    0.7564   -2.2274    0.2251 H   0  0  0  0  0  0  0  0  0  0  0  0
    1.3851   -2.0034   -2.2025 H   0  0  0  0  0  0  0  0  0  0  0  0
    2.0719   -0.4123   -1.8663 H   0  0  0  0  0  0  0  0  0  0  0  0
    2.9792   -3.0438   -0.5884 H   0  0  0  0  0  0  0  0  0  0  0  0
    3.6560   -1.4564   -0.2223 H   0  0  0  0  0  0  0  0  0  0  0  0
    3.7147   -2.8290   -2.9791 H   0  0  0  0  0  0  0  0  0  0  0  0
    4.3796   -1.2061   -2.6264 H   0  0  0  0  0  0  0  0  0  0  0  0
    6.1525   -2.6059   -2.4089 H   0  0  0  0  0  0  0  0  0  0  0  0
    5.2967   -3.8168   -1.6648 H   0  0  0  0  0  0  0  0  0  0  0  0
    5.6738   -2.4334   -0.8299 H   0  0  0  0  0  0  0  0  0  0  0  0
   -0.8379   -0.9444    1.7907 N   0  0  0  0  0  0  0  0  0  0  0  0
   -1.5962   -1.0972    3.0094 C   0  0  2  0  0  0  0  0  0  0  0  0
   -0.6268   -1.0086    4.1807 C   0  0  0  0  0  0  0  0  0  0  0  0
    0.5767   -1.2350    4.0740 O   0  0  0  0  0  0  0  0  0  0  0  0
   -2.3528   -2.4162    3.0287 C   0  0  0  0  0  0  0  0  0  0  0  0
    0.1751   -1.0061    1.8318 H   0  0  0  0  0  0  0  0  0  0  0  0
   -2.2990   -0.2580    3.0519 H   0  0  0  0  0  0  0  0  0  0  0  0
   -1.6652   -3.2688    2.9867 H   0  0  0  0  0  0  0  0  0  0  0  0
   -2.9499   -2.5178    3.9409 H   0  0  0  0  0  0  0  0  0  0  0  0
   -3.0277   -2.4910    2.1692 H   0  0  0  0  0  0  0  0  0  0  0  0
   -1.2706   -0.6890    5.3680 N   0  0  0  0  0  0  0  0  0  0  0  0
   -0.5699   -0.5586    6.6242 C   0  0  0  0  0  0  0  0  0  0  0  0
   -2.2685   -0.4995    5.3600 H   0  0  0  0  0  0  0  0  0  0  0  0
   -0.5828   -1.5227    7.1537 H   0  0  0  0  0  0  0  0  0  0  0  0
    0.4712   -0.2589    6.4338 H   0  0  0  0  0  0  0  0  0  0  0  0
   -1.0643    0.2056    7.2420 H   0  0  0  0  0  0  0  0  0  0  0  0
  1  3  1  0  0  0  0
  1  7  1  0  0  0  0
  1  2  2  0  0  0  0
 40 41  1  0  0  0  0
 41 49  1  0  0  0  0
 41 42  2  0  0  0  0
  8  9  1  0  0  0  0
  9 17  1  0  0  0  0
  9 10  2  0  0  0  0
 18 19  1  0  0  0  0
 19 39  1  0  0  0  0
 19 20  2  0  0  0  0
 40 43  1  0  0  0  0
  8 11  1  0  0  0  0
 49 50  1  0  0  0  0
 22 23  1  0  0  0  0
 21 22  1  0  0  0  0
 23 24  1  0  0  0  0
 18 21  1  0  0  0  0
 24 25  1  0  0  0  0
 39 40  1  0  0  0  0
  7  8  1  0  0  0  0
 17 18  1  0  0  0  0
  3  4  1  0  0  0  0
  3  5  1  0  0  0  0
  3  6  1  0  0  0  0
 43 46  1  0  0  0  0
 43 47  1  0  0  0  0
 43 48  1  0  0  0  0
 11 14  1  0  0  0  0
 11 15  1  0  0  0  0
 11 16  1  0  0  0  0
 50 52  1  0  0  0  0
 50 53  1  0  0  0  0
 50 54  1  0  0  0  0
 22 30  1  0  0  0  0
 22 31  1  0  0  0  0
 23 32  1  0  0  0  0
 23 33  1  0  0  0  0
 21 28  1  0  0  0  0
 21 29  1  0  0  0  0
 24 34  1  0  0  0  0
 24 35  1  0  0  0  0
 40 45  1  0  0  0  0
  8 13  1  0  0  0  0
 18 27  1  0  0  0  0
 49 51  1  0  0  0  0
  7 12  1  0  0  0  0
 39 44  1  0  0  0  0
 17 26  1  0  0  0  0
 25 36  1  0  0  0  0
 25 37  1  0  0  0  0
 25 38  1  0  0  0  0
M  CHG  1  25   1
M  END
$$$$

  -OEChem-05262214473D

 54 53  0     1  0  0  0  0  0999 V2000
    2.6714    2.8829   -3.0005 C   0  0  0  0  0  0  0  0  0  0  0  0
    3.1741    2.4398   -1.9745 O   0  0  0  0  0  0  0  0  0  0  0  0
    3.5527    3.3077   -4.1279 C   0  0  0  0  0  0  0  0  0  0  0  0
    3.8407    4.3691   -4.0597 H   0  0  0  0  0  0  0  0  0  0  0  0
    4.5024    2.7495   -4.1526 H   0  0  0  0  0  0  0  0  0  0  0  0
    3.1208    3.1887   -5.1345 H   0  0  0  0  0  0  0  0  0  0  0  0
    1.3174    3.0407   -3.2467 N   0  0  0  0  0  0  0  0  0  0  0  0
    0.2944    2.6927   -2.2960 C   0  0  2  0  0  0  0  0  0  0  0  0
    0.2976    1.1783   -2.1349 C   0  0  0  0  0  0  0  0  0  0  0  0
    0.7500    0.4142   -2.9850 O   0  0  0  0  0  0  0  0  0  0  0  0
   -1.0710    3.1886   -2.7460 C   0  0  0  0  0  0  0  0  0  0  0  0
    1.0312    3.4224   -4.1464 H   0  0  0  0  0  0  0  0  0  0  0  0
    0.5725    3.1622   -1.3461 H   0  0  0  0  0  0  0  0  0  0  0  0
   -1.3666    2.7292   -3.6963 H   0  0  0  0  0  0  0  0  0  0  0  0
   -1.8434    2.9482   -2.0082 H   0  0  0  0  0  0  0  0  0  0  0  0
   -1.0632    4.2744   -2.8901 H   0  0  0  0  0  0  0  0  0  0  0  0
   -0.3037    0.7742   -0.9484 N   0  0  0  0  0  0  0  0  0  0  0  0
   -0.4352   -0.6095   -0.5718 C   0  0  2  0  0  0  0  0  0  0  0  0
   -1.4465   -0.7162    0.5649 C   0  0  0  0  0  0  0  0  0  0  0  0
   -2.6470   -0.9042    0.3785 O   0  0  0  0  0  0  0  0  0  0  0  0
    0.9186   -1.2408   -0.2262 C   0  0  0  0  0  0  0  0  0  0  0  0
    1.8624   -1.3942   -1.4261 C   0  0  0  0  0  0  0  0  0  0  0  0
    3.1807   -2.0519   -1.0117 C   0  0  0  0  0  0  0  0  0  0  0  0
    4.1237   -2.1801   -2.1989 C   0  0  0  0  0  0  0  0  0  0  0  0
    5.3931   -2.7985   -1.7467 N   0  3  0  0  0  0  0  0  0  0  0  0
   -0.6336    1.4811   -0.2948 H   0  0  0  0  0  0  0  0  0  0  0  0
   -0.8548   -1.1199   -1.4472 H   0  0  0  0  0  0  0  0  0  0  0  0
    1.4124   -0.6236    0.5355 H   0  0  0  0  0  0  0  0  0  0  0  0
    0.7564   -2.2274    0.2251 H   0  0  0  0  0  0  0  0  0  0  0  0
    1.3851   -2.0034   -2.2025 H   0  0  0  0  0  0  0  0  0  0  0  0
    2.0719   -0.4123   -1.8663 H   0  0  0  0  0  0  0  0  0  0  0  0
    2.9792   -3.0438   -0.5884 H   0  0  0  0  0  0  0  0  0  0  0  0
    3.6560   -1.4564   -0.2223 H   0  0  0  0  0  0  0  0  0  0  0  0
    3.7147   -2.8290   -2.9791 H   0  0  0  0  0  0  0  0  0  0  0  0
    4.3796   -1.2061   -2.6264 H   0  0  0  0  0  0  0  0  0  0  0  0
    6.1525   -2.6059   -2.4089 H   0  0  0  0  0  0  0  0  0  0  0  0
    5.2967   -3.8168   -1.6648 H   0  0  0  0  0  0  0  0  0  0  0  0
    5.6738   -2.4334   -0.8299 H   0  0  0  0  0  0  0  0  0  0  0  0
   -0.8487   -0.6102    1.8125 N   0  0  0  0  0  0  0  0  0  0  0  0
   -1.6058   -0.6982    3.0383 C   0  0  2  0  0  0  0  0  0  0  0  0
   -0.7128   -0.2252    4.1777 C   0  0  0  0  0  0  0  0  0  0  0  0
    0.5148   -0.2280    4.1133 O   0  0  0  0  0  0  0  0  0  0  0  0
   -2.0963   -2.1164    3.2850 C   0  0  0  0  0  0  0  0  0  0  0  0
    0.1553   -0.4657    1.8650 H   0  0  0  0  0  0  0  0  0  0  0  0
   -2.4572   -0.0169    2.9338 H   0  0  0  0  0  0  0  0  0  0  0  0
   -1.2572   -2.8135    3.3923 H   0  0  0  0  0  0  0  0  0  0  0  0
   -2.6945   -2.1758    4.2002 H   0  0  0  0  0  0  0  0  0  0  0  0
   -2.7140   -2.4659    2.4506 H   0  0  0  0  0  0  0  0  0  0  0  0
   -1.4469    0.1599    5.2907 N   0  0  0  0  0  0  0  0  0  0  0  0
   -0.8285    0.6356    6.5062 C   0  0  0  0  0  0  0  0  0  0  0  0
   -2.4617    0.1476    5.2487 H   0  0  0  0  0  0  0  0  0  0  0  0
   -0.6752   -0.2084    7.1948 H   0  0  0  0  0  0  0  0  0  0  0  0
    0.1421    1.0952    6.2680 H   0  0  0  0  0  0  0  0  0  0  0  0
   -1.4812    1.3826    6.9815 H   0  0  0  0  0  0  0  0  0  0  0  0
  1  3  1  0  0  0  0
  1  7  1  0  0  0  0
  1  2  2  0  0  0  0
 40 41  1  0  0  0  0
 41 49  1  0  0  0  0
 41 42  2  0  0  0  0
  8  9  1  0  0  0  0
  9 17  1  0  0  0  0
  9 10  2  0  0  0  0
 18 19  1  0  0  0  0
 19 39  1  0  0  0  0
 19 20  2  0  0  0  0
 40 43  1  0  0  0  0
  8 11  1  0  0  0  0
 49 50  1  0  0  0  0
 22 23  1  0  0  0  0
 21 22  1  0  0  0  0
 23 24  1  0  0  0  0
 18 21  1  0  0  0  0
 24 25  1  0  0  0  0
 39 40  1  0  0  0  0
  7  8  1  0  0  0  0
 17 18  1  0  0  0  0
  3  4  1  0  0  0  0
  3  5  1  0  0  0  0
  3  6  1  0  0  0  0
 43 46  1  0  0  0  0
 43 47  1  0  0  0  0
 43 48  1  0  0  0  0
 11 14  1  0  0  0  0
 11 15  1  0  0  0  0
 11 16  1  0  0  0  0
 50 52  1  0  0  0  0
 50 53  1  0  0  0  0
 50 54  1  0  0  0  0
 22 30  1  0  0  0  0
 22 31  1  0  0  0  0
 23 32  1  0  0  0  0
 23 33  1  0  0  0  0
 21 28  1  0  0  0  0
 21 29  1  0  0  0  0
 24 34  1  0  0  0  0
 24 35  1  0  0  0  0
 40 45  1  0  0  0  0
  8 13  1  0  0  0  0
 18 27  1  0  0  0  0
 49 51  1  0  0  0  0
  7 12  1  0  0  0  0
 39 44  1  0  0  0  0
 17 26  1  0  0  0  0
 25 36  1  0  0  0  0
 25 37  1  0  0  0  0
 25 38  1  0  0  0  0
M  CHG  1  25   1
M  END
$$$$

  -OEChem-05262214473D

 54 53  0     1  0  0  0  0  0999 V2000
    2.6714    2.8829   -3.0005 C   0  0  0  0  0  0  0  0  0  0  0  0
    3.1741    2.4398   -1.9745 O   0  0  0  0  0  0  0  0  0  0  0  0
    3.5527    3.3077   -4.1279 C   0  0  0  0  0  0  0  0  0  0  0  0
    3.8407    4.3691   -4.0597 H   0  0  0  0  0  0  0  0  0  0  0  0
    4.5024    2.7495   -4.1526 H   0  0  0  0  0  0  0  0  0  0  0  0
    3.1208    3.1887   -5.1345 H   0  0  0  0  0  0  0  0  0  0  0  0
    1.3174    3.0407   -3.2467 N   0  0  0  0  0  0  0  0  0  0  0  0
    0.2944    2.6927   -2.2960 C   0  0  2  0  0  0  0  0  0  0  0  0
    0.2976    1.1783   -2.1349 C   0  0  0  0  0  0  0  0  0  0  0  0
    0.7500    0.4142   -2.9850 O   0  0  0  0  0  0  0  0  0  0  0  0
   -1.0710    3.1886   -2.7460 C   0  0  0  0  0  0  0  0  0  0  0  0
    1.0312    3.4224   -4.1464 H   0  0  0  0  0  0  0  0  0  0  0  0
    0.5725    3.1622   -1.3461 H   0  0  0  0  0  0  0  0  0  0  0  0
   -1.3666    2.7292   -3.6963 H   0  0  0  0  0  0  0  0  0  0  0  0
   -1.8434    2.9482   -2.0082 H   0  0  0  0  0  0  0  0  0  0  0  0
   -1.0632    4.2744   -2.8901 H   0  0  0  0  0  0  0  0  0  0  0  0
   -0.3037    0.7742   -0.9484 N   0  0  0  0  0  0  0  0  0  0  0  0
   -0.4352   -0.6095   -0.5718 C   0  0  2  0  0  0  0  0  0  0  0  0
   -1.4465   -0.7162    0.5649 C   0  0  0  0  0  0  0  0  0  0  0  0
   -2.5816   -1.1630    0.4124 O   0  0  0  0  0  0  0  0  0  0  0  0
    0.9186   -1.2408   -0.2262 C   0  0  0  0  0  0  0  0  0  0  0  0
    1.8624   -1.3942   -1.4261 C   0  0  0  0  0  0  0  0  0  0  0  0
    3.1807   -2.0519   -1.0117 C   0  0  0  0  0  0  0  0  0  0  0  0
    4.1237   -2.1801   -2.1989 C   0  0  0  0  0  0  0  0  0  0  0  0
    5.3931   -2.7985   -1.7467 N   0  3  0  0  0  0  0  0  0  0  0  0
   -0.6336    1.4811   -0.2948 H   0  0  0  0  0  0  0  0  0  0  0  0
   -0.8548   -1.1199   -1.4472 H   0  0  0  0  0  0  0  0  0  0  0  0
    1.4124   -0.6236    0.5355 H   0  0  0  0  0  0  0  0  0  0  0  0
    0.7564   -2.2274    0.2251 H   0  0  0  0  0  0  0  0  0  0  0  0
    1.3851   -2.0034   -2.2025 H   0  0  0  0  0  0  0  0  0  0  0  0
    2.0719   -0.4123   -1.8663 H   0  0  0  0  0  0  0  0  0  0  0  0
    2.9792   -3.0438   -0.5884 H   0  0  0  0  0  0  0  0  0  0  0  0
    3.6560   -1.4564   -0.2223 H   0  0  0  0  0  0  0  0  0  0  0  0
    3.7147   -2.8290   -2.9791 H   0  0  0  0  0  0  0  0  0  0  0  0
    4.3796   -1.2061   -2.6264 H   0  0  0  0  0  0  0  0  0  0  0  0
    6.1525   -2.6059   -2.4089 H   0  0  0  0  0  0  0  0  0  0  0  0
    5.2967   -3.8168   -1.6648 H   0  0  0  0  0  0  0  0  0  0  0  0
    5.6738   -2.4334   -0.8299 H   0  0  0  0  0  0  0  0  0  0  0  0
   -0.9239   -0.2856    1.7759 N   0  0  0  0  0  0  0  0  0  0  0  0
   -1.6926   -0.3098    2.9975 C   0  0  2  0  0  0  0  0  0  0  0  0
   -0.9470    0.5144    4.0388 C   0  0  0  0  0  0  0  0  0  0  0  0
    0.2599    0.7395    3.9774 O   0  0  0  0  0  0  0  0  0  0  0  0
   -1.9110   -1.7334    3.4857 C   0  0  0  0  0  0  0  0  0  0  0  0
    0.0314    0.0581    1.8039 H   0  0  0  0  0  0  0  0  0  0  0  0
   -2.6545    0.1651    2.7754 H   0  0  0  0  0  0  0  0  0  0  0  0
   -0.9584   -2.2254    3.7134 H   0  0  0  0  0  0  0  0  0  0  0  0
   -2.5184   -1.7517    4.3967 H   0  0  0  0  0  0  0  0  0  0  0  0
   -2.4209   -2.3328    2.7238 H   0  0  0  0  0  0  0  0  0  0  0  0
   -1.7797    0.9327    5.0673 N   0  0  0  0  0  0  0  0  0  0  0  0
   -1.3065    1.7189    6.1826 C   0  0  0  0  0  0  0  0  0  0  0  0
   -2.7713    0.7163    5.0268 H   0  0  0  0  0  0  0  0  0  0  0  0
   -1.0187    1.0503    7.0073 H   0  0  0  0  0  0  0  0  0  0  0  0
   -0.4341    2.3113    5.8696 H   0  0  0  0  0  0  0  0  0  0  0  0
   -2.1063    2.3944    6.5204 H   0  0  0  0  0  0  0  0  0  0  0  0
  1  3  1  0  0  0  0
  1  7  1  0  0  0  0
  1  2  2  0  0  0  0
 40 41  1  0  0  0  0
 41 49  1  0  0  0  0
 41 42  2  0  0  0  0
  8  9  1  0  0  0  0
  9 17  1  0  0  0  0
  9 10  2  0  0  0  0
 18 19  1  0  0  0  0
 19 39  1  0  0  0  0
 19 20  2  0  0  0  0
 40 43  1  0  0  0  0
  8 11  1  0  0  0  0
 49 50  1  0  0  0  0
 22 23  1  0  0  0  0
 21 22  1  0  0  0  0
 23 24  1  0  0  0  0
 18 21  1  0  0  0  0
 24 25  1  0  0  0  0
 39 40  1  0  0  0  0
  7  8  1  0  0  0  0
 17 18  1  0  0  0  0
  3  4  1  0  0  0  0
  3  5  1  0  0  0  0
  3  6  1  0  0  0  0
 43 46  1  0  0  0  0
 43 47  1  0  0  0  0
 43 48  1  0  0  0  0
 11 14  1  0  0  0  0
 11 15  1  0  0  0  0
 11 16  1  0  0  0  0
 50 52  1  0  0  0  0
 50 53  1  0  0  0  0
 50 54  1  0  0  0  0
 22 30  1  0  0  0  0
 22 31  1  0  0  0  0
 23 32  1  0  0  0  0
 23 33  1  0  0  0  0
 21 28  1  0  0  0  0
 21 29  1  0  0  0  0
 24 34  1  0  0  0  0
 24 35  1  0  0  0  0
 40 45  1  0  0  0  0
  8 13  1  0  0  0  0
 18 27  1  0  0  0  0
 49 51  1  0  0  0  0
  7 12  1  0  0  0  0
 39 44  1  0  0  0  0
 17 26  1  0  0  0  0
 25 36  1  0  0  0  0
 25 37  1  0  0  0  0
 25 38  1  0  0  0  0
M  CHG  1  25   1
M  END
$$$$

  -OEChem-05262214473D

 54 53  0     1  0  0  0  0  0999 V2000
    2.6714    2.8829   -3.0005 C   0  0  0  0  0  0  0  0  0  0  0  0
    3.1741    2.4398   -1.9745 O   0  0  0  0  0  0  0  0  0  0  0  0
    3.5527    3.3077   -4.1279 C   0  0  0  0  0  0  0  0  0  0  0  0
    3.8407    4.3691   -4.0597 H   0  0  0  0  0  0  0  0  0  0  0  0
    4.5024    2.7495   -4.1526 H   0  0  0  0  0  0  0  0  0  0  0  0
    3.1208    3.1887   -5.1345 H   0  0  0  0  0  0  0  0  0  0  0  0
    1.3174    3.0407   -3.2467 N   0  0  0  0  0  0  0  0  0  0  0  0
    0.2944    2.6927   -2.2960 C   0  0  2  0  0  0  0  0  0  0  0  0
    0.2976    1.1783   -2.1349 C   0  0  0  0  0  0  0  0  0  0  0  0
    0.7500    0.4142   -2.9850 O   0  0  0  0  0  0  0  0  0  0  0  0
   -1.0710    3.1886   -2.7460 C   0  0  0  0  0  0  0  0  0  0  0  0
    1.0312    3.4224   -4.1464 H   0  0  0  0  0  0  0  0  0  0  0  0
    0.5725    3.1622   -1.3461 H   0  0  0  0  0  0  0  0  0  0  0  0
   -1.3666    2.7292   -3.6963 H   0  0  0  0  0  0  0  0  0  0  0  0
   -1.8434    2.9482   -2.0082 H   0  0  0  0  0  0  0  0  0  0  0  0
   -1.0632    4.2744   -2.8901 H   0  0  0  0  0  0  0  0  0  0  0  0
   -0.3037    0.7742   -0.9484 N   0  0  0  0  0  0  0  0  0  0  0  0
   -0.4352   -0.6095   -0.5718 C   0  0  2  0  0  0  0  0  0  0  0  0
   -1.4465   -0.7162    0.5649 C   0  0  0  0  0  0  0  0  0  0  0  0
   -2.4691   -1.3945    0.4908 O   0  0  0  0  0  0  0  0  0  0  0  0
    0.9186   -1.2408   -0.2262 C   0  0  0  0  0  0  0  0  0  0  0  0
    1.8624   -1.3942   -1.4261 C   0  0  0  0  0  0  0  0  0  0  0  0
    3.1807   -2.0519   -1.0117 C   0  0  0  0  0  0  0  0  0  0  0  0
    4.1237   -2.1801   -2.1989 C   0  0  0  0  0  0  0  0  0  0  0  0
    5.3931   -2.7985   -1.7467 N   0  3  0  0  0  0  0  0  0  0  0  0
   -0.6336    1.4811   -0.2948 H   0  0  0  0  0  0  0  0  0  0  0  0
   -0.8548   -1.1199   -1.4472 H   0  0  0  0  0  0  0  0  0  0  0  0
    1.4124   -0.6236    0.5355 H   0  0  0  0  0  0  0  0  0  0  0  0
    0.7564   -2.2274    0.2251 H   0  0  0  0  0  0  0  0  0  0  0  0
    1.3851   -2.0034   -2.2025 H   0  0  0  0  0  0  0  0  0  0  0  0
    2.0719   -0.4123   -1.8663 H   0  0  0  0  0  0  0  0  0  0  0  0
    2.9792   -3.0438   -0.5884 H   0  0  0  0  0  0  0  0  0  0  0  0
    3.6560   -1.4564   -0.2223 H   0  0  0  0  0  0  0  0  0  0  0  0
    3.7147   -2.8290   -2.9791 H   0  0  0  0  0  0  0  0  0  0  0  0
    4.3796   -1.2061   -2.6264 H   0  0  0  0  0  0  0  0  0  0  0  0
    6.1525   -2.6059   -2.4089 H   0  0  0  0  0  0  0  0  0  0  0  0
    5.2967   -3.8168   -1.6648 H   0  0  0  0  0  0  0  0  0  0  0  0
    5.6738   -2.4334   -0.8299 H   0  0  0  0  0  0  0  0  0  0  0  0
   -1.0586    0.0071    1.6836 N   0  0  0  0  0  0  0  0  0  0  0  0
   -1.8507    0.0417    2.8899 C   0  0  2  0  0  0  0  0  0  0  0  0
   -1.3133    1.1598    3.7734 C   0  0  0  0  0  0  0  0  0  0  0  0
   -0.1704    1.6016    3.6755 O   0  0  0  0  0  0  0  0  0  0  0  0
   -1.8096   -1.2932    3.6173 C   0  0  0  0  0  0  0  0  0  0  0  0
   -0.1882    0.5297    1.6528 H   0  0  0  0  0  0  0  0  0  0  0  0
   -2.8772    0.2757    2.5876 H   0  0  0  0  0  0  0  0  0  0  0  0
   -0.7889   -1.5446    3.9280 H   0  0  0  0  0  0  0  0  0  0  0  0
   -2.4337   -1.2743    4.5168 H   0  0  0  0  0  0  0  0  0  0  0  0
   -2.1685   -2.1009    2.9702 H   0  0  0  0  0  0  0  0  0  0  0  0
   -2.2461    1.5766    4.7128 N   0  0  0  0  0  0  0  0  0  0  0  0
   -1.9713    2.6176    5.6755 C   0  0  0  0  0  0  0  0  0  0  0  0
   -3.1759    1.1678    4.7092 H   0  0  0  0  0  0  0  0  0  0  0  0
   -1.5900    2.1677    6.6040 H   0  0  0  0  0  0  0  0  0  0  0  0
   -1.2180    3.3064    5.2656 H   0  0  0  0  0  0  0  0  0  0  0  0
   -2.8969    3.1720    5.8901 H   0  0  0  0  0  0  0  0  0  0  0  0
  1  3  1  0  0  0  0
  1  7  1  0  0  0  0
  1  2  2  0  0  0  0
 40 41  1  0  0  0  0
 41 49  1  0  0  0  0
 41 42  2  0  0  0  0
  8  9  1  0  0  0  0
  9 17  1  0  0  0  0
  9 10  2  0  0  0  0
 18 19  1  0  0  0  0
 19 39  1  0  0  0  0
 19 20  2  0  0  0  0
 40 43  1  0  0  0  0
  8 11  1  0  0  0  0
 49 50  1  0  0  0  0
 22 23  1  0  0  0  0
 21 22  1  0  0  0  0
 23 24  1  0  0  0  0
 18 21  1  0  0  0  0
 24 25  1  0  0  0  0
 39 40  1  0  0  0  0
  7  8  1  0  0  0  0
 17 18  1  0  0  0  0
  3  4  1  0  0  0  0
  3  5  1  0  0  0  0
  3  6  1  0  0  0  0
 43 46  1  0  0  0  0
 43 47  1  0  0  0  0
 43 48  1  0  0  0  0
 11 14  1  0  0  0  0
 11 15  1  0  0  0  0
 11 16  1  0  0  0  0
 50 52  1  0  0  0  0
 50 53  1  0  0  0  0
 50 54  1  0  0  0  0
 22 30  1  0  0  0  0
 22 31  1  0  0  0  0
 23 32  1  0  0  0  0
 23 33  1  0  0  0  0
 21 28  1  0  0  0  0
 21 29  1  0  0  0  0
 24 34  1  0  0  0  0
 24 35  1  0  0  0  0
 40 45  1  0  0  0  0
  8 13  1  0  0  0  0
 18 27  1  0  0  0  0
 49 51  1  0  0  0  0
  7 12  1  0  0  0  0
 39 44  1  0  0  0  0
 17 26  1  0  0  0  0
 25 36  1  0  0  0  0
 25 37  1  0  0  0  0
 25 38  1  0  0  0  0
M  CHG  1  25   1
M  END
$$$$

  -OEChem-05262214473D

 54 53  0     1  0  0  0  0  0999 V2000
    2.6714    2.8829   -3.0005 C   0  0  0  0  0  0  0  0  0  0  0  0
    3.1741    2.4398   -1.9745 O   0  0  0  0  0  0  0  0  0  0  0  0
    3.5527    3.3077   -4.1279 C   0  0  0  0  0  0  0  0  0  0  0  0
    3.8407    4.3691   -4.0597 H   0  0  0  0  0  0  0  0  0  0  0  0
    4.5024    2.7495   -4.1526 H   0  0  0  0  0  0  0  0  0  0  0  0
    3.1208    3.1887   -5.1345 H   0  0  0  0  0  0  0  0  0  0  0  0
    1.3174    3.0407   -3.2467 N   0  0  0  0  0  0  0  0  0  0  0  0
    0.2944    2.6927   -2.2960 C   0  0  2  0  0  0  0  0  0  0  0  0
    0.2976    1.1783   -2.1349 C   0  0  0  0  0  0  0  0  0  0  0  0
    0.7500    0.4142   -2.9850 O   0  0  0  0  0  0  0  0  0  0  0  0
   -1.0710    3.1886   -2.7460 C   0  0  0  0  0  0  0  0  0  0  0  0
    1.0312    3.4224   -4.1464 H   0  0  0  0  0  0  0  0  0  0  0  0
    0.5725    3.1622   -1.3461 H   0  0  0  0  0  0  0  0  0  0  0  0
   -1.3666    2.7292   -3.6963 H   0  0  0  0  0  0  0  0  0  0  0  0
   -1.8434    2.9482   -2.0082 H   0  0  0  0  0  0  0  0  0  0  0  0
   -1.0632    4.2744   -2.8901 H   0  0  0  0  0  0  0  0  0  0  0  0
   -0.3037    0.7742   -0.9484 N   0  0  0  0  0  0  0  0  0  0  0  0
   -0.4352   -0.6095   -0.5718 C   0  0  2  0  0  0  0  0  0  0  0  0
   -1.4465   -0.7162    0.5649 C   0  0  0  0  0  0  0  0  0  0  0  0
   -2.3172   -1.5830    0.6082 O   0  0  0  0  0  0  0  0  0  0  0  0
    0.9186   -1.2408   -0.2262 C   0  0  0  0  0  0  0  0  0  0  0  0
    1.8624   -1.3942   -1.4261 C   0  0  0  0  0  0  0  0  0  0  0  0
    3.1807   -2.0519   -1.0117 C   0  0  0  0  0  0  0  0  0  0  0  0
    4.1237   -2.1801   -2.1989 C   0  0  0  0  0  0  0  0  0  0  0  0
    5.3931   -2.7985   -1.7467 N   0  3  0  0  0  0  0  0  0  0  0  0
   -0.6336    1.4811   -0.2948 H   0  0  0  0  0  0  0  0  0  0  0  0
   -0.8548   -1.1199   -1.4472 H   0  0  0  0  0  0  0  0  0  0  0  0
    1.4124   -0.6236    0.5355 H   0  0  0  0  0  0  0  0  0  0  0  0
    0.7564   -2.2274    0.2251 H   0  0  0  0  0  0  0  0  0  0  0  0
    1.3851   -2.0034   -2.2025 H   0  0  0  0  0  0  0  0  0  0  0  0
    2.0719   -0.4123   -1.8663 H   0  0  0  0  0  0  0  0  0  0  0  0
    2.9792   -3.0438   -0.5884 H   0  0  0  0  0  0  0  0  0  0  0  0
    3.6560   -1.4564   -0.2223 H   0  0  0  0  0  0  0  0  0  0  0  0
    3.7147   -2.8290   -2.9791 H   0  0  0  0  0  0  0  0  0  0  0  0
    4.3796   -1.2061   -2.6264 H   0  0  0  0  0  0  0  0  0  0  0  0
    6.1525   -2.6059   -2.4089 H   0  0  0  0  0  0  0  0  0  0  0  0
    5.2967   -3.8168   -1.6648 H   0  0  0  0  0  0  0  0  0  0  0  0
    5.6738   -2.4334   -0.8299 H   0  0  0  0  0  0  0  0  0  0  0  0
   -1.2435    0.2480    1.5418 N   0  0  0  0  0  0  0  0  0  0  0  0
   -2.0692    0.3322    2.7228 C   0  0  2  0  0  0  0  0  0  0  0  0
   -1.7869    1.6669    3.3997 C   0  0  0  0  0  0  0  0  0  0  0  0
   -0.7469    2.2994    3.2282 O   0  0  0  0  0  0  0  0  0  0  0  0
   -1.7989   -0.8259    3.6706 C   0  0  0  0  0  0  0  0  0  0  0  0
   -0.4886    0.9169    1.4219 H   0  0  0  0  0  0  0  0  0  0  0  0
   -3.1104    0.3073    2.3832 H   0  0  0  0  0  0  0  0  0  0  0  0
   -0.7605   -0.8175    4.0215 H   0  0  0  0  0  0  0  0  0  0  0  0
   -2.4461   -0.7762    4.5525 H   0  0  0  0  0  0  0  0  0  0  0  0
   -1.9738   -1.7858    3.1729 H   0  0  0  0  0  0  0  0  0  0  0  0
   -2.8144    2.0478    4.2514 N   0  0  0  0  0  0  0  0  0  0  0  0
   -2.7777    3.2704    5.0194 C   0  0  0  0  0  0  0  0  0  0  0  0
   -3.6481    1.4714    4.3176 H   0  0  0  0  0  0  0  0  0  0  0  0
   -2.3500    3.0676    6.0124 H   0  0  0  0  0  0  0  0  0  0  0  0
   -2.1562    4.0128    4.4973 H   0  0  0  0  0  0  0  0  0  0  0  0
   -3.7991    3.6624    5.1335 H   0  0  0  0  0  0  0  0  0  0  0  0
  1  3  1  0  0  0  0
  1  7  1  0  0  0  0
  1  2  2  0  0  0  0
 40 41  1  0  0  0  0
 41 49  1  0  0  0  0
 41 42  2  0  0  0  0
  8  9  1  0  0  0  0
  9 17  1  0  0  0  0
  9 10  2  0  0  0  0
 18 19  1  0  0  0  0
 19 39  1  0  0  0  0
 19 20  2  0  0  0  0
 40 43  1  0  0  0  0
  8 11  1  0  0  0  0
 49 50  1  0  0  0  0
 22 23  1  0  0  0  0
 21 22  1  0  0  0  0
 23 24  1  0  0  0  0
 18 21  1  0  0  0  0
 24 25  1  0  0  0  0
 39 40  1  0  0  0  0
  7  8  1  0  0  0  0
 17 18  1  0  0  0  0
  3  4  1  0  0  0  0
  3  5  1  0  0  0  0
  3  6  1  0  0  0  0
 43 46  1  0  0  0  0
 43 47  1  0  0  0  0
 43 48  1  0  0  0  0
 11 14  1  0  0  0  0
 11 15  1  0  0  0  0
 11 16  1  0  0  0  0
 50 52  1  0  0  0  0
 50 53  1  0  0  0  0
 50 54  1  0  0  0  0
 22 30  1  0  0  0  0
 22 31  1  0  0  0  0
 23 32  1  0  0  0  0
 23 33  1  0  0  0  0
 21 28  1  0  0  0  0
 21 29  1  0  0  0  0
 24 34  1  0  0  0  0
 24 35  1  0  0  0  0
 40 45  1  0  0  0  0
  8 13  1  0  0  0  0
 18 27  1  0  0  0  0
 49 51  1  0  0  0  0
  7 12  1  0  0  0  0
 39 44  1  0  0  0  0
 17 26  1  0  0  0  0
 25 36  1  0  0  0  0
 25 37  1  0  0  0  0
 25 38  1  0  0  0  0
M  CHG  1  25   1
M  END
$$$$

  -OEChem-05262214473D

 54 53  0     1  0  0  0  0  0999 V2000
    2.6714    2.8829   -3.0005 C   0  0  0  0  0  0  0  0  0  0  0  0
    3.1741    2.4398   -1.9745 O   0  0  0  0  0  0  0  0  0  0  0  0
    3.5527    3.3077   -4.1279 C   0  0  0  0  0  0  0  0  0  0  0  0
    3.8407    4.3691   -4.0597 H   0  0  0  0  0  0  0  0  0  0  0  0
    4.5024    2.7495   -4.1526 H   0  0  0  0  0  0  0  0  0  0  0  0
    3.1208    3.1887   -5.1345 H   0  0  0  0  0  0  0  0  0  0  0  0
    1.3174    3.0407   -3.2467 N   0  0  0  0  0  0  0  0  0  0  0  0
    0.2944    2.6927   -2.2960 C   0  0  2  0  0  0  0  0  0  0  0  0
    0.2976    1.1783   -2.1349 C   0  0  0  0  0  0  0  0  0  0  0  0
    0.7500    0.4142   -2.9850 O   0  0  0  0  0  0  0  0  0  0  0  0
   -1.0710    3.1886   -2.7460 C   0  0  0  0  0  0  0  0  0  0  0  0
    1.0312    3.4224   -4.1464 H   0  0  0  0  0  0  0  0  0  0  0  0
    0.5725    3.1622   -1.3461 H   0  0  0  0  0  0  0  0  0  0  0  0
   -1.3666    2.7292   -3.6963 H   0  0  0  0  0  0  0  0  0  0  0  0
   -1.8434    2.9482   -2.0082 H   0  0  0  0  0  0  0  0  0  0  0  0
   -1.0632    4.2744   -2.8901 H   0  0  0  0  0  0  0  0  0  0  0  0
   -0.3037    0.7742   -0.9484 N   0  0  0  0  0  0  0  0  0  0  0  0
   -0.4352   -0.6095   -0.5718 C   0  0  2  0  0  0  0  0  0  0  0  0
   -1.4465   -0.7162    0.5649 C   0  0  0  0  0  0  0  0  0  0  0  0
   -2.1363   -1.7156    0.7568 O   0  0  0  0  0  0  0  0  0  0  0  0
    0.9186   -1.2408   -0.2262 C   0  0  0  0  0  0  0  0  0  0  0  0
    1.8624   -1.3942   -1.4261 C   0  0  0  0  0  0  0  0  0  0  0  0
    3.1807   -2.0519   -1.0117 C   0  0  0  0  0  0  0  0  0  0  0  0
    4.1237   -2.1801   -2.1989 C   0  0  0  0  0  0  0  0  0  0  0  0
    5.3931   -2.7985   -1.7467 N   0  3  0  0  0  0  0  0  0  0  0  0
   -0.6336    1.4811   -0.2948 H   0  0  0  0  0  0  0  0  0  0  0  0
   -0.8548   -1.1199   -1.4472 H   0  0  0  0  0  0  0  0  0  0  0  0
    1.4124   -0.6236    0.5355 H   0  0  0  0  0  0  0  0  0  0  0  0
    0.7564   -2.2274    0.2251 H   0  0  0  0  0  0  0  0  0  0  0  0
    1.3851   -2.0034   -2.2025 H   0  0  0  0  0  0  0  0  0  0  0  0
    2.0719   -0.4123   -1.8663 H   0  0  0  0  0  0  0  0  0  0  0  0
    2.9792   -3.0438   -0.5884 H   0  0  0  0  0  0  0  0  0  0  0  0
    3.6560   -1.4564   -0.2223 H   0  0  0  0  0  0  0  0  0  0  0  0
    3.7147   -2.8290   -2.9791 H   0  0  0  0  0  0  0  0  0  0  0  0
    4.3796   -1.2061   -2.6264 H   0  0  0  0  0  0  0  0  0  0  0  0
    6.1525   -2.6059   -2.4089 H   0  0  0  0  0  0  0  0  0  0  0  0
    5.2967   -3.8168   -1.6648 H   0  0  0  0  0  0  0  0  0  0  0  0
    5.6738   -2.4334   -0.8299 H   0  0  0  0  0  0  0  0  0  0  0  0
   -1.4659    0.4206    1.3601 N   0  0  0  0  0  0  0  0  0  0  0  0
   -2.3332    0.5420    2.5076 C   0  0  2  0  0  0  0  0  0  0  0  0
   -2.3354    2.0014    2.9432 C   0  0  0  0  0  0  0  0  0  0  0  0
   -1.4302    2.7855    2.6659 O   0  0  0  0  0  0  0  0  0  0  0  0
   -1.8797   -0.3633    3.6422 C   0  0  0  0  0  0  0  0  0  0  0  0
   -0.8493    1.1933    1.1270 H   0  0  0  0  0  0  0  0  0  0  0  0
   -3.3379    0.2578    2.1761 H   0  0  0  0  0  0  0  0  0  0  0  0
   -0.8750   -0.0936    3.9876 H   0  0  0  0  0  0  0  0  0  0  0  0
   -2.5549   -0.2914    4.5012 H   0  0  0  0  0  0  0  0  0  0  0  0
   -1.8502   -1.4092    3.3182 H   0  0  0  0  0  0  0  0  0  0  0  0
   -3.4459    2.3141    3.7146 N   0  0  0  0  0  0  0  0  0  0  0  0
   -3.6707    3.6328    4.2591 C   0  0  0  0  0  0  0  0  0  0  0  0
   -4.1557    1.6063    3.8787 H   0  0  0  0  0  0  0  0  0  0  0  0
   -3.2470    3.6887    5.2727 H   0  0  0  0  0  0  0  0  0  0  0  0
   -3.1848    4.3822    3.6169 H   0  0  0  0  0  0  0  0  0  0  0  0
   -4.7516    3.8323    4.3021 H   0  0  0  0  0  0  0  0  0  0  0  0
  1  3  1  0  0  0  0
  1  7  1  0  0  0  0
  1  2  2  0  0  0  0
 40 41  1  0  0  0  0
 41 49  1  0  0  0  0
 41 42  2  0  0  0  0
  8  9  1  0  0  0  0
  9 17  1  0  0  0  0
  9 10  2  0  0  0  0
 18 19  1  0  0  0  0
 19 39  1  0  0  0  0
 19 20  2  0  0  0  0
 40 43  1  0  0  0  0
  8 11  1  0  0  0  0
 49 50  1  0  0  0  0
 22 23  1  0  0  0  0
 21 22  1  0  0  0  0
 23 24  1  0  0  0  0
 18 21  1  0  0  0  0
 24 25  1  0  0  0  0
 39 40  1  0  0  0  0
  7  8  1  0  0  0  0
 17 18  1  0  0  0  0
  3  4  1  0  0  0  0
  3  5  1  0  0  0  0
  3  6  1  0  0  0  0
 43 46  1  0  0  0  0
 43 47  1  0  0  0  0
 43 48  1  0  0  0  0
 11 14  1  0  0  0  0
 11 15  1  0  0  0  0
 11 16  1  0  0  0  0
 50 52  1  0  0  0  0
 50 53  1  0  0  0  0
 50 54  1  0  0  0  0
 22 30  1  0  0  0  0
 22 31  1  0  0  0  0
 23 32  1  0  0  0  0
 23 33  1  0  0  0  0
 21 28  1  0  0  0  0
 21 29  1  0  0  0  0
 24 34  1  0  0  0  0
 24 35  1  0  0  0  0
 40 45  1  0  0  0  0
  8 13  1  0  0  0  0
 18 27  1  0  0  0  0
 49 51  1  0  0  0  0
  7 12  1  0  0  0  0
 39 44  1  0  0  0  0
 17 26  1  0  0  0  0
 25 36  1  0  0  0  0
 25 37  1  0  0  0  0
 25 38  1  0  0  0  0
M  CHG  1  25   1
M  END
$$$$

  -OEChem-05262214473D

 54 53  0     1  0  0  0  0  0999 V2000
    2.6714    2.8829   -3.0005 C   0  0  0  0  0  0  0  0  0  0  0  0
    3.1741    2.4398   -1.9745 O   0  0  0  0  0  0  0  0  0  0  0  0
    3.5527    3.3077   -4.1279 C   0  0  0  0  0  0  0  0  0  0  0  0
    3.8407    4.3691   -4.0597 H   0  0  0  0  0  0  0  0  0  0  0  0
    4.5024    2.7495   -4.1526 H   0  0  0  0  0  0  0  0  0  0  0  0
    3.1208    3.1887   -5.1345 H   0  0  0  0  0  0  0  0  0  0  0  0
    1.3174    3.0407   -3.2467 N   0  0  0  0  0  0  0  0  0  0  0  0
    0.2944    2.6927   -2.2960 C   0  0  2  0  0  0  0  0  0  0  0  0
    0.2976    1.1783   -2.1349 C   0  0  0  0  0  0  0  0  0  0  0  0
    0.7500    0.4142   -2.9850 O   0  0  0  0  0  0  0  0  0  0  0  0
   -1.0710    3.1886   -2.7460 C   0  0  0  0  0  0  0  0  0  0  0  0
    1.0312    3.4224   -4.1464 H   0  0  0  0  0  0  0  0  0  0  0  0
    0.5725    3.1622   -1.3461 H   0  0  0  0  0  0  0  0  0  0  0  0
   -1.3666    2.7292   -3.6963 H   0  0  0  0  0  0  0  0  0  0  0  0
   -1.8434    2.9482   -2.0082 H   0  0  0  0  0  0  0  0  0  0  0  0
   -1.0632    4.2744   -2.8901 H   0  0  0  0  0  0  0  0  0  0  0  0
   -0.3037    0.7742   -0.9484 N   0  0  0  0  0  0  0  0  0  0  0  0
   -0.4352   -0.6095   -0.5718 C   0  0  2  0  0  0  0  0  0  0  0  0
   -1.4465   -0.7162    0.5649 C   0  0  0  0  0  0  0  0  0  0  0  0
   -1.9386   -1.7833    0.9263 O   0  0  0  0  0  0  0  0  0  0  0  0
    0.9186   -1.2408   -0.2262 C   0  0  0  0  0  0  0  0  0  0  0  0
    1.8624   -1.3942   -1.4261 C   0  0  0  0  0  0  0  0  0  0  0  0
    3.1807   -2.0519   -1.0117 C   0  0  0  0  0  0  0  0  0  0  0  0
    4.1237   -2.1801   -2.1989 C   0  0  0  0  0  0  0  0  0  0  0  0
    5.3931   -2.7985   -1.7467 N   0  3  0  0  0  0  0  0  0  0  0  0
   -0.6336    1.4811   -0.2948 H   0  0  0  0  0  0  0  0  0  0  0  0
   -0.8548   -1.1199   -1.4472 H   0  0  0  0  0  0  0  0  0  0  0  0
    1.4124   -0.6236    0.5355 H   0  0  0  0  0  0  0  0  0  0  0  0
    0.7564   -2.2274    0.2251 H   0  0  0  0  0  0  0  0  0  0  0  0
    1.3851   -2.0034   -2.2025 H   0  0  0  0  0  0  0  0  0  0  0  0
    2.0719   -0.4123   -1.8663 H   0  0  0  0  0  0  0  0  0  0  0  0
    2.9792   -3.0438   -0.5884 H   0  0  0  0  0  0  0  0  0  0  0  0
    3.6560   -1.4564   -0.2223 H   0  0  0  0  0  0  0  0  0  0  0  0
    3.7147   -2.8290   -2.9791 H   0  0  0  0  0  0  0  0  0  0  0  0
    4.3796   -1.2061   -2.6264 H   0  0  0  0  0  0  0  0  0  0  0  0
    6.1525   -2.6059   -2.4089 H   0  0  0  0  0  0  0  0  0  0  0  0
    5.2967   -3.8168   -1.6648 H   0  0  0  0  0  0  0  0  0  0  0  0
    5.6738   -2.4334   -0.8299 H   0  0  0  0  0  0  0  0  0  0  0  0
   -1.7108    0.5134    1.1509 N   0  0  0  0  0  0  0  0  0  0  0  0
   -2.6249    0.6568    2.2589 C   0  0  2  0  0  0  0  0  0  0  0  0
   -2.9214    2.1402    2.4349 C   0  0  0  0  0  0  0  0  0  0  0  0
   -2.1739    3.0267    2.0270 O   0  0  0  0  0  0  0  0  0  0  0  0
   -2.0464    0.0631    3.5339 C   0  0  0  0  0  0  0  0  0  0  0  0
   -1.2457    1.3402    0.7881 H   0  0  0  0  0  0  0  0  0  0  0  0
   -3.5444    0.1305    1.9804 H   0  0  0  0  0  0  0  0  0  0  0  0
   -1.1246    0.5777    3.8286 H   0  0  0  0  0  0  0  0  0  0  0  0
   -2.7525    0.1471    4.3666 H   0  0  0  0  0  0  0  0  0  0  0  0
   -1.8061   -0.9967    3.3962 H   0  0  0  0  0  0  0  0  0  0  0  0
   -4.0975    2.3574    3.1390 N   0  0  0  0  0  0  0  0  0  0  0  0
   -4.5893    3.6802    3.4463 C   0  0  0  0  0  0  0  0  0  0  0  0
   -4.6641    1.5634    3.4224 H   0  0  0  0  0  0  0  0  0  0  0  0
   -4.2198    3.9887    4.4354 H   0  0  0  0  0  0  0  0  0  0  0  0
   -4.2337    4.3896    2.6846 H   0  0  0  0  0  0  0  0  0  0  0  0
   -5.6893    3.6699    3.4528 H   0  0  0  0  0  0  0  0  0  0  0  0
  1  3  1  0  0  0  0
  1  7  1  0  0  0  0
  1  2  2  0  0  0  0
 40 41  1  0  0  0  0
 41 49  1  0  0  0  0
 41 42  2  0  0  0  0
  8  9  1  0  0  0  0
  9 17  1  0  0  0  0
  9 10  2  0  0  0  0
 18 19  1  0  0  0  0
 19 39  1  0  0  0  0
 19 20  2  0  0  0  0
 40 43  1  0  0  0  0
  8 11  1  0  0  0  0
 49 50  1  0  0  0  0
 22 23  1  0  0  0  0
 21 22  1  0  0  0  0
 23 24  1  0  0  0  0
 18 21  1  0  0  0  0
 24 25  1  0  0  0  0
 39 40  1  0  0  0  0
  7  8  1  0  0  0  0
 17 18  1  0  0  0  0
  3  4  1  0  0  0  0
  3  5  1  0  0  0  0
  3  6  1  0  0  0  0
 43 46  1  0  0  0  0
 43 47  1  0  0  0  0
 43 48  1  0  0  0  0
 11 14  1  0  0  0  0
 11 15  1  0  0  0  0
 11 16  1  0  0  0  0
 50 52  1  0  0  0  0
 50 53  1  0  0  0  0
 50 54  1  0  0  0  0
 22 30  1  0  0  0  0
 22 31  1  0  0  0  0
 23 32  1  0  0  0  0
 23 33  1  0  0  0  0
 21 28  1  0  0  0  0
 21 29  1  0  0  0  0
 24 34  1  0  0  0  0
 24 35  1  0  0  0  0
 40 45  1  0  0  0  0
  8 13  1  0  0  0  0
 18 27  1  0  0  0  0
 49 51  1  0  0  0  0
  7 12  1  0  0  0  0
 39 44  1  0  0  0  0
 17 26  1  0  0  0  0
 25 36  1  0  0  0  0
 25 37  1  0  0  0  0
 25 38  1  0  0  0  0
M  CHG  1  25   1
M  END
$$$$

  -OEChem-05262214473D

 54 53  0     1  0  0  0  0  0999 V2000
    2.6714    2.8829   -3.0005 C   0  0  0  0  0  0  0  0  0  0  0  0
    3.1741    2.4398   -1.9745 O   0  0  0  0  0  0  0  0  0  0  0  0
    3.5527    3.3077   -4.1279 C   0  0  0  0  0  0  0  0  0  0  0  0
    3.8407    4.3691   -4.0597 H   0  0  0  0  0  0  0  0  0  0  0  0
    4.5024    2.7495   -4.1526 H   0  0  0  0  0  0  0  0  0  0  0  0
    3.1208    3.1887   -5.1345 H   0  0  0  0  0  0  0  0  0  0  0  0
    1.3174    3.0407   -3.2467 N   0  0  0  0  0  0  0  0  0  0  0  0
    0.2944    2.6927   -2.2960 C   0  0  2  0  0  0  0  0  0  0  0  0
    0.2976    1.1783   -2.1349 C   0  0  0  0  0  0  0  0  0  0  0  0
    0.7500    0.4142   -2.9850 O   0  0  0  0  0  0  0  0  0  0  0  0
   -1.0710    3.1886   -2.7460 C   0  0  0  0  0  0  0  0  0  0  0  0
    1.0312    3.4224   -4.1464 H   0  0  0  0  0  0  0  0  0  0  0  0
    0.5725    3.1622   -1.3461 H   0  0  0  0  0  0  0  0  0  0  0  0
   -1.3666    2.7292   -3.6963 H   0  0  0  0  0  0  0  0  0  0  0  0
   -1.8434    2.9482   -2.0082 H   0  0  0  0  0  0  0  0  0  0  0  0
   -1.0632    4.2744   -2.8901 H   0  0  0  0  0  0  0  0  0  0  0  0
   -0.3037    0.7742   -0.9484 N   0  0  0  0  0  0  0  0  0  0  0  0
   -0.4352   -0.6095   -0.5718 C   0  0  2  0  0  0  0  0  0  0  0  0
   -1.4465   -0.7162    0.5649 C   0  0  0  0  0  0  0  0  0  0  0  0
   -1.7377   -1.7814    1.1052 O   0  0  0  0  0  0  0  0  0  0  0  0
    0.9186   -1.2408   -0.2262 C   0  0  0  0  0  0  0  0  0  0  0  0
    1.8624   -1.3942   -1.4261 C   0  0  0  0  0  0  0  0  0  0  0  0
    3.1807   -2.0519   -1.0117 C   0  0  0  0  0  0  0  0  0  0  0  0
    4.1237   -2.1801   -2.1989 C   0  0  0  0  0  0  0  0  0  0  0  0
    5.3931   -2.7985   -1.7467 N   0  3  0  0  0  0  0  0  0  0  0  0
   -0.6336    1.4811   -0.2948 H   0  0  0  0  0  0  0  0  0  0  0  0
   -0.8548   -1.1199   -1.4472 H   0  0  0  0  0  0  0  0  0  0  0  0
    1.4124   -0.6236    0.5355 H   0  0  0  0  0  0  0  0  0  0  0  0
    0.7564   -2.2274    0.2251 H   0  0  0  0  0  0  0  0  0  0  0  0
    1.3851   -2.0034   -2.2025 H   0  0  0  0  0  0  0  0  0  0  0  0
    2.0719   -0.4123   -1.8663 H   0  0  0  0  0  0  0  0  0  0  0  0
    2.9792   -3.0438   -0.5884 H   0  0  0  0  0  0  0  0  0  0  0  0
    3.6560   -1.4564   -0.2223 H   0  0  0  0  0  0  0  0  0  0  0  0
    3.7147   -2.8290   -2.9791 H   0  0  0  0  0  0  0  0  0  0  0  0
    4.3796   -1.2061   -2.6264 H   0  0  0  0  0  0  0  0  0  0  0  0
    6.1525   -2.6059   -2.4089 H   0  0  0  0  0  0  0  0  0  0  0  0
    5.2967   -3.8168   -1.6648 H   0  0  0  0  0  0  0  0  0  0  0  0
    5.6738   -2.4334   -0.8299 H   0  0  0  0  0  0  0  0  0  0  0  0
   -1.9615    0.5198    0.9285 N   0  0  0  0  0  0  0  0  0  0  0  0
   -2.9243    0.6687    1.9937 C   0  0  2  0  0  0  0  0  0  0  0  0
   -3.5051    2.0741    1.9095 C   0  0  0  0  0  0  0  0  0  0  0  0
   -2.9272    3.0066    1.3550 O   0  0  0  0  0  0  0  0  0  0  0  0
   -2.2878    0.4242    3.3530 C   0  0  0  0  0  0  0  0  0  0  0  0
   -1.6507    1.3474    0.4285 H   0  0  0  0  0  0  0  0  0  0  0  0
   -3.7158   -0.0658    1.8096 H   0  0  0  0  0  0  0  0  0  0  0  0
   -1.4923    1.1506    3.5552 H   0  0  0  0  0  0  0  0  0  0  0  0
   -3.0256    0.5095    4.1577 H   0  0  0  0  0  0  0  0  0  0  0  0
   -1.8445   -0.5763    3.4015 H   0  0  0  0  0  0  0  0  0  0  0  0
   -4.7249    2.1747    2.5638 N   0  0  0  0  0  0  0  0  0  0  0  0
   -5.4711    3.4092    2.6365 C   0  0  0  0  0  0  0  0  0  0  0  0
   -5.1387    1.3456    2.9798 H   0  0  0  0  0  0  0  0  0  0  0  0
   -5.2023    3.9471    3.5576 H   0  0  0  0  0  0  0  0  0  0  0  0
   -5.2314    4.0343    1.7637 H   0  0  0  0  0  0  0  0  0  0  0  0
   -6.5483    3.1865    2.6432 H   0  0  0  0  0  0  0  0  0  0  0  0
  1  3  1  0  0  0  0
  1  7  1  0  0  0  0
  1  2  2  0  0  0  0
 40 41  1  0  0  0  0
 41 49  1  0  0  0  0
 41 42  2  0  0  0  0
  8  9  1  0  0  0  0
  9 17  1  0  0  0  0
  9 10  2  0  0  0  0
 18 19  1  0  0  0  0
 19 39  1  0  0  0  0
 19 20  2  0  0  0  0
 40 43  1  0  0  0  0
  8 11  1  0  0  0  0
 49 50  1  0  0  0  0
 22 23  1  0  0  0  0
 21 22  1  0  0  0  0
 23 24  1  0  0  0  0
 18 21  1  0  0  0  0
 24 25  1  0  0  0  0
 39 40  1  0  0  0  0
  7  8  1  0  0  0  0
 17 18  1  0  0  0  0
  3  4  1  0  0  0  0
  3  5  1  0  0  0  0
  3  6  1  0  0  0  0
 43 46  1  0  0  0  0
 43 47  1  0  0  0  0
 43 48  1  0  0  0  0
 11 14  1  0  0  0  0
 11 15  1  0  0  0  0
 11 16  1  0  0  0  0
 50 52  1  0  0  0  0
 50 53  1  0  0  0  0
 50 54  1  0  0  0  0
 22 30  1  0  0  0  0
 22 31  1  0  0  0  0
 23 32  1  0  0  0  0
 23 33  1  0  0  0  0
 21 28  1  0  0  0  0
 21 29  1  0  0  0  0
 24 34  1  0  0  0  0
 24 35  1  0  0  0  0
 40 45  1  0  0  0  0
  8 13  1  0  0  0  0
 18 27  1  0  0  0  0
 49 51  1  0  0  0  0
  7 12  1  0  0  0  0
 39 44  1  0  0  0  0
 17 26  1  0  0  0  0
 25 36  1  0  0  0  0
 25 37  1  0  0  0  0
 25 38  1  0  0  0  0
M  CHG  1  25   1
M  END
$$$$

  -OEChem-05262214473D

 54 53  0     1  0  0  0  0  0999 V2000
    2.6714    2.8829   -3.0005 C   0  0  0  0  0  0  0  0  0  0  0  0
    3.1741    2.4398   -1.9745 O   0  0  0  0  0  0  0  0  0  0  0  0
    3.5527    3.3077   -4.1279 C   0  0  0  0  0  0  0  0  0  0  0  0
    3.8407    4.3691   -4.0597 H   0  0  0  0  0  0  0  0  0  0  0  0
    4.5024    2.7495   -4.1526 H   0  0  0  0  0  0  0  0  0  0  0  0
    3.1208    3.1887   -5.1345 H   0  0  0  0  0  0  0  0  0  0  0  0
    1.3174    3.0407   -3.2467 N   0  0  0  0  0  0  0  0  0  0  0  0
    0.2944    2.6927   -2.2960 C   0  0  2  0  0  0  0  0  0  0  0  0
    0.2976    1.1783   -2.1349 C   0  0  0  0  0  0  0  0  0  0  0  0
    0.7500    0.4142   -2.9850 O   0  0  0  0  0  0  0  0  0  0  0  0
   -1.0710    3.1886   -2.7460 C   0  0  0  0  0  0  0  0  0  0  0  0
    1.0312    3.4224   -4.1464 H   0  0  0  0  0  0  0  0  0  0  0  0
    0.5725    3.1622   -1.3461 H   0  0  0  0  0  0  0  0  0  0  0  0
   -1.3666    2.7292   -3.6963 H   0  0  0  0  0  0  0  0  0  0  0  0
   -1.8434    2.9482   -2.0082 H   0  0  0  0  0  0  0  0  0  0  0  0
   -1.0632    4.2744   -2.8901 H   0  0  0  0  0  0  0  0  0  0  0  0
   -0.3037    0.7742   -0.9484 N   0  0  0  0  0  0  0  0  0  0  0  0
   -0.4352   -0.6095   -0.5718 C   0  0  2  0  0  0  0  0  0  0  0  0
   -1.4465   -0.7162    0.5649 C   0  0  0  0  0  0  0  0  0  0  0  0
   -1.5472   -1.7102    1.2813 O   0  0  0  0  0  0  0  0  0  0  0  0
    0.9186   -1.2408   -0.2262 C   0  0  0  0  0  0  0  0  0  0  0  0
    1.8624   -1.3942   -1.4261 C   0  0  0  0  0  0  0  0  0  0  0  0
    3.1807   -2.0519   -1.0117 C   0  0  0  0  0  0  0  0  0  0  0  0
    4.1237   -2.1801   -2.1989 C   0  0  0  0  0  0  0  0  0  0  0  0
    5.3931   -2.7985   -1.7467 N   0  3  0  0  0  0  0  0  0  0  0  0
   -0.6336    1.4811   -0.2948 H   0  0  0  0  0  0  0  0  0  0  0  0
   -0.8548   -1.1199   -1.4472 H   0  0  0  0  0  0  0  0  0  0  0  0
    1.4124   -0.6236    0.5355 H   0  0  0  0  0  0  0  0  0  0  0  0
    0.7564   -2.2274    0.2251 H   0  0  0  0  0  0  0  0  0  0  0  0
    1.3851   -2.0034   -2.2025 H   0  0  0  0  0  0  0  0  0  0  0  0
    2.0719   -0.4123   -1.8663 H   0  0  0  0  0  0  0  0  0  0  0  0
    2.9792   -3.0438   -0.5884 H   0  0  0  0  0  0  0  0  0  0  0  0
    3.6560   -1.4564   -0.2223 H   0  0  0  0  0  0  0  0  0  0  0  0
    3.7147   -2.8290   -2.9791 H   0  0  0  0  0  0  0  0  0  0  0  0
    4.3796   -1.2061   -2.6264 H   0  0  0  0  0  0  0  0  0  0  0  0
    6.1525   -2.6059   -2.4089 H   0  0  0  0  0  0  0  0  0  0  0  0
    5.2967   -3.8168   -1.6648 H   0  0  0  0  0  0  0  0  0  0  0  0
    5.6738   -2.4334   -0.8299 H   0  0  0  0  0  0  0  0  0  0  0  0
   -2.2008    0.4394    0.7081 N   0  0  0  0  0  0  0  0  0  0  0  0
   -3.2109    0.5770    1.7301 C   0  0  2  0  0  0  0  0  0  0  0  0
   -4.0466    1.8075    1.4027 C   0  0  0  0  0  0  0  0  0  0  0  0
   -3.6388    2.7266    0.6957 O   0  0  0  0  0  0  0  0  0  0  0  0
   -2.5873    0.6954    3.1120 C   0  0  0  0  0  0  0  0  0  0  0  0
   -2.0368    1.2145    0.0725 H   0  0  0  0  0  0  0  0  0  0  0  0
   -3.8404   -0.3179    1.6751 H   0  0  0  0  0  0  0  0  0  0  0  0
   -1.9531    1.5863    3.1862 H   0  0  0  0  0  0  0  0  0  0  0  0
   -3.3554    0.7710    3.8888 H   0  0  0  0  0  0  0  0  0  0  0  0
   -1.9627   -0.1767    3.3338 H   0  0  0  0  0  0  0  0  0  0  0  0
   -5.2852    1.7786    2.0282 N   0  0  0  0  0  0  0  0  0  0  0  0
   -6.2559    2.8384    1.8848 C   0  0  0  0  0  0  0  0  0  0  0  0
   -5.5470    0.9677    2.5811 H   0  0  0  0  0  0  0  0  0  0  0  0
   -6.1273    3.5668    2.6990 H   0  0  0  0  0  0  0  0  0  0  0  0
   -6.1099    3.3407    0.9171 H   0  0  0  0  0  0  0  0  0  0  0  0
   -7.2702    2.4149    1.9286 H   0  0  0  0  0  0  0  0  0  0  0  0
  1  3  1  0  0  0  0
  1  7  1  0  0  0  0
  1  2  2  0  0  0  0
 40 41  1  0  0  0  0
 41 49  1  0  0  0  0
 41 42  2  0  0  0  0
  8  9  1  0  0  0  0
  9 17  1  0  0  0  0
  9 10  2  0  0  0  0
 18 19  1  0  0  0  0
 19 39  1  0  0  0  0
 19 20  2  0  0  0  0
 40 43  1  0  0  0  0
  8 11  1  0  0  0  0
 49 50  1  0  0  0  0
 22 23  1  0  0  0  0
 21 22  1  0  0  0  0
 23 24  1  0  0  0  0
 18 21  1  0  0  0  0
 24 25  1  0  0  0  0
 39 40  1  0  0  0  0
  7  8  1  0  0  0  0
 17 18  1  0  0  0  0
  3  4  1  0  0  0  0
  3  5  1  0  0  0  0
  3  6  1  0  0  0  0
 43 46  1  0  0  0  0
 43 47  1  0  0  0  0
 43 48  1  0  0  0  0
 11 14  1  0  0  0  0
 11 15  1  0  0  0  0
 11 16  1  0  0  0  0
 50 52  1  0  0  0  0
 50 53  1  0  0  0  0
 50 54  1  0  0  0  0
 22 30  1  0  0  0  0
 22 31  1  0  0  0  0
 23 32  1  0  0  0  0
 23 33  1  0  0  0  0
 21 28  1  0  0  0  0
 21 29  1  0  0  0  0
 24 34  1  0  0  0  0
 24 35  1  0  0  0  0
 40 45  1  0  0  0  0
  8 13  1  0  0  0  0
 18 27  1  0  0  0  0
 49 51  1  0  0  0  0
  7 12  1  0  0  0  0
 39 44  1  0  0  0  0
 17 26  1  0  0  0  0
 25 36  1  0  0  0  0
 25 37  1  0  0  0  0
 25 38  1  0  0  0  0
M  CHG  1  25   1
M  END
$$$$

  -OEChem-05262214473D

 54 53  0     1  0  0  0  0  0999 V2000
    2.6714    2.8829   -3.0005 C   0  0  0  0  0  0  0  0  0  0  0  0
    3.1741    2.4398   -1.9745 O   0  0  0  0  0  0  0  0  0  0  0  0
    3.5527    3.3077   -4.1279 C   0  0  0  0  0  0  0  0  0  0  0  0
    3.8407    4.3691   -4.0597 H   0  0  0  0  0  0  0  0  0  0  0  0
    4.5024    2.7495   -4.1526 H   0  0  0  0  0  0  0  0  0  0  0  0
    3.1208    3.1887   -5.1345 H   0  0  0  0  0  0  0  0  0  0  0  0
    1.3174    3.0407   -3.2467 N   0  0  0  0  0  0  0  0  0  0  0  0
    0.2944    2.6927   -2.2960 C   0  0  2  0  0  0  0  0  0  0  0  0
    0.2976    1.1783   -2.1349 C   0  0  0  0  0  0  0  0  0  0  0  0
    0.7500    0.4142   -2.9850 O   0  0  0  0  0  0  0  0  0  0  0  0
   -1.0710    3.1886   -2.7460 C   0  0  0  0  0  0  0  0  0  0  0  0
    1.0312    3.4224   -4.1464 H   0  0  0  0  0  0  0  0  0  0  0  0
    0.5725    3.1622   -1.3461 H   0  0  0  0  0  0  0  0  0  0  0  0
   -1.3666    2.7292   -3.6963 H   0  0  0  0  0  0  0  0  0  0  0  0
   -1.8434    2.9482   -2.0082 H   0  0  0  0  0  0  0  0  0  0  0  0
   -1.0632    4.2744   -2.8901 H   0  0  0  0  0  0  0  0  0  0  0  0
   -0.3037    0.7742   -0.9484 N   0  0  0  0  0  0  0  0  0  0  0  0
   -0.4352   -0.6095   -0.5718 C   0  0  2  0  0  0  0  0  0  0  0  0
   -1.4465   -0.7162    0.5649 C   0  0  0  0  0  0  0  0  0  0  0  0
   -1.3801   -1.5744    1.4427 O   0  0  0  0  0  0  0  0  0  0  0  0
    0.9186   -1.2408   -0.2262 C   0  0  0  0  0  0  0  0  0  0  0  0
    1.8624   -1.3942   -1.4261 C   0  0  0  0  0  0  0  0  0  0  0  0
    3.1807   -2.0519   -1.0117 C   0  0  0  0  0  0  0  0  0  0  0  0
    4.1237   -2.1801   -2.1989 C   0  0  0  0  0  0  0  0  0  0  0  0
    5.3931   -2.7985   -1.7467 N   0  3  0  0  0  0  0  0  0  0  0  0
   -0.6336    1.4811   -0.2948 H   0  0  0  0  0  0  0  0  0  0  0  0
   -0.8548   -1.1199   -1.4472 H   0  0  0  0  0  0  0  0  0  0  0  0
    1.4124   -0.6236    0.5355 H   0  0  0  0  0  0  0  0  0  0  0  0
    0.7564   -2.2274    0.2251 H   0  0  0  0  0  0  0  0  0  0  0  0
    1.3851   -2.0034   -2.2025 H   0  0  0  0  0  0  0  0  0  0  0  0
    2.0719   -0.4123   -1.8663 H   0  0  0  0  0  0  0  0  0  0  0  0
    2.9792   -3.0438   -0.5884 H   0  0  0  0  0  0  0  0  0  0  0  0
    3.6560   -1.4564   -0.2223 H   0  0  0  0  0  0  0  0  0  0  0  0
    3.7147   -2.8290   -2.9791 H   0  0  0  0  0  0  0  0  0  0  0  0
    4.3796   -1.2061   -2.6264 H   0  0  0  0  0  0  0  0  0  0  0  0
    6.1525   -2.6059   -2.4089 H   0  0  0  0  0  0  0  0  0  0  0  0
    5.2967   -3.8168   -1.6648 H   0  0  0  0  0  0  0  0  0  0  0  0
    5.6738   -2.4334   -0.8299 H   0  0  0  0  0  0  0  0  0  0  0  0
   -2.4125    0.2779    0.5046 N   0  0  0  0  0  0  0  0  0  0  0  0
   -3.4654    0.3879    1.4860 C   0  0  2  0  0  0  0  0  0  0  0  0
   -4.5091    1.3585    0.9492 C   0  0  0  0  0  0  0  0  0  0  0  0
   -4.2602    2.2057    0.0940 O   0  0  0  0  0  0  0  0  0  0  0  0
   -2.9246    0.8582    2.8273 C   0  0  0  0  0  0  0  0  0  0  0  0
   -2.3778    0.9506   -0.2555 H   0  0  0  0  0  0  0  0  0  0  0  0
   -3.9097   -0.6084    1.5862 H   0  0  0  0  0  0  0  0  0  0  0  0
   -2.4755    1.8548    2.7467 H   0  0  0  0  0  0  0  0  0  0  0  0
   -3.7197    0.9138    3.5782 H   0  0  0  0  0  0  0  0  0  0  0  0
   -2.1528    0.1748    3.1976 H   0  0  0  0  0  0  0  0  0  0  0  0
   -5.7403    1.1959    1.5686 N   0  0  0  0  0  0  0  0  0  0  0  0
   -6.8903    2.0067    1.2424 C   0  0  0  0  0  0  0  0  0  0  0  0
   -5.8613    0.4556    2.2534 H   0  0  0  0  0  0  0  0  0  0  0  0
   -6.9319    2.8736    1.9182 H   0  0  0  0  0  0  0  0  0  0  0  0
   -6.8093    2.3561    0.2025 H   0  0  0  0  0  0  0  0  0  0  0  0
   -7.8056    1.4077    1.3578 H   0  0  0  0  0  0  0  0  0  0  0  0
  1  3  1  0  0  0  0
  1  7  1  0  0  0  0
  1  2  2  0  0  0  0
 40 41  1  0  0  0  0
 41 49  1  0  0  0  0
 41 42  2  0  0  0  0
  8  9  1  0  0  0  0
  9 17  1  0  0  0  0
  9 10  2  0  0  0  0
 18 19  1  0  0  0  0
 19 39  1  0  0  0  0
 19 20  2  0  0  0  0
 40 43  1  0  0  0  0
  8 11  1  0  0  0  0
 49 50  1  0  0  0  0
 22 23  1  0  0  0  0
 21 22  1  0  0  0  0
 23 24  1  0  0  0  0
 18 21  1  0  0  0  0
 24 25  1  0  0  0  0
 39 40  1  0  0  0  0
  7  8  1  0  0  0  0
 17 18  1  0  0  0  0
  3  4  1  0  0  0  0
  3  5  1  0  0  0  0
  3  6  1  0  0  0  0
 43 46  1  0  0  0  0
 43 47  1  0  0  0  0
 43 48  1  0  0  0  0
 11 14  1  0  0  0  0
 11 15  1  0  0  0  0
 11 16  1  0  0  0  0
 50 52  1  0  0  0  0
 50 53  1  0  0  0  0
 50 54  1  0  0  0  0
 22 30  1  0  0  0  0
 22 31  1  0  0  0  0
 23 32  1  0  0  0  0
 23 33  1  0  0  0  0
 21 28  1  0  0  0  0
 21 29  1  0  0  0  0
 24 34  1  0  0  0  0
 24 35  1  0  0  0  0
 40 45  1  0  0  0  0
  8 13  1  0  0  0  0
 18 27  1  0  0  0  0
 49 51  1  0  0  0  0
  7 12  1  0  0  0  0
 39 44  1  0  0  0  0
 17 26  1  0  0  0  0
 25 36  1  0  0  0  0
 25 37  1  0  0  0  0
 25 38  1  0  0  0  0
M  CHG  1  25   1
M  END
$$$$

  -OEChem-05262214473D

 54 53  0     1  0  0  0  0  0999 V2000
    2.6714    2.8829   -3.0005 C   0  0  0  0  0  0  0  0  0  0  0  0
    3.1741    2.4398   -1.9745 O   0  0  0  0  0  0  0  0  0  0  0  0
    3.5527    3.3077   -4.1279 C   0  0  0  0  0  0  0  0  0  0  0  0
    3.8407    4.3691   -4.0597 H   0  0  0  0  0  0  0  0  0  0  0  0
    4.5024    2.7495   -4.1526 H   0  0  0  0  0  0  0  0  0  0  0  0
    3.1208    3.1887   -5.1345 H   0  0  0  0  0  0  0  0  0  0  0  0
    1.3174    3.0407   -3.2467 N   0  0  0  0  0  0  0  0  0  0  0  0
    0.2944    2.6927   -2.2960 C   0  0  2  0  0  0  0  0  0  0  0  0
    0.2976    1.1783   -2.1349 C   0  0  0  0  0  0  0  0  0  0  0  0
    0.7500    0.4142   -2.9850 O   0  0  0  0  0  0  0  0  0  0  0  0
   -1.0710    3.1886   -2.7460 C   0  0  0  0  0  0  0  0  0  0  0  0
    1.0312    3.4224   -4.1464 H   0  0  0  0  0  0  0  0  0  0  0  0
    0.5725    3.1622   -1.3461 H   0  0  0  0  0  0  0  0  0  0  0  0
   -1.3666    2.7292   -3.6963 H   0  0  0  0  0  0  0  0  0  0  0  0
   -1.8434    2.9482   -2.0082 H   0  0  0  0  0  0  0  0  0  0  0  0
   -1.0632    4.2744   -2.8901 H   0  0  0  0  0  0  0  0  0  0  0  0
   -0.3037    0.7742   -0.9484 N   0  0  0  0  0  0  0  0  0  0  0  0
   -0.4352   -0.6095   -0.5718 C   0  0  2  0  0  0  0  0  0  0  0  0
   -1.4465   -0.7162    0.5649 C   0  0  0  0  0  0  0  0  0  0  0  0
   -1.2478   -1.3833    1.5783 O   0  0  0  0  0  0  0  0  0  0  0  0
    0.9186   -1.2408   -0.2262 C   0  0  0  0  0  0  0  0  0  0  0  0
    1.8624   -1.3942   -1.4261 C   0  0  0  0  0  0  0  0  0  0  0  0
    3.1807   -2.0519   -1.0117 C   0  0  0  0  0  0  0  0  0  0  0  0
    4.1237   -2.1801   -2.1989 C   0  0  0  0  0  0  0  0  0  0  0  0
    5.3931   -2.7985   -1.7467 N   0  3  0  0  0  0  0  0  0  0  0  0
   -0.6336    1.4811   -0.2948 H   0  0  0  0  0  0  0  0  0  0  0  0
   -0.8548   -1.1199   -1.4472 H   0  0  0  0  0  0  0  0  0  0  0  0
    1.4124   -0.6236    0.5355 H   0  0  0  0  0  0  0  0  0  0  0  0
    0.7564   -2.2274    0.2251 H   0  0  0  0  0  0  0  0  0  0  0  0
    1.3851   -2.0034   -2.2025 H   0  0  0  0  0  0  0  0  0  0  0  0
    2.0719   -0.4123   -1.8663 H   0  0  0  0  0  0  0  0  0  0  0  0
    2.9792   -3.0438   -0.5884 H   0  0  0  0  0  0  0  0  0  0  0  0
    3.6560   -1.4564   -0.2223 H   0  0  0  0  0  0  0  0  0  0  0  0
    3.7147   -2.8290   -2.9791 H   0  0  0  0  0  0  0  0  0  0  0  0
    4.3796   -1.2061   -2.6264 H   0  0  0  0  0  0  0  0  0  0  0  0
    6.1525   -2.6059   -2.4089 H   0  0  0  0  0  0  0  0  0  0  0  0
    5.2967   -3.8168   -1.6648 H   0  0  0  0  0  0  0  0  0  0  0  0
    5.6738   -2.4334   -0.8299 H   0  0  0  0  0  0  0  0  0  0  0  0
   -2.5821    0.0460    0.3320 N   0  0  0  0  0  0  0  0  0  0  0  0
   -3.6702    0.1142    1.2781 C   0  0  2  0  0  0  0  0  0  0  0  0
   -4.8609    0.7578    0.5798 C   0  0  0  0  0  0  0  0  0  0  0  0
   -4.7490    1.4794   -0.4090 O   0  0  0  0  0  0  0  0  0  0  0  0
   -3.2767    0.9016    2.5182 C   0  0  0  0  0  0  0  0  0  0  0  0
   -2.6502    0.5737   -0.5332 H   0  0  0  0  0  0  0  0  0  0  0  0
   -3.9189   -0.9177    1.5489 H   0  0  0  0  0  0  0  0  0  0  0  0
   -3.0240    1.9381    2.2666 H   0  0  0  0  0  0  0  0  0  0  0  0
   -4.0934    0.9281    3.2471 H   0  0  0  0  0  0  0  0  0  0  0  0
   -2.4018    0.4544    3.0024 H   0  0  0  0  0  0  0  0  0  0  0  0
   -6.0593    0.4665    1.2165 N   0  0  0  0  0  0  0  0  0  0  0  0
   -7.3309    0.9707    0.7532 C   0  0  0  0  0  0  0  0  0  0  0  0
   -6.0602   -0.1560    2.0191 H   0  0  0  0  0  0  0  0  0  0  0  0
   -7.5613    1.9149    1.2684 H   0  0  0  0  0  0  0  0  0  0  0  0
   -7.2820    1.1473   -0.3314 H   0  0  0  0  0  0  0  0  0  0  0  0
   -8.1183    0.2336    0.9695 H   0  0  0  0  0  0  0  0  0  0  0  0
  1  3  1  0  0  0  0
  1  7  1  0  0  0  0
  1  2  2  0  0  0  0
 40 41  1  0  0  0  0
 41 49  1  0  0  0  0
 41 42  2  0  0  0  0
  8  9  1  0  0  0  0
  9 17  1  0  0  0  0
  9 10  2  0  0  0  0
 18 19  1  0  0  0  0
 19 39  1  0  0  0  0
 19 20  2  0  0  0  0
 40 43  1  0  0  0  0
  8 11  1  0  0  0  0
 49 50  1  0  0  0  0
 22 23  1  0  0  0  0
 21 22  1  0  0  0  0
 23 24  1  0  0  0  0
 18 21  1  0  0  0  0
 24 25  1  0  0  0  0
 39 40  1  0  0  0  0
  7  8  1  0  0  0  0
 17 18  1  0  0  0  0
  3  4  1  0  0  0  0
  3  5  1  0  0  0  0
  3  6  1  0  0  0  0
 43 46  1  0  0  0  0
 43 47  1  0  0  0  0
 43 48  1  0  0  0  0
 11 14  1  0  0  0  0
 11 15  1  0  0  0  0
 11 16  1  0  0  0  0
 50 52  1  0  0  0  0
 50 53  1  0  0  0  0
 50 54  1  0  0  0  0
 22 30  1  0  0  0  0
 22 31  1  0  0  0  0
 23 32  1  0  0  0  0
 23 33  1  0  0  0  0
 21 28  1  0  0  0  0
 21 29  1  0  0  0  0
 24 34  1  0  0  0  0
 24 35  1  0  0  0  0
 40 45  1  0  0  0  0
  8 13  1  0  0  0  0
 18 27  1  0  0  0  0
 49 51  1  0  0  0  0
  7 12  1  0  0  0  0
 39 44  1  0  0  0  0
 17 26  1  0  0  0  0
 25 36  1  0  0  0  0
 25 37  1  0  0  0  0
 25 38  1  0  0  0  0
M  CHG  1  25   1
M  END
$$$$

  -OEChem-05262214473D

 54 53  0     1  0  0  0  0  0999 V2000
    2.6714    2.8829   -3.0005 C   0  0  0  0  0  0  0  0  0  0  0  0
    3.1741    2.4398   -1.9745 O   0  0  0  0  0  0  0  0  0  0  0  0
    3.5527    3.3077   -4.1279 C   0  0  0  0  0  0  0  0  0  0  0  0
    3.8407    4.3691   -4.0597 H   0  0  0  0  0  0  0  0  0  0  0  0
    4.5024    2.7495   -4.1526 H   0  0  0  0  0  0  0  0  0  0  0  0
    3.1208    3.1887   -5.1345 H   0  0  0  0  0  0  0  0  0  0  0  0
    1.3174    3.0407   -3.2467 N   0  0  0  0  0  0  0  0  0  0  0  0
    0.2944    2.6927   -2.2960 C   0  0  2  0  0  0  0  0  0  0  0  0
    0.2976    1.1783   -2.1349 C   0  0  0  0  0  0  0  0  0  0  0  0
    0.7500    0.4142   -2.9850 O   0  0  0  0  0  0  0  0  0  0  0  0
   -1.0710    3.1886   -2.7460 C   0  0  0  0  0  0  0  0  0  0  0  0
    1.0312    3.4224   -4.1464 H   0  0  0  0  0  0  0  0  0  0  0  0
    0.5725    3.1622   -1.3461 H   0  0  0  0  0  0  0  0  0  0  0  0
   -1.3666    2.7292   -3.6963 H   0  0  0  0  0  0  0  0  0  0  0  0
   -1.8434    2.9482   -2.0082 H   0  0  0  0  0  0  0  0  0  0  0  0
   -1.0632    4.2744   -2.8901 H   0  0  0  0  0  0  0  0  0  0  0  0
   -0.3037    0.7742   -0.9484 N   0  0  0  0  0  0  0  0  0  0  0  0
   -0.4352   -0.6095   -0.5718 C   0  0  2  0  0  0  0  0  0  0  0  0
   -1.4465   -0.7162    0.5649 C   0  0  0  0  0  0  0  0  0  0  0  0
   -1.1594   -1.1500    1.6789 O   0  0  0  0  0  0  0  0  0  0  0  0
    0.9186   -1.2408   -0.2262 C   0  0  0  0  0  0  0  0  0  0  0  0
    1.8624   -1.3942   -1.4261 C   0  0  0  0  0  0  0  0  0  0  0  0
    3.1807   -2.0519   -1.0117 C   0  0  0  0  0  0  0  0  0  0  0  0
    4.1237   -2.1801   -2.1989 C   0  0  0  0  0  0  0  0  0  0  0  0
    5.3931   -2.7985   -1.7467 N   0  3  0  0  0  0  0  0  0  0  0  0
   -0.6336    1.4811   -0.2948 H   0  0  0  0  0  0  0  0  0  0  0  0
   -0.8548   -1.1199   -1.4472 H   0  0  0  0  0  0  0  0  0  0  0  0
    1.4124   -0.6236    0.5355 H   0  0  0  0  0  0  0  0  0  0  0  0
    0.7564   -2.2274    0.2251 H   0  0  0  0  0  0  0  0  0  0  0  0
    1.3851   -2.0034   -2.2025 H   0  0  0  0  0  0  0  0  0  0  0  0
    2.0719   -0.4123   -1.8663 H   0  0  0  0  0  0  0  0  0  0  0  0
    2.9792   -3.0438   -0.5884 H   0  0  0  0  0  0  0  0  0  0  0  0
    3.6560   -1.4564   -0.2223 H   0  0  0  0  0  0  0  0  0  0  0  0
    3.7147   -2.8290   -2.9791 H   0  0  0  0  0  0  0  0  0  0  0  0
    4.3796   -1.2061   -2.6264 H   0  0  0  0  0  0  0  0  0  0  0  0
    6.1525   -2.6059   -2.4089 H   0  0  0  0  0  0  0  0  0  0  0  0
    5.2967   -3.8168   -1.6648 H   0  0  0  0  0  0  0  0  0  0  0  0
    5.6738   -2.4334   -0.8299 H   0  0  0  0  0  0  0  0  0  0  0  0
   -2.6981   -0.2402    0.2019 N   0  0  0  0  0  0  0  0  0  0  0  0
   -3.8116   -0.2253    1.1205 C   0  0  2  0  0  0  0  0  0  0  0  0
   -5.0783    0.0463    0.3197 C   0  0  0  0  0  0  0  0  0  0  0  0
   -5.0720    0.5973   -0.7791 O   0  0  0  0  0  0  0  0  0  0  0  0
   -3.6195    0.8225    2.2058 C   0  0  0  0  0  0  0  0  0  0  0  0
   -2.8356    0.1093   -0.7418 H   0  0  0  0  0  0  0  0  0  0  0  0
   -3.8675   -1.2246    1.5659 H   0  0  0  0  0  0  0  0  0  0  0  0
   -3.5611    1.8303    1.7786 H   0  0  0  0  0  0  0  0  0  0  0  0
   -4.4511    0.8131    2.9180 H   0  0  0  0  0  0  0  0  0  0  0  0
   -2.6927    0.6428    2.7613 H   0  0  0  0  0  0  0  0  0  0  0  0
   -6.2202   -0.3601    0.9957 N   0  0  0  0  0  0  0  0  0  0  0  0
   -7.5479   -0.1990    0.4505 C   0  0  0  0  0  0  0  0  0  0  0  0
   -6.1301   -0.8253    1.8942 H   0  0  0  0  0  0  0  0  0  0  0  0
   -7.9724    0.7559    0.7938 H   0  0  0  0  0  0  0  0  0  0  0  0
   -7.4958   -0.2030   -0.6483 H   0  0  0  0  0  0  0  0  0  0  0  0
   -8.1867   -1.0275    0.7903 H   0  0  0  0  0  0  0  0  0  0  0  0
  1  3  1  0  0  0  0
  1  7  1  0  0  0  0
  1  2  2  0  0  0  0
 40 41  1  0  0  0  0
 41 49  1  0  0  0  0
 41 42  2  0  0  0  0
  8  9  1  0  0  0  0
  9 17  1  0  0  0  0
  9 10  2  0  0  0  0
 18 19  1  0  0  0  0
 19 39  1  0  0  0  0
 19 20  2  0  0  0  0
 40 43  1  0  0  0  0
  8 11  1  0  0  0  0
 49 50  1  0  0  0  0
 22 23  1  0  0  0  0
 21 22  1  0  0  0  0
 23 24  1  0  0  0  0
 18 21  1  0  0  0  0
 24 25  1  0  0  0  0
 39 40  1  0  0  0  0
  7  8  1  0  0  0  0
 17 18  1  0  0  0  0
  3  4  1  0  0  0  0
  3  5  1  0  0  0  0
  3  6  1  0  0  0  0
 43 46  1  0  0  0  0
 43 47  1  0  0  0  0
 43 48  1  0  0  0  0
 11 14  1  0  0  0  0
 11 15  1  0  0  0  0
 11 16  1  0  0  0  0
 50 52  1  0  0  0  0
 50 53  1  0  0  0  0
 50 54  1  0  0  0  0
 22 30  1  0  0  0  0
 22 31  1  0  0  0  0
 23 32  1  0  0  0  0
 23 33  1  0  0  0  0
 21 28  1  0  0  0  0
 21 29  1  0  0  0  0
 24 34  1  0  0  0  0
 24 35  1  0  0  0  0
 40 45  1  0  0  0  0
  8 13  1  0  0  0  0
 18 27  1  0  0  0  0
 49 51  1  0  0  0  0
  7 12  1  0  0  0  0
 39 44  1  0  0  0  0
 17 26  1  0  0  0  0
 25 36  1  0  0  0  0
 25 37  1  0  0  0  0
 25 38  1  0  0  0  0
M  CHG  1  25   1
M  END
$$$$

  -OEChem-05262214473D

 54 53  0     1  0  0  0  0  0999 V2000
    2.6714    2.8829   -3.0005 C   0  0  0  0  0  0  0  0  0  0  0  0
    3.1741    2.4398   -1.9745 O   0  0  0  0  0  0  0  0  0  0  0  0
    3.5527    3.3077   -4.1279 C   0  0  0  0  0  0  0  0  0  0  0  0
    3.8407    4.3691   -4.0597 H   0  0  0  0  0  0  0  0  0  0  0  0
    4.5024    2.7495   -4.1526 H   0  0  0  0  0  0  0  0  0  0  0  0
    3.1208    3.1887   -5.1345 H   0  0  0  0  0  0  0  0  0  0  0  0
    1.3174    3.0407   -3.2467 N   0  0  0  0  0  0  0  0  0  0  0  0
    0.2944    2.6927   -2.2960 C   0  0  2  0  0  0  0  0  0  0  0  0
    0.2976    1.1783   -2.1349 C   0  0  0  0  0  0  0  0  0  0  0  0
    0.7500    0.4142   -2.9850 O   0  0  0  0  0  0  0  0  0  0  0  0
   -1.0710    3.1886   -2.7460 C   0  0  0  0  0  0  0  0  0  0  0  0
    1.0312    3.4224   -4.1464 H   0  0  0  0  0  0  0  0  0  0  0  0
    0.5725    3.1622   -1.3461 H   0  0  0  0  0  0  0  0  0  0  0  0
   -1.3666    2.7292   -3.6963 H   0  0  0  0  0  0  0  0  0  0  0  0
   -1.8434    2.9482   -2.0082 H   0  0  0  0  0  0  0  0  0  0  0  0
   -1.0632    4.2744   -2.8901 H   0  0  0  0  0  0  0  0  0  0  0  0
   -0.3037    0.7742   -0.9484 N   0  0  0  0  0  0  0  0  0  0  0  0
   -0.4352   -0.6095   -0.5718 C   0  0  2  0  0  0  0  0  0  0  0  0
   -1.4465   -0.7162    0.5649 C   0  0  0  0  0  0  0  0  0  0  0  0
   -1.1208   -0.8903    1.7376 O   0  0  0  0  0  0  0  0  0  0  0  0
    0.9186   -1.2408   -0.2262 C   0  0  0  0  0  0  0  0  0  0  0  0
    1.8624   -1.3942   -1.4261 C   0  0  0  0  0  0  0  0  0  0  0  0
    3.1807   -2.0519   -1.0117 C   0  0  0  0  0  0  0  0  0  0  0  0
    4.1237   -2.1801   -2.1989 C   0  0  0  0  0  0  0  0  0  0  0  0
    5.3931   -2.7985   -1.7467 N   0  3  0  0  0  0  0  0  0  0  0  0
   -0.6336    1.4811   -0.2948 H   0  0  0  0  0  0  0  0  0  0  0  0
   -0.8548   -1.1199   -1.4472 H   0  0  0  0  0  0  0  0  0  0  0  0
    1.4124   -0.6236    0.5355 H   0  0  0  0  0  0  0  0  0  0  0  0
    0.7564   -2.2274    0.2251 H   0  0  0  0  0  0  0  0  0  0  0  0
    1.3851   -2.0034   -2.2025 H   0  0  0  0  0  0  0  0  0  0  0  0
    2.0719   -0.4123   -1.8663 H   0  0  0  0  0  0  0  0  0  0  0  0
    2.9792   -3.0438   -0.5884 H   0  0  0  0  0  0  0  0  0  0  0  0
    3.6560   -1.4564   -0.2223 H   0  0  0  0  0  0  0  0  0  0  0  0
    3.7147   -2.8290   -2.9791 H   0  0  0  0  0  0  0  0  0  0  0  0
    4.3796   -1.2061   -2.6264 H   0  0  0  0  0  0  0  0  0  0  0  0
    6.1525   -2.6059   -2.4089 H   0  0  0  0  0  0  0  0  0  0  0  0
    5.2967   -3.8168   -1.6648 H   0  0  0  0  0  0  0  0  0  0  0  0
    5.6738   -2.4334   -0.8299 H   0  0  0  0  0  0  0  0  0  0  0  0
   -2.7526   -0.5615    0.1233 N   0  0  0  0  0  0  0  0  0  0  0  0
   -3.8797   -0.6076    1.0240 C   0  0  2  0  0  0  0  0  0  0  0  0
   -5.1462   -0.7275    0.1867 C   0  0  0  0  0  0  0  0  0  0  0  0
   -5.2071   -0.3806   -0.9910 O   0  0  0  0  0  0  0  0  0  0  0  0
   -3.9297    0.6264    1.9114 C   0  0  0  0  0  0  0  0  0  0  0  0
   -2.9214   -0.4107   -0.8668 H   0  0  0  0  0  0  0  0  0  0  0  0
   -3.7590   -1.5082    1.6358 H   0  0  0  0  0  0  0  0  0  0  0  0
   -4.0503    1.5388    1.3161 H   0  0  0  0  0  0  0  0  0  0  0  0
   -4.7686    0.5765    2.6134 H   0  0  0  0  0  0  0  0  0  0  0  0
   -3.0056    0.7274    2.4909 H   0  0  0  0  0  0  0  0  0  0  0  0
   -6.2122   -1.2274    0.9214 N   0  0  0  0  0  0  0  0  0  0  0  0
   -7.5263   -1.4226    0.3548 C   0  0  0  0  0  0  0  0  0  0  0  0
   -6.0662   -1.5068    1.8871 H   0  0  0  0  0  0  0  0  0  0  0  0
   -8.1375   -0.5243    0.5269 H   0  0  0  0  0  0  0  0  0  0  0  0
   -7.4361   -1.6029   -0.7265 H   0  0  0  0  0  0  0  0  0  0  0  0
   -8.0063   -2.2895    0.8323 H   0  0  0  0  0  0  0  0  0  0  0  0
  1  3  1  0  0  0  0
  1  7  1  0  0  0  0
  1  2  2  0  0  0  0
 40 41  1  0  0  0  0
 41 49  1  0  0  0  0
 41 42  2  0  0  0  0
  8  9  1  0  0  0  0
  9 17  1  0  0  0  0
  9 10  2  0  0  0  0
 18 19  1  0  0  0  0
 19 39  1  0  0  0  0
 19 20  2  0  0  0  0
 40 43  1  0  0  0  0
  8 11  1  0  0  0  0
 49 50  1  0  0  0  0
 22 23  1  0  0  0  0
 21 22  1  0  0  0  0
 23 24  1  0  0  0  0
 18 21  1  0  0  0  0
 24 25  1  0  0  0  0
 39 40  1  0  0  0  0
  7  8  1  0  0  0  0
 17 18  1  0  0  0  0
  3  4  1  0  0  0  0
  3  5  1  0  0  0  0
  3  6  1  0  0  0  0
 43 46  1  0  0  0  0
 43 47  1  0  0  0  0
 43 48  1  0  0  0  0
 11 14  1  0  0  0  0
 11 15  1  0  0  0  0
 11 16  1  0  0  0  0
 50 52  1  0  0  0  0
 50 53  1  0  0  0  0
 50 54  1  0  0  0  0
 22 30  1  0  0  0  0
 22 31  1  0  0  0  0
 23 32  1  0  0  0  0
 23 33  1  0  0  0  0
 21 28  1  0  0  0  0
 21 29  1  0  0  0  0
 24 34  1  0  0  0  0
 24 35  1  0  0  0  0
 40 45  1  0  0  0  0
  8 13  1  0  0  0  0
 18 27  1  0  0  0  0
 49 51  1  0  0  0  0
  7 12  1  0  0  0  0
 39 44  1  0  0  0  0
 17 26  1  0  0  0  0
 25 36  1  0  0  0  0
 25 37  1  0  0  0  0
 25 38  1  0  0  0  0
M  CHG  1  25   1
M  END
$$$$

  -OEChem-05262214473D

 54 53  0     1  0  0  0  0  0999 V2000
    2.6714    2.8829   -3.0005 C   0  0  0  0  0  0  0  0  0  0  0  0
    3.1741    2.4398   -1.9745 O   0  0  0  0  0  0  0  0  0  0  0  0
    3.5527    3.3077   -4.1279 C   0  0  0  0  0  0  0  0  0  0  0  0
    3.8407    4.3691   -4.0597 H   0  0  0  0  0  0  0  0  0  0  0  0
    4.5024    2.7495   -4.1526 H   0  0  0  0  0  0  0  0  0  0  0  0
    3.1208    3.1887   -5.1345 H   0  0  0  0  0  0  0  0  0  0  0  0
    1.3174    3.0407   -3.2467 N   0  0  0  0  0  0  0  0  0  0  0  0
    0.2944    2.6927   -2.2960 C   0  0  2  0  0  0  0  0  0  0  0  0
    0.2976    1.1783   -2.1349 C   0  0  0  0  0  0  0  0  0  0  0  0
    0.7500    0.4142   -2.9850 O   0  0  0  0  0  0  0  0  0  0  0  0
   -1.0710    3.1886   -2.7460 C   0  0  0  0  0  0  0  0  0  0  0  0
    1.0312    3.4224   -4.1464 H   0  0  0  0  0  0  0  0  0  0  0  0
    0.5725    3.1622   -1.3461 H   0  0  0  0  0  0  0  0  0  0  0  0
   -1.3666    2.7292   -3.6963 H   0  0  0  0  0  0  0  0  0  0  0  0
   -1.8434    2.9482   -2.0082 H   0  0  0  0  0  0  0  0  0  0  0  0
   -1.0632    4.2744   -2.8901 H   0  0  0  0  0  0  0  0  0  0  0  0
   -0.3037    0.7742   -0.9484 N   0  0  0  0  0  0  0  0  0  0  0  0
   -0.4352   -0.6095   -0.5718 C   0  0  2  0  0  0  0  0  0  0  0  0
   -1.4465   -0.7162    0.5649 C   0  0  0  0  0  0  0  0  0  0  0  0
   -1.1347   -0.6219    1.7504 O   0  0  0  0  0  0  0  0  0  0  0  0
    0.9186   -1.2408   -0.2262 C   0  0  0  0  0  0  0  0  0  0  0  0
    1.8624   -1.3942   -1.4261 C   0  0  0  0  0  0  0  0  0  0  0  0
    3.1807   -2.0519   -1.0117 C   0  0  0  0  0  0  0  0  0  0  0  0
    4.1237   -2.1801   -2.1989 C   0  0  0  0  0  0  0  0  0  0  0  0
    5.3931   -2.7985   -1.7467 N   0  3  0  0  0  0  0  0  0  0  0  0
   -0.6336    1.4811   -0.2948 H   0  0  0  0  0  0  0  0  0  0  0  0
   -0.8548   -1.1199   -1.4472 H   0  0  0  0  0  0  0  0  0  0  0  0
    1.4124   -0.6236    0.5355 H   0  0  0  0  0  0  0  0  0  0  0  0
    0.7564   -2.2274    0.2251 H   0  0  0  0  0  0  0  0  0  0  0  0
    1.3851   -2.0034   -2.2025 H   0  0  0  0  0  0  0  0  0  0  0  0
    2.0719   -0.4123   -1.8663 H   0  0  0  0  0  0  0  0  0  0  0  0
    2.9792   -3.0438   -0.5884 H   0  0  0  0  0  0  0  0  0  0  0  0
    3.6560   -1.4564   -0.2223 H   0  0  0  0  0  0  0  0  0  0  0  0
    3.7147   -2.8290   -2.9791 H   0  0  0  0  0  0  0  0  0  0  0  0
    4.3796   -1.2061   -2.6264 H   0  0  0  0  0  0  0  0  0  0  0  0
    6.1525   -2.6059   -2.4089 H   0  0  0  0  0  0  0  0  0  0  0  0
    5.2967   -3.8168   -1.6648 H   0  0  0  0  0  0  0  0  0  0  0  0
    5.6738   -2.4334   -0.8299 H   0  0  0  0  0  0  0  0  0  0  0  0
   -2.7418   -0.8957    0.1015 N   0  0  0  0  0  0  0  0  0  0  0  0
   -3.8701   -1.0065    0.9951 C   0  0  2  0  0  0  0  0  0  0  0  0
   -5.0602   -1.5109    0.1897 C   0  0  0  0  0  0  0  0  0  0  0  0
   -5.1451   -1.3876   -1.0304 O   0  0  0  0  0  0  0  0  0  0  0  0
   -4.1862    0.3266    1.6551 C   0  0  0  0  0  0  0  0  0  0  0  0
   -2.9016   -0.9511   -0.9000 H   0  0  0  0  0  0  0  0  0  0  0  0
   -3.6007   -1.7492    1.7540 H   0  0  0  0  0  0  0  0  0  0  0  0
   -4.4583    1.0835    0.9104 H   0  0  0  0  0  0  0  0  0  0  0  0
   -5.0240    0.2345    2.3541 H   0  0  0  0  0  0  0  0  0  0  0  0
   -3.3193    0.7023    2.2094 H   0  0  0  0  0  0  0  0  0  0  0  0
   -6.0358   -2.0764    0.9987 N   0  0  0  0  0  0  0  0  0  0  0  0
   -7.2677   -2.6167    0.4728 C   0  0  0  0  0  0  0  0  0  0  0  0
   -5.8729   -2.1539    1.9983 H   0  0  0  0  0  0  0  0  0  0  0  0
   -8.0451   -1.8386    0.4857 H   0  0  0  0  0  0  0  0  0  0  0  0
   -7.1069   -2.9571   -0.5608 H   0  0  0  0  0  0  0  0  0  0  0  0
   -7.5894   -3.4665    1.0928 H   0  0  0  0  0  0  0  0  0  0  0  0
  1  3  1  0  0  0  0
  1  7  1  0  0  0  0
  1  2  2  0  0  0  0
 40 41  1  0  0  0  0
 41 49  1  0  0  0  0
 41 42  2  0  0  0  0
  8  9  1  0  0  0  0
  9 17  1  0  0  0  0
  9 10  2  0  0  0  0
 18 19  1  0  0  0  0
 19 39  1  0  0  0  0
 19 20  2  0  0  0  0
 40 43  1  0  0  0  0
  8 11  1  0  0  0  0
 49 50  1  0  0  0  0
 22 23  1  0  0  0  0
 21 22  1  0  0  0  0
 23 24  1  0  0  0  0
 18 21  1  0  0  0  0
 24 25  1  0  0  0  0
 39 40  1  0  0  0  0
  7  8  1  0  0  0  0
 17 18  1  0  0  0  0
  3  4  1  0  0  0  0
  3  5  1  0  0  0  0
  3  6  1  0  0  0  0
 43 46  1  0  0  0  0
 43 47  1  0  0  0  0
 43 48  1  0  0  0  0
 11 14  1  0  0  0  0
 11 15  1  0  0  0  0
 11 16  1  0  0  0  0
 50 52  1  0  0  0  0
 50 53  1  0  0  0  0
 50 54  1  0  0  0  0
 22 30  1  0  0  0  0
 22 31  1  0  0  0  0
 23 32  1  0  0  0  0
 23 33  1  0  0  0  0
 21 28  1  0  0  0  0
 21 29  1  0  0  0  0
 24 34  1  0  0  0  0
 24 35  1  0  0  0  0
 40 45  1  0  0  0  0
  8 13  1  0  0  0  0
 18 27  1  0  0  0  0
 49 51  1  0  0  0  0
  7 12  1  0  0  0  0
 39 44  1  0  0  0  0
 17 26  1  0  0  0  0
 25 36  1  0  0  0  0
 25 37  1  0  0  0  0
 25 38  1  0  0  0  0
M  CHG  1  25   1
M  END
$$$$

  -OEChem-05262214473D

 54 53  0     1  0  0  0  0  0999 V2000
    2.6714    2.8829   -3.0005 C   0  0  0  0  0  0  0  0  0  0  0  0
    3.1741    2.4398   -1.9745 O   0  0  0  0  0  0  0  0  0  0  0  0
    3.5527    3.3077   -4.1279 C   0  0  0  0  0  0  0  0  0  0  0  0
    3.8407    4.3691   -4.0597 H   0  0  0  0  0  0  0  0  0  0  0  0
    4.5024    2.7495   -4.1526 H   0  0  0  0  0  0  0  0  0  0  0  0
    3.1208    3.1887   -5.1345 H   0  0  0  0  0  0  0  0  0  0  0  0
    1.3174    3.0407   -3.2467 N   0  0  0  0  0  0  0  0  0  0  0  0
    0.2944    2.6927   -2.2960 C   0  0  2  0  0  0  0  0  0  0  0  0
    0.2976    1.1783   -2.1349 C   0  0  0  0  0  0  0  0  0  0  0  0
    0.7500    0.4142   -2.9850 O   0  0  0  0  0  0  0  0  0  0  0  0
   -1.0710    3.1886   -2.7460 C   0  0  0  0  0  0  0  0  0  0  0  0
    1.0312    3.4224   -4.1464 H   0  0  0  0  0  0  0  0  0  0  0  0
    0.5725    3.1622   -1.3461 H   0  0  0  0  0  0  0  0  0  0  0  0
   -1.3666    2.7292   -3.6963 H   0  0  0  0  0  0  0  0  0  0  0  0
   -1.8434    2.9482   -2.0082 H   0  0  0  0  0  0  0  0  0  0  0  0
   -1.0632    4.2744   -2.8901 H   0  0  0  0  0  0  0  0  0  0  0  0
   -0.3037    0.7742   -0.9484 N   0  0  0  0  0  0  0  0  0  0  0  0
   -0.4352   -0.6095   -0.5718 C   0  0  2  0  0  0  0  0  0  0  0  0
   -1.4465   -0.7162    0.5649 C   0  0  0  0  0  0  0  0  0  0  0  0
   -1.2001   -0.3631    1.7165 O   0  0  0  0  0  0  0  0  0  0  0  0
    0.9186   -1.2408   -0.2262 C   0  0  0  0  0  0  0  0  0  0  0  0
    1.8624   -1.3942   -1.4261 C   0  0  0  0  0  0  0  0  0  0  0  0
    3.1807   -2.0519   -1.0117 C   0  0  0  0  0  0  0  0  0  0  0  0
    4.1237   -2.1801   -2.1989 C   0  0  0  0  0  0  0  0  0  0  0  0
    5.3931   -2.7985   -1.7467 N   0  3  0  0  0  0  0  0  0  0  0  0
   -0.6336    1.4811   -0.2948 H   0  0  0  0  0  0  0  0  0  0  0  0
   -0.8548   -1.1199   -1.4472 H   0  0  0  0  0  0  0  0  0  0  0  0
    1.4124   -0.6236    0.5355 H   0  0  0  0  0  0  0  0  0  0  0  0
    0.7564   -2.2274    0.2251 H   0  0  0  0  0  0  0  0  0  0  0  0
    1.3851   -2.0034   -2.2025 H   0  0  0  0  0  0  0  0  0  0  0  0
    2.0719   -0.4123   -1.8663 H   0  0  0  0  0  0  0  0  0  0  0  0
    2.9792   -3.0438   -0.5884 H   0  0  0  0  0  0  0  0  0  0  0  0
    3.6560   -1.4564   -0.2223 H   0  0  0  0  0  0  0  0  0  0  0  0
    3.7147   -2.8290   -2.9791 H   0  0  0  0  0  0  0  0  0  0  0  0
    4.3796   -1.2061   -2.6264 H   0  0  0  0  0  0  0  0  0  0  0  0
    6.1525   -2.6059   -2.4089 H   0  0  0  0  0  0  0  0  0  0  0  0
    5.2967   -3.8168   -1.6648 H   0  0  0  0  0  0  0  0  0  0  0  0
    5.6738   -2.4334   -0.8299 H   0  0  0  0  0  0  0  0  0  0  0  0
   -2.6665   -1.2203    0.1380 N   0  0  0  0  0  0  0  0  0  0  0  0
   -3.7833   -1.3950    1.0359 C   0  0  2  0  0  0  0  0  0  0  0  0
   -4.8260   -2.2505    0.3286 C   0  0  0  0  0  0  0  0  0  0  0  0
   -4.8903   -2.3551   -0.8945 O   0  0  0  0  0  0  0  0  0  0  0  0
   -4.3714   -0.0565    1.4544 C   0  0  0  0  0  0  0  0  0  0  0  0
   -2.7777   -1.4749   -0.8389 H   0  0  0  0  0  0  0  0  0  0  0  0
   -3.4035   -1.9313    1.9124 H   0  0  0  0  0  0  0  0  0  0  0  0
   -4.7571    0.4954    0.5894 H   0  0  0  0  0  0  0  0  0  0  0  0
   -5.2001   -0.1897    2.1577 H   0  0  0  0  0  0  0  0  0  0  0  0
   -3.6124    0.5692    1.9362 H   0  0  0  0  0  0  0  0  0  0  0  0
   -5.7031   -2.8492    1.2221 N   0  0  0  0  0  0  0  0  0  0  0  0
   -6.7897   -3.7001    0.7964 C   0  0  0  0  0  0  0  0  0  0  0  0
   -5.5634   -2.7226    2.2202 H   0  0  0  0  0  0  0  0  0  0  0  0
   -7.7016   -3.0973    0.6732 H   0  0  0  0  0  0  0  0  0  0  0  0
   -6.5308   -4.1731   -0.1624 H   0  0  0  0  0  0  0  0  0  0  0  0
   -6.9643   -4.4783    1.5539 H   0  0  0  0  0  0  0  0  0  0  0  0
  1  3  1  0  0  0  0
  1  7  1  0  0  0  0
  1  2  2  0  0  0  0
 40 41  1  0  0  0  0
 41 49  1  0  0  0  0
 41 42  2  0  0  0  0
  8  9  1  0  0  0  0
  9 17  1  0  0  0  0
  9 10  2  0  0  0  0
 18 19  1  0  0  0  0
 19 39  1  0  0  0  0
 19 20  2  0  0  0  0
 40 43  1  0  0  0  0
  8 11  1  0  0  0  0
 49 50  1  0  0  0  0
 22 23  1  0  0  0  0
 21 22  1  0  0  0  0
 23 24  1  0  0  0  0
 18 21  1  0  0  0  0
 24 25  1  0  0  0  0
 39 40  1  0  0  0  0
  7  8  1  0  0  0  0
 17 18  1  0  0  0  0
  3  4  1  0  0  0  0
  3  5  1  0  0  0  0
  3  6  1  0  0  0  0
 43 46  1  0  0  0  0
 43 47  1  0  0  0  0
 43 48  1  0  0  0  0
 11 14  1  0  0  0  0
 11 15  1  0  0  0  0
 11 16  1  0  0  0  0
 50 52  1  0  0  0  0
 50 53  1  0  0  0  0
 50 54  1  0  0  0  0
 22 30  1  0  0  0  0
 22 31  1  0  0  0  0
 23 32  1  0  0  0  0
 23 33  1  0  0  0  0
 21 28  1  0  0  0  0
 21 29  1  0  0  0  0
 24 34  1  0  0  0  0
 24 35  1  0  0  0  0
 40 45  1  0  0  0  0
  8 13  1  0  0  0  0
 18 27  1  0  0  0  0
 49 51  1  0  0  0  0
  7 12  1  0  0  0  0
 39 44  1  0  0  0  0
 17 26  1  0  0  0  0
 25 36  1  0  0  0  0
 25 37  1  0  0  0  0
 25 38  1  0  0  0  0
M  CHG  1  25   1
M  END
$$$$

  -OEChem-05262214473D

 54 53  0     1  0  0  0  0  0999 V2000
    2.6714    2.8829   -3.0005 C   0  0  0  0  0  0  0  0  0  0  0  0
    3.1741    2.4398   -1.9745 O   0  0  0  0  0  0  0  0  0  0  0  0
    3.5527    3.3077   -4.1279 C   0  0  0  0  0  0  0  0  0  0  0  0
    3.8407    4.3691   -4.0597 H   0  0  0  0  0  0  0  0  0  0  0  0
    4.5024    2.7495   -4.1526 H   0  0  0  0  0  0  0  0  0  0  0  0
    3.1208    3.1887   -5.1345 H   0  0  0  0  0  0  0  0  0  0  0  0
    1.3174    3.0407   -3.2467 N   0  0  0  0  0  0  0  0  0  0  0  0
    0.2944    2.6927   -2.2960 C   0  0  2  0  0  0  0  0  0  0  0  0
    0.2976    1.1783   -2.1349 C   0  0  0  0  0  0  0  0  0  0  0  0
    0.7500    0.4142   -2.9850 O   0  0  0  0  0  0  0  0  0  0  0  0
   -1.0710    3.1886   -2.7460 C   0  0  0  0  0  0  0  0  0  0  0  0
    1.0312    3.4224   -4.1464 H   0  0  0  0  0  0  0  0  0  0  0  0
    0.5725    3.1622   -1.3461 H   0  0  0  0  0  0  0  0  0  0  0  0
   -1.3666    2.7292   -3.6963 H   0  0  0  0  0  0  0  0  0  0  0  0
   -1.8434    2.9482   -2.0082 H   0  0  0  0  0  0  0  0  0  0  0  0
   -1.0632    4.2744   -2.8901 H   0  0  0  0  0  0  0  0  0  0  0  0
   -0.3037    0.7742   -0.9484 N   0  0  0  0  0  0  0  0  0  0  0  0
   -0.4352   -0.6095   -0.5718 C   0  0  2  0  0  0  0  0  0  0  0  0
   -1.4465   -0.7162    0.5649 C   0  0  0  0  0  0  0  0  0  0  0  0
   -1.3126   -0.1316    1.6382 O   0  0  0  0  0  0  0  0  0  0  0  0
    0.9186   -1.2408   -0.2262 C   0  0  0  0  0  0  0  0  0  0  0  0
    1.8624   -1.3942   -1.4261 C   0  0  0  0  0  0  0  0  0  0  0  0
    3.1807   -2.0519   -1.0117 C   0  0  0  0  0  0  0  0  0  0  0  0
    4.1237   -2.1801   -2.1989 C   0  0  0  0  0  0  0  0  0  0  0  0
    5.3931   -2.7985   -1.7467 N   0  3  0  0  0  0  0  0  0  0  0  0
   -0.6336    1.4811   -0.2948 H   0  0  0  0  0  0  0  0  0  0  0  0
   -0.8548   -1.1199   -1.4472 H   0  0  0  0  0  0  0  0  0  0  0  0
    1.4124   -0.6236    0.5355 H   0  0  0  0  0  0  0  0  0  0  0  0
    0.7564   -2.2274    0.2251 H   0  0  0  0  0  0  0  0  0  0  0  0
    1.3851   -2.0034   -2.2025 H   0  0  0  0  0  0  0  0  0  0  0  0
    2.0719   -0.4123   -1.8663 H   0  0  0  0  0  0  0  0  0  0  0  0
    2.9792   -3.0438   -0.5884 H   0  0  0  0  0  0  0  0  0  0  0  0
    3.6560   -1.4564   -0.2223 H   0  0  0  0  0  0  0  0  0  0  0  0
    3.7147   -2.8290   -2.9791 H   0  0  0  0  0  0  0  0  0  0  0  0
    4.3796   -1.2061   -2.6264 H   0  0  0  0  0  0  0  0  0  0  0  0
    6.1525   -2.6059   -2.4089 H   0  0  0  0  0  0  0  0  0  0  0  0
    5.2967   -3.8168   -1.6648 H   0  0  0  0  0  0  0  0  0  0  0  0
    5.6738   -2.4334   -0.8299 H   0  0  0  0  0  0  0  0  0  0  0  0
   -2.5319   -1.5130    0.2304 N   0  0  0  0  0  0  0  0  0  0  0  0
   -3.6252   -1.7464    1.1435 C   0  0  2  0  0  0  0  0  0  0  0  0
   -4.4596   -2.8959    0.5939 C   0  0  0  0  0  0  0  0  0  0  0  0
   -4.4600   -3.2171   -0.5926 O   0  0  0  0  0  0  0  0  0  0  0  0
   -4.4729   -0.4966    1.3228 C   0  0  0  0  0  0  0  0  0  0  0  0
   -2.5581   -1.9465   -0.6878 H   0  0  0  0  0  0  0  0  0  0  0  0
   -3.1807   -2.0418    2.1001 H   0  0  0  0  0  0  0  0  0  0  0  0
   -4.9266   -0.1854    0.3748 H   0  0  0  0  0  0  0  0  0  0  0  0
   -5.2848   -0.6671    2.0375 H   0  0  0  0  0  0  0  0  0  0  0  0
   -3.8649    0.3373    1.6899 H   0  0  0  0  0  0  0  0  0  0  0  0
   -5.2367   -3.4931    1.5766 N   0  0  0  0  0  0  0  0  0  0  0  0
   -6.1249   -4.5988    1.3035 C   0  0  0  0  0  0  0  0  0  0  0  0
   -5.1587   -3.1741    2.5378 H   0  0  0  0  0  0  0  0  0  0  0  0
   -7.1303   -4.2147    1.0765 H   0  0  0  0  0  0  0  0  0  0  0  0
   -5.7469   -5.1682    0.4416 H   0  0  0  0  0  0  0  0  0  0  0  0
   -6.1737   -5.2559    2.1842 H   0  0  0  0  0  0  0  0  0  0  0  0
  1  3  1  0  0  0  0
  1  7  1  0  0  0  0
  1  2  2  0  0  0  0
 40 41  1  0  0  0  0
 41 49  1  0  0  0  0
 41 42  2  0  0  0  0
  8  9  1  0  0  0  0
  9 17  1  0  0  0  0
  9 10  2  0  0  0  0
 18 19  1  0  0  0  0
 19 39  1  0  0  0  0
 19 20  2  0  0  0  0
 40 43  1  0  0  0  0
  8 11  1  0  0  0  0
 49 50  1  0  0  0  0
 22 23  1  0  0  0  0
 21 22  1  0  0  0  0
 23 24  1  0  0  0  0
 18 21  1  0  0  0  0
 24 25  1  0  0  0  0
 39 40  1  0  0  0  0
  7  8  1  0  0  0  0
 17 18  1  0  0  0  0
  3  4  1  0  0  0  0
  3  5  1  0  0  0  0
  3  6  1  0  0  0  0
 43 46  1  0  0  0  0
 43 47  1  0  0  0  0
 43 48  1  0  0  0  0
 11 14  1  0  0  0  0
 11 15  1  0  0  0  0
 11 16  1  0  0  0  0
 50 52  1  0  0  0  0
 50 53  1  0  0  0  0
 50 54  1  0  0  0  0
 22 30  1  0  0  0  0
 22 31  1  0  0  0  0
 23 32  1  0  0  0  0
 23 33  1  0  0  0  0
 21 28  1  0  0  0  0
 21 29  1  0  0  0  0
 24 34  1  0  0  0  0
 24 35  1  0  0  0  0
 40 45  1  0  0  0  0
  8 13  1  0  0  0  0
 18 27  1  0  0  0  0
 49 51  1  0  0  0  0
  7 12  1  0  0  0  0
 39 44  1  0  0  0  0
 17 26  1  0  0  0  0
 25 36  1  0  0  0  0
 25 37  1  0  0  0  0
 25 38  1  0  0  0  0
M  CHG  1  25   1
M  END
$$$$

  -OEChem-05262214473D

 54 53  0     1  0  0  0  0  0999 V2000
    2.6714    2.8829   -3.0005 C   0  0  0  0  0  0  0  0  0  0  0  0
    3.1741    2.4398   -1.9745 O   0  0  0  0  0  0  0  0  0  0  0  0
    3.5527    3.3077   -4.1279 C   0  0  0  0  0  0  0  0  0  0  0  0
    3.8407    4.3691   -4.0597 H   0  0  0  0  0  0  0  0  0  0  0  0
    4.5024    2.7495   -4.1526 H   0  0  0  0  0  0  0  0  0  0  0  0
    3.1208    3.1887   -5.1345 H   0  0  0  0  0  0  0  0  0  0  0  0
    1.3174    3.0407   -3.2467 N   0  0  0  0  0  0  0  0  0  0  0  0
    0.2944    2.6927   -2.2960 C   0  0  2  0  0  0  0  0  0  0  0  0
    0.2976    1.1783   -2.1349 C   0  0  0  0  0  0  0  0  0  0  0  0
    0.7500    0.4142   -2.9850 O   0  0  0  0  0  0  0  0  0  0  0  0
   -1.0710    3.1886   -2.7460 C   0  0  0  0  0  0  0  0  0  0  0  0
    1.0312    3.4224   -4.1464 H   0  0  0  0  0  0  0  0  0  0  0  0
    0.5725    3.1622   -1.3461 H   0  0  0  0  0  0  0  0  0  0  0  0
   -1.3666    2.7292   -3.6963 H   0  0  0  0  0  0  0  0  0  0  0  0
   -1.8434    2.9482   -2.0082 H   0  0  0  0  0  0  0  0  0  0  0  0
   -1.0632    4.2744   -2.8901 H   0  0  0  0  0  0  0  0  0  0  0  0
   -0.3037    0.7742   -0.9484 N   0  0  0  0  0  0  0  0  0  0  0  0
   -0.4352   -0.6095   -0.5718 C   0  0  2  0  0  0  0  0  0  0  0  0
   -1.4465   -0.7162    0.5649 C   0  0  0  0  0  0  0  0  0  0  0  0
   -1.4645    0.0569    1.5207 O   0  0  0  0  0  0  0  0  0  0  0  0
    0.9186   -1.2408   -0.2262 C   0  0  0  0  0  0  0  0  0  0  0  0
    1.8624   -1.3942   -1.4261 C   0  0  0  0  0  0  0  0  0  0  0  0
    3.1807   -2.0519   -1.0117 C   0  0  0  0  0  0  0  0  0  0  0  0
    4.1237   -2.1801   -2.1989 C   0  0  0  0  0  0  0  0  0  0  0  0
    5.3931   -2.7985   -1.7467 N   0  3  0  0  0  0  0  0  0  0  0  0
   -0.6336    1.4811   -0.2948 H   0  0  0  0  0  0  0  0  0  0  0  0
   -0.8548   -1.1199   -1.4472 H   0  0  0  0  0  0  0  0  0  0  0  0
    1.4124   -0.6236    0.5355 H   0  0  0  0  0  0  0  0  0  0  0  0
    0.7564   -2.2274    0.2251 H   0  0  0  0  0  0  0  0  0  0  0  0
    1.3851   -2.0034   -2.2025 H   0  0  0  0  0  0  0  0  0  0  0  0
    2.0719   -0.4123   -1.8663 H   0  0  0  0  0  0  0  0  0  0  0  0
    2.9792   -3.0438   -0.5884 H   0  0  0  0  0  0  0  0  0  0  0  0
    3.6560   -1.4564   -0.2223 H   0  0  0  0  0  0  0  0  0  0  0  0
    3.7147   -2.8290   -2.9791 H   0  0  0  0  0  0  0  0  0  0  0  0
    4.3796   -1.2061   -2.6264 H   0  0  0  0  0  0  0  0  0  0  0  0
    6.1525   -2.6059   -2.4089 H   0  0  0  0  0  0  0  0  0  0  0  0
    5.2967   -3.8168   -1.6648 H   0  0  0  0  0  0  0  0  0  0  0  0
    5.6738   -2.4334   -0.8299 H   0  0  0  0  0  0  0  0  0  0  0  0
   -2.3470   -1.7539    0.3722 N   0  0  0  0  0  0  0  0  0  0  0  0
   -3.4067   -2.0370    1.3106 C   0  0  2  0  0  0  0  0  0  0  0  0
   -3.9861   -3.4031    0.9676 C   0  0  0  0  0  0  0  0  0  0  0  0
   -3.8835   -3.9150   -0.1452 O   0  0  0  0  0  0  0  0  0  0  0  0
   -4.4836   -0.9640    1.2695 C   0  0  0  0  0  0  0  0  0  0  0  0
   -2.2577   -2.3337   -0.4569 H   0  0  0  0  0  0  0  0  0  0  0  0
   -2.9476   -2.0734    2.3046 H   0  0  0  0  0  0  0  0  0  0  0  0
   -4.9550   -0.9125    0.2812 H   0  0  0  0  0  0  0  0  0  0  0  0
   -5.2723   -1.1651    2.0019 H   0  0  0  0  0  0  0  0  0  0  0  0
   -4.0596    0.0223    1.4871 H   0  0  0  0  0  0  0  0  0  0  0  0
   -4.6684   -3.9643    2.0380 N   0  0  0  0  0  0  0  0  0  0  0  0
   -5.3185   -5.2516    1.9595 C   0  0  0  0  0  0  0  0  0  0  0  0
   -4.6865   -3.4777    2.9294 H   0  0  0  0  0  0  0  0  0  0  0  0
   -6.3703   -5.1146    1.6682 H   0  0  0  0  0  0  0  0  0  0  0  0
   -4.8087   -5.8746    1.2099 H   0  0  0  0  0  0  0  0  0  0  0  0
   -5.2714   -5.7464    2.9408 H   0  0  0  0  0  0  0  0  0  0  0  0
  1  3  1  0  0  0  0
  1  7  1  0  0  0  0
  1  2  2  0  0  0  0
 40 41  1  0  0  0  0
 41 49  1  0  0  0  0
 41 42  2  0  0  0  0
  8  9  1  0  0  0  0
  9 17  1  0  0  0  0
  9 10  2  0  0  0  0
 18 19  1  0  0  0  0
 19 39  1  0  0  0  0
 19 20  2  0  0  0  0
 40 43  1  0  0  0  0
  8 11  1  0  0  0  0
 49 50  1  0  0  0  0
 22 23  1  0  0  0  0
 21 22  1  0  0  0  0
 23 24  1  0  0  0  0
 18 21  1  0  0  0  0
 24 25  1  0  0  0  0
 39 40  1  0  0  0  0
  7  8  1  0  0  0  0
 17 18  1  0  0  0  0
  3  4  1  0  0  0  0
  3  5  1  0  0  0  0
  3  6  1  0  0  0  0
 43 46  1  0  0  0  0
 43 47  1  0  0  0  0
 43 48  1  0  0  0  0
 11 14  1  0  0  0  0
 11 15  1  0  0  0  0
 11 16  1  0  0  0  0
 50 52  1  0  0  0  0
 50 53  1  0  0  0  0
 50 54  1  0  0  0  0
 22 30  1  0  0  0  0
 22 31  1  0  0  0  0
 23 32  1  0  0  0  0
 23 33  1  0  0  0  0
 21 28  1  0  0  0  0
 21 29  1  0  0  0  0
 24 34  1  0  0  0  0
 24 35  1  0  0  0  0
 40 45  1  0  0  0  0
  8 13  1  0  0  0  0
 18 27  1  0  0  0  0
 49 51  1  0  0  0  0
  7 12  1  0  0  0  0
 39 44  1  0  0  0  0
 17 26  1  0  0  0  0
 25 36  1  0  0  0  0
 25 37  1  0  0  0  0
 25 38  1  0  0  0  0
M  CHG  1  25   1
M  END
$$$$

  -OEChem-05262214473D

 54 53  0     1  0  0  0  0  0999 V2000
    2.6714    2.8829   -3.0005 C   0  0  0  0  0  0  0  0  0  0  0  0
    3.1741    2.4398   -1.9745 O   0  0  0  0  0  0  0  0  0  0  0  0
    3.5527    3.3077   -4.1279 C   0  0  0  0  0  0  0  0  0  0  0  0
    3.8407    4.3691   -4.0597 H   0  0  0  0  0  0  0  0  0  0  0  0
    4.5024    2.7495   -4.1526 H   0  0  0  0  0  0  0  0  0  0  0  0
    3.1208    3.1887   -5.1345 H   0  0  0  0  0  0  0  0  0  0  0  0
    1.3174    3.0407   -3.2467 N   0  0  0  0  0  0  0  0  0  0  0  0
    0.2944    2.6927   -2.2960 C   0  0  2  0  0  0  0  0  0  0  0  0
    0.2976    1.1783   -2.1349 C   0  0  0  0  0  0  0  0  0  0  0  0
    0.7500    0.4142   -2.9850 O   0  0  0  0  0  0  0  0  0  0  0  0
   -1.0710    3.1886   -2.7460 C   0  0  0  0  0  0  0  0  0  0  0  0
    1.0312    3.4224   -4.1464 H   0  0  0  0  0  0  0  0  0  0  0  0
    0.5725    3.1622   -1.3461 H   0  0  0  0  0  0  0  0  0  0  0  0
   -1.3666    2.7292   -3.6963 H   0  0  0  0  0  0  0  0  0  0  0  0
   -1.8434    2.9482   -2.0082 H   0  0  0  0  0  0  0  0  0  0  0  0
   -1.0632    4.2744   -2.8901 H   0  0  0  0  0  0  0  0  0  0  0  0
   -0.3037    0.7742   -0.9484 N   0  0  0  0  0  0  0  0  0  0  0  0
   -0.4352   -0.6095   -0.5718 C   0  0  2  0  0  0  0  0  0  0  0  0
   -1.4465   -0.7162    0.5649 C   0  0  0  0  0  0  0  0  0  0  0  0
   -1.6454    0.1895    1.3722 O   0  0  0  0  0  0  0  0  0  0  0  0
    0.9186   -1.2408   -0.2262 C   0  0  0  0  0  0  0  0  0  0  0  0
    1.8624   -1.3942   -1.4261 C   0  0  0  0  0  0  0  0  0  0  0  0
    3.1807   -2.0519   -1.0117 C   0  0  0  0  0  0  0  0  0  0  0  0
    4.1237   -2.1801   -2.1989 C   0  0  0  0  0  0  0  0  0  0  0  0
    5.3931   -2.7985   -1.7467 N   0  3  0  0  0  0  0  0  0  0  0  0
   -0.6336    1.4811   -0.2948 H   0  0  0  0  0  0  0  0  0  0  0  0
   -0.8548   -1.1199   -1.4472 H   0  0  0  0  0  0  0  0  0  0  0  0
    1.4124   -0.6236    0.5355 H   0  0  0  0  0  0  0  0  0  0  0  0
    0.7564   -2.2274    0.2251 H   0  0  0  0  0  0  0  0  0  0  0  0
    1.3851   -2.0034   -2.2025 H   0  0  0  0  0  0  0  0  0  0  0  0
    2.0719   -0.4123   -1.8663 H   0  0  0  0  0  0  0  0  0  0  0  0
    2.9792   -3.0438   -0.5884 H   0  0  0  0  0  0  0  0  0  0  0  0
    3.6560   -1.4564   -0.2223 H   0  0  0  0  0  0  0  0  0  0  0  0
    3.7147   -2.8290   -2.9791 H   0  0  0  0  0  0  0  0  0  0  0  0
    4.3796   -1.2061   -2.6264 H   0  0  0  0  0  0  0  0  0  0  0  0
    6.1525   -2.6059   -2.4089 H   0  0  0  0  0  0  0  0  0  0  0  0
    5.2967   -3.8168   -1.6648 H   0  0  0  0  0  0  0  0  0  0  0  0
    5.6738   -2.4334   -0.8299 H   0  0  0  0  0  0  0  0  0  0  0  0
   -2.1246   -1.9265    0.5539 N   0  0  0  0  0  0  0  0  0  0  0  0
   -3.1426   -2.2468    1.5258 C   0  0  2  0  0  0  0  0  0  0  0  0
   -3.4376   -3.7375    1.4242 C   0  0  0  0  0  0  0  0  0  0  0  0
   -3.2001   -4.4011    0.4170 O   0  0  0  0  0  0  0  0  0  0  0  0
   -4.4028   -1.4266    1.2979 C   0  0  0  0  0  0  0  0  0  0  0  0
   -1.8970   -2.6101   -0.1620 H   0  0  0  0  0  0  0  0  0  0  0  0
   -2.7200   -2.0239    2.5116 H   0  0  0  0  0  0  0  0  0  0  0  0
   -4.8405   -1.6364    0.3152 H   0  0  0  0  0  0  0  0  0  0  0  0
   -5.1636   -1.6499    2.0531 H   0  0  0  0  0  0  0  0  0  0  0  0
   -4.1832   -0.3544    1.3418 H   0  0  0  0  0  0  0  0  0  0  0  0
   -4.0369   -4.2306    2.5748 N   0  0  0  0  0  0  0  0  0  0  0  0
   -4.4256   -5.6140    2.7199 C   0  0  0  0  0  0  0  0  0  0  0  0
   -4.1789   -3.6126    3.3683 H   0  0  0  0  0  0  0  0  0  0  0  0
   -5.4733   -5.7357    2.4078 H   0  0  0  0  0  0  0  0  0  0  0  0
   -3.7801   -6.2440    2.0903 H   0  0  0  0  0  0  0  0  0  0  0  0
   -4.3190   -5.9162    3.7721 H   0  0  0  0  0  0  0  0  0  0  0  0
  1  3  1  0  0  0  0
  1  7  1  0  0  0  0
  1  2  2  0  0  0  0
 40 41  1  0  0  0  0
 41 49  1  0  0  0  0
 41 42  2  0  0  0  0
  8  9  1  0  0  0  0
  9 17  1  0  0  0  0
  9 10  2  0  0  0  0
 18 19  1  0  0  0  0
 19 39  1  0  0  0  0
 19 20  2  0  0  0  0
 40 43  1  0  0  0  0
  8 11  1  0  0  0  0
 49 50  1  0  0  0  0
 22 23  1  0  0  0  0
 21 22  1  0  0  0  0
 23 24  1  0  0  0  0
 18 21  1  0  0  0  0
 24 25  1  0  0  0  0
 39 40  1  0  0  0  0
  7  8  1  0  0  0  0
 17 18  1  0  0  0  0
  3  4  1  0  0  0  0
  3  5  1  0  0  0  0
  3  6  1  0  0  0  0
 43 46  1  0  0  0  0
 43 47  1  0  0  0  0
 43 48  1  0  0  0  0
 11 14  1  0  0  0  0
 11 15  1  0  0  0  0
 11 16  1  0  0  0  0
 50 52  1  0  0  0  0
 50 53  1  0  0  0  0
 50 54  1  0  0  0  0
 22 30  1  0  0  0  0
 22 31  1  0  0  0  0
 23 32  1  0  0  0  0
 23 33  1  0  0  0  0
 21 28  1  0  0  0  0
 21 29  1  0  0  0  0
 24 34  1  0  0  0  0
 24 35  1  0  0  0  0
 40 45  1  0  0  0  0
  8 13  1  0  0  0  0
 18 27  1  0  0  0  0
 49 51  1  0  0  0  0
  7 12  1  0  0  0  0
 39 44  1  0  0  0  0
 17 26  1  0  0  0  0
 25 36  1  0  0  0  0
 25 37  1  0  0  0  0
 25 38  1  0  0  0  0
M  CHG  1  25   1
M  END
$$$$

  -OEChem-05262214473D

 54 53  0     1  0  0  0  0  0999 V2000
    2.6714    2.8829   -3.0005 C   0  0  0  0  0  0  0  0  0  0  0  0
    3.1741    2.4398   -1.9745 O   0  0  0  0  0  0  0  0  0  0  0  0
    3.5527    3.3077   -4.1279 C   0  0  0  0  0  0  0  0  0  0  0  0
    3.8407    4.3691   -4.0597 H   0  0  0  0  0  0  0  0  0  0  0  0
    4.5024    2.7495   -4.1526 H   0  0  0  0  0  0  0  0  0  0  0  0
    3.1208    3.1887   -5.1345 H   0  0  0  0  0  0  0  0  0  0  0  0
    1.3174    3.0407   -3.2467 N   0  0  0  0  0  0  0  0  0  0  0  0
    0.2944    2.6927   -2.2960 C   0  0  2  0  0  0  0  0  0  0  0  0
    0.2976    1.1783   -2.1349 C   0  0  0  0  0  0  0  0  0  0  0  0
    0.7500    0.4142   -2.9850 O   0  0  0  0  0  0  0  0  0  0  0  0
   -1.0710    3.1886   -2.7460 C   0  0  0  0  0  0  0  0  0  0  0  0
    1.0312    3.4224   -4.1464 H   0  0  0  0  0  0  0  0  0  0  0  0
    0.5725    3.1622   -1.3461 H   0  0  0  0  0  0  0  0  0  0  0  0
   -1.3666    2.7292   -3.6963 H   0  0  0  0  0  0  0  0  0  0  0  0
   -1.8434    2.9482   -2.0082 H   0  0  0  0  0  0  0  0  0  0  0  0
   -1.0632    4.2744   -2.8901 H   0  0  0  0  0  0  0  0  0  0  0  0
   -0.3037    0.7742   -0.9484 N   0  0  0  0  0  0  0  0  0  0  0  0
   -0.4352   -0.6095   -0.5718 C   0  0  2  0  0  0  0  0  0  0  0  0
   -1.4465   -0.7162    0.5649 C   0  0  0  0  0  0  0  0  0  0  0  0
   -1.8431    0.2572    1.2027 O   0  0  0  0  0  0  0  0  0  0  0  0
    0.9186   -1.2408   -0.2262 C   0  0  0  0  0  0  0  0  0  0  0  0
    1.8624   -1.3942   -1.4261 C   0  0  0  0  0  0  0  0  0  0  0  0
    3.1807   -2.0519   -1.0117 C   0  0  0  0  0  0  0  0  0  0  0  0
    4.1237   -2.1801   -2.1989 C   0  0  0  0  0  0  0  0  0  0  0  0
    5.3931   -2.7985   -1.7467 N   0  3  0  0  0  0  0  0  0  0  0  0
   -0.6336    1.4811   -0.2948 H   0  0  0  0  0  0  0  0  0  0  0  0
   -0.8548   -1.1199   -1.4472 H   0  0  0  0  0  0  0  0  0  0  0  0
    1.4124   -0.6236    0.5355 H   0  0  0  0  0  0  0  0  0  0  0  0
    0.7564   -2.2274    0.2251 H   0  0  0  0  0  0  0  0  0  0  0  0
    1.3851   -2.0034   -2.2025 H   0  0  0  0  0  0  0  0  0  0  0  0
    2.0719   -0.4123   -1.8663 H   0  0  0  0  0  0  0  0  0  0  0  0
    2.9792   -3.0438   -0.5884 H   0  0  0  0  0  0  0  0  0  0  0  0
    3.6560   -1.4564   -0.2223 H   0  0  0  0  0  0  0  0  0  0  0  0
    3.7147   -2.8290   -2.9791 H   0  0  0  0  0  0  0  0  0  0  0  0
    4.3796   -1.2061   -2.6264 H   0  0  0  0  0  0  0  0  0  0  0  0
    6.1525   -2.6059   -2.4089 H   0  0  0  0  0  0  0  0  0  0  0  0
    5.2967   -3.8168   -1.6648 H   0  0  0  0  0  0  0  0  0  0  0  0
    5.6738   -2.4334   -0.8299 H   0  0  0  0  0  0  0  0  0  0  0  0
   -1.8796   -2.0192    0.7631 N   0  0  0  0  0  0  0  0  0  0  0  0
   -2.8510   -2.3616    1.7745 C   0  0  2  0  0  0  0  0  0  0  0  0
   -2.8515   -3.8763    1.9325 C   0  0  0  0  0  0  0  0  0  0  0  0
   -2.4565   -4.6423    1.0560 O   0  0  0  0  0  0  0  0  0  0  0  0
   -4.2360   -1.8530    1.4063 C   0  0  0  0  0  0  0  0  0  0  0  0
   -1.5006   -2.7570    0.1768 H   0  0  0  0  0  0  0  0  0  0  0  0
   -2.5135   -1.8967    2.7073 H   0  0  0  0  0  0  0  0  0  0  0  0
   -4.5909   -2.3077    0.4742 H   0  0  0  0  0  0  0  0  0  0  0  0
   -4.9660   -2.0885    2.1878 H   0  0  0  0  0  0  0  0  0  0  0  0
   -4.2273   -0.7669    1.2639 H   0  0  0  0  0  0  0  0  0  0  0  0
   -3.3853   -4.2739    3.1504 N   0  0  0  0  0  0  0  0  0  0  0  0
   -3.5069   -5.6613    3.5326 C   0  0  0  0  0  0  0  0  0  0  0  0
   -3.6705   -3.5697    3.8246 H   0  0  0  0  0  0  0  0  0  0  0  0
   -4.5005   -6.0357    3.2451 H   0  0  0  0  0  0  0  0  0  0  0  0
   -2.7312   -6.2514    3.0226 H   0  0  0  0  0  0  0  0  0  0  0  0
   -3.3813   -5.7539    4.6215 H   0  0  0  0  0  0  0  0  0  0  0  0
  1  3  1  0  0  0  0
  1  7  1  0  0  0  0
  1  2  2  0  0  0  0
 40 41  1  0  0  0  0
 41 49  1  0  0  0  0
 41 42  2  0  0  0  0
  8  9  1  0  0  0  0
  9 17  1  0  0  0  0
  9 10  2  0  0  0  0
 18 19  1  0  0  0  0
 19 39  1  0  0  0  0
 19 20  2  0  0  0  0
 40 43  1  0  0  0  0
  8 11  1  0  0  0  0
 49 50  1  0  0  0  0
 22 23  1  0  0  0  0
 21 22  1  0  0  0  0
 23 24  1  0  0  0  0
 18 21  1  0  0  0  0
 24 25  1  0  0  0  0
 39 40  1  0  0  0  0
  7  8  1  0  0  0  0
 17 18  1  0  0  0  0
  3  4  1  0  0  0  0
  3  5  1  0  0  0  0
  3  6  1  0  0  0  0
 43 46  1  0  0  0  0
 43 47  1  0  0  0  0
 43 48  1  0  0  0  0
 11 14  1  0  0  0  0
 11 15  1  0  0  0  0
 11 16  1  0  0  0  0
 50 52  1  0  0  0  0
 50 53  1  0  0  0  0
 50 54  1  0  0  0  0
 22 30  1  0  0  0  0
 22 31  1  0  0  0  0
 23 32  1  0  0  0  0
 23 33  1  0  0  0  0
 21 28  1  0  0  0  0
 21 29  1  0  0  0  0
 24 34  1  0  0  0  0
 24 35  1  0  0  0  0
 40 45  1  0  0  0  0
  8 13  1  0  0  0  0
 18 27  1  0  0  0  0
 49 51  1  0  0  0  0
  7 12  1  0  0  0  0
 39 44  1  0  0  0  0
 17 26  1  0  0  0  0
 25 36  1  0  0  0  0
 25 37  1  0  0  0  0
 25 38  1  0  0  0  0
M  CHG  1  25   1
M  END
$$$$

  -OEChem-05262214473D

 54 53  0     1  0  0  0  0  0999 V2000
    2.6714    2.8829   -3.0005 C   0  0  0  0  0  0  0  0  0  0  0  0
    3.1741    2.4398   -1.9745 O   0  0  0  0  0  0  0  0  0  0  0  0
    3.5527    3.3077   -4.1279 C   0  0  0  0  0  0  0  0  0  0  0  0
    3.8407    4.3691   -4.0597 H   0  0  0  0  0  0  0  0  0  0  0  0
    4.5024    2.7495   -4.1526 H   0  0  0  0  0  0  0  0  0  0  0  0
    3.1208    3.1887   -5.1345 H   0  0  0  0  0  0  0  0  0  0  0  0
    1.3174    3.0407   -3.2467 N   0  0  0  0  0  0  0  0  0  0  0  0
    0.2944    2.6927   -2.2960 C   0  0  2  0  0  0  0  0  0  0  0  0
    0.2976    1.1783   -2.1349 C   0  0  0  0  0  0  0  0  0  0  0  0
    0.7500    0.4142   -2.9850 O   0  0  0  0  0  0  0  0  0  0  0  0
   -1.0710    3.1886   -2.7460 C   0  0  0  0  0  0  0  0  0  0  0  0
    1.0312    3.4224   -4.1464 H   0  0  0  0  0  0  0  0  0  0  0  0
    0.5725    3.1622   -1.3461 H   0  0  0  0  0  0  0  0  0  0  0  0
   -1.3666    2.7292   -3.6963 H   0  0  0  0  0  0  0  0  0  0  0  0
   -1.8434    2.9482   -2.0082 H   0  0  0  0  0  0  0  0  0  0  0  0
   -1.0632    4.2744   -2.8901 H   0  0  0  0  0  0  0  0  0  0  0  0
   -0.3037    0.7742   -0.9484 N   0  0  0  0  0  0  0  0  0  0  0  0
   -0.4352   -0.6095   -0.5718 C   0  0  2  0  0  0  0  0  0  0  0  0
   -1.6890   -0.7702    0.2816 C   0  0  0  0  0  0  0  0  0  0  0  0
   -2.4437    0.1635    0.5465 O   0  0  0  0  0  0  0  0  0  0  0  0
    0.8275   -1.1383    0.1187 C   0  0  0  0  0  0  0  0  0  0  0  0
    2.0487   -1.2427   -0.8042 C   0  0  0  0  0  0  0  0  0  0  0  0
    3.2616   -1.7993   -0.0549 C   0  0  0  0  0  0  0  0  0  0  0  0
    4.4772   -1.8784   -0.9666 C   0  0  0  0  0  0  0  0  0  0  0  0
    5.6308   -2.3986   -0.1942 N   0  3  0  0  0  0  0  0  0  0  0  0
   -0.6336    1.4811   -0.2948 H   0  0  0  0  0  0  0  0  0  0  0  0
   -0.5892   -1.1614   -1.5070 H   0  0  0  0  0  0  0  0  0  0  0  0
    1.0746   -0.4763    0.9588 H   0  0  0  0  0  0  0  0  0  0  0  0
    0.6219   -2.1270    0.5473 H   0  0  0  0  0  0  0  0  0  0  0  0
    1.8206   -1.8957   -1.6546 H   0  0  0  0  0  0  0  0  0  0  0  0
    2.2974   -0.2552   -1.2101 H   0  0  0  0  0  0  0  0  0  0  0  0
    3.0254   -2.7965    0.3369 H   0  0  0  0  0  0  0  0  0  0  0  0
    3.4853   -1.1598    0.8080 H   0  0  0  0  0  0  0  0  0  0  0  0
    4.3187   -2.5663   -1.8025 H   0  0  0  0  0  0  0  0  0  0  0  0
    4.7681   -0.8953   -1.3484 H   0  0  0  0  0  0  0  0  0  0  0  0
    6.5174   -2.1629   -0.6534 H   0  0  0  0  0  0  0  0  0  0  0  0
    5.5832   -3.4198   -0.1060 H   0  0  0  0  0  0  0  0  0  0  0  0
    5.6497   -2.0009    0.7514 H   0  0  0  0  0  0  0  0  0  0  0  0
   -1.8856   -2.0828    0.6857 N   0  0  0  0  0  0  0  0  0  0  0  0
   -3.0176   -2.4791    1.4890 C   0  0  2  0  0  0  0  0  0  0  0  0
   -2.7549   -3.8856    2.0105 C   0  0  0  0  0  0  0  0  0  0  0  0
   -1.9746   -4.6666    1.4699 O   0  0  0  0  0  0  0  0  0  0  0  0
   -4.3093   -2.4288    0.6879 C   0  0  0  0  0  0  0  0  0  0  0  0
   -1.2104   -2.7885    0.4070 H   0  0  0  0  0  0  0  0  0  0  0  0
   -3.0680   -1.7802    2.3311 H   0  0  0  0  0  0  0  0  0  0  0  0
   -4.2775   -3.1225   -0.1602 H   0  0  0  0  0  0  0  0  0  0  0  0
   -5.1706   -2.7021    1.3063 H   0  0  0  0  0  0  0  0  0  0  0  0
   -4.4814   -1.4235    0.2886 H   0  0  0  0  0  0  0  0  0  0  0  0
   -3.5265   -4.1814    3.1256 N   0  0  0  0  0  0  0  0  0  0  0  0
   -3.4680   -5.4585    3.7976 C   0  0  0  0  0  0  0  0  0  0  0  0
   -4.1327   -3.4669    3.5176 H   0  0  0  0  0  0  0  0  0  0  0  0
   -4.2370   -6.1271    3.3832 H   0  0  0  0  0  0  0  0  0  0  0  0
   -2.4743   -5.9060    3.6486 H   0  0  0  0  0  0  0  0  0  0  0  0
   -3.6481   -5.3152    4.8733 H   0  0  0  0  0  0  0  0  0  0  0  0
  1  3  1  0  0  0  0
  1  7  1  0  0  0  0
  1  2  2  0  0  0  0
 40 41  1  0  0  0  0
 41 49  1  0  0  0  0
 41 42  2  0  0  0  0
  8  9  1  0  0  0  0
  9 17  1  0  0  0  0
  9 10  2  0  0  0  0
 18 19  1  0  0  0  0
 19 39  1  0  0  0  0
 19 20  2  0  0  0  0
 40 43  1  0  0  0  0
  8 11  1  0  0  0  0
 49 50  1  0  0  0  0
 22 23  1  0  0  0  0
 21 22  1  0  0  0  0
 23 24  1  0  0  0  0
 18 21  1  0  0  0  0
 24 25  1  0  0  0  0
 39 40  1  0  0  0  0
  7  8  1  0  0  0  0
 17 18  1  0  0  0  0
  3  4  1  0  0  0  0
  3  5  1  0  0  0  0
  3  6  1  0  0  0  0
 43 46  1  0  0  0  0
 43 47  1  0  0  0  0
 43 48  1  0  0  0  0
 11 14  1  0  0  0  0
 11 15  1  0  0  0  0
 11 16  1  0  0  0  0
 50 52  1  0  0  0  0
 50 53  1  0  0  0  0
 50 54  1  0  0  0  0
 22 30  1  0  0  0  0
 22 31  1  0  0  0  0
 23 32  1  0  0  0  0
 23 33  1  0  0  0  0
 21 28  1  0  0  0  0
 21 29  1  0  0  0  0
 24 34  1  0  0  0  0
 24 35  1  0  0  0  0
 40 45  1  0  0  0  0
  8 13  1  0  0  0  0
 18 27  1  0  0  0  0
 49 51  1  0  0  0  0
  7 12  1  0  0  0  0
 39 44  1  0  0  0  0
 17 26  1  0  0  0  0
 25 36  1  0  0  0  0
 25 37  1  0  0  0  0
 25 38  1  0  0  0  0
M  CHG  1  25   1
M  END
$$$$

  -OEChem-05262214473D

 54 53  0     1  0  0  0  0  0999 V2000
    2.6714    2.8829   -3.0005 C   0  0  0  0  0  0  0  0  0  0  0  0
    3.1741    2.4398   -1.9745 O   0  0  0  0  0  0  0  0  0  0  0  0
    3.5527    3.3077   -4.1279 C   0  0  0  0  0  0  0  0  0  0  0  0
    3.8407    4.3691   -4.0597 H   0  0  0  0  0  0  0  0  0  0  0  0
    4.5024    2.7495   -4.1526 H   0  0  0  0  0  0  0  0  0  0  0  0
    3.1208    3.1887   -5.1345 H   0  0  0  0  0  0  0  0  0  0  0  0
    1.3174    3.0407   -3.2467 N   0  0  0  0  0  0  0  0  0  0  0  0
    0.2944    2.6927   -2.2960 C   0  0  2  0  0  0  0  0  0  0  0  0
    0.2976    1.1783   -2.1349 C   0  0  0  0  0  0  0  0  0  0  0  0
    0.7500    0.4142   -2.9850 O   0  0  0  0  0  0  0  0  0  0  0  0
   -1.0710    3.1886   -2.7460 C   0  0  0  0  0  0  0  0  0  0  0  0
    1.0312    3.4224   -4.1464 H   0  0  0  0  0  0  0  0  0  0  0  0
    0.5725    3.1622   -1.3461 H   0  0  0  0  0  0  0  0  0  0  0  0
   -1.3666    2.7292   -3.6963 H   0  0  0  0  0  0  0  0  0  0  0  0
   -1.8434    2.9482   -2.0082 H   0  0  0  0  0  0  0  0  0  0  0  0
   -1.0632    4.2744   -2.8901 H   0  0  0  0  0  0  0  0  0  0  0  0
   -0.3037    0.7742   -0.9484 N   0  0  0  0  0  0  0  0  0  0  0  0
   -0.4352   -0.6095   -0.5718 C   0  0  2  0  0  0  0  0  0  0  0  0
   -1.6890   -0.7702    0.2816 C   0  0  0  0  0  0  0  0  0  0  0  0
   -2.5792    0.0763    0.3310 O   0  0  0  0  0  0  0  0  0  0  0  0
    0.8275   -1.1383    0.1187 C   0  0  0  0  0  0  0  0  0  0  0  0
    2.0487   -1.2427   -0.8042 C   0  0  0  0  0  0  0  0  0  0  0  0
    3.2616   -1.7993   -0.0549 C   0  0  0  0  0  0  0  0  0  0  0  0
    4.4772   -1.8784   -0.9666 C   0  0  0  0  0  0  0  0  0  0  0  0
    5.6308   -2.3986   -0.1942 N   0  3  0  0  0  0  0  0  0  0  0  0
   -0.6336    1.4811   -0.2948 H   0  0  0  0  0  0  0  0  0  0  0  0
   -0.5892   -1.1614   -1.5070 H   0  0  0  0  0  0  0  0  0  0  0  0
    1.0746   -0.4763    0.9588 H   0  0  0  0  0  0  0  0  0  0  0  0
    0.6219   -2.1270    0.5473 H   0  0  0  0  0  0  0  0  0  0  0  0
    1.8206   -1.8957   -1.6546 H   0  0  0  0  0  0  0  0  0  0  0  0
    2.2974   -0.2552   -1.2101 H   0  0  0  0  0  0  0  0  0  0  0  0
    3.0254   -2.7965    0.3369 H   0  0  0  0  0  0  0  0  0  0  0  0
    3.4853   -1.1598    0.8080 H   0  0  0  0  0  0  0  0  0  0  0  0
    4.3187   -2.5663   -1.8025 H   0  0  0  0  0  0  0  0  0  0  0  0
    4.7681   -0.8953   -1.3484 H   0  0  0  0  0  0  0  0  0  0  0  0
    6.5174   -2.1629   -0.6534 H   0  0  0  0  0  0  0  0  0  0  0  0
    5.5832   -3.4198   -0.1060 H   0  0  0  0  0  0  0  0  0  0  0  0
    5.6497   -2.0009    0.7514 H   0  0  0  0  0  0  0  0  0  0  0  0
   -1.7146   -1.9825    0.9559 N   0  0  0  0  0  0  0  0  0  0  0  0
   -2.8123   -2.3633    1.8124 C   0  0  2  0  0  0  0  0  0  0  0  0
   -2.3753   -3.5738    2.6268 C   0  0  0  0  0  0  0  0  0  0  0  0
   -1.4696   -4.3271    2.2756 O   0  0  0  0  0  0  0  0  0  0  0  0
   -4.0625   -2.6745    1.0042 C   0  0  0  0  0  0  0  0  0  0  0  0
   -0.9348   -2.6234    0.8431 H   0  0  0  0  0  0  0  0  0  0  0  0
   -2.9974   -1.5180    2.4841 H   0  0  0  0  0  0  0  0  0  0  0  0
   -3.8962   -3.5189    0.3254 H   0  0  0  0  0  0  0  0  0  0  0  0
   -4.9021   -2.9355    1.6569 H   0  0  0  0  0  0  0  0  0  0  0  0
   -4.3582   -1.8126    0.3964 H   0  0  0  0  0  0  0  0  0  0  0  0
   -3.1443   -3.7386    3.7703 N   0  0  0  0  0  0  0  0  0  0  0  0
   -2.9342   -4.8224    4.7016 C   0  0  0  0  0  0  0  0  0  0  0  0
   -3.8621   -3.0551    3.9927 H   0  0  0  0  0  0  0  0  0  0  0  0
   -3.5820   -5.6694    4.4316 H   0  0  0  0  0  0  0  0  0  0  0  0
   -1.8816   -5.1394    4.6637 H   0  0  0  0  0  0  0  0  0  0  0  0
   -3.1788   -4.4838    5.7193 H   0  0  0  0  0  0  0  0  0  0  0  0
  1  3  1  0  0  0  0
  1  7  1  0  0  0  0
  1  2  2  0  0  0  0
 40 41  1  0  0  0  0
 41 49  1  0  0  0  0
 41 42  2  0  0  0  0
  8  9  1  0  0  0  0
  9 17  1  0  0  0  0
  9 10  2  0  0  0  0
 18 19  1  0  0  0  0
 19 39  1  0  0  0  0
 19 20  2  0  0  0  0
 40 43  1  0  0  0  0
  8 11  1  0  0  0  0
 49 50  1  0  0  0  0
 22 23  1  0  0  0  0
 21 22  1  0  0  0  0
 23 24  1  0  0  0  0
 18 21  1  0  0  0  0
 24 25  1  0  0  0  0
 39 40  1  0  0  0  0
  7  8  1  0  0  0  0
 17 18  1  0  0  0  0
  3  4  1  0  0  0  0
  3  5  1  0  0  0  0
  3  6  1  0  0  0  0
 43 46  1  0  0  0  0
 43 47  1  0  0  0  0
 43 48  1  0  0  0  0
 11 14  1  0  0  0  0
 11 15  1  0  0  0  0
 11 16  1  0  0  0  0
 50 52  1  0  0  0  0
 50 53  1  0  0  0  0
 50 54  1  0  0  0  0
 22 30  1  0  0  0  0
 22 31  1  0  0  0  0
 23 32  1  0  0  0  0
 23 33  1  0  0  0  0
 21 28  1  0  0  0  0
 21 29  1  0  0  0  0
 24 34  1  0  0  0  0
 24 35  1  0  0  0  0
 40 45  1  0  0  0  0
  8 13  1  0  0  0  0
 18 27  1  0  0  0  0
 49 51  1  0  0  0  0
  7 12  1  0  0  0  0
 39 44  1  0  0  0  0
 17 26  1  0  0  0  0
 25 36  1  0  0  0  0
 25 37  1  0  0  0  0
 25 38  1  0  0  0  0
M  CHG  1  25   1
M  END
$$$$

  -OEChem-05262214473D

 54 53  0     1  0  0  0  0  0999 V2000
    2.6714    2.8829   -3.0005 C   0  0  0  0  0  0  0  0  0  0  0  0
    3.1741    2.4398   -1.9745 O   0  0  0  0  0  0  0  0  0  0  0  0
    3.5527    3.3077   -4.1279 C   0  0  0  0  0  0  0  0  0  0  0  0
    3.8407    4.3691   -4.0597 H   0  0  0  0  0  0  0  0  0  0  0  0
    4.5024    2.7495   -4.1526 H   0  0  0  0  0  0  0  0  0  0  0  0
    3.1208    3.1887   -5.1345 H   0  0  0  0  0  0  0  0  0  0  0  0
    1.3174    3.0407   -3.2467 N   0  0  0  0  0  0  0  0  0  0  0  0
    0.2944    2.6927   -2.2960 C   0  0  2  0  0  0  0  0  0  0  0  0
    0.2976    1.1783   -2.1349 C   0  0  0  0  0  0  0  0  0  0  0  0
    0.7500    0.4142   -2.9850 O   0  0  0  0  0  0  0  0  0  0  0  0
   -1.0710    3.1886   -2.7460 C   0  0  0  0  0  0  0  0  0  0  0  0
    1.0312    3.4224   -4.1464 H   0  0  0  0  0  0  0  0  0  0  0  0
    0.5725    3.1622   -1.3461 H   0  0  0  0  0  0  0  0  0  0  0  0
   -1.3666    2.7292   -3.6963 H   0  0  0  0  0  0  0  0  0  0  0  0
   -1.8434    2.9482   -2.0082 H   0  0  0  0  0  0  0  0  0  0  0  0
   -1.0632    4.2744   -2.8901 H   0  0  0  0  0  0  0  0  0  0  0  0
   -0.3037    0.7742   -0.9484 N   0  0  0  0  0  0  0  0  0  0  0  0
   -0.4352   -0.6095   -0.5718 C   0  0  2  0  0  0  0  0  0  0  0  0
   -1.6890   -0.7702    0.2816 C   0  0  0  0  0  0  0  0  0  0  0  0
   -2.6916   -0.0734    0.1377 O   0  0  0  0  0  0  0  0  0  0  0  0
    0.8275   -1.1383    0.1187 C   0  0  0  0  0  0  0  0  0  0  0  0
    2.0487   -1.2427   -0.8042 C   0  0  0  0  0  0  0  0  0  0  0  0
    3.2616   -1.7993   -0.0549 C   0  0  0  0  0  0  0  0  0  0  0  0
    4.4772   -1.8784   -0.9666 C   0  0  0  0  0  0  0  0  0  0  0  0
    5.6308   -2.3986   -0.1942 N   0  3  0  0  0  0  0  0  0  0  0  0
   -0.6336    1.4811   -0.2948 H   0  0  0  0  0  0  0  0  0  0  0  0
   -0.5892   -1.1614   -1.5070 H   0  0  0  0  0  0  0  0  0  0  0  0
    1.0746   -0.4763    0.9588 H   0  0  0  0  0  0  0  0  0  0  0  0
    0.6219   -2.1270    0.5473 H   0  0  0  0  0  0  0  0  0  0  0  0
    1.8206   -1.8957   -1.6546 H   0  0  0  0  0  0  0  0  0  0  0  0
    2.2974   -0.2552   -1.2101 H   0  0  0  0  0  0  0  0  0  0  0  0
    3.0254   -2.7965    0.3369 H   0  0  0  0  0  0  0  0  0  0  0  0
    3.4853   -1.1598    0.8080 H   0  0  0  0  0  0  0  0  0  0  0  0
    4.3187   -2.5663   -1.8025 H   0  0  0  0  0  0  0  0  0  0  0  0
    4.7681   -0.8953   -1.3484 H   0  0  0  0  0  0  0  0  0  0  0  0
    6.5174   -2.1629   -0.6534 H   0  0  0  0  0  0  0  0  0  0  0  0
    5.5832   -3.4198   -0.1060 H   0  0  0  0  0  0  0  0  0  0  0  0
    5.6497   -2.0009    0.7514 H   0  0  0  0  0  0  0  0  0  0  0  0
   -1.5712   -1.8033    1.2002 N   0  0  0  0  0  0  0  0  0  0  0  0
   -2.6396   -2.1530    2.1057 C   0  0  2  0  0  0  0  0  0  0  0  0
   -2.0707   -3.0865    3.1661 C   0  0  0  0  0  0  0  0  0  0  0  0
   -1.0531   -3.7546    2.9954 O   0  0  0  0  0  0  0  0  0  0  0  0
   -3.7971   -2.8088    1.3688 C   0  0  0  0  0  0  0  0  0  0  0  0
   -0.7043   -2.3311    1.2367 H   0  0  0  0  0  0  0  0  0  0  0  0
   -2.9715   -1.2220    2.5779 H   0  0  0  0  0  0  0  0  0  0  0  0
   -3.4837   -3.7432    0.8891 H   0  0  0  0  0  0  0  0  0  0  0  0
   -4.6184   -3.0475    2.0525 H   0  0  0  0  0  0  0  0  0  0  0  0
   -4.1857   -2.1477    0.5866 H   0  0  0  0  0  0  0  0  0  0  0  0
   -2.8569   -3.1184    4.3094 N   0  0  0  0  0  0  0  0  0  0  0  0
   -2.5354   -3.9383    5.4541 C   0  0  0  0  0  0  0  0  0  0  0  0
   -3.6733   -2.5171    4.3713 H   0  0  0  0  0  0  0  0  0  0  0  0
   -3.0442   -4.9094    5.3647 H   0  0  0  0  0  0  0  0  0  0  0  0
   -1.4477   -4.0970    5.4973 H   0  0  0  0  0  0  0  0  0  0  0  0
   -2.8690   -3.4328    6.3723 H   0  0  0  0  0  0  0  0  0  0  0  0
  1  3  1  0  0  0  0
  1  7  1  0  0  0  0
  1  2  2  0  0  0  0
 40 41  1  0  0  0  0
 41 49  1  0  0  0  0
 41 42  2  0  0  0  0
  8  9  1  0  0  0  0
  9 17  1  0  0  0  0
  9 10  2  0  0  0  0
 18 19  1  0  0  0  0
 19 39  1  0  0  0  0
 19 20  2  0  0  0  0
 40 43  1  0  0  0  0
  8 11  1  0  0  0  0
 49 50  1  0  0  0  0
 22 23  1  0  0  0  0
 21 22  1  0  0  0  0
 23 24  1  0  0  0  0
 18 21  1  0  0  0  0
 24 25  1  0  0  0  0
 39 40  1  0  0  0  0
  7  8  1  0  0  0  0
 17 18  1  0  0  0  0
  3  4  1  0  0  0  0
  3  5  1  0  0  0  0
  3  6  1  0  0  0  0
 43 46  1  0  0  0  0
 43 47  1  0  0  0  0
 43 48  1  0  0  0  0
 11 14  1  0  0  0  0
 11 15  1  0  0  0  0
 11 16  1  0  0  0  0
 50 52  1  0  0  0  0
 50 53  1  0  0  0  0
 50 54  1  0  0  0  0
 22 30  1  0  0  0  0
 22 31  1  0  0  0  0
 23 32  1  0  0  0  0
 23 33  1  0  0  0  0
 21 28  1  0  0  0  0
 21 29  1  0  0  0  0
 24 34  1  0  0  0  0
 24 35  1  0  0  0  0
 40 45  1  0  0  0  0
  8 13  1  0  0  0  0
 18 27  1  0  0  0  0
 49 51  1  0  0  0  0
  7 12  1  0  0  0  0
 39 44  1  0  0  0  0
 17 26  1  0  0  0  0
 25 36  1  0  0  0  0
 25 37  1  0  0  0  0
 25 38  1  0  0  0  0
M  CHG  1  25   1
M  END
$$$$

  -OEChem-05262214473D

 54 53  0     1  0  0  0  0  0999 V2000
    2.6714    2.8829   -3.0005 C   0  0  0  0  0  0  0  0  0  0  0  0
    3.1741    2.4398   -1.9745 O   0  0  0  0  0  0  0  0  0  0  0  0
    3.5527    3.3077   -4.1279 C   0  0  0  0  0  0  0  0  0  0  0  0
    3.8407    4.3691   -4.0597 H   0  0  0  0  0  0  0  0  0  0  0  0
    4.5024    2.7495   -4.1526 H   0  0  0  0  0  0  0  0  0  0  0  0
    3.1208    3.1887   -5.1345 H   0  0  0  0  0  0  0  0  0  0  0  0
    1.3174    3.0407   -3.2467 N   0  0  0  0  0  0  0  0  0  0  0  0
    0.2944    2.6927   -2.2960 C   0  0  2  0  0  0  0  0  0  0  0  0
    0.2976    1.1783   -2.1349 C   0  0  0  0  0  0  0  0  0  0  0  0
    0.7500    0.4142   -2.9850 O   0  0  0  0  0  0  0  0  0  0  0  0
   -1.0710    3.1886   -2.7460 C   0  0  0  0  0  0  0  0  0  0  0  0
    1.0312    3.4224   -4.1464 H   0  0  0  0  0  0  0  0  0  0  0  0
    0.5725    3.1622   -1.3461 H   0  0  0  0  0  0  0  0  0  0  0  0
   -1.3666    2.7292   -3.6963 H   0  0  0  0  0  0  0  0  0  0  0  0
   -1.8434    2.9482   -2.0082 H   0  0  0  0  0  0  0  0  0  0  0  0
   -1.0632    4.2744   -2.8901 H   0  0  0  0  0  0  0  0  0  0  0  0
   -0.3037    0.7742   -0.9484 N   0  0  0  0  0  0  0  0  0  0  0  0
   -0.4352   -0.6095   -0.5718 C   0  0  2  0  0  0  0  0  0  0  0  0
   -1.6890   -0.7702    0.2816 C   0  0  0  0  0  0  0  0  0  0  0  0
   -2.7732   -0.2753   -0.0202 O   0  0  0  0  0  0  0  0  0  0  0  0
    0.8275   -1.1383    0.1187 C   0  0  0  0  0  0  0  0  0  0  0  0
    2.0487   -1.2427   -0.8042 C   0  0  0  0  0  0  0  0  0  0  0  0
    3.2616   -1.7993   -0.0549 C   0  0  0  0  0  0  0  0  0  0  0  0
    4.4772   -1.8784   -0.9666 C   0  0  0  0  0  0  0  0  0  0  0  0
    5.6308   -2.3986   -0.1942 N   0  3  0  0  0  0  0  0  0  0  0  0
   -0.6336    1.4811   -0.2948 H   0  0  0  0  0  0  0  0  0  0  0  0
   -0.5892   -1.1614   -1.5070 H   0  0  0  0  0  0  0  0  0  0  0  0
    1.0746   -0.4763    0.9588 H   0  0  0  0  0  0  0  0  0  0  0  0
    0.6219   -2.1270    0.5473 H   0  0  0  0  0  0  0  0  0  0  0  0
    1.8206   -1.8957   -1.6546 H   0  0  0  0  0  0  0  0  0  0  0  0
    2.2974   -0.2552   -1.2101 H   0  0  0  0  0  0  0  0  0  0  0  0
    3.0254   -2.7965    0.3369 H   0  0  0  0  0  0  0  0  0  0  0  0
    3.4853   -1.1598    0.8080 H   0  0  0  0  0  0  0  0  0  0  0  0
    4.3187   -2.5663   -1.8025 H   0  0  0  0  0  0  0  0  0  0  0  0
    4.7681   -0.8953   -1.3484 H   0  0  0  0  0  0  0  0  0  0  0  0
    6.5174   -2.1629   -0.6534 H   0  0  0  0  0  0  0  0  0  0  0  0
    5.5832   -3.4198   -0.1060 H   0  0  0  0  0  0  0  0  0  0  0  0
    5.6497   -2.0009    0.7514 H   0  0  0  0  0  0  0  0  0  0  0  0
   -1.4654   -1.5575    1.4019 N   0  0  0  0  0  0  0  0  0  0  0  0
   -2.5113   -1.8625    2.3490 C   0  0  2  0  0  0  0  0  0  0  0  0
   -1.8617   -2.4569    3.5917 C   0  0  0  0  0  0  0  0  0  0  0  0
   -0.7532   -2.9881    3.5803 O   0  0  0  0  0  0  0  0  0  0  0  0
   -3.5313   -2.8225    1.7568 C   0  0  0  0  0  0  0  0  0  0  0  0
   -0.5347   -1.9317    1.5611 H   0  0  0  0  0  0  0  0  0  0  0  0
   -2.9918   -0.9123    2.6064 H   0  0  0  0  0  0  0  0  0  0  0  0
   -3.0682   -3.7802    1.4926 H   0  0  0  0  0  0  0  0  0  0  0  0
   -4.3390   -3.0304    2.4662 H   0  0  0  0  0  0  0  0  0  0  0  0
   -3.9758   -2.4060    0.8464 H   0  0  0  0  0  0  0  0  0  0  0  0
   -2.6838   -2.3630    4.7059 N   0  0  0  0  0  0  0  0  0  0  0  0
   -2.2987   -2.8665    6.0036 C   0  0  0  0  0  0  0  0  0  0  0  0
   -3.5791   -1.8896    4.6278 H   0  0  0  0  0  0  0  0  0  0  0  0
   -2.6603   -3.8989    6.1190 H   0  0  0  0  0  0  0  0  0  0  0  0
   -1.2024   -2.8500    6.0926 H   0  0  0  0  0  0  0  0  0  0  0  0
   -2.7397   -2.2338    6.7879 H   0  0  0  0  0  0  0  0  0  0  0  0
  1  3  1  0  0  0  0
  1  7  1  0  0  0  0
  1  2  2  0  0  0  0
 40 41  1  0  0  0  0
 41 49  1  0  0  0  0
 41 42  2  0  0  0  0
  8  9  1  0  0  0  0
  9 17  1  0  0  0  0
  9 10  2  0  0  0  0
 18 19  1  0  0  0  0
 19 39  1  0  0  0  0
 19 20  2  0  0  0  0
 40 43  1  0  0  0  0
  8 11  1  0  0  0  0
 49 50  1  0  0  0  0
 22 23  1  0  0  0  0
 21 22  1  0  0  0  0
 23 24  1  0  0  0  0
 18 21  1  0  0  0  0
 24 25  1  0  0  0  0
 39 40  1  0  0  0  0
  7  8  1  0  0  0  0
 17 18  1  0  0  0  0
  3  4  1  0  0  0  0
  3  5  1  0  0  0  0
  3  6  1  0  0  0  0
 43 46  1  0  0  0  0
 43 47  1  0  0  0  0
 43 48  1  0  0  0  0
 11 14  1  0  0  0  0
 11 15  1  0  0  0  0
 11 16  1  0  0  0  0
 50 52  1  0  0  0  0
 50 53  1  0  0  0  0
 50 54  1  0  0  0  0
 22 30  1  0  0  0  0
 22 31  1  0  0  0  0
 23 32  1  0  0  0  0
 23 33  1  0  0  0  0
 21 28  1  0  0  0  0
 21 29  1  0  0  0  0
 24 34  1  0  0  0  0
 24 35  1  0  0  0  0
 40 45  1  0  0  0  0
  8 13  1  0  0  0  0
 18 27  1  0  0  0  0
 49 51  1  0  0  0  0
  7 12  1  0  0  0  0
 39 44  1  0  0  0  0
 17 26  1  0  0  0  0
 25 36  1  0  0  0  0
 25 37  1  0  0  0  0
 25 38  1  0  0  0  0
M  CHG  1  25   1
M  END
$$$$

  -OEChem-05262214473D

 54 53  0     1  0  0  0  0  0999 V2000
    2.6714    2.8829   -3.0005 C   0  0  0  0  0  0  0  0  0  0  0  0
    3.1741    2.4398   -1.9745 O   0  0  0  0  0  0  0  0  0  0  0  0
    3.5527    3.3077   -4.1279 C   0  0  0  0  0  0  0  0  0  0  0  0
    3.8407    4.3691   -4.0597 H   0  0  0  0  0  0  0  0  0  0  0  0
    4.5024    2.7495   -4.1526 H   0  0  0  0  0  0  0  0  0  0  0  0
    3.1208    3.1887   -5.1345 H   0  0  0  0  0  0  0  0  0  0  0  0
    1.3174    3.0407   -3.2467 N   0  0  0  0  0  0  0  0  0  0  0  0
    0.2944    2.6927   -2.2960 C   0  0  2  0  0  0  0  0  0  0  0  0
    0.2976    1.1783   -2.1349 C   0  0  0  0  0  0  0  0  0  0  0  0
    0.7500    0.4142   -2.9850 O   0  0  0  0  0  0  0  0  0  0  0  0
   -1.0710    3.1886   -2.7460 C   0  0  0  0  0  0  0  0  0  0  0  0
    1.0312    3.4224   -4.1464 H   0  0  0  0  0  0  0  0  0  0  0  0
    0.5725    3.1622   -1.3461 H   0  0  0  0  0  0  0  0  0  0  0  0
   -1.3666    2.7292   -3.6963 H   0  0  0  0  0  0  0  0  0  0  0  0
   -1.8434    2.9482   -2.0082 H   0  0  0  0  0  0  0  0  0  0  0  0
   -1.0632    4.2744   -2.8901 H   0  0  0  0  0  0  0  0  0  0  0  0
   -0.3037    0.7742   -0.9484 N   0  0  0  0  0  0  0  0  0  0  0  0
   -0.4352   -0.6095   -0.5718 C   0  0  2  0  0  0  0  0  0  0  0  0
   -1.6890   -0.7702    0.2816 C   0  0  0  0  0  0  0  0  0  0  0  0
   -2.8185   -0.5158   -0.1320 O   0  0  0  0  0  0  0  0  0  0  0  0
    0.8275   -1.1383    0.1187 C   0  0  0  0  0  0  0  0  0  0  0  0
    2.0487   -1.2427   -0.8042 C   0  0  0  0  0  0  0  0  0  0  0  0
    3.2616   -1.7993   -0.0549 C   0  0  0  0  0  0  0  0  0  0  0  0
    4.4772   -1.8784   -0.9666 C   0  0  0  0  0  0  0  0  0  0  0  0
    5.6308   -2.3986   -0.1942 N   0  3  0  0  0  0  0  0  0  0  0  0
   -0.6336    1.4811   -0.2948 H   0  0  0  0  0  0  0  0  0  0  0  0
   -0.5892   -1.1614   -1.5070 H   0  0  0  0  0  0  0  0  0  0  0  0
    1.0746   -0.4763    0.9588 H   0  0  0  0  0  0  0  0  0  0  0  0
    0.6219   -2.1270    0.5473 H   0  0  0  0  0  0  0  0  0  0  0  0
    1.8206   -1.8957   -1.6546 H   0  0  0  0  0  0  0  0  0  0  0  0
    2.2974   -0.2552   -1.2101 H   0  0  0  0  0  0  0  0  0  0  0  0
    3.0254   -2.7965    0.3369 H   0  0  0  0  0  0  0  0  0  0  0  0
    3.4853   -1.1598    0.8080 H   0  0  0  0  0  0  0  0  0  0  0  0
    4.3187   -2.5663   -1.8025 H   0  0  0  0  0  0  0  0  0  0  0  0
    4.7681   -0.8953   -1.3484 H   0  0  0  0  0  0  0  0  0  0  0  0
    6.5174   -2.1629   -0.6534 H   0  0  0  0  0  0  0  0  0  0  0  0
    5.5832   -3.4198   -0.1060 H   0  0  0  0  0  0  0  0  0  0  0  0
    5.6497   -2.0009    0.7514 H   0  0  0  0  0  0  0  0  0  0  0  0
   -1.4043   -1.2618    1.5474 N   0  0  0  0  0  0  0  0  0  0  0  0
   -2.4360   -1.5115    2.5256 C   0  0  2  0  0  0  0  0  0  0  0  0
   -1.7627   -1.7280    3.8744 C   0  0  0  0  0  0  0  0  0  0  0  0
   -0.5906   -2.0798    3.9903 O   0  0  0  0  0  0  0  0  0  0  0  0
   -3.2831   -2.7147    2.1416 C   0  0  0  0  0  0  0  0  0  0  0  0
   -0.4376   -1.4523    1.7940 H   0  0  0  0  0  0  0  0  0  0  0  0
   -3.0571   -0.6101    2.5674 H   0  0  0  0  0  0  0  0  0  0  0  0
   -2.6779   -3.6274    2.0948 H   0  0  0  0  0  0  0  0  0  0  0  0
   -4.0829   -2.8855    2.8698 H   0  0  0  0  0  0  0  0  0  0  0  0
   -3.7427   -2.5697    1.1580 H   0  0  0  0  0  0  0  0  0  0  0  0
   -2.6369   -1.5239    4.9329 N   0  0  0  0  0  0  0  0  0  0  0  0
   -2.2403   -1.6800    6.3128 C   0  0  0  0  0  0  0  0  0  0  0  0
   -3.5861   -1.2152    4.7446 H   0  0  0  0  0  0  0  0  0  0  0  0
   -2.4564   -2.7068    6.6431 H   0  0  0  0  0  0  0  0  0  0  0  0
   -1.1623   -1.4833    6.4089 H   0  0  0  0  0  0  0  0  0  0  0  0
   -2.7999   -0.9685    6.9378 H   0  0  0  0  0  0  0  0  0  0  0  0
  1  3  1  0  0  0  0
  1  7  1  0  0  0  0
  1  2  2  0  0  0  0
 40 41  1  0  0  0  0
 41 49  1  0  0  0  0
 41 42  2  0  0  0  0
  8  9  1  0  0  0  0
  9 17  1  0  0  0  0
  9 10  2  0  0  0  0
 18 19  1  0  0  0  0
 19 39  1  0  0  0  0
 19 20  2  0  0  0  0
 40 43  1  0  0  0  0
  8 11  1  0  0  0  0
 49 50  1  0  0  0  0
 22 23  1  0  0  0  0
 21 22  1  0  0  0  0
 23 24  1  0  0  0  0
 18 21  1  0  0  0  0
 24 25  1  0  0  0  0
 39 40  1  0  0  0  0
  7  8  1  0  0  0  0
 17 18  1  0  0  0  0
  3  4  1  0  0  0  0
  3  5  1  0  0  0  0
  3  6  1  0  0  0  0
 43 46  1  0  0  0  0
 43 47  1  0  0  0  0
 43 48  1  0  0  0  0
 11 14  1  0  0  0  0
 11 15  1  0  0  0  0
 11 16  1  0  0  0  0
 50 52  1  0  0  0  0
 50 53  1  0  0  0  0
 50 54  1  0  0  0  0
 22 30  1  0  0  0  0
 22 31  1  0  0  0  0
 23 32  1  0  0  0  0
 23 33  1  0  0  0  0
 21 28  1  0  0  0  0
 21 29  1  0  0  0  0
 24 34  1  0  0  0  0
 24 35  1  0  0  0  0
 40 45  1  0  0  0  0
  8 13  1  0  0  0  0
 18 27  1  0  0  0  0
 49 51  1  0  0  0  0
  7 12  1  0  0  0  0
 39 44  1  0  0  0  0
 17 26  1  0  0  0  0
 25 36  1  0  0  0  0
 25 37  1  0  0  0  0
 25 38  1  0  0  0  0
M  CHG  1  25   1
M  END
$$$$

  -OEChem-05262214473D

 54 53  0     1  0  0  0  0  0999 V2000
    2.6714    2.8829   -3.0005 C   0  0  0  0  0  0  0  0  0  0  0  0
    3.1741    2.4398   -1.9745 O   0  0  0  0  0  0  0  0  0  0  0  0
    3.5527    3.3077   -4.1279 C   0  0  0  0  0  0  0  0  0  0  0  0
    3.8407    4.3691   -4.0597 H   0  0  0  0  0  0  0  0  0  0  0  0
    4.5024    2.7495   -4.1526 H   0  0  0  0  0  0  0  0  0  0  0  0
    3.1208    3.1887   -5.1345 H   0  0  0  0  0  0  0  0  0  0  0  0
    1.3174    3.0407   -3.2467 N   0  0  0  0  0  0  0  0  0  0  0  0
    0.2944    2.6927   -2.2960 C   0  0  2  0  0  0  0  0  0  0  0  0
    0.2976    1.1783   -2.1349 C   0  0  0  0  0  0  0  0  0  0  0  0
    0.7500    0.4142   -2.9850 O   0  0  0  0  0  0  0  0  0  0  0  0
   -1.0710    3.1886   -2.7460 C   0  0  0  0  0  0  0  0  0  0  0  0
    1.0312    3.4224   -4.1464 H   0  0  0  0  0  0  0  0  0  0  0  0
    0.5725    3.1622   -1.3461 H   0  0  0  0  0  0  0  0  0  0  0  0
   -1.3666    2.7292   -3.6963 H   0  0  0  0  0  0  0  0  0  0  0  0
   -1.8434    2.9482   -2.0082 H   0  0  0  0  0  0  0  0  0  0  0  0
   -1.0632    4.2744   -2.8901 H   0  0  0  0  0  0  0  0  0  0  0  0
   -0.3037    0.7742   -0.9484 N   0  0  0  0  0  0  0  0  0  0  0  0
   -0.4352   -0.6095   -0.5718 C   0  0  2  0  0  0  0  0  0  0  0  0
   -1.6890   -0.7702    0.2816 C   0  0  0  0  0  0  0  0  0  0  0  0
   -2.8243   -0.7785   -0.1901 O   0  0  0  0  0  0  0  0  0  0  0  0
    0.8275   -1.1383    0.1187 C   0  0  0  0  0  0  0  0  0  0  0  0
    2.0487   -1.2427   -0.8042 C   0  0  0  0  0  0  0  0  0  0  0  0
    3.2616   -1.7993   -0.0549 C   0  0  0  0  0  0  0  0  0  0  0  0
    4.4772   -1.8784   -0.9666 C   0  0  0  0  0  0  0  0  0  0  0  0
    5.6308   -2.3986   -0.1942 N   0  3  0  0  0  0  0  0  0  0  0  0
   -0.6336    1.4811   -0.2948 H   0  0  0  0  0  0  0  0  0  0  0  0
   -0.5892   -1.1614   -1.5070 H   0  0  0  0  0  0  0  0  0  0  0  0
    1.0746   -0.4763    0.9588 H   0  0  0  0  0  0  0  0  0  0  0  0
    0.6219   -2.1270    0.5473 H   0  0  0  0  0  0  0  0  0  0  0  0
    1.8206   -1.8957   -1.6546 H   0  0  0  0  0  0  0  0  0  0  0  0
    2.2974   -0.2552   -1.2101 H   0  0  0  0  0  0  0  0  0  0  0  0
    3.0254   -2.7965    0.3369 H   0  0  0  0  0  0  0  0  0  0  0  0
    3.4853   -1.1598    0.8080 H   0  0  0  0  0  0  0  0  0  0  0  0
    4.3187   -2.5663   -1.8025 H   0  0  0  0  0  0  0  0  0  0  0  0
    4.7681   -0.8953   -1.3484 H   0  0  0  0  0  0  0  0  0  0  0  0
    6.5174   -2.1629   -0.6534 H   0  0  0  0  0  0  0  0  0  0  0  0
    5.5832   -3.4198   -0.1060 H   0  0  0  0  0  0  0  0  0  0  0  0
    5.6497   -2.0009    0.7514 H   0  0  0  0  0  0  0  0  0  0  0  0
   -1.3921   -0.9364    1.6267 N   0  0  0  0  0  0  0  0  0  0  0  0
   -2.4189   -1.1239    2.6237 C   0  0  2  0  0  0  0  0  0  0  0  0
   -1.7803   -0.9494    3.9952 C   0  0  0  0  0  0  0  0  0  0  0  0
   -0.5762   -1.0918    4.1975 O   0  0  0  0  0  0  0  0  0  0  0  0
   -3.0695   -2.4927    2.4972 C   0  0  0  0  0  0  0  0  0  0  0  0
   -0.4196   -0.9257    1.9196 H   0  0  0  0  0  0  0  0  0  0  0  0
   -3.1629   -0.3359    2.4636 H   0  0  0  0  0  0  0  0  0  0  0  0
   -2.3395   -3.2951    2.6545 H   0  0  0  0  0  0  0  0  0  0  0  0
   -3.8675   -2.6225    3.2358 H   0  0  0  0  0  0  0  0  0  0  0  0
   -3.5023   -2.6279    1.5002 H   0  0  0  0  0  0  0  0  0  0  0  0
   -2.7192   -0.6583    4.9749 N   0  0  0  0  0  0  0  0  0  0  0  0
   -2.3641   -0.4597    6.3607 C   0  0  0  0  0  0  0  0  0  0  0  0
   -3.6937   -0.5399    4.7137 H   0  0  0  0  0  0  0  0  0  0  0  0
   -2.4463   -1.4142    6.9012 H   0  0  0  0  0  0  0  0  0  0  0  0
   -1.3300   -0.0901    6.4248 H   0  0  0  0  0  0  0  0  0  0  0  0
   -3.0453    0.2768    6.8117 H   0  0  0  0  0  0  0  0  0  0  0  0
  1  3  1  0  0  0  0
  1  7  1  0  0  0  0
  1  2  2  0  0  0  0
 40 41  1  0  0  0  0
 41 49  1  0  0  0  0
 41 42  2  0  0  0  0
  8  9  1  0  0  0  0
  9 17  1  0  0  0  0
  9 10  2  0  0  0  0
 18 19  1  0  0  0  0
 19 39  1  0  0  0  0
 19 20  2  0  0  0  0
 40 43  1  0  0  0  0
  8 11  1  0  0  0  0
 49 50  1  0  0  0  0
 22 23  1  0  0  0  0
 21 22  1  0  0  0  0
 23 24  1  0  0  0  0
 18 21  1  0  0  0  0
 24 25  1  0  0  0  0
 39 40  1  0  0  0  0
  7  8  1  0  0  0  0
 17 18  1  0  0  0  0
  3  4  1  0  0  0  0
  3  5  1  0  0  0  0
  3  6  1  0  0  0  0
 43 46  1  0  0  0  0
 43 47  1  0  0  0  0
 43 48  1  0  0  0  0
 11 14  1  0  0  0  0
 11 15  1  0  0  0  0
 11 16  1  0  0  0  0
 50 52  1  0  0  0  0
 50 53  1  0  0  0  0
 50 54  1  0  0  0  0
 22 30  1  0  0  0  0
 22 31  1  0  0  0  0
 23 32  1  0  0  0  0
 23 33  1  0  0  0  0
 21 28  1  0  0  0  0
 21 29  1  0  0  0  0
 24 34  1  0  0  0  0
 24 35  1  0  0  0  0
 40 45  1  0  0  0  0
  8 13  1  0  0  0  0
 18 27  1  0  0  0  0
 49 51  1  0  0  0  0
  7 12  1  0  0  0  0
 39 44  1  0  0  0  0
 17 26  1  0  0  0  0
 25 36  1  0  0  0  0
 25 37  1  0  0  0  0
 25 38  1  0  0  0  0
M  CHG  1  25   1
M  END
$$$$

  -OEChem-05262214473D

 54 53  0     1  0  0  0  0  0999 V2000
    2.6714    2.8829   -3.0005 C   0  0  0  0  0  0  0  0  0  0  0  0
    3.1741    2.4398   -1.9745 O   0  0  0  0  0  0  0  0  0  0  0  0
    3.5527    3.3077   -4.1279 C   0  0  0  0  0  0  0  0  0  0  0  0
    3.8407    4.3691   -4.0597 H   0  0  0  0  0  0  0  0  0  0  0  0
    4.5024    2.7495   -4.1526 H   0  0  0  0  0  0  0  0  0  0  0  0
    3.1208    3.1887   -5.1345 H   0  0  0  0  0  0  0  0  0  0  0  0
    1.3174    3.0407   -3.2467 N   0  0  0  0  0  0  0  0  0  0  0  0
    0.2944    2.6927   -2.2960 C   0  0  2  0  0  0  0  0  0  0  0  0
    0.2976    1.1783   -2.1349 C   0  0  0  0  0  0  0  0  0  0  0  0
    0.7500    0.4142   -2.9850 O   0  0  0  0  0  0  0  0  0  0  0  0
   -1.0710    3.1886   -2.7460 C   0  0  0  0  0  0  0  0  0  0  0  0
    1.0312    3.4224   -4.1464 H   0  0  0  0  0  0  0  0  0  0  0  0
    0.5725    3.1622   -1.3461 H   0  0  0  0  0  0  0  0  0  0  0  0
   -1.3666    2.7292   -3.6963 H   0  0  0  0  0  0  0  0  0  0  0  0
   -1.8434    2.9482   -2.0082 H   0  0  0  0  0  0  0  0  0  0  0  0
   -1.0632    4.2744   -2.8901 H   0  0  0  0  0  0  0  0  0  0  0  0
   -0.3037    0.7742   -0.9484 N   0  0  0  0  0  0  0  0  0  0  0  0
   -0.4352   -0.6095   -0.5718 C   0  0  2  0  0  0  0  0  0  0  0  0
   -1.6890   -0.7702    0.2816 C   0  0  0  0  0  0  0  0  0  0  0  0
   -2.7904   -1.0454   -0.1904 O   0  0  0  0  0  0  0  0  0  0  0  0
    0.8275   -1.1383    0.1187 C   0  0  0  0  0  0  0  0  0  0  0  0
    2.0487   -1.2427   -0.8042 C   0  0  0  0  0  0  0  0  0  0  0  0
    3.2616   -1.7993   -0.0549 C   0  0  0  0  0  0  0  0  0  0  0  0
    4.4772   -1.8784   -0.9666 C   0  0  0  0  0  0  0  0  0  0  0  0
    5.6308   -2.3986   -0.1942 N   0  3  0  0  0  0  0  0  0  0  0  0
   -0.6336    1.4811   -0.2948 H   0  0  0  0  0  0  0  0  0  0  0  0
   -0.5892   -1.1614   -1.5070 H   0  0  0  0  0  0  0  0  0  0  0  0
    1.0746   -0.4763    0.9588 H   0  0  0  0  0  0  0  0  0  0  0  0
    0.6219   -2.1270    0.5473 H   0  0  0  0  0  0  0  0  0  0  0  0
    1.8206   -1.8957   -1.6546 H   0  0  0  0  0  0  0  0  0  0  0  0
    2.2974   -0.2552   -1.2101 H   0  0  0  0  0  0  0  0  0  0  0  0
    3.0254   -2.7965    0.3369 H   0  0  0  0  0  0  0  0  0  0  0  0
    3.4853   -1.1598    0.8080 H   0  0  0  0  0  0  0  0  0  0  0  0
    4.3187   -2.5663   -1.8025 H   0  0  0  0  0  0  0  0  0  0  0  0
    4.7681   -0.8953   -1.3484 H   0  0  0  0  0  0  0  0  0  0  0  0
    6.5174   -2.1629   -0.6534 H   0  0  0  0  0  0  0  0  0  0  0  0
    5.5832   -3.4198   -0.1060 H   0  0  0  0  0  0  0  0  0  0  0  0
    5.6497   -2.0009    0.7514 H   0  0  0  0  0  0  0  0  0  0  0  0
   -1.4295   -0.6034    1.6343 N   0  0  0  0  0  0  0  0  0  0  0  0
   -2.4613   -0.7263    2.6364 C   0  0  2  0  0  0  0  0  0  0  0  0
   -1.9133   -0.1742    3.9457 C   0  0  0  0  0  0  0  0  0  0  0  0
   -0.7110   -0.0912    4.1878 O   0  0  0  0  0  0  0  0  0  0  0  0
   -2.9050   -2.1717    2.7993 C   0  0  0  0  0  0  0  0  0  0  0  0
   -0.4819   -0.3876    1.9294 H   0  0  0  0  0  0  0  0  0  0  0  0
   -3.3019   -0.1085    2.3022 H   0  0  0  0  0  0  0  0  0  0  0  0
   -2.0760   -2.8060    3.1337 H   0  0  0  0  0  0  0  0  0  0  0  0
   -3.7075   -2.2594    3.5392 H   0  0  0  0  0  0  0  0  0  0  0  0
   -3.2711   -2.5764    1.8496 H   0  0  0  0  0  0  0  0  0  0  0  0
   -2.9253    0.1749    4.8291 N   0  0  0  0  0  0  0  0  0  0  0  0
   -2.6618    0.7113    6.1439 C   0  0  0  0  0  0  0  0  0  0  0  0
   -3.8945    0.0902    4.5372 H   0  0  0  0  0  0  0  0  0  0  0  0
   -2.6309   -0.1093    6.8758 H   0  0  0  0  0  0  0  0  0  0  0  0
   -1.6943    1.2347    6.1391 H   0  0  0  0  0  0  0  0  0  0  0  0
   -3.4593    1.4174    6.4183 H   0  0  0  0  0  0  0  0  0  0  0  0
  1  3  1  0  0  0  0
  1  7  1  0  0  0  0
  1  2  2  0  0  0  0
 40 41  1  0  0  0  0
 41 49  1  0  0  0  0
 41 42  2  0  0  0  0
  8  9  1  0  0  0  0
  9 17  1  0  0  0  0
  9 10  2  0  0  0  0
 18 19  1  0  0  0  0
 19 39  1  0  0  0  0
 19 20  2  0  0  0  0
 40 43  1  0  0  0  0
  8 11  1  0  0  0  0
 49 50  1  0  0  0  0
 22 23  1  0  0  0  0
 21 22  1  0  0  0  0
 23 24  1  0  0  0  0
 18 21  1  0  0  0  0
 24 25  1  0  0  0  0
 39 40  1  0  0  0  0
  7  8  1  0  0  0  0
 17 18  1  0  0  0  0
  3  4  1  0  0  0  0
  3  5  1  0  0  0  0
  3  6  1  0  0  0  0
 43 46  1  0  0  0  0
 43 47  1  0  0  0  0
 43 48  1  0  0  0  0
 11 14  1  0  0  0  0
 11 15  1  0  0  0  0
 11 16  1  0  0  0  0
 50 52  1  0  0  0  0
 50 53  1  0  0  0  0
 50 54  1  0  0  0  0
 22 30  1  0  0  0  0
 22 31  1  0  0  0  0
 23 32  1  0  0  0  0
 23 33  1  0  0  0  0
 21 28  1  0  0  0  0
 21 29  1  0  0  0  0
 24 34  1  0  0  0  0
 24 35  1  0  0  0  0
 40 45  1  0  0  0  0
  8 13  1  0  0  0  0
 18 27  1  0  0  0  0
 49 51  1  0  0  0  0
  7 12  1  0  0  0  0
 39 44  1  0  0  0  0
 17 26  1  0  0  0  0
 25 36  1  0  0  0  0
 25 37  1  0  0  0  0
 25 38  1  0  0  0  0
M  CHG  1  25   1
M  END
$$$$

  -OEChem-05262214473D

 54 53  0     1  0  0  0  0  0999 V2000
    2.6714    2.8829   -3.0005 C   0  0  0  0  0  0  0  0  0  0  0  0
    3.1741    2.4398   -1.9745 O   0  0  0  0  0  0  0  0  0  0  0  0
    3.5527    3.3077   -4.1279 C   0  0  0  0  0  0  0  0  0  0  0  0
    3.8407    4.3691   -4.0597 H   0  0  0  0  0  0  0  0  0  0  0  0
    4.5024    2.7495   -4.1526 H   0  0  0  0  0  0  0  0  0  0  0  0
    3.1208    3.1887   -5.1345 H   0  0  0  0  0  0  0  0  0  0  0  0
    1.3174    3.0407   -3.2467 N   0  0  0  0  0  0  0  0  0  0  0  0
    0.2944    2.6927   -2.2960 C   0  0  2  0  0  0  0  0  0  0  0  0
    0.2976    1.1783   -2.1349 C   0  0  0  0  0  0  0  0  0  0  0  0
    0.7500    0.4142   -2.9850 O   0  0  0  0  0  0  0  0  0  0  0  0
   -1.0710    3.1886   -2.7460 C   0  0  0  0  0  0  0  0  0  0  0  0
    1.0312    3.4224   -4.1464 H   0  0  0  0  0  0  0  0  0  0  0  0
    0.5725    3.1622   -1.3461 H   0  0  0  0  0  0  0  0  0  0  0  0
   -1.3666    2.7292   -3.6963 H   0  0  0  0  0  0  0  0  0  0  0  0
   -1.8434    2.9482   -2.0082 H   0  0  0  0  0  0  0  0  0  0  0  0
   -1.0632    4.2744   -2.8901 H   0  0  0  0  0  0  0  0  0  0  0  0
   -0.3037    0.7742   -0.9484 N   0  0  0  0  0  0  0  0  0  0  0  0
   -0.4352   -0.6095   -0.5718 C   0  0  2  0  0  0  0  0  0  0  0  0
   -1.6890   -0.7702    0.2816 C   0  0  0  0  0  0  0  0  0  0  0  0
   -2.7189   -1.2983   -0.1330 O   0  0  0  0  0  0  0  0  0  0  0  0
    0.8275   -1.1383    0.1187 C   0  0  0  0  0  0  0  0  0  0  0  0
    2.0487   -1.2427   -0.8042 C   0  0  0  0  0  0  0  0  0  0  0  0
    3.2616   -1.7993   -0.0549 C   0  0  0  0  0  0  0  0  0  0  0  0
    4.4772   -1.8784   -0.9666 C   0  0  0  0  0  0  0  0  0  0  0  0
    5.6308   -2.3986   -0.1942 N   0  3  0  0  0  0  0  0  0  0  0  0
   -0.6336    1.4811   -0.2948 H   0  0  0  0  0  0  0  0  0  0  0  0
   -0.5892   -1.1614   -1.5070 H   0  0  0  0  0  0  0  0  0  0  0  0
    1.0746   -0.4763    0.9588 H   0  0  0  0  0  0  0  0  0  0  0  0
    0.6219   -2.1270    0.5473 H   0  0  0  0  0  0  0  0  0  0  0  0
    1.8206   -1.8957   -1.6546 H   0  0  0  0  0  0  0  0  0  0  0  0
    2.2974   -0.2552   -1.2101 H   0  0  0  0  0  0  0  0  0  0  0  0
    3.0254   -2.7965    0.3369 H   0  0  0  0  0  0  0  0  0  0  0  0
    3.4853   -1.1598    0.8080 H   0  0  0  0  0  0  0  0  0  0  0  0
    4.3187   -2.5663   -1.8025 H   0  0  0  0  0  0  0  0  0  0  0  0
    4.7681   -0.8953   -1.3484 H   0  0  0  0  0  0  0  0  0  0  0  0
    6.5174   -2.1629   -0.6534 H   0  0  0  0  0  0  0  0  0  0  0  0
    5.5832   -3.4198   -0.1060 H   0  0  0  0  0  0  0  0  0  0  0  0
    5.6497   -2.0009    0.7514 H   0  0  0  0  0  0  0  0  0  0  0  0
   -1.5142   -0.2856    1.5698 N   0  0  0  0  0  0  0  0  0  0  0  0
   -2.5601   -0.3456    2.5629 C   0  0  2  0  0  0  0  0  0  0  0  0
   -2.1528    0.5448    3.7293 C   0  0  0  0  0  0  0  0  0  0  0  0
   -0.9859    0.8537    3.9619 O   0  0  0  0  0  0  0  0  0  0  0  0
   -2.8009   -1.7735    3.0273 C   0  0  0  0  0  0  0  0  0  0  0  0
   -0.6203    0.1251    1.8226 H   0  0  0  0  0  0  0  0  0  0  0  0
   -3.4647    0.0567    2.0941 H   0  0  0  0  0  0  0  0  0  0  0  0
   -1.9054   -2.1935    3.4997 H   0  0  0  0  0  0  0  0  0  0  0  0
   -3.6138   -1.8209    3.7594 H   0  0  0  0  0  0  0  0  0  0  0  0
   -3.0647   -2.4189    2.1825 H   0  0  0  0  0  0  0  0  0  0  0  0
   -3.2410    0.9187    4.5053 N   0  0  0  0  0  0  0  0  0  0  0  0
   -3.1130    1.7531    5.6772 C   0  0  0  0  0  0  0  0  0  0  0  0
   -4.1750    0.6322    4.2273 H   0  0  0  0  0  0  0  0  0  0  0  0
   -2.9974    1.1190    6.5686 H   0  0  0  0  0  0  0  0  0  0  0  0
   -2.2302    2.4009    5.5713 H   0  0  0  0  0  0  0  0  0  0  0  0
   -4.0137    2.3754    5.7843 H   0  0  0  0  0  0  0  0  0  0  0  0
  1  3  1  0  0  0  0
  1  7  1  0  0  0  0
  1  2  2  0  0  0  0
 40 41  1  0  0  0  0
 41 49  1  0  0  0  0
 41 42  2  0  0  0  0
  8  9  1  0  0  0  0
  9 17  1  0  0  0  0
  9 10  2  0  0  0  0
 18 19  1  0  0  0  0
 19 39  1  0  0  0  0
 19 20  2  0  0  0  0
 40 43  1  0  0  0  0
  8 11  1  0  0  0  0
 49 50  1  0  0  0  0
 22 23  1  0  0  0  0
 21 22  1  0  0  0  0
 23 24  1  0  0  0  0
 18 21  1  0  0  0  0
 24 25  1  0  0  0  0
 39 40  1  0  0  0  0
  7  8  1  0  0  0  0
 17 18  1  0  0  0  0
  3  4  1  0  0  0  0
  3  5  1  0  0  0  0
  3  6  1  0  0  0  0
 43 46  1  0  0  0  0
 43 47  1  0  0  0  0
 43 48  1  0  0  0  0
 11 14  1  0  0  0  0
 11 15  1  0  0  0  0
 11 16  1  0  0  0  0
 50 52  1  0  0  0  0
 50 53  1  0  0  0  0
 50 54  1  0  0  0  0
 22 30  1  0  0  0  0
 22 31  1  0  0  0  0
 23 32  1  0  0  0  0
 23 33  1  0  0  0  0
 21 28  1  0  0  0  0
 21 29  1  0  0  0  0
 24 34  1  0  0  0  0
 24 35  1  0  0  0  0
 40 45  1  0  0  0  0
  8 13  1  0  0  0  0
 18 27  1  0  0  0  0
 49 51  1  0  0  0  0
  7 12  1  0  0  0  0
 39 44  1  0  0  0  0
 17 26  1  0  0  0  0
 25 36  1  0  0  0  0
 25 37  1  0  0  0  0
 25 38  1  0  0  0  0
M  CHG  1  25   1
M  END
$$$$

  -OEChem-05262214473D

 54 53  0     1  0  0  0  0  0999 V2000
    2.6714    2.8829   -3.0005 C   0  0  0  0  0  0  0  0  0  0  0  0
    3.1741    2.4398   -1.9745 O   0  0  0  0  0  0  0  0  0  0  0  0
    3.5527    3.3077   -4.1279 C   0  0  0  0  0  0  0  0  0  0  0  0
    3.8407    4.3691   -4.0597 H   0  0  0  0  0  0  0  0  0  0  0  0
    4.5024    2.7495   -4.1526 H   0  0  0  0  0  0  0  0  0  0  0  0
    3.1208    3.1887   -5.1345 H   0  0  0  0  0  0  0  0  0  0  0  0
    1.3174    3.0407   -3.2467 N   0  0  0  0  0  0  0  0  0  0  0  0
    0.2944    2.6927   -2.2960 C   0  0  2  0  0  0  0  0  0  0  0  0
    0.2976    1.1783   -2.1349 C   0  0  0  0  0  0  0  0  0  0  0  0
    0.7500    0.4142   -2.9850 O   0  0  0  0  0  0  0  0  0  0  0  0
   -1.0710    3.1886   -2.7460 C   0  0  0  0  0  0  0  0  0  0  0  0
    1.0312    3.4224   -4.1464 H   0  0  0  0  0  0  0  0  0  0  0  0
    0.5725    3.1622   -1.3461 H   0  0  0  0  0  0  0  0  0  0  0  0
   -1.3666    2.7292   -3.6963 H   0  0  0  0  0  0  0  0  0  0  0  0
   -1.8434    2.9482   -2.0082 H   0  0  0  0  0  0  0  0  0  0  0  0
   -1.0632    4.2744   -2.8901 H   0  0  0  0  0  0  0  0  0  0  0  0
   -0.3037    0.7742   -0.9484 N   0  0  0  0  0  0  0  0  0  0  0  0
   -0.4352   -0.6095   -0.5718 C   0  0  2  0  0  0  0  0  0  0  0  0
   -1.6890   -0.7702    0.2816 C   0  0  0  0  0  0  0  0  0  0  0  0
   -2.6148   -1.5201   -0.0218 O   0  0  0  0  0  0  0  0  0  0  0  0
    0.8275   -1.1383    0.1187 C   0  0  0  0  0  0  0  0  0  0  0  0
    2.0487   -1.2427   -0.8042 C   0  0  0  0  0  0  0  0  0  0  0  0
    3.2616   -1.7993   -0.0549 C   0  0  0  0  0  0  0  0  0  0  0  0
    4.4772   -1.8784   -0.9666 C   0  0  0  0  0  0  0  0  0  0  0  0
    5.6308   -2.3986   -0.1942 N   0  3  0  0  0  0  0  0  0  0  0  0
   -0.6336    1.4811   -0.2948 H   0  0  0  0  0  0  0  0  0  0  0  0
   -0.5892   -1.1614   -1.5070 H   0  0  0  0  0  0  0  0  0  0  0  0
    1.0746   -0.4763    0.9588 H   0  0  0  0  0  0  0  0  0  0  0  0
    0.6219   -2.1270    0.5473 H   0  0  0  0  0  0  0  0  0  0  0  0
    1.8206   -1.8957   -1.6546 H   0  0  0  0  0  0  0  0  0  0  0  0
    2.2974   -0.2552   -1.2101 H   0  0  0  0  0  0  0  0  0  0  0  0
    3.0254   -2.7965    0.3369 H   0  0  0  0  0  0  0  0  0  0  0  0
    3.4853   -1.1598    0.8080 H   0  0  0  0  0  0  0  0  0  0  0  0
    4.3187   -2.5663   -1.8025 H   0  0  0  0  0  0  0  0  0  0  0  0
    4.7681   -0.8953   -1.3484 H   0  0  0  0  0  0  0  0  0  0  0  0
    6.5174   -2.1629   -0.6534 H   0  0  0  0  0  0  0  0  0  0  0  0
    5.5832   -3.4198   -0.1060 H   0  0  0  0  0  0  0  0  0  0  0  0
    5.6497   -2.0009    0.7514 H   0  0  0  0  0  0  0  0  0  0  0  0
   -1.6402   -0.0046    1.4376 N   0  0  0  0  0  0  0  0  0  0  0  0
   -2.7087   -0.0078    2.4082 C   0  0  2  0  0  0  0  0  0  0  0  0
   -2.4823    1.1586    3.3608 C   0  0  0  0  0  0  0  0  0  0  0  0
   -1.3821    1.6786    3.5351 O   0  0  0  0  0  0  0  0  0  0  0  0
   -2.7641   -1.3254    3.1656 C   0  0  0  0  0  0  0  0  0  0  0  0
   -0.8253    0.5777    1.6067 H   0  0  0  0  0  0  0  0  0  0  0  0
   -3.6403    0.1484    1.8535 H   0  0  0  0  0  0  0  0  0  0  0  0
   -1.8392   -1.4993    3.7276 H   0  0  0  0  0  0  0  0  0  0  0  0
   -3.5928   -1.3370    3.8813 H   0  0  0  0  0  0  0  0  0  0  0  0
   -2.8972   -2.1660    2.4761 H   0  0  0  0  0  0  0  0  0  0  0  0
   -3.6448    1.5227    4.0257 N   0  0  0  0  0  0  0  0  0  0  0  0
   -3.6869    2.5948    4.9925 C   0  0  0  0  0  0  0  0  0  0  0  0
   -4.5159    1.0491    3.8049 H   0  0  0  0  0  0  0  0  0  0  0  0
   -3.5210    2.1870    6.0005 H   0  0  0  0  0  0  0  0  0  0  0  0
   -2.9013    3.3289    4.7602 H   0  0  0  0  0  0  0  0  0  0  0  0
   -4.6706    3.0856    4.9530 H   0  0  0  0  0  0  0  0  0  0  0  0
  1  3  1  0  0  0  0
  1  7  1  0  0  0  0
  1  2  2  0  0  0  0
 40 41  1  0  0  0  0
 41 49  1  0  0  0  0
 41 42  2  0  0  0  0
  8  9  1  0  0  0  0
  9 17  1  0  0  0  0
  9 10  2  0  0  0  0
 18 19  1  0  0  0  0
 19 39  1  0  0  0  0
 19 20  2  0  0  0  0
 40 43  1  0  0  0  0
  8 11  1  0  0  0  0
 49 50  1  0  0  0  0
 22 23  1  0  0  0  0
 21 22  1  0  0  0  0
 23 24  1  0  0  0  0
 18 21  1  0  0  0  0
 24 25  1  0  0  0  0
 39 40  1  0  0  0  0
  7  8  1  0  0  0  0
 17 18  1  0  0  0  0
  3  4  1  0  0  0  0
  3  5  1  0  0  0  0
  3  6  1  0  0  0  0
 43 46  1  0  0  0  0
 43 47  1  0  0  0  0
 43 48  1  0  0  0  0
 11 14  1  0  0  0  0
 11 15  1  0  0  0  0
 11 16  1  0  0  0  0
 50 52  1  0  0  0  0
 50 53  1  0  0  0  0
 50 54  1  0  0  0  0
 22 30  1  0  0  0  0
 22 31  1  0  0  0  0
 23 32  1  0  0  0  0
 23 33  1  0  0  0  0
 21 28  1  0  0  0  0
 21 29  1  0  0  0  0
 24 34  1  0  0  0  0
 24 35  1  0  0  0  0
 40 45  1  0  0  0  0
  8 13  1  0  0  0  0
 18 27  1  0  0  0  0
 49 51  1  0  0  0  0
  7 12  1  0  0  0  0
 39 44  1  0  0  0  0
 17 26  1  0  0  0  0
 25 36  1  0  0  0  0
 25 37  1  0  0  0  0
 25 38  1  0  0  0  0
M  CHG  1  25   1
M  END
$$$$

  -OEChem-05262214473D

 54 53  0     1  0  0  0  0  0999 V2000
    2.6714    2.8829   -3.0005 C   0  0  0  0  0  0  0  0  0  0  0  0
    3.1741    2.4398   -1.9745 O   0  0  0  0  0  0  0  0  0  0  0  0
    3.5527    3.3077   -4.1279 C   0  0  0  0  0  0  0  0  0  0  0  0
    3.8407    4.3691   -4.0597 H   0  0  0  0  0  0  0  0  0  0  0  0
    4.5024    2.7495   -4.1526 H   0  0  0  0  0  0  0  0  0  0  0  0
    3.1208    3.1887   -5.1345 H   0  0  0  0  0  0  0  0  0  0  0  0
    1.3174    3.0407   -3.2467 N   0  0  0  0  0  0  0  0  0  0  0  0
    0.2944    2.6927   -2.2960 C   0  0  2  0  0  0  0  0  0  0  0  0
    0.2976    1.1783   -2.1349 C   0  0  0  0  0  0  0  0  0  0  0  0
    0.7500    0.4142   -2.9850 O   0  0  0  0  0  0  0  0  0  0  0  0
   -1.0710    3.1886   -2.7460 C   0  0  0  0  0  0  0  0  0  0  0  0
    1.0312    3.4224   -4.1464 H   0  0  0  0  0  0  0  0  0  0  0  0
    0.5725    3.1622   -1.3461 H   0  0  0  0  0  0  0  0  0  0  0  0
   -1.3666    2.7292   -3.6963 H   0  0  0  0  0  0  0  0  0  0  0  0
   -1.8434    2.9482   -2.0082 H   0  0  0  0  0  0  0  0  0  0  0  0
   -1.0632    4.2744   -2.8901 H   0  0  0  0  0  0  0  0  0  0  0  0
   -0.3037    0.7742   -0.9484 N   0  0  0  0  0  0  0  0  0  0  0  0
   -0.4352   -0.6095   -0.5718 C   0  0  2  0  0  0  0  0  0  0  0  0
   -1.6890   -0.7702    0.2816 C   0  0  0  0  0  0  0  0  0  0  0  0
   -2.4851   -1.6956    0.1356 O   0  0  0  0  0  0  0  0  0  0  0  0
    0.8275   -1.1383    0.1187 C   0  0  0  0  0  0  0  0  0  0  0  0
    2.0487   -1.2427   -0.8042 C   0  0  0  0  0  0  0  0  0  0  0  0
    3.2616   -1.7993   -0.0549 C   0  0  0  0  0  0  0  0  0  0  0  0
    4.4772   -1.8784   -0.9666 C   0  0  0  0  0  0  0  0  0  0  0  0
    5.6308   -2.3986   -0.1942 N   0  3  0  0  0  0  0  0  0  0  0  0
   -0.6336    1.4811   -0.2948 H   0  0  0  0  0  0  0  0  0  0  0  0
   -0.5892   -1.1614   -1.5070 H   0  0  0  0  0  0  0  0  0  0  0  0
    1.0746   -0.4763    0.9588 H   0  0  0  0  0  0  0  0  0  0  0  0
    0.6219   -2.1270    0.5473 H   0  0  0  0  0  0  0  0  0  0  0  0
    1.8206   -1.8957   -1.6546 H   0  0  0  0  0  0  0  0  0  0  0  0
    2.2974   -0.2552   -1.2101 H   0  0  0  0  0  0  0  0  0  0  0  0
    3.0254   -2.7965    0.3369 H   0  0  0  0  0  0  0  0  0  0  0  0
    3.4853   -1.1598    0.8080 H   0  0  0  0  0  0  0  0  0  0  0  0
    4.3187   -2.5663   -1.8025 H   0  0  0  0  0  0  0  0  0  0  0  0
    4.7681   -0.8953   -1.3484 H   0  0  0  0  0  0  0  0  0  0  0  0
    6.5174   -2.1629   -0.6534 H   0  0  0  0  0  0  0  0  0  0  0  0
    5.5832   -3.4198   -0.1060 H   0  0  0  0  0  0  0  0  0  0  0  0
    5.6497   -2.0009    0.7514 H   0  0  0  0  0  0  0  0  0  0  0  0
   -1.7990    0.2205    1.2467 N   0  0  0  0  0  0  0  0  0  0  0  0
   -2.8969    0.2640    2.1829 C   0  0  2  0  0  0  0  0  0  0  0  0
   -2.8794    1.6254    2.8653 C   0  0  0  0  0  0  0  0  0  0  0  0
   -1.8726    2.3271    2.9366 O   0  0  0  0  0  0  0  0  0  0  0  0
   -2.7974   -0.8577    3.2049 C   0  0  0  0  0  0  0  0  0  0  0  0
   -1.0830    0.9392    1.2962 H   0  0  0  0  0  0  0  0  0  0  0  0
   -3.8166    0.1604    1.5967 H   0  0  0  0  0  0  0  0  0  0  0  0
   -1.8821   -0.7707    3.8018 H   0  0  0  0  0  0  0  0  0  0  0  0
   -3.6460   -0.8406    3.8967 H   0  0  0  0  0  0  0  0  0  0  0  0
   -2.7801   -1.8350    2.7106 H   0  0  0  0  0  0  0  0  0  0  0  0
   -4.1093    1.9455    3.4230 N   0  0  0  0  0  0  0  0  0  0  0  0
   -4.3446    3.1791    4.1363 C   0  0  0  0  0  0  0  0  0  0  0  0
   -4.8941    1.3126    3.2989 H   0  0  0  0  0  0  0  0  0  0  0  0
   -4.1659    3.0220    5.2103 H   0  0  0  0  0  0  0  0  0  0  0  0
   -3.6618    3.9555    3.7609 H   0  0  0  0  0  0  0  0  0  0  0  0
   -5.3853    3.4996    3.9809 H   0  0  0  0  0  0  0  0  0  0  0  0
  1  3  1  0  0  0  0
  1  7  1  0  0  0  0
  1  2  2  0  0  0  0
 40 41  1  0  0  0  0
 41 49  1  0  0  0  0
 41 42  2  0  0  0  0
  8  9  1  0  0  0  0
  9 17  1  0  0  0  0
  9 10  2  0  0  0  0
 18 19  1  0  0  0  0
 19 39  1  0  0  0  0
 19 20  2  0  0  0  0
 40 43  1  0  0  0  0
  8 11  1  0  0  0  0
 49 50  1  0  0  0  0
 22 23  1  0  0  0  0
 21 22  1  0  0  0  0
 23 24  1  0  0  0  0
 18 21  1  0  0  0  0
 24 25  1  0  0  0  0
 39 40  1  0  0  0  0
  7  8  1  0  0  0  0
 17 18  1  0  0  0  0
  3  4  1  0  0  0  0
  3  5  1  0  0  0  0
  3  6  1  0  0  0  0
 43 46  1  0  0  0  0
 43 47  1  0  0  0  0
 43 48  1  0  0  0  0
 11 14  1  0  0  0  0
 11 15  1  0  0  0  0
 11 16  1  0  0  0  0
 50 52  1  0  0  0  0
 50 53  1  0  0  0  0
 50 54  1  0  0  0  0
 22 30  1  0  0  0  0
 22 31  1  0  0  0  0
 23 32  1  0  0  0  0
 23 33  1  0  0  0  0
 21 28  1  0  0  0  0
 21 29  1  0  0  0  0
 24 34  1  0  0  0  0
 24 35  1  0  0  0  0
 40 45  1  0  0  0  0
  8 13  1  0  0  0  0
 18 27  1  0  0  0  0
 49 51  1  0  0  0  0
  7 12  1  0  0  0  0
 39 44  1  0  0  0  0
 17 26  1  0  0  0  0
 25 36  1  0  0  0  0
 25 37  1  0  0  0  0
 25 38  1  0  0  0  0
M  CHG  1  25   1
M  END
$$$$

  -OEChem-05262214473D

 54 53  0     1  0  0  0  0  0999 V2000
    2.6714    2.8829   -3.0005 C   0  0  0  0  0  0  0  0  0  0  0  0
    3.1741    2.4398   -1.9745 O   0  0  0  0  0  0  0  0  0  0  0  0
    3.5527    3.3077   -4.1279 C   0  0  0  0  0  0  0  0  0  0  0  0
    3.8407    4.3691   -4.0597 H   0  0  0  0  0  0  0  0  0  0  0  0
    4.5024    2.7495   -4.1526 H   0  0  0  0  0  0  0  0  0  0  0  0
    3.1208    3.1887   -5.1345 H   0  0  0  0  0  0  0  0  0  0  0  0
    1.3174    3.0407   -3.2467 N   0  0  0  0  0  0  0  0  0  0  0  0
    0.2944    2.6927   -2.2960 C   0  0  2  0  0  0  0  0  0  0  0  0
    0.2976    1.1783   -2.1349 C   0  0  0  0  0  0  0  0  0  0  0  0
    0.7500    0.4142   -2.9850 O   0  0  0  0  0  0  0  0  0  0  0  0
   -1.0710    3.1886   -2.7460 C   0  0  0  0  0  0  0  0  0  0  0  0
    1.0312    3.4224   -4.1464 H   0  0  0  0  0  0  0  0  0  0  0  0
    0.5725    3.1622   -1.3461 H   0  0  0  0  0  0  0  0  0  0  0  0
   -1.3666    2.7292   -3.6963 H   0  0  0  0  0  0  0  0  0  0  0  0
   -1.8434    2.9482   -2.0082 H   0  0  0  0  0  0  0  0  0  0  0  0
   -1.0632    4.2744   -2.8901 H   0  0  0  0  0  0  0  0  0  0  0  0
   -0.3037    0.7742   -0.9484 N   0  0  0  0  0  0  0  0  0  0  0  0
   -0.4352   -0.6095   -0.5718 C   0  0  2  0  0  0  0  0  0  0  0  0
   -1.6890   -0.7702    0.2816 C   0  0  0  0  0  0  0  0  0  0  0  0
   -2.3388   -1.8128    0.3285 O   0  0  0  0  0  0  0  0  0  0  0  0
    0.8275   -1.1383    0.1187 C   0  0  0  0  0  0  0  0  0  0  0  0
    2.0487   -1.2427   -0.8042 C   0  0  0  0  0  0  0  0  0  0  0  0
    3.2616   -1.7993   -0.0549 C   0  0  0  0  0  0  0  0  0  0  0  0
    4.4772   -1.8784   -0.9666 C   0  0  0  0  0  0  0  0  0  0  0  0
    5.6308   -2.3986   -0.1942 N   0  3  0  0  0  0  0  0  0  0  0  0
   -0.6336    1.4811   -0.2948 H   0  0  0  0  0  0  0  0  0  0  0  0
   -0.5892   -1.1614   -1.5070 H   0  0  0  0  0  0  0  0  0  0  0  0
    1.0746   -0.4763    0.9588 H   0  0  0  0  0  0  0  0  0  0  0  0
    0.6219   -2.1270    0.5473 H   0  0  0  0  0  0  0  0  0  0  0  0
    1.8206   -1.8957   -1.6546 H   0  0  0  0  0  0  0  0  0  0  0  0
    2.2974   -0.2552   -1.2101 H   0  0  0  0  0  0  0  0  0  0  0  0
    3.0254   -2.7965    0.3369 H   0  0  0  0  0  0  0  0  0  0  0  0
    3.4853   -1.1598    0.8080 H   0  0  0  0  0  0  0  0  0  0  0  0
    4.3187   -2.5663   -1.8025 H   0  0  0  0  0  0  0  0  0  0  0  0
    4.7681   -0.8953   -1.3484 H   0  0  0  0  0  0  0  0  0  0  0  0
    6.5174   -2.1629   -0.6534 H   0  0  0  0  0  0  0  0  0  0  0  0
    5.5832   -3.4198   -0.1060 H   0  0  0  0  0  0  0  0  0  0  0  0
    5.6497   -2.0009    0.7514 H   0  0  0  0  0  0  0  0  0  0  0  0
   -1.9798    0.3743    1.0101 N   0  0  0  0  0  0  0  0  0  0  0  0
   -3.1119    0.4513    1.9022 C   0  0  2  0  0  0  0  0  0  0  0  0
   -3.3171    1.9133    2.2765 C   0  0  0  0  0  0  0  0  0  0  0  0
   -2.4241    2.7552    2.2071 O   0  0  0  0  0  0  0  0  0  0  0  0
   -2.8982   -0.4024    3.1424 C   0  0  0  0  0  0  0  0  0  0  0  0
   -1.3758    1.1850    0.9123 H   0  0  0  0  0  0  0  0  0  0  0  0
   -3.9816    0.0918    1.3414 H   0  0  0  0  0  0  0  0  0  0  0  0
   -2.0311   -0.0573    3.7173 H   0  0  0  0  0  0  0  0  0  0  0  0
   -3.7696   -0.3655    3.8045 H   0  0  0  0  0  0  0  0  0  0  0  0
   -2.7212   -1.4484    2.8698 H   0  0  0  0  0  0  0  0  0  0  0  0
   -4.6028    2.1584    2.7381 N   0  0  0  0  0  0  0  0  0  0  0  0
   -5.0411    3.4660    3.1671 C   0  0  0  0  0  0  0  0  0  0  0  0
   -5.2838    1.4047    2.7438 H   0  0  0  0  0  0  0  0  0  0  0  0
   -4.8882    3.5669    4.2518 H   0  0  0  0  0  0  0  0  0  0  0  0
   -4.4599    4.2380    2.6416 H   0  0  0  0  0  0  0  0  0  0  0  0
   -6.1091    3.5891    2.9344 H   0  0  0  0  0  0  0  0  0  0  0  0
  1  3  1  0  0  0  0
  1  7  1  0  0  0  0
  1  2  2  0  0  0  0
 40 41  1  0  0  0  0
 41 49  1  0  0  0  0
 41 42  2  0  0  0  0
  8  9  1  0  0  0  0
  9 17  1  0  0  0  0
  9 10  2  0  0  0  0
 18 19  1  0  0  0  0
 19 39  1  0  0  0  0
 19 20  2  0  0  0  0
 40 43  1  0  0  0  0
  8 11  1  0  0  0  0
 49 50  1  0  0  0  0
 22 23  1  0  0  0  0
 21 22  1  0  0  0  0
 23 24  1  0  0  0  0
 18 21  1  0  0  0  0
 24 25  1  0  0  0  0
 39 40  1  0  0  0  0
  7  8  1  0  0  0  0
 17 18  1  0  0  0  0
  3  4  1  0  0  0  0
  3  5  1  0  0  0  0
  3  6  1  0  0  0  0
 43 46  1  0  0  0  0
 43 47  1  0  0  0  0
 43 48  1  0  0  0  0
 11 14  1  0  0  0  0
 11 15  1  0  0  0  0
 11 16  1  0  0  0  0
 50 52  1  0  0  0  0
 50 53  1  0  0  0  0
 50 54  1  0  0  0  0
 22 30  1  0  0  0  0
 22 31  1  0  0  0  0
 23 32  1  0  0  0  0
 23 33  1  0  0  0  0
 21 28  1  0  0  0  0
 21 29  1  0  0  0  0
 24 34  1  0  0  0  0
 24 35  1  0  0  0  0
 40 45  1  0  0  0  0
  8 13  1  0  0  0  0
 18 27  1  0  0  0  0
 49 51  1  0  0  0  0
  7 12  1  0  0  0  0
 39 44  1  0  0  0  0
 17 26  1  0  0  0  0
 25 36  1  0  0  0  0
 25 37  1  0  0  0  0
 25 38  1  0  0  0  0
M  CHG  1  25   1
M  END
$$$$

  -OEChem-05262214473D

 54 53  0     1  0  0  0  0  0999 V2000
    2.6714    2.8829   -3.0005 C   0  0  0  0  0  0  0  0  0  0  0  0
    3.1741    2.4398   -1.9745 O   0  0  0  0  0  0  0  0  0  0  0  0
    3.5527    3.3077   -4.1279 C   0  0  0  0  0  0  0  0  0  0  0  0
    3.8407    4.3691   -4.0597 H   0  0  0  0  0  0  0  0  0  0  0  0
    4.5024    2.7495   -4.1526 H   0  0  0  0  0  0  0  0  0  0  0  0
    3.1208    3.1887   -5.1345 H   0  0  0  0  0  0  0  0  0  0  0  0
    1.3174    3.0407   -3.2467 N   0  0  0  0  0  0  0  0  0  0  0  0
    0.2944    2.6927   -2.2960 C   0  0  2  0  0  0  0  0  0  0  0  0
    0.2976    1.1783   -2.1349 C   0  0  0  0  0  0  0  0  0  0  0  0
    0.7500    0.4142   -2.9850 O   0  0  0  0  0  0  0  0  0  0  0  0
   -1.0710    3.1886   -2.7460 C   0  0  0  0  0  0  0  0  0  0  0  0
    1.0312    3.4224   -4.1464 H   0  0  0  0  0  0  0  0  0  0  0  0
    0.5725    3.1622   -1.3461 H   0  0  0  0  0  0  0  0  0  0  0  0
   -1.3666    2.7292   -3.6963 H   0  0  0  0  0  0  0  0  0  0  0  0
   -1.8434    2.9482   -2.0082 H   0  0  0  0  0  0  0  0  0  0  0  0
   -1.0632    4.2744   -2.8901 H   0  0  0  0  0  0  0  0  0  0  0  0
   -0.3037    0.7742   -0.9484 N   0  0  0  0  0  0  0  0  0  0  0  0
   -0.4352   -0.6095   -0.5718 C   0  0  2  0  0  0  0  0  0  0  0  0
   -1.6890   -0.7702    0.2816 C   0  0  0  0  0  0  0  0  0  0  0  0
   -2.1857   -1.8638    0.5438 O   0  0  0  0  0  0  0  0  0  0  0  0
    0.8275   -1.1383    0.1187 C   0  0  0  0  0  0  0  0  0  0  0  0
    2.0487   -1.2427   -0.8042 C   0  0  0  0  0  0  0  0  0  0  0  0
    3.2616   -1.7993   -0.0549 C   0  0  0  0  0  0  0  0  0  0  0  0
    4.4772   -1.8784   -0.9666 C   0  0  0  0  0  0  0  0  0  0  0  0
    5.6308   -2.3986   -0.1942 N   0  3  0  0  0  0  0  0  0  0  0  0
   -0.6336    1.4811   -0.2948 H   0  0  0  0  0  0  0  0  0  0  0  0
   -0.5892   -1.1614   -1.5070 H   0  0  0  0  0  0  0  0  0  0  0  0
    1.0746   -0.4763    0.9588 H   0  0  0  0  0  0  0  0  0  0  0  0
    0.6219   -2.1270    0.5473 H   0  0  0  0  0  0  0  0  0  0  0  0
    1.8206   -1.8957   -1.6546 H   0  0  0  0  0  0  0  0  0  0  0  0
    2.2974   -0.2552   -1.2101 H   0  0  0  0  0  0  0  0  0  0  0  0
    3.0254   -2.7965    0.3369 H   0  0  0  0  0  0  0  0  0  0  0  0
    3.4853   -1.1598    0.8080 H   0  0  0  0  0  0  0  0  0  0  0  0
    4.3187   -2.5663   -1.8025 H   0  0  0  0  0  0  0  0  0  0  0  0
    4.7681   -0.8953   -1.3484 H   0  0  0  0  0  0  0  0  0  0  0  0
    6.5174   -2.1629   -0.6534 H   0  0  0  0  0  0  0  0  0  0  0  0
    5.5832   -3.4198   -0.1060 H   0  0  0  0  0  0  0  0  0  0  0  0
    5.6497   -2.0009    0.7514 H   0  0  0  0  0  0  0  0  0  0  0  0
   -2.1702    0.4463    0.7439 N   0  0  0  0  0  0  0  0  0  0  0  0
   -3.3391    0.5415    1.5854 C   0  0  2  0  0  0  0  0  0  0  0  0
   -3.7655    2.0027    1.6346 C   0  0  0  0  0  0  0  0  0  0  0  0
   -2.9988    2.9336    1.3964 O   0  0  0  0  0  0  0  0  0  0  0  0
   -3.0599    0.0094    2.9825 C   0  0  0  0  0  0  0  0  0  0  0  0
   -1.6837    1.2983    0.4813 H   0  0  0  0  0  0  0  0  0  0  0  0
   -4.1240   -0.0526    1.1049 H   0  0  0  0  0  0  0  0  0  0  0  0
   -2.2760    0.5922    3.4798 H   0  0  0  0  0  0  0  0  0  0  0  0
   -3.9553    0.0559    3.6110 H   0  0  0  0  0  0  0  0  0  0  0  0
   -2.7248   -1.0327    2.9429 H   0  0  0  0  0  0  0  0  0  0  0  0
   -5.0916    2.1468    2.0179 N   0  0  0  0  0  0  0  0  0  0  0  0
   -5.7290    3.4360    2.1509 C   0  0  0  0  0  0  0  0  0  0  0  0
   -5.6584    1.3191    2.1774 H   0  0  0  0  0  0  0  0  0  0  0  0
   -5.6387    3.7847    3.1902 H   0  0  0  0  0  0  0  0  0  0  0  0
   -5.2412    4.1572    1.4786 H   0  0  0  0  0  0  0  0  0  0  0  0
   -6.7927    3.3482    1.8848 H   0  0  0  0  0  0  0  0  0  0  0  0
  1  3  1  0  0  0  0
  1  7  1  0  0  0  0
  1  2  2  0  0  0  0
 40 41  1  0  0  0  0
 41 49  1  0  0  0  0
 41 42  2  0  0  0  0
  8  9  1  0  0  0  0
  9 17  1  0  0  0  0
  9 10  2  0  0  0  0
 18 19  1  0  0  0  0
 19 39  1  0  0  0  0
 19 20  2  0  0  0  0
 40 43  1  0  0  0  0
  8 11  1  0  0  0  0
 49 50  1  0  0  0  0
 22 23  1  0  0  0  0
 21 22  1  0  0  0  0
 23 24  1  0  0  0  0
 18 21  1  0  0  0  0
 24 25  1  0  0  0  0
 39 40  1  0  0  0  0
  7  8  1  0  0  0  0
 17 18  1  0  0  0  0
  3  4  1  0  0  0  0
  3  5  1  0  0  0  0
  3  6  1  0  0  0  0
 43 46  1  0  0  0  0
 43 47  1  0  0  0  0
 43 48  1  0  0  0  0
 11 14  1  0  0  0  0
 11 15  1  0  0  0  0
 11 16  1  0  0  0  0
 50 52  1  0  0  0  0
 50 53  1  0  0  0  0
 50 54  1  0  0  0  0
 22 30  1  0  0  0  0
 22 31  1  0  0  0  0
 23 32  1  0  0  0  0
 23 33  1  0  0  0  0
 21 28  1  0  0  0  0
 21 29  1  0  0  0  0
 24 34  1  0  0  0  0
 24 35  1  0  0  0  0
 40 45  1  0  0  0  0
  8 13  1  0  0  0  0
 18 27  1  0  0  0  0
 49 51  1  0  0  0  0
  7 12  1  0  0  0  0
 39 44  1  0  0  0  0
 17 26  1  0  0  0  0
 25 36  1  0  0  0  0
 25 37  1  0  0  0  0
 25 38  1  0  0  0  0
M  CHG  1  25   1
M  END
$$$$

  -OEChem-05262214473D

 54 53  0     1  0  0  0  0  0999 V2000
    2.6714    2.8829   -3.0005 C   0  0  0  0  0  0  0  0  0  0  0  0
    3.1741    2.4398   -1.9745 O   0  0  0  0  0  0  0  0  0  0  0  0
    3.5527    3.3077   -4.1279 C   0  0  0  0  0  0  0  0  0  0  0  0
    3.8407    4.3691   -4.0597 H   0  0  0  0  0  0  0  0  0  0  0  0
    4.5024    2.7495   -4.1526 H   0  0  0  0  0  0  0  0  0  0  0  0
    3.1208    3.1887   -5.1345 H   0  0  0  0  0  0  0  0  0  0  0  0
    1.3174    3.0407   -3.2467 N   0  0  0  0  0  0  0  0  0  0  0  0
    0.2944    2.6927   -2.2960 C   0  0  2  0  0  0  0  0  0  0  0  0
    0.2976    1.1783   -2.1349 C   0  0  0  0  0  0  0  0  0  0  0  0
    0.7500    0.4142   -2.9850 O   0  0  0  0  0  0  0  0  0  0  0  0
   -1.0710    3.1886   -2.7460 C   0  0  0  0  0  0  0  0  0  0  0  0
    1.0312    3.4224   -4.1464 H   0  0  0  0  0  0  0  0  0  0  0  0
    0.5725    3.1622   -1.3461 H   0  0  0  0  0  0  0  0  0  0  0  0
   -1.3666    2.7292   -3.6963 H   0  0  0  0  0  0  0  0  0  0  0  0
   -1.8434    2.9482   -2.0082 H   0  0  0  0  0  0  0  0  0  0  0  0
   -1.0632    4.2744   -2.8901 H   0  0  0  0  0  0  0  0  0  0  0  0
   -0.3037    0.7742   -0.9484 N   0  0  0  0  0  0  0  0  0  0  0  0
   -0.4352   -0.6095   -0.5718 C   0  0  2  0  0  0  0  0  0  0  0  0
   -1.6890   -0.7702    0.2816 C   0  0  0  0  0  0  0  0  0  0  0  0
   -2.0363   -1.8451    0.7668 O   0  0  0  0  0  0  0  0  0  0  0  0
    0.8275   -1.1383    0.1187 C   0  0  0  0  0  0  0  0  0  0  0  0
    2.0487   -1.2427   -0.8042 C   0  0  0  0  0  0  0  0  0  0  0  0
    3.2616   -1.7993   -0.0549 C   0  0  0  0  0  0  0  0  0  0  0  0
    4.4772   -1.8784   -0.9666 C   0  0  0  0  0  0  0  0  0  0  0  0
    5.6308   -2.3986   -0.1942 N   0  3  0  0  0  0  0  0  0  0  0  0
   -0.6336    1.4811   -0.2948 H   0  0  0  0  0  0  0  0  0  0  0  0
   -0.5892   -1.1614   -1.5070 H   0  0  0  0  0  0  0  0  0  0  0  0
    1.0746   -0.4763    0.9588 H   0  0  0  0  0  0  0  0  0  0  0  0
    0.6219   -2.1270    0.5473 H   0  0  0  0  0  0  0  0  0  0  0  0
    1.8206   -1.8957   -1.6546 H   0  0  0  0  0  0  0  0  0  0  0  0
    2.2974   -0.2552   -1.2101 H   0  0  0  0  0  0  0  0  0  0  0  0
    3.0254   -2.7965    0.3369 H   0  0  0  0  0  0  0  0  0  0  0  0
    3.4853   -1.1598    0.8080 H   0  0  0  0  0  0  0  0  0  0  0  0
    4.3187   -2.5663   -1.8025 H   0  0  0  0  0  0  0  0  0  0  0  0
    4.7681   -0.8953   -1.3484 H   0  0  0  0  0  0  0  0  0  0  0  0
    6.5174   -2.1629   -0.6534 H   0  0  0  0  0  0  0  0  0  0  0  0
    5.5832   -3.4198   -0.1060 H   0  0  0  0  0  0  0  0  0  0  0  0
    5.6497   -2.0009    0.7514 H   0  0  0  0  0  0  0  0  0  0  0  0
   -2.3573    0.4316    0.4662 N   0  0  0  0  0  0  0  0  0  0  0  0
   -3.5630    0.5282    1.2541 C   0  0  2  0  0  0  0  0  0  0  0  0
   -4.1941    1.8876    0.9833 C   0  0  0  0  0  0  0  0  0  0  0  0
   -3.5577    2.8502    0.5596 O   0  0  0  0  0  0  0  0  0  0  0  0
   -3.2714    0.3498    2.7359 C   0  0  0  0  0  0  0  0  0  0  0  0
   -1.9858    1.2715    0.0324 H   0  0  0  0  0  0  0  0  0  0  0  0
   -4.2343   -0.2632    0.9033 H   0  0  0  0  0  0  0  0  0  0  0  0
   -2.6002    1.1336    3.1055 H   0  0  0  0  0  0  0  0  0  0  0  0
   -4.1905    0.3949    3.3294 H   0  0  0  0  0  0  0  0  0  0  0  0
   -2.7904   -0.6160    2.9250 H   0  0  0  0  0  0  0  0  0  0  0  0
   -5.5424    1.9116    1.3113 N   0  0  0  0  0  0  0  0  0  0  0  0
   -6.3614    3.0912    1.1569 C   0  0  0  0  0  0  0  0  0  0  0  0
   -5.9924    1.0617    1.6382 H   0  0  0  0  0  0  0  0  0  0  0  0
   -6.3662    3.6606    2.0981 H   0  0  0  0  0  0  0  0  0  0  0  0
   -5.9524    3.7185    0.3512 H   0  0  0  0  0  0  0  0  0  0  0  0
   -7.3895    2.7931    0.9036 H   0  0  0  0  0  0  0  0  0  0  0  0
  1  3  1  0  0  0  0
  1  7  1  0  0  0  0
  1  2  2  0  0  0  0
 40 41  1  0  0  0  0
 41 49  1  0  0  0  0
 41 42  2  0  0  0  0
  8  9  1  0  0  0  0
  9 17  1  0  0  0  0
  9 10  2  0  0  0  0
 18 19  1  0  0  0  0
 19 39  1  0  0  0  0
 19 20  2  0  0  0  0
 40 43  1  0  0  0  0
  8 11  1  0  0  0  0
 49 50  1  0  0  0  0
 22 23  1  0  0  0  0
 21 22  1  0  0  0  0
 23 24  1  0  0  0  0
 18 21  1  0  0  0  0
 24 25  1  0  0  0  0
 39 40  1  0  0  0  0
  7  8  1  0  0  0  0
 17 18  1  0  0  0  0
  3  4  1  0  0  0  0
  3  5  1  0  0  0  0
  3  6  1  0  0  0  0
 43 46  1  0  0  0  0
 43 47  1  0  0  0  0
 43 48  1  0  0  0  0
 11 14  1  0  0  0  0
 11 15  1  0  0  0  0
 11 16  1  0  0  0  0
 50 52  1  0  0  0  0
 50 53  1  0  0  0  0
 50 54  1  0  0  0  0
 22 30  1  0  0  0  0
 22 31  1  0  0  0  0
 23 32  1  0  0  0  0
 23 33  1  0  0  0  0
 21 28  1  0  0  0  0
 21 29  1  0  0  0  0
 24 34  1  0  0  0  0
 24 35  1  0  0  0  0
 40 45  1  0  0  0  0
  8 13  1  0  0  0  0
 18 27  1  0  0  0  0
 49 51  1  0  0  0  0
  7 12  1  0  0  0  0
 39 44  1  0  0  0  0
 17 26  1  0  0  0  0
 25 36  1  0  0  0  0
 25 37  1  0  0  0  0
 25 38  1  0  0  0  0
M  CHG  1  25   1
M  END
$$$$

  -OEChem-05262214473D

 54 53  0     1  0  0  0  0  0999 V2000
    2.6714    2.8829   -3.0005 C   0  0  0  0  0  0  0  0  0  0  0  0
    3.1741    2.4398   -1.9745 O   0  0  0  0  0  0  0  0  0  0  0  0
    3.5527    3.3077   -4.1279 C   0  0  0  0  0  0  0  0  0  0  0  0
    3.8407    4.3691   -4.0597 H   0  0  0  0  0  0  0  0  0  0  0  0
    4.5024    2.7495   -4.1526 H   0  0  0  0  0  0  0  0  0  0  0  0
    3.1208    3.1887   -5.1345 H   0  0  0  0  0  0  0  0  0  0  0  0
    1.3174    3.0407   -3.2467 N   0  0  0  0  0  0  0  0  0  0  0  0
    0.2944    2.6927   -2.2960 C   0  0  2  0  0  0  0  0  0  0  0  0
    0.2976    1.1783   -2.1349 C   0  0  0  0  0  0  0  0  0  0  0  0
    0.7500    0.4142   -2.9850 O   0  0  0  0  0  0  0  0  0  0  0  0
   -1.0710    3.1886   -2.7460 C   0  0  0  0  0  0  0  0  0  0  0  0
    1.0312    3.4224   -4.1464 H   0  0  0  0  0  0  0  0  0  0  0  0
    0.5725    3.1622   -1.3461 H   0  0  0  0  0  0  0  0  0  0  0  0
   -1.3666    2.7292   -3.6963 H   0  0  0  0  0  0  0  0  0  0  0  0
   -1.8434    2.9482   -2.0082 H   0  0  0  0  0  0  0  0  0  0  0  0
   -1.0632    4.2744   -2.8901 H   0  0  0  0  0  0  0  0  0  0  0  0
   -0.3037    0.7742   -0.9484 N   0  0  0  0  0  0  0  0  0  0  0  0
   -0.4352   -0.6095   -0.5718 C   0  0  2  0  0  0  0  0  0  0  0  0
   -1.6890   -0.7702    0.2816 C   0  0  0  0  0  0  0  0  0  0  0  0
   -1.9008   -1.7579    0.9823 O   0  0  0  0  0  0  0  0  0  0  0  0
    0.8275   -1.1383    0.1187 C   0  0  0  0  0  0  0  0  0  0  0  0
    2.0487   -1.2427   -0.8042 C   0  0  0  0  0  0  0  0  0  0  0  0
    3.2616   -1.7993   -0.0549 C   0  0  0  0  0  0  0  0  0  0  0  0
    4.4772   -1.8784   -0.9666 C   0  0  0  0  0  0  0  0  0  0  0  0
    5.6308   -2.3986   -0.1942 N   0  3  0  0  0  0  0  0  0  0  0  0
   -0.6336    1.4811   -0.2948 H   0  0  0  0  0  0  0  0  0  0  0  0
   -0.5892   -1.1614   -1.5070 H   0  0  0  0  0  0  0  0  0  0  0  0
    1.0746   -0.4763    0.9588 H   0  0  0  0  0  0  0  0  0  0  0  0
    0.6219   -2.1270    0.5473 H   0  0  0  0  0  0  0  0  0  0  0  0
    1.8206   -1.8957   -1.6546 H   0  0  0  0  0  0  0  0  0  0  0  0
    2.2974   -0.2552   -1.2101 H   0  0  0  0  0  0  0  0  0  0  0  0
    3.0254   -2.7965    0.3369 H   0  0  0  0  0  0  0  0  0  0  0  0
    3.4853   -1.1598    0.8080 H   0  0  0  0  0  0  0  0  0  0  0  0
    4.3187   -2.5663   -1.8025 H   0  0  0  0  0  0  0  0  0  0  0  0
    4.7681   -0.8953   -1.3484 H   0  0  0  0  0  0  0  0  0  0  0  0
    6.5174   -2.1629   -0.6534 H   0  0  0  0  0  0  0  0  0  0  0  0
    5.5832   -3.4198   -0.1060 H   0  0  0  0  0  0  0  0  0  0  0  0
    5.6497   -2.0009    0.7514 H   0  0  0  0  0  0  0  0  0  0  0  0
   -2.5284    0.3312    0.1960 N   0  0  0  0  0  0  0  0  0  0  0  0
   -3.7682    0.4125    0.9307 C   0  0  2  0  0  0  0  0  0  0  0  0
   -4.5736    1.5757    0.3670 C   0  0  0  0  0  0  0  0  0  0  0  0
   -4.0626    2.5106   -0.2461 O   0  0  0  0  0  0  0  0  0  0  0  0
   -3.5182    0.5955    2.4196 C   0  0  0  0  0  0  0  0  0  0  0  0
   -2.2615    1.1063   -0.4037 H   0  0  0  0  0  0  0  0  0  0  0  0
   -4.3048   -0.5254    0.7503 H   0  0  0  0  0  0  0  0  0  0  0  0
   -2.9815    1.5300    2.6200 H   0  0  0  0  0  0  0  0  0  0  0  0
   -4.4590    0.6283    2.9788 H   0  0  0  0  0  0  0  0  0  0  0  0
   -2.9136   -0.2268    2.8172 H   0  0  0  0  0  0  0  0  0  0  0  0
   -5.9245    1.4688    0.6665 N   0  0  0  0  0  0  0  0  0  0  0  0
   -6.8952    2.4551    0.2529 C   0  0  0  0  0  0  0  0  0  0  0  0
   -6.2630    0.6500    1.1631 H   0  0  0  0  0  0  0  0  0  0  0  0
   -7.0212    3.2029    1.0497 H   0  0  0  0  0  0  0  0  0  0  0  0
   -6.5451    2.9519   -0.6640 H   0  0  0  0  0  0  0  0  0  0  0  0
   -7.8587    1.9617    0.0576 H   0  0  0  0  0  0  0  0  0  0  0  0
  1  3  1  0  0  0  0
  1  7  1  0  0  0  0
  1  2  2  0  0  0  0
 40 41  1  0  0  0  0
 41 49  1  0  0  0  0
 41 42  2  0  0  0  0
  8  9  1  0  0  0  0
  9 17  1  0  0  0  0
  9 10  2  0  0  0  0
 18 19  1  0  0  0  0
 19 39  1  0  0  0  0
 19 20  2  0  0  0  0
 40 43  1  0  0  0  0
  8 11  1  0  0  0  0
 49 50  1  0  0  0  0
 22 23  1  0  0  0  0
 21 22  1  0  0  0  0
 23 24  1  0  0  0  0
 18 21  1  0  0  0  0
 24 25  1  0  0  0  0
 39 40  1  0  0  0  0
  7  8  1  0  0  0  0
 17 18  1  0  0  0  0
  3  4  1  0  0  0  0
  3  5  1  0  0  0  0
  3  6  1  0  0  0  0
 43 46  1  0  0  0  0
 43 47  1  0  0  0  0
 43 48  1  0  0  0  0
 11 14  1  0  0  0  0
 11 15  1  0  0  0  0
 11 16  1  0  0  0  0
 50 52  1  0  0  0  0
 50 53  1  0  0  0  0
 50 54  1  0  0  0  0
 22 30  1  0  0  0  0
 22 31  1  0  0  0  0
 23 32  1  0  0  0  0
 23 33  1  0  0  0  0
 21 28  1  0  0  0  0
 21 29  1  0  0  0  0
 24 34  1  0  0  0  0
 24 35  1  0  0  0  0
 40 45  1  0  0  0  0
  8 13  1  0  0  0  0
 18 27  1  0  0  0  0
 49 51  1  0  0  0  0
  7 12  1  0  0  0  0
 39 44  1  0  0  0  0
 17 26  1  0  0  0  0
 25 36  1  0  0  0  0
 25 37  1  0  0  0  0
 25 38  1  0  0  0  0
M  CHG  1  25   1
M  END
$$$$

  -OEChem-05262214473D

 54 53  0     1  0  0  0  0  0999 V2000
    2.6714    2.8829   -3.0005 C   0  0  0  0  0  0  0  0  0  0  0  0
    3.1741    2.4398   -1.9745 O   0  0  0  0  0  0  0  0  0  0  0  0
    3.5527    3.3077   -4.1279 C   0  0  0  0  0  0  0  0  0  0  0  0
    3.8407    4.3691   -4.0597 H   0  0  0  0  0  0  0  0  0  0  0  0
    4.5024    2.7495   -4.1526 H   0  0  0  0  0  0  0  0  0  0  0  0
    3.1208    3.1887   -5.1345 H   0  0  0  0  0  0  0  0  0  0  0  0
    1.3174    3.0407   -3.2467 N   0  0  0  0  0  0  0  0  0  0  0  0
    0.2944    2.6927   -2.2960 C   0  0  2  0  0  0  0  0  0  0  0  0
    0.2976    1.1783   -2.1349 C   0  0  0  0  0  0  0  0  0  0  0  0
    0.7500    0.4142   -2.9850 O   0  0  0  0  0  0  0  0  0  0  0  0
   -1.0710    3.1886   -2.7460 C   0  0  0  0  0  0  0  0  0  0  0  0
    1.0312    3.4224   -4.1464 H   0  0  0  0  0  0  0  0  0  0  0  0
    0.5725    3.1622   -1.3461 H   0  0  0  0  0  0  0  0  0  0  0  0
   -1.3666    2.7292   -3.6963 H   0  0  0  0  0  0  0  0  0  0  0  0
   -1.8434    2.9482   -2.0082 H   0  0  0  0  0  0  0  0  0  0  0  0
   -1.0632    4.2744   -2.8901 H   0  0  0  0  0  0  0  0  0  0  0  0
   -0.3037    0.7742   -0.9484 N   0  0  0  0  0  0  0  0  0  0  0  0
   -0.4352   -0.6095   -0.5718 C   0  0  2  0  0  0  0  0  0  0  0  0
   -1.6890   -0.7702    0.2816 C   0  0  0  0  0  0  0  0  0  0  0  0
   -1.7884   -1.6083    1.1756 O   0  0  0  0  0  0  0  0  0  0  0  0
    0.8275   -1.1383    0.1187 C   0  0  0  0  0  0  0  0  0  0  0  0
    2.0487   -1.2427   -0.8042 C   0  0  0  0  0  0  0  0  0  0  0  0
    3.2616   -1.7993   -0.0549 C   0  0  0  0  0  0  0  0  0  0  0  0
    4.4772   -1.8784   -0.9666 C   0  0  0  0  0  0  0  0  0  0  0  0
    5.6308   -2.3986   -0.1942 N   0  3  0  0  0  0  0  0  0  0  0  0
   -0.6336    1.4811   -0.2948 H   0  0  0  0  0  0  0  0  0  0  0  0
   -0.5892   -1.1614   -1.5070 H   0  0  0  0  0  0  0  0  0  0  0  0
    1.0746   -0.4763    0.9588 H   0  0  0  0  0  0  0  0  0  0  0  0
    0.6219   -2.1270    0.5473 H   0  0  0  0  0  0  0  0  0  0  0  0
    1.8206   -1.8957   -1.6546 H   0  0  0  0  0  0  0  0  0  0  0  0
    2.2974   -0.2552   -1.2101 H   0  0  0  0  0  0  0  0  0  0  0  0
    3.0254   -2.7965    0.3369 H   0  0  0  0  0  0  0  0  0  0  0  0
    3.4853   -1.1598    0.8080 H   0  0  0  0  0  0  0  0  0  0  0  0
    4.3187   -2.5663   -1.8025 H   0  0  0  0  0  0  0  0  0  0  0  0
    4.7681   -0.8953   -1.3484 H   0  0  0  0  0  0  0  0  0  0  0  0
    6.5174   -2.1629   -0.6534 H   0  0  0  0  0  0  0  0  0  0  0  0
    5.5832   -3.4198   -0.1060 H   0  0  0  0  0  0  0  0  0  0  0  0
    5.6497   -2.0009    0.7514 H   0  0  0  0  0  0  0  0  0  0  0  0
   -2.6717    0.1521   -0.0483 N   0  0  0  0  0  0  0  0  0  0  0  0
   -3.9409    0.2022    0.6374 C   0  0  2  0  0  0  0  0  0  0  0  0
   -4.8782    1.0884   -0.1723 C   0  0  0  0  0  0  0  0  0  0  0  0
   -4.4792    1.9381   -0.9659 O   0  0  0  0  0  0  0  0  0  0  0  0
   -3.7835    0.7297    2.0550 C   0  0  0  0  0  0  0  0  0  0  0  0
   -2.4920    0.8141   -0.7973 H   0  0  0  0  0  0  0  0  0  0  0  0
   -4.3308   -0.8214    0.6564 H   0  0  0  0  0  0  0  0  0  0  0  0
   -3.3939    1.7543    2.0562 H   0  0  0  0  0  0  0  0  0  0  0  0
   -4.7427    0.7403    2.5832 H   0  0  0  0  0  0  0  0  0  0  0  0
   -3.0861    0.1083    2.6270 H   0  0  0  0  0  0  0  0  0  0  0  0
   -6.2119    0.8486    0.1275 N   0  0  0  0  0  0  0  0  0  0  0  0
   -7.2940    1.5710   -0.4995 C   0  0  0  0  0  0  0  0  0  0  0  0
   -6.4518    0.1120    0.7844 H   0  0  0  0  0  0  0  0  0  0  0  0
   -7.5590    2.4430    0.1166 H   0  0  0  0  0  0  0  0  0  0  0  0
   -6.9790    1.9096   -1.4976 H   0  0  0  0  0  0  0  0  0  0  0  0
   -8.1685    0.9107   -0.5954 H   0  0  0  0  0  0  0  0  0  0  0  0
  1  3  1  0  0  0  0
  1  7  1  0  0  0  0
  1  2  2  0  0  0  0
 40 41  1  0  0  0  0
 41 49  1  0  0  0  0
 41 42  2  0  0  0  0
  8  9  1  0  0  0  0
  9 17  1  0  0  0  0
  9 10  2  0  0  0  0
 18 19  1  0  0  0  0
 19 39  1  0  0  0  0
 19 20  2  0  0  0  0
 40 43  1  0  0  0  0
  8 11  1  0  0  0  0
 49 50  1  0  0  0  0
 22 23  1  0  0  0  0
 21 22  1  0  0  0  0
 23 24  1  0  0  0  0
 18 21  1  0  0  0  0
 24 25  1  0  0  0  0
 39 40  1  0  0  0  0
  7  8  1  0  0  0  0
 17 18  1  0  0  0  0
  3  4  1  0  0  0  0
  3  5  1  0  0  0  0
  3  6  1  0  0  0  0
 43 46  1  0  0  0  0
 43 47  1  0  0  0  0
 43 48  1  0  0  0  0
 11 14  1  0  0  0  0
 11 15  1  0  0  0  0
 11 16  1  0  0  0  0
 50 52  1  0  0  0  0
 50 53  1  0  0  0  0
 50 54  1  0  0  0  0
 22 30  1  0  0  0  0
 22 31  1  0  0  0  0
 23 32  1  0  0  0  0
 23 33  1  0  0  0  0
 21 28  1  0  0  0  0
 21 29  1  0  0  0  0
 24 34  1  0  0  0  0
 24 35  1  0  0  0  0
 40 45  1  0  0  0  0
  8 13  1  0  0  0  0
 18 27  1  0  0  0  0
 49 51  1  0  0  0  0
  7 12  1  0  0  0  0
 39 44  1  0  0  0  0
 17 26  1  0  0  0  0
 25 36  1  0  0  0  0
 25 37  1  0  0  0  0
 25 38  1  0  0  0  0
M  CHG  1  25   1
M  END
$$$$

  -OEChem-05262214473D

 54 53  0     1  0  0  0  0  0999 V2000
    2.6714    2.8829   -3.0005 C   0  0  0  0  0  0  0  0  0  0  0  0
    3.1741    2.4398   -1.9745 O   0  0  0  0  0  0  0  0  0  0  0  0
    3.5527    3.3077   -4.1279 C   0  0  0  0  0  0  0  0  0  0  0  0
    3.8407    4.3691   -4.0597 H   0  0  0  0  0  0  0  0  0  0  0  0
    4.5024    2.7495   -4.1526 H   0  0  0  0  0  0  0  0  0  0  0  0
    3.1208    3.1887   -5.1345 H   0  0  0  0  0  0  0  0  0  0  0  0
    1.3174    3.0407   -3.2467 N   0  0  0  0  0  0  0  0  0  0  0  0
    0.2944    2.6927   -2.2960 C   0  0  2  0  0  0  0  0  0  0  0  0
    0.2976    1.1783   -2.1349 C   0  0  0  0  0  0  0  0  0  0  0  0
    0.7500    0.4142   -2.9850 O   0  0  0  0  0  0  0  0  0  0  0  0
   -1.0710    3.1886   -2.7460 C   0  0  0  0  0  0  0  0  0  0  0  0
    1.0312    3.4224   -4.1464 H   0  0  0  0  0  0  0  0  0  0  0  0
    0.5725    3.1622   -1.3461 H   0  0  0  0  0  0  0  0  0  0  0  0
   -1.3666    2.7292   -3.6963 H   0  0  0  0  0  0  0  0  0  0  0  0
   -1.8434    2.9482   -2.0082 H   0  0  0  0  0  0  0  0  0  0  0  0
   -1.0632    4.2744   -2.8901 H   0  0  0  0  0  0  0  0  0  0  0  0
   -0.3037    0.7742   -0.9484 N   0  0  0  0  0  0  0  0  0  0  0  0
   -0.4352   -0.6095   -0.5718 C   0  0  2  0  0  0  0  0  0  0  0  0
   -1.6890   -0.7702    0.2816 C   0  0  0  0  0  0  0  0  0  0  0  0
   -1.7068   -1.4063    1.3335 O   0  0  0  0  0  0  0  0  0  0  0  0
    0.8275   -1.1383    0.1187 C   0  0  0  0  0  0  0  0  0  0  0  0
    2.0487   -1.2427   -0.8042 C   0  0  0  0  0  0  0  0  0  0  0  0
    3.2616   -1.7993   -0.0549 C   0  0  0  0  0  0  0  0  0  0  0  0
    4.4772   -1.8784   -0.9666 C   0  0  0  0  0  0  0  0  0  0  0  0
    5.6308   -2.3986   -0.1942 N   0  3  0  0  0  0  0  0  0  0  0  0
   -0.6336    1.4811   -0.2948 H   0  0  0  0  0  0  0  0  0  0  0  0
   -0.5892   -1.1614   -1.5070 H   0  0  0  0  0  0  0  0  0  0  0  0
    1.0746   -0.4763    0.9588 H   0  0  0  0  0  0  0  0  0  0  0  0
    0.6219   -2.1270    0.5473 H   0  0  0  0  0  0  0  0  0  0  0  0
    1.8206   -1.8957   -1.6546 H   0  0  0  0  0  0  0  0  0  0  0  0
    2.2974   -0.2552   -1.2101 H   0  0  0  0  0  0  0  0  0  0  0  0
    3.0254   -2.7965    0.3369 H   0  0  0  0  0  0  0  0  0  0  0  0
    3.4853   -1.1598    0.8080 H   0  0  0  0  0  0  0  0  0  0  0  0
    4.3187   -2.5663   -1.8025 H   0  0  0  0  0  0  0  0  0  0  0  0
    4.7681   -0.8953   -1.3484 H   0  0  0  0  0  0  0  0  0  0  0  0
    6.5174   -2.1629   -0.6534 H   0  0  0  0  0  0  0  0  0  0  0  0
    5.5832   -3.4198   -0.1060 H   0  0  0  0  0  0  0  0  0  0  0  0
    5.6497   -2.0009    0.7514 H   0  0  0  0  0  0  0  0  0  0  0  0
   -2.7775   -0.0938   -0.2500 N   0  0  0  0  0  0  0  0  0  0  0  0
   -4.0693   -0.0884    0.3941 C   0  0  2  0  0  0  0  0  0  0  0  0
   -5.0872    0.4588   -0.5978 C   0  0  0  0  0  0  0  0  0  0  0  0
   -4.7790    1.1716   -1.5507 O   0  0  0  0  0  0  0  0  0  0  0  0
   -4.0494    0.7434    1.6671 C   0  0  0  0  0  0  0  0  0  0  0  0
   -2.6615    0.4146   -1.1216 H   0  0  0  0  0  0  0  0  0  0  0  0
   -4.3104   -1.1311    0.6280 H   0  0  0  0  0  0  0  0  0  0  0  0
   -3.8095    1.7913    1.4527 H   0  0  0  0  0  0  0  0  0  0  0  0
   -5.0221    0.7232    2.1695 H   0  0  0  0  0  0  0  0  0  0  0  0
   -3.2960    0.3665    2.3672 H   0  0  0  0  0  0  0  0  0  0  0  0
   -6.3850    0.0932   -0.2690 N   0  0  0  0  0  0  0  0  0  0  0  0
   -7.5307    0.4992   -1.0491 C   0  0  0  0  0  0  0  0  0  0  0  0
   -6.5459   -0.5156    0.5280 H   0  0  0  0  0  0  0  0  0  0  0  0
   -7.9429    1.4325   -0.6377 H   0  0  0  0  0  0  0  0  0  0  0  0
   -7.2243    0.6626   -2.0928 H   0  0  0  0  0  0  0  0  0  0  0  0
   -8.2978   -0.2883   -1.0110 H   0  0  0  0  0  0  0  0  0  0  0  0
  1  3  1  0  0  0  0
  1  7  1  0  0  0  0
  1  2  2  0  0  0  0
 40 41  1  0  0  0  0
 41 49  1  0  0  0  0
 41 42  2  0  0  0  0
  8  9  1  0  0  0  0
  9 17  1  0  0  0  0
  9 10  2  0  0  0  0
 18 19  1  0  0  0  0
 19 39  1  0  0  0  0
 19 20  2  0  0  0  0
 40 43  1  0  0  0  0
  8 11  1  0  0  0  0
 49 50  1  0  0  0  0
 22 23  1  0  0  0  0
 21 22  1  0  0  0  0
 23 24  1  0  0  0  0
 18 21  1  0  0  0  0
 24 25  1  0  0  0  0
 39 40  1  0  0  0  0
  7  8  1  0  0  0  0
 17 18  1  0  0  0  0
  3  4  1  0  0  0  0
  3  5  1  0  0  0  0
  3  6  1  0  0  0  0
 43 46  1  0  0  0  0
 43 47  1  0  0  0  0
 43 48  1  0  0  0  0
 11 14  1  0  0  0  0
 11 15  1  0  0  0  0
 11 16  1  0  0  0  0
 50 52  1  0  0  0  0
 50 53  1  0  0  0  0
 50 54  1  0  0  0  0
 22 30  1  0  0  0  0
 22 31  1  0  0  0  0
 23 32  1  0  0  0  0
 23 33  1  0  0  0  0
 21 28  1  0  0  0  0
 21 29  1  0  0  0  0
 24 34  1  0  0  0  0
 24 35  1  0  0  0  0
 40 45  1  0  0  0  0
  8 13  1  0  0  0  0
 18 27  1  0  0  0  0
 49 51  1  0  0  0  0
  7 12  1  0  0  0  0
 39 44  1  0  0  0  0
 17 26  1  0  0  0  0
 25 36  1  0  0  0  0
 25 37  1  0  0  0  0
 25 38  1  0  0  0  0
M  CHG  1  25   1
M  END
$$$$

  -OEChem-05262214473D

 54 53  0     1  0  0  0  0  0999 V2000
    2.6714    2.8829   -3.0005 C   0  0  0  0  0  0  0  0  0  0  0  0
    3.1741    2.4398   -1.9745 O   0  0  0  0  0  0  0  0  0  0  0  0
    3.5527    3.3077   -4.1279 C   0  0  0  0  0  0  0  0  0  0  0  0
    3.8407    4.3691   -4.0597 H   0  0  0  0  0  0  0  0  0  0  0  0
    4.5024    2.7495   -4.1526 H   0  0  0  0  0  0  0  0  0  0  0  0
    3.1208    3.1887   -5.1345 H   0  0  0  0  0  0  0  0  0  0  0  0
    1.3174    3.0407   -3.2467 N   0  0  0  0  0  0  0  0  0  0  0  0
    0.2944    2.6927   -2.2960 C   0  0  2  0  0  0  0  0  0  0  0  0
    0.2976    1.1783   -2.1349 C   0  0  0  0  0  0  0  0  0  0  0  0
    0.7500    0.4142   -2.9850 O   0  0  0  0  0  0  0  0  0  0  0  0
   -1.0710    3.1886   -2.7460 C   0  0  0  0  0  0  0  0  0  0  0  0
    1.0312    3.4224   -4.1464 H   0  0  0  0  0  0  0  0  0  0  0  0
    0.5725    3.1622   -1.3461 H   0  0  0  0  0  0  0  0  0  0  0  0
   -1.3666    2.7292   -3.6963 H   0  0  0  0  0  0  0  0  0  0  0  0
   -1.8434    2.9482   -2.0082 H   0  0  0  0  0  0  0  0  0  0  0  0
   -1.0632    4.2744   -2.8901 H   0  0  0  0  0  0  0  0  0  0  0  0
   -0.3037    0.7742   -0.9484 N   0  0  0  0  0  0  0  0  0  0  0  0
   -0.4352   -0.6095   -0.5718 C   0  0  2  0  0  0  0  0  0  0  0  0
   -1.6890   -0.7702    0.2816 C   0  0  0  0  0  0  0  0  0  0  0  0
   -1.6615   -1.1658    1.4453 O   0  0  0  0  0  0  0  0  0  0  0  0
    0.8275   -1.1383    0.1187 C   0  0  0  0  0  0  0  0  0  0  0  0
    2.0487   -1.2427   -0.8042 C   0  0  0  0  0  0  0  0  0  0  0  0
    3.2616   -1.7993   -0.0549 C   0  0  0  0  0  0  0  0  0  0  0  0
    4.4772   -1.8784   -0.9666 C   0  0  0  0  0  0  0  0  0  0  0  0
    5.6308   -2.3986   -0.1942 N   0  3  0  0  0  0  0  0  0  0  0  0
   -0.6336    1.4811   -0.2948 H   0  0  0  0  0  0  0  0  0  0  0  0
   -0.5892   -1.1614   -1.5070 H   0  0  0  0  0  0  0  0  0  0  0  0
    1.0746   -0.4763    0.9588 H   0  0  0  0  0  0  0  0  0  0  0  0
    0.6219   -2.1270    0.5473 H   0  0  0  0  0  0  0  0  0  0  0  0
    1.8206   -1.8957   -1.6546 H   0  0  0  0  0  0  0  0  0  0  0  0
    2.2974   -0.2552   -1.2101 H   0  0  0  0  0  0  0  0  0  0  0  0
    3.0254   -2.7965    0.3369 H   0  0  0  0  0  0  0  0  0  0  0  0
    3.4853   -1.1598    0.8080 H   0  0  0  0  0  0  0  0  0  0  0  0
    4.3187   -2.5663   -1.8025 H   0  0  0  0  0  0  0  0  0  0  0  0
    4.7681   -0.8953   -1.3484 H   0  0  0  0  0  0  0  0  0  0  0  0
    6.5174   -2.1629   -0.6534 H   0  0  0  0  0  0  0  0  0  0  0  0
    5.5832   -3.4198   -0.1060 H   0  0  0  0  0  0  0  0  0  0  0  0
    5.6497   -2.0009    0.7514 H   0  0  0  0  0  0  0  0  0  0  0  0
   -2.8386   -0.3895   -0.3955 N   0  0  0  0  0  0  0  0  0  0  0  0
   -4.1446   -0.4394    0.2175 C   0  0  2  0  0  0  0  0  0  0  0  0
   -5.1862   -0.2701   -0.8806 C   0  0  0  0  0  0  0  0  0  0  0  0
   -4.9417    0.2634   -1.9607 O   0  0  0  0  0  0  0  0  0  0  0  0
   -4.2975    0.6356    1.2822 C   0  0  0  0  0  0  0  0  0  0  0  0
   -2.7586   -0.0647   -1.3545 H   0  0  0  0  0  0  0  0  0  0  0  0
   -4.2452   -1.4333    0.6670 H   0  0  0  0  0  0  0  0  0  0  0  0
   -4.1997    1.6384    0.8506 H   0  0  0  0  0  0  0  0  0  0  0  0
   -5.2782    0.5782    1.7660 H   0  0  0  0  0  0  0  0  0  0  0  0
   -3.5291    0.5303    2.0556 H   0  0  0  0  0  0  0  0  0  0  0  0
   -6.4320   -0.7459   -0.4960 N   0  0  0  0  0  0  0  0  0  0  0  0
   -7.5891   -0.6873   -1.3583 C   0  0  0  0  0  0  0  0  0  0  0  0
   -6.5390   -1.1900    0.4112 H   0  0  0  0  0  0  0  0  0  0  0  0
   -8.1468    0.2403   -1.1618 H   0  0  0  0  0  0  0  0  0  0  0  0
   -7.2644   -0.7041   -2.4091 H   0  0  0  0  0  0  0  0  0  0  0  0
   -8.2376   -1.5536   -1.1609 H   0  0  0  0  0  0  0  0  0  0  0  0
  1  3  1  0  0  0  0
  1  7  1  0  0  0  0
  1  2  2  0  0  0  0
 40 41  1  0  0  0  0
 41 49  1  0  0  0  0
 41 42  2  0  0  0  0
  8  9  1  0  0  0  0
  9 17  1  0  0  0  0
  9 10  2  0  0  0  0
 18 19  1  0  0  0  0
 19 39  1  0  0  0  0
 19 20  2  0  0  0  0
 40 43  1  0  0  0  0
  8 11  1  0  0  0  0
 49 50  1  0  0  0  0
 22 23  1  0  0  0  0
 21 22  1  0  0  0  0
 23 24  1  0  0  0  0
 18 21  1  0  0  0  0
 24 25  1  0  0  0  0
 39 40  1  0  0  0  0
  7  8  1  0  0  0  0
 17 18  1  0  0  0  0
  3  4  1  0  0  0  0
  3  5  1  0  0  0  0
  3  6  1  0  0  0  0
 43 46  1  0  0  0  0
 43 47  1  0  0  0  0
 43 48  1  0  0  0  0
 11 14  1  0  0  0  0
 11 15  1  0  0  0  0
 11 16  1  0  0  0  0
 50 52  1  0  0  0  0
 50 53  1  0  0  0  0
 50 54  1  0  0  0  0
 22 30  1  0  0  0  0
 22 31  1  0  0  0  0
 23 32  1  0  0  0  0
 23 33  1  0  0  0  0
 21 28  1  0  0  0  0
 21 29  1  0  0  0  0
 24 34  1  0  0  0  0
 24 35  1  0  0  0  0
 40 45  1  0  0  0  0
  8 13  1  0  0  0  0
 18 27  1  0  0  0  0
 49 51  1  0  0  0  0
  7 12  1  0  0  0  0
 39 44  1  0  0  0  0
 17 26  1  0  0  0  0
 25 36  1  0  0  0  0
 25 37  1  0  0  0  0
 25 38  1  0  0  0  0
M  CHG  1  25   1
M  END
$$$$

  -OEChem-05262214473D

 54 53  0     1  0  0  0  0  0999 V2000
    2.6714    2.8829   -3.0005 C   0  0  0  0  0  0  0  0  0  0  0  0
    3.1741    2.4398   -1.9745 O   0  0  0  0  0  0  0  0  0  0  0  0
    3.5527    3.3077   -4.1279 C   0  0  0  0  0  0  0  0  0  0  0  0
    3.8407    4.3691   -4.0597 H   0  0  0  0  0  0  0  0  0  0  0  0
    4.5024    2.7495   -4.1526 H   0  0  0  0  0  0  0  0  0  0  0  0
    3.1208    3.1887   -5.1345 H   0  0  0  0  0  0  0  0  0  0  0  0
    1.3174    3.0407   -3.2467 N   0  0  0  0  0  0  0  0  0  0  0  0
    0.2944    2.6927   -2.2960 C   0  0  2  0  0  0  0  0  0  0  0  0
    0.2976    1.1783   -2.1349 C   0  0  0  0  0  0  0  0  0  0  0  0
    0.7500    0.4142   -2.9850 O   0  0  0  0  0  0  0  0  0  0  0  0
   -1.0710    3.1886   -2.7460 C   0  0  0  0  0  0  0  0  0  0  0  0
    1.0312    3.4224   -4.1464 H   0  0  0  0  0  0  0  0  0  0  0  0
    0.5725    3.1622   -1.3461 H   0  0  0  0  0  0  0  0  0  0  0  0
   -1.3666    2.7292   -3.6963 H   0  0  0  0  0  0  0  0  0  0  0  0
   -1.8434    2.9482   -2.0082 H   0  0  0  0  0  0  0  0  0  0  0  0
   -1.0632    4.2744   -2.8901 H   0  0  0  0  0  0  0  0  0  0  0  0
   -0.3037    0.7742   -0.9484 N   0  0  0  0  0  0  0  0  0  0  0  0
   -0.4352   -0.6095   -0.5718 C   0  0  2  0  0  0  0  0  0  0  0  0
   -1.6890   -0.7702    0.2816 C   0  0  0  0  0  0  0  0  0  0  0  0
   -1.6557   -0.9031    1.5034 O   0  0  0  0  0  0  0  0  0  0  0  0
    0.8275   -1.1383    0.1187 C   0  0  0  0  0  0  0  0  0  0  0  0
    2.0487   -1.2427   -0.8042 C   0  0  0  0  0  0  0  0  0  0  0  0
    3.2616   -1.7993   -0.0549 C   0  0  0  0  0  0  0  0  0  0  0  0
    4.4772   -1.8784   -0.9666 C   0  0  0  0  0  0  0  0  0  0  0  0
    5.6308   -2.3986   -0.1942 N   0  3  0  0  0  0  0  0  0  0  0  0
   -0.6336    1.4811   -0.2948 H   0  0  0  0  0  0  0  0  0  0  0  0
   -0.5892   -1.1614   -1.5070 H   0  0  0  0  0  0  0  0  0  0  0  0
    1.0746   -0.4763    0.9588 H   0  0  0  0  0  0  0  0  0  0  0  0
    0.6219   -2.1270    0.5473 H   0  0  0  0  0  0  0  0  0  0  0  0
    1.8206   -1.8957   -1.6546 H   0  0  0  0  0  0  0  0  0  0  0  0
    2.2974   -0.2552   -1.2101 H   0  0  0  0  0  0  0  0  0  0  0  0
    3.0254   -2.7965    0.3369 H   0  0  0  0  0  0  0  0  0  0  0  0
    3.4853   -1.1598    0.8080 H   0  0  0  0  0  0  0  0  0  0  0  0
    4.3187   -2.5663   -1.8025 H   0  0  0  0  0  0  0  0  0  0  0  0
    4.7681   -0.8953   -1.3484 H   0  0  0  0  0  0  0  0  0  0  0  0
    6.5174   -2.1629   -0.6534 H   0  0  0  0  0  0  0  0  0  0  0  0
    5.5832   -3.4198   -0.1060 H   0  0  0  0  0  0  0  0  0  0  0  0
    5.6497   -2.0009    0.7514 H   0  0  0  0  0  0  0  0  0  0  0  0
   -2.8509   -0.7149   -0.4747 N   0  0  0  0  0  0  0  0  0  0  0  0
   -4.1616   -0.8269    0.1194 C   0  0  2  0  0  0  0  0  0  0  0  0
   -5.1686   -1.0487   -1.0014 C   0  0  0  0  0  0  0  0  0  0  0  0
   -4.9561   -0.7247   -2.1680 O   0  0  0  0  0  0  0  0  0  0  0  0
   -4.5111    0.4137    0.9266 C   0  0  0  0  0  0  0  0  0  0  0  0
   -2.7766   -0.5914   -1.4801 H   0  0  0  0  0  0  0  0  0  0  0  0
   -4.1394   -1.7074    0.7707 H   0  0  0  0  0  0  0  0  0  0  0  0
   -4.5382    1.3062    0.2908 H   0  0  0  0  0  0  0  0  0  0  0  0
   -5.4936    0.3152    1.4000 H   0  0  0  0  0  0  0  0  0  0  0  0
   -3.7694    0.5884    1.7134 H   0  0  0  0  0  0  0  0  0  0  0  0
   -6.3496   -1.6115   -0.5381 N   0  0  0  0  0  0  0  0  0  0  0  0
   -7.4653   -1.9076   -1.4062 C   0  0  0  0  0  0  0  0  0  0  0  0
   -6.4314   -1.8653    0.4421 H   0  0  0  0  0  0  0  0  0  0  0  0
   -8.1569   -1.0523   -1.4200 H   0  0  0  0  0  0  0  0  0  0  0  0
   -7.0967   -2.0974   -2.4250 H   0  0  0  0  0  0  0  0  0  0  0  0
   -7.9922   -2.7990   -1.0349 H   0  0  0  0  0  0  0  0  0  0  0  0
  1  3  1  0  0  0  0
  1  7  1  0  0  0  0
  1  2  2  0  0  0  0
 40 41  1  0  0  0  0
 41 49  1  0  0  0  0
 41 42  2  0  0  0  0
  8  9  1  0  0  0  0
  9 17  1  0  0  0  0
  9 10  2  0  0  0  0
 18 19  1  0  0  0  0
 19 39  1  0  0  0  0
 19 20  2  0  0  0  0
 40 43  1  0  0  0  0
  8 11  1  0  0  0  0
 49 50  1  0  0  0  0
 22 23  1  0  0  0  0
 21 22  1  0  0  0  0
 23 24  1  0  0  0  0
 18 21  1  0  0  0  0
 24 25  1  0  0  0  0
 39 40  1  0  0  0  0
  7  8  1  0  0  0  0
 17 18  1  0  0  0  0
  3  4  1  0  0  0  0
  3  5  1  0  0  0  0
  3  6  1  0  0  0  0
 43 46  1  0  0  0  0
 43 47  1  0  0  0  0
 43 48  1  0  0  0  0
 11 14  1  0  0  0  0
 11 15  1  0  0  0  0
 11 16  1  0  0  0  0
 50 52  1  0  0  0  0
 50 53  1  0  0  0  0
 50 54  1  0  0  0  0
 22 30  1  0  0  0  0
 22 31  1  0  0  0  0
 23 32  1  0  0  0  0
 23 33  1  0  0  0  0
 21 28  1  0  0  0  0
 21 29  1  0  0  0  0
 24 34  1  0  0  0  0
 24 35  1  0  0  0  0
 40 45  1  0  0  0  0
  8 13  1  0  0  0  0
 18 27  1  0  0  0  0
 49 51  1  0  0  0  0
  7 12  1  0  0  0  0
 39 44  1  0  0  0  0
 17 26  1  0  0  0  0
 25 36  1  0  0  0  0
 25 37  1  0  0  0  0
 25 38  1  0  0  0  0
M  CHG  1  25   1
M  END
$$$$

  -OEChem-05262214473D

 54 53  0     1  0  0  0  0  0999 V2000
    2.6714    2.8829   -3.0005 C   0  0  0  0  0  0  0  0  0  0  0  0
    3.1741    2.4398   -1.9745 O   0  0  0  0  0  0  0  0  0  0  0  0
    3.5527    3.3077   -4.1279 C   0  0  0  0  0  0  0  0  0  0  0  0
    3.8407    4.3691   -4.0597 H   0  0  0  0  0  0  0  0  0  0  0  0
    4.5024    2.7495   -4.1526 H   0  0  0  0  0  0  0  0  0  0  0  0
    3.1208    3.1887   -5.1345 H   0  0  0  0  0  0  0  0  0  0  0  0
    1.3174    3.0407   -3.2467 N   0  0  0  0  0  0  0  0  0  0  0  0
    0.2944    2.6927   -2.2960 C   0  0  2  0  0  0  0  0  0  0  0  0
    0.2976    1.1783   -2.1349 C   0  0  0  0  0  0  0  0  0  0  0  0
    0.7500    0.4142   -2.9850 O   0  0  0  0  0  0  0  0  0  0  0  0
   -1.0710    3.1886   -2.7460 C   0  0  0  0  0  0  0  0  0  0  0  0
    1.0312    3.4224   -4.1464 H   0  0  0  0  0  0  0  0  0  0  0  0
    0.5725    3.1622   -1.3461 H   0  0  0  0  0  0  0  0  0  0  0  0
   -1.3666    2.7292   -3.6963 H   0  0  0  0  0  0  0  0  0  0  0  0
   -1.8434    2.9482   -2.0082 H   0  0  0  0  0  0  0  0  0  0  0  0
   -1.0632    4.2744   -2.8901 H   0  0  0  0  0  0  0  0  0  0  0  0
   -0.3037    0.7742   -0.9484 N   0  0  0  0  0  0  0  0  0  0  0  0
   -0.4352   -0.6095   -0.5718 C   0  0  2  0  0  0  0  0  0  0  0  0
   -1.6890   -0.7702    0.2816 C   0  0  0  0  0  0  0  0  0  0  0  0
   -1.6897   -0.6362    1.5037 O   0  0  0  0  0  0  0  0  0  0  0  0
    0.8275   -1.1383    0.1187 C   0  0  0  0  0  0  0  0  0  0  0  0
    2.0487   -1.2427   -0.8042 C   0  0  0  0  0  0  0  0  0  0  0  0
    3.2616   -1.7993   -0.0549 C   0  0  0  0  0  0  0  0  0  0  0  0
    4.4772   -1.8784   -0.9666 C   0  0  0  0  0  0  0  0  0  0  0  0
    5.6308   -2.3986   -0.1942 N   0  3  0  0  0  0  0  0  0  0  0  0
   -0.6336    1.4811   -0.2948 H   0  0  0  0  0  0  0  0  0  0  0  0
   -0.5892   -1.1614   -1.5070 H   0  0  0  0  0  0  0  0  0  0  0  0
    1.0746   -0.4763    0.9588 H   0  0  0  0  0  0  0  0  0  0  0  0
    0.6219   -2.1270    0.5473 H   0  0  0  0  0  0  0  0  0  0  0  0
    1.8206   -1.8957   -1.6546 H   0  0  0  0  0  0  0  0  0  0  0  0
    2.2974   -0.2552   -1.2101 H   0  0  0  0  0  0  0  0  0  0  0  0
    3.0254   -2.7965    0.3369 H   0  0  0  0  0  0  0  0  0  0  0  0
    3.4853   -1.1598    0.8080 H   0  0  0  0  0  0  0  0  0  0  0  0
    4.3187   -2.5663   -1.8025 H   0  0  0  0  0  0  0  0  0  0  0  0
    4.7681   -0.8953   -1.3484 H   0  0  0  0  0  0  0  0  0  0  0  0
    6.5174   -2.1629   -0.6534 H   0  0  0  0  0  0  0  0  0  0  0  0
    5.5832   -3.4198   -0.1060 H   0  0  0  0  0  0  0  0  0  0  0  0
    5.6497   -2.0009    0.7514 H   0  0  0  0  0  0  0  0  0  0  0  0
   -2.8134   -1.0478   -0.4824 N   0  0  0  0  0  0  0  0  0  0  0  0
   -4.1193   -1.2246    0.1067 C   0  0  2  0  0  0  0  0  0  0  0  0
   -5.0356   -1.8239   -0.9519 C   0  0  0  0  0  0  0  0  0  0  0  0
   -4.8212   -1.7253   -2.1583 O   0  0  0  0  0  0  0  0  0  0  0  0
   -4.6756    0.0927    0.6245 C   0  0  0  0  0  0  0  0  0  0  0  0
   -2.7143   -1.1294   -1.4899 H   0  0  0  0  0  0  0  0  0  0  0  0
   -4.0004   -1.9349    0.9322 H   0  0  0  0  0  0  0  0  0  0  0  0
   -4.8017    0.8171   -0.1884 H   0  0  0  0  0  0  0  0  0  0  0  0
   -5.6536   -0.0479    1.0966 H   0  0  0  0  0  0  0  0  0  0  0  0
   -4.0007    0.5370    1.3640 H   0  0  0  0  0  0  0  0  0  0  0  0
   -6.1436   -2.4446   -0.3922 N   0  0  0  0  0  0  0  0  0  0  0  0
   -7.1676   -3.0786   -1.1894 C   0  0  0  0  0  0  0  0  0  0  0  0
   -6.2305   -2.4953    0.6185 H   0  0  0  0  0  0  0  0  0  0  0  0
   -7.9723   -2.3572   -1.3946 H   0  0  0  0  0  0  0  0  0  0  0  0
   -6.7324   -3.4222   -2.1393 H   0  0  0  0  0  0  0  0  0  0  0  0
   -7.5782   -3.9395   -0.6414 H   0  0  0  0  0  0  0  0  0  0  0  0
  1  3  1  0  0  0  0
  1  7  1  0  0  0  0
  1  2  2  0  0  0  0
 40 41  1  0  0  0  0
 41 49  1  0  0  0  0
 41 42  2  0  0  0  0
  8  9  1  0  0  0  0
  9 17  1  0  0  0  0
  9 10  2  0  0  0  0
 18 19  1  0  0  0  0
 19 39  1  0  0  0  0
 19 20  2  0  0  0  0
 40 43  1  0  0  0  0
  8 11  1  0  0  0  0
 49 50  1  0  0  0  0
 22 23  1  0  0  0  0
 21 22  1  0  0  0  0
 23 24  1  0  0  0  0
 18 21  1  0  0  0  0
 24 25  1  0  0  0  0
 39 40  1  0  0  0  0
  7  8  1  0  0  0  0
 17 18  1  0  0  0  0
  3  4  1  0  0  0  0
  3  5  1  0  0  0  0
  3  6  1  0  0  0  0
 43 46  1  0  0  0  0
 43 47  1  0  0  0  0
 43 48  1  0  0  0  0
 11 14  1  0  0  0  0
 11 15  1  0  0  0  0
 11 16  1  0  0  0  0
 50 52  1  0  0  0  0
 50 53  1  0  0  0  0
 50 54  1  0  0  0  0
 22 30  1  0  0  0  0
 22 31  1  0  0  0  0
 23 32  1  0  0  0  0
 23 33  1  0  0  0  0
 21 28  1  0  0  0  0
 21 29  1  0  0  0  0
 24 34  1  0  0  0  0
 24 35  1  0  0  0  0
 40 45  1  0  0  0  0
  8 13  1  0  0  0  0
 18 27  1  0  0  0  0
 49 51  1  0  0  0  0
  7 12  1  0  0  0  0
 39 44  1  0  0  0  0
 17 26  1  0  0  0  0
 25 36  1  0  0  0  0
 25 37  1  0  0  0  0
 25 38  1  0  0  0  0
M  CHG  1  25   1
M  END
$$$$

  -OEChem-05262214473D

 54 53  0     1  0  0  0  0  0999 V2000
    2.6714    2.8829   -3.0005 C   0  0  0  0  0  0  0  0  0  0  0  0
    3.1741    2.4398   -1.9745 O   0  0  0  0  0  0  0  0  0  0  0  0
    3.5527    3.3077   -4.1279 C   0  0  0  0  0  0  0  0  0  0  0  0
    3.8407    4.3691   -4.0597 H   0  0  0  0  0  0  0  0  0  0  0  0
    4.5024    2.7495   -4.1526 H   0  0  0  0  0  0  0  0  0  0  0  0
    3.1208    3.1887   -5.1345 H   0  0  0  0  0  0  0  0  0  0  0  0
    1.3174    3.0407   -3.2467 N   0  0  0  0  0  0  0  0  0  0  0  0
    0.2944    2.6927   -2.2960 C   0  0  2  0  0  0  0  0  0  0  0  0
    0.2976    1.1783   -2.1349 C   0  0  0  0  0  0  0  0  0  0  0  0
    0.7500    0.4142   -2.9850 O   0  0  0  0  0  0  0  0  0  0  0  0
   -1.0710    3.1886   -2.7460 C   0  0  0  0  0  0  0  0  0  0  0  0
    1.0312    3.4224   -4.1464 H   0  0  0  0  0  0  0  0  0  0  0  0
    0.5725    3.1622   -1.3461 H   0  0  0  0  0  0  0  0  0  0  0  0
   -1.3666    2.7292   -3.6963 H   0  0  0  0  0  0  0  0  0  0  0  0
   -1.8434    2.9482   -2.0082 H   0  0  0  0  0  0  0  0  0  0  0  0
   -1.0632    4.2744   -2.8901 H   0  0  0  0  0  0  0  0  0  0  0  0
   -0.3037    0.7742   -0.9484 N   0  0  0  0  0  0  0  0  0  0  0  0
   -0.4352   -0.6095   -0.5718 C   0  0  2  0  0  0  0  0  0  0  0  0
   -1.6890   -0.7702    0.2816 C   0  0  0  0  0  0  0  0  0  0  0  0
   -1.7611   -0.3833    1.4463 O   0  0  0  0  0  0  0  0  0  0  0  0
    0.8275   -1.1383    0.1187 C   0  0  0  0  0  0  0  0  0  0  0  0
    2.0487   -1.2427   -0.8042 C   0  0  0  0  0  0  0  0  0  0  0  0
    3.2616   -1.7993   -0.0549 C   0  0  0  0  0  0  0  0  0  0  0  0
    4.4772   -1.8784   -0.9666 C   0  0  0  0  0  0  0  0  0  0  0  0
    5.6308   -2.3986   -0.1942 N   0  3  0  0  0  0  0  0  0  0  0  0
   -0.6336    1.4811   -0.2948 H   0  0  0  0  0  0  0  0  0  0  0  0
   -0.5892   -1.1614   -1.5070 H   0  0  0  0  0  0  0  0  0  0  0  0
    1.0746   -0.4763    0.9588 H   0  0  0  0  0  0  0  0  0  0  0  0
    0.6219   -2.1270    0.5473 H   0  0  0  0  0  0  0  0  0  0  0  0
    1.8206   -1.8957   -1.6546 H   0  0  0  0  0  0  0  0  0  0  0  0
    2.2974   -0.2552   -1.2101 H   0  0  0  0  0  0  0  0  0  0  0  0
    3.0254   -2.7965    0.3369 H   0  0  0  0  0  0  0  0  0  0  0  0
    3.4853   -1.1598    0.8080 H   0  0  0  0  0  0  0  0  0  0  0  0
    4.3187   -2.5663   -1.8025 H   0  0  0  0  0  0  0  0  0  0  0  0
    4.7681   -0.8953   -1.3484 H   0  0  0  0  0  0  0  0  0  0  0  0
    6.5174   -2.1629   -0.6534 H   0  0  0  0  0  0  0  0  0  0  0  0
    5.5832   -3.4198   -0.1060 H   0  0  0  0  0  0  0  0  0  0  0  0
    5.6497   -2.0009    0.7514 H   0  0  0  0  0  0  0  0  0  0  0  0
   -2.7288   -1.3656   -0.4179 N   0  0  0  0  0  0  0  0  0  0  0  0
   -4.0205   -1.6053    0.1802 C   0  0  2  0  0  0  0  0  0  0  0  0
   -4.7962   -2.5429   -0.7355 C   0  0  0  0  0  0  0  0  0  0  0  0
   -4.5463   -2.6702   -1.9324 O   0  0  0  0  0  0  0  0  0  0  0  0
   -4.7798   -0.3055    0.3965 C   0  0  0  0  0  0  0  0  0  0  0  0
   -2.5759   -1.6422   -1.3832 H   0  0  0  0  0  0  0  0  0  0  0  0
   -3.8375   -2.1001    1.1403 H   0  0  0  0  0  0  0  0  0  0  0  0
   -4.9723    0.2046   -0.5544 H   0  0  0  0  0  0  0  0  0  0  0  0
   -5.7473   -0.4863    0.8764 H   0  0  0  0  0  0  0  0  0  0  0  0
   -4.2071    0.3795    1.0311 H   0  0  0  0  0  0  0  0  0  0  0  0
   -5.8279   -3.1885   -0.0685 N   0  0  0  0  0  0  0  0  0  0  0  0
   -6.7165   -4.1204   -0.7227 C   0  0  0  0  0  0  0  0  0  0  0  0
   -5.9501   -3.0373    0.9285 H   0  0  0  0  0  0  0  0  0  0  0  0
   -7.6058   -3.5855   -1.0874 H   0  0  0  0  0  0  0  0  0  0  0  0
   -6.1965   -4.5884   -1.5716 H   0  0  0  0  0  0  0  0  0  0  0  0
   -7.0238   -4.8975   -0.0074 H   0  0  0  0  0  0  0  0  0  0  0  0
  1  3  1  0  0  0  0
  1  7  1  0  0  0  0
  1  2  2  0  0  0  0
 40 41  1  0  0  0  0
 41 49  1  0  0  0  0
 41 42  2  0  0  0  0
  8  9  1  0  0  0  0
  9 17  1  0  0  0  0
  9 10  2  0  0  0  0
 18 19  1  0  0  0  0
 19 39  1  0  0  0  0
 19 20  2  0  0  0  0
 40 43  1  0  0  0  0
  8 11  1  0  0  0  0
 49 50  1  0  0  0  0
 22 23  1  0  0  0  0
 21 22  1  0  0  0  0
 23 24  1  0  0  0  0
 18 21  1  0  0  0  0
 24 25  1  0  0  0  0
 39 40  1  0  0  0  0
  7  8  1  0  0  0  0
 17 18  1  0  0  0  0
  3  4  1  0  0  0  0
  3  5  1  0  0  0  0
  3  6  1  0  0  0  0
 43 46  1  0  0  0  0
 43 47  1  0  0  0  0
 43 48  1  0  0  0  0
 11 14  1  0  0  0  0
 11 15  1  0  0  0  0
 11 16  1  0  0  0  0
 50 52  1  0  0  0  0
 50 53  1  0  0  0  0
 50 54  1  0  0  0  0
 22 30  1  0  0  0  0
 22 31  1  0  0  0  0
 23 32  1  0  0  0  0
 23 33  1  0  0  0  0
 21 28  1  0  0  0  0
 21 29  1  0  0  0  0
 24 34  1  0  0  0  0
 24 35  1  0  0  0  0
 40 45  1  0  0  0  0
  8 13  1  0  0  0  0
 18 27  1  0  0  0  0
 49 51  1  0  0  0  0
  7 12  1  0  0  0  0
 39 44  1  0  0  0  0
 17 26  1  0  0  0  0
 25 36  1  0  0  0  0
 25 37  1  0  0  0  0
 25 38  1  0  0  0  0
M  CHG  1  25   1
M  END
$$$$

  -OEChem-05262214473D

 54 53  0     1  0  0  0  0  0999 V2000
    2.6714    2.8829   -3.0005 C   0  0  0  0  0  0  0  0  0  0  0  0
    3.1741    2.4398   -1.9745 O   0  0  0  0  0  0  0  0  0  0  0  0
    3.5527    3.3077   -4.1279 C   0  0  0  0  0  0  0  0  0  0  0  0
    3.8407    4.3691   -4.0597 H   0  0  0  0  0  0  0  0  0  0  0  0
    4.5024    2.7495   -4.1526 H   0  0  0  0  0  0  0  0  0  0  0  0
    3.1208    3.1887   -5.1345 H   0  0  0  0  0  0  0  0  0  0  0  0
    1.3174    3.0407   -3.2467 N   0  0  0  0  0  0  0  0  0  0  0  0
    0.2944    2.6927   -2.2960 C   0  0  2  0  0  0  0  0  0  0  0  0
    0.2976    1.1783   -2.1349 C   0  0  0  0  0  0  0  0  0  0  0  0
    0.7500    0.4142   -2.9850 O   0  0  0  0  0  0  0  0  0  0  0  0
   -1.0710    3.1886   -2.7460 C   0  0  0  0  0  0  0  0  0  0  0  0
    1.0312    3.4224   -4.1464 H   0  0  0  0  0  0  0  0  0  0  0  0
    0.5725    3.1622   -1.3461 H   0  0  0  0  0  0  0  0  0  0  0  0
   -1.3666    2.7292   -3.6963 H   0  0  0  0  0  0  0  0  0  0  0  0
   -1.8434    2.9482   -2.0082 H   0  0  0  0  0  0  0  0  0  0  0  0
   -1.0632    4.2744   -2.8901 H   0  0  0  0  0  0  0  0  0  0  0  0
   -0.3037    0.7742   -0.9484 N   0  0  0  0  0  0  0  0  0  0  0  0
   -0.4352   -0.6095   -0.5718 C   0  0  2  0  0  0  0  0  0  0  0  0
   -1.6890   -0.7702    0.2816 C   0  0  0  0  0  0  0  0  0  0  0  0
   -1.8653   -0.1615    1.3351 O   0  0  0  0  0  0  0  0  0  0  0  0
    0.8275   -1.1383    0.1187 C   0  0  0  0  0  0  0  0  0  0  0  0
    2.0487   -1.2427   -0.8042 C   0  0  0  0  0  0  0  0  0  0  0  0
    3.2616   -1.7993   -0.0549 C   0  0  0  0  0  0  0  0  0  0  0  0
    4.4772   -1.8784   -0.9666 C   0  0  0  0  0  0  0  0  0  0  0  0
    5.6308   -2.3986   -0.1942 N   0  3  0  0  0  0  0  0  0  0  0  0
   -0.6336    1.4811   -0.2948 H   0  0  0  0  0  0  0  0  0  0  0  0
   -0.5892   -1.1614   -1.5070 H   0  0  0  0  0  0  0  0  0  0  0  0
    1.0746   -0.4763    0.9588 H   0  0  0  0  0  0  0  0  0  0  0  0
    0.6219   -2.1270    0.5473 H   0  0  0  0  0  0  0  0  0  0  0  0
    1.8206   -1.8957   -1.6546 H   0  0  0  0  0  0  0  0  0  0  0  0
    2.2974   -0.2552   -1.2101 H   0  0  0  0  0  0  0  0  0  0  0  0
    3.0254   -2.7965    0.3369 H   0  0  0  0  0  0  0  0  0  0  0  0
    3.4853   -1.1598    0.8080 H   0  0  0  0  0  0  0  0  0  0  0  0
    4.3187   -2.5663   -1.8025 H   0  0  0  0  0  0  0  0  0  0  0  0
    4.7681   -0.8953   -1.3484 H   0  0  0  0  0  0  0  0  0  0  0  0
    6.5174   -2.1629   -0.6534 H   0  0  0  0  0  0  0  0  0  0  0  0
    5.5832   -3.4198   -0.1060 H   0  0  0  0  0  0  0  0  0  0  0  0
    5.6497   -2.0009    0.7514 H   0  0  0  0  0  0  0  0  0  0  0  0
   -2.6028   -1.6467   -0.2857 N   0  0  0  0  0  0  0  0  0  0  0  0
   -3.8719   -1.9430    0.3349 C   0  0  2  0  0  0  0  0  0  0  0  0
   -4.4666   -3.1567   -0.3670 C   0  0  0  0  0  0  0  0  0  0  0  0
   -4.1501   -3.4950   -1.5056 O   0  0  0  0  0  0  0  0  0  0  0  0
   -4.8165   -0.7537    0.2582 C   0  0  0  0  0  0  0  0  0  0  0  0
   -2.3709   -2.0948   -1.1672 H   0  0  0  0  0  0  0  0  0  0  0  0
   -3.6620   -2.1918    1.3809 H   0  0  0  0  0  0  0  0  0  0  0  0
   -5.0384   -0.4896   -0.7822 H   0  0  0  0  0  0  0  0  0  0  0  0
   -5.7683   -0.9702    0.7544 H   0  0  0  0  0  0  0  0  0  0  0  0
   -4.3746    0.1266    0.7374 H   0  0  0  0  0  0  0  0  0  0  0  0
   -5.4240   -3.7924    0.4111 N   0  0  0  0  0  0  0  0  0  0  0  0
   -6.1425   -4.9621   -0.0379 C   0  0  0  0  0  0  0  0  0  0  0  0
   -5.6091   -3.4543    1.3509 H   0  0  0  0  0  0  0  0  0  0  0  0
   -7.0822   -4.6535   -0.5193 H   0  0  0  0  0  0  0  0  0  0  0  0
   -5.5254   -5.5164   -0.7604 H   0  0  0  0  0  0  0  0  0  0  0  0
   -6.3669   -5.6077    0.8239 H   0  0  0  0  0  0  0  0  0  0  0  0
  1  3  1  0  0  0  0
  1  7  1  0  0  0  0
  1  2  2  0  0  0  0
 40 41  1  0  0  0  0
 41 49  1  0  0  0  0
 41 42  2  0  0  0  0
  8  9  1  0  0  0  0
  9 17  1  0  0  0  0
  9 10  2  0  0  0  0
 18 19  1  0  0  0  0
 19 39  1  0  0  0  0
 19 20  2  0  0  0  0
 40 43  1  0  0  0  0
  8 11  1  0  0  0  0
 49 50  1  0  0  0  0
 22 23  1  0  0  0  0
 21 22  1  0  0  0  0
 23 24  1  0  0  0  0
 18 21  1  0  0  0  0
 24 25  1  0  0  0  0
 39 40  1  0  0  0  0
  7  8  1  0  0  0  0
 17 18  1  0  0  0  0
  3  4  1  0  0  0  0
  3  5  1  0  0  0  0
  3  6  1  0  0  0  0
 43 46  1  0  0  0  0
 43 47  1  0  0  0  0
 43 48  1  0  0  0  0
 11 14  1  0  0  0  0
 11 15  1  0  0  0  0
 11 16  1  0  0  0  0
 50 52  1  0  0  0  0
 50 53  1  0  0  0  0
 50 54  1  0  0  0  0
 22 30  1  0  0  0  0
 22 31  1  0  0  0  0
 23 32  1  0  0  0  0
 23 33  1  0  0  0  0
 21 28  1  0  0  0  0
 21 29  1  0  0  0  0
 24 34  1  0  0  0  0
 24 35  1  0  0  0  0
 40 45  1  0  0  0  0
  8 13  1  0  0  0  0
 18 27  1  0  0  0  0
 49 51  1  0  0  0  0
  7 12  1  0  0  0  0
 39 44  1  0  0  0  0
 17 26  1  0  0  0  0
 25 36  1  0  0  0  0
 25 37  1  0  0  0  0
 25 38  1  0  0  0  0
M  CHG  1  25   1
M  END
$$$$

  -OEChem-05262214473D

 54 53  0     1  0  0  0  0  0999 V2000
    2.6714    2.8829   -3.0005 C   0  0  0  0  0  0  0  0  0  0  0  0
    3.1741    2.4398   -1.9745 O   0  0  0  0  0  0  0  0  0  0  0  0
    3.5527    3.3077   -4.1279 C   0  0  0  0  0  0  0  0  0  0  0  0
    3.8407    4.3691   -4.0597 H   0  0  0  0  0  0  0  0  0  0  0  0
    4.5024    2.7495   -4.1526 H   0  0  0  0  0  0  0  0  0  0  0  0
    3.1208    3.1887   -5.1345 H   0  0  0  0  0  0  0  0  0  0  0  0
    1.3174    3.0407   -3.2467 N   0  0  0  0  0  0  0  0  0  0  0  0
    0.2944    2.6927   -2.2960 C   0  0  2  0  0  0  0  0  0  0  0  0
    0.2976    1.1783   -2.1349 C   0  0  0  0  0  0  0  0  0  0  0  0
    0.7500    0.4142   -2.9850 O   0  0  0  0  0  0  0  0  0  0  0  0
   -1.0710    3.1886   -2.7460 C   0  0  0  0  0  0  0  0  0  0  0  0
    1.0312    3.4224   -4.1464 H   0  0  0  0  0  0  0  0  0  0  0  0
    0.5725    3.1622   -1.3461 H   0  0  0  0  0  0  0  0  0  0  0  0
   -1.3666    2.7292   -3.6963 H   0  0  0  0  0  0  0  0  0  0  0  0
   -1.8434    2.9482   -2.0082 H   0  0  0  0  0  0  0  0  0  0  0  0
   -1.0632    4.2744   -2.8901 H   0  0  0  0  0  0  0  0  0  0  0  0
   -0.3037    0.7742   -0.9484 N   0  0  0  0  0  0  0  0  0  0  0  0
   -0.4352   -0.6095   -0.5718 C   0  0  2  0  0  0  0  0  0  0  0  0
   -1.6890   -0.7702    0.2816 C   0  0  0  0  0  0  0  0  0  0  0  0
   -1.9949    0.0140    1.1777 O   0  0  0  0  0  0  0  0  0  0  0  0
    0.8275   -1.1383    0.1187 C   0  0  0  0  0  0  0  0  0  0  0  0
    2.0487   -1.2427   -0.8042 C   0  0  0  0  0  0  0  0  0  0  0  0
    3.2616   -1.7993   -0.0549 C   0  0  0  0  0  0  0  0  0  0  0  0
    4.4772   -1.8784   -0.9666 C   0  0  0  0  0  0  0  0  0  0  0  0
    5.6308   -2.3986   -0.1942 N   0  3  0  0  0  0  0  0  0  0  0  0
   -0.6336    1.4811   -0.2948 H   0  0  0  0  0  0  0  0  0  0  0  0
   -0.5892   -1.1614   -1.5070 H   0  0  0  0  0  0  0  0  0  0  0  0
    1.0746   -0.4763    0.9588 H   0  0  0  0  0  0  0  0  0  0  0  0
    0.6219   -2.1270    0.5473 H   0  0  0  0  0  0  0  0  0  0  0  0
    1.8206   -1.8957   -1.6546 H   0  0  0  0  0  0  0  0  0  0  0  0
    2.2974   -0.2552   -1.2101 H   0  0  0  0  0  0  0  0  0  0  0  0
    3.0254   -2.7965    0.3369 H   0  0  0  0  0  0  0  0  0  0  0  0
    3.4853   -1.1598    0.8080 H   0  0  0  0  0  0  0  0  0  0  0  0
    4.3187   -2.5663   -1.8025 H   0  0  0  0  0  0  0  0  0  0  0  0
    4.7681   -0.8953   -1.3484 H   0  0  0  0  0  0  0  0  0  0  0  0
    6.5174   -2.1629   -0.6534 H   0  0  0  0  0  0  0  0  0  0  0  0
    5.5832   -3.4198   -0.1060 H   0  0  0  0  0  0  0  0  0  0  0  0
    5.6497   -2.0009    0.7514 H   0  0  0  0  0  0  0  0  0  0  0  0
   -2.4440   -1.8717   -0.0948 N   0  0  0  0  0  0  0  0  0  0  0  0
   -3.6837   -2.2148    0.5603 C   0  0  2  0  0  0  0  0  0  0  0  0
   -4.0695   -3.6235    0.1285 C   0  0  0  0  0  0  0  0  0  0  0  0
   -3.6596   -4.1436   -0.9071 O   0  0  0  0  0  0  0  0  0  0  0  0
   -4.7833   -1.2213    0.2189 C   0  0  0  0  0  0  0  0  0  0  0  0
   -2.1133   -2.4562   -0.8567 H   0  0  0  0  0  0  0  0  0  0  0  0
   -3.4857   -2.2038    1.6376 H   0  0  0  0  0  0  0  0  0  0  0  0
   -4.9955   -1.2183   -0.8564 H   0  0  0  0  0  0  0  0  0  0  0  0
   -5.7151   -1.4667    0.7390 H   0  0  0  0  0  0  0  0  0  0  0  0
   -4.4917   -0.2044    0.5030 H   0  0  0  0  0  0  0  0  0  0  0  0
   -4.9595   -4.2153    1.0139 N   0  0  0  0  0  0  0  0  0  0  0  0
   -5.4848   -5.5463    0.8182 C   0  0  0  0  0  0  0  0  0  0  0  0
   -5.2309   -3.7178    1.8569 H   0  0  0  0  0  0  0  0  0  0  0  0
   -6.4373   -5.4884    0.2709 H   0  0  0  0  0  0  0  0  0  0  0  0
   -4.7649   -6.1430    0.2388 H   0  0  0  0  0  0  0  0  0  0  0  0
   -5.6522   -6.0217    1.7960 H   0  0  0  0  0  0  0  0  0  0  0  0
  1  3  1  0  0  0  0
  1  7  1  0  0  0  0
  1  2  2  0  0  0  0
 40 41  1  0  0  0  0
 41 49  1  0  0  0  0
 41 42  2  0  0  0  0
  8  9  1  0  0  0  0
  9 17  1  0  0  0  0
  9 10  2  0  0  0  0
 18 19  1  0  0  0  0
 19 39  1  0  0  0  0
 19 20  2  0  0  0  0
 40 43  1  0  0  0  0
  8 11  1  0  0  0  0
 49 50  1  0  0  0  0
 22 23  1  0  0  0  0
 21 22  1  0  0  0  0
 23 24  1  0  0  0  0
 18 21  1  0  0  0  0
 24 25  1  0  0  0  0
 39 40  1  0  0  0  0
  7  8  1  0  0  0  0
 17 18  1  0  0  0  0
  3  4  1  0  0  0  0
  3  5  1  0  0  0  0
  3  6  1  0  0  0  0
 43 46  1  0  0  0  0
 43 47  1  0  0  0  0
 43 48  1  0  0  0  0
 11 14  1  0  0  0  0
 11 15  1  0  0  0  0
 11 16  1  0  0  0  0
 50 52  1  0  0  0  0
 50 53  1  0  0  0  0
 50 54  1  0  0  0  0
 22 30  1  0  0  0  0
 22 31  1  0  0  0  0
 23 32  1  0  0  0  0
 23 33  1  0  0  0  0
 21 28  1  0  0  0  0
 21 29  1  0  0  0  0
 24 34  1  0  0  0  0
 24 35  1  0  0  0  0
 40 45  1  0  0  0  0
  8 13  1  0  0  0  0
 18 27  1  0  0  0  0
 49 51  1  0  0  0  0
  7 12  1  0  0  0  0
 39 44  1  0  0  0  0
 17 26  1  0  0  0  0
 25 36  1  0  0  0  0
 25 37  1  0  0  0  0
 25 38  1  0  0  0  0
M  CHG  1  25   1
M  END
$$$$

  -OEChem-05262214473D

 54 53  0     1  0  0  0  0  0999 V2000
    2.6714    2.8829   -3.0005 C   0  0  0  0  0  0  0  0  0  0  0  0
    3.1741    2.4398   -1.9745 O   0  0  0  0  0  0  0  0  0  0  0  0
    3.5527    3.3077   -4.1279 C   0  0  0  0  0  0  0  0  0  0  0  0
    3.8407    4.3691   -4.0597 H   0  0  0  0  0  0  0  0  0  0  0  0
    4.5024    2.7495   -4.1526 H   0  0  0  0  0  0  0  0  0  0  0  0
    3.1208    3.1887   -5.1345 H   0  0  0  0  0  0  0  0  0  0  0  0
    1.3174    3.0407   -3.2467 N   0  0  0  0  0  0  0  0  0  0  0  0
    0.2944    2.6927   -2.2960 C   0  0  2  0  0  0  0  0  0  0  0  0
    0.2976    1.1783   -2.1349 C   0  0  0  0  0  0  0  0  0  0  0  0
    0.7500    0.4142   -2.9850 O   0  0  0  0  0  0  0  0  0  0  0  0
   -1.0710    3.1886   -2.7460 C   0  0  0  0  0  0  0  0  0  0  0  0
    1.0312    3.4224   -4.1464 H   0  0  0  0  0  0  0  0  0  0  0  0
    0.5725    3.1622   -1.3461 H   0  0  0  0  0  0  0  0  0  0  0  0
   -1.3666    2.7292   -3.6963 H   0  0  0  0  0  0  0  0  0  0  0  0
   -1.8434    2.9482   -2.0082 H   0  0  0  0  0  0  0  0  0  0  0  0
   -1.0632    4.2744   -2.8901 H   0  0  0  0  0  0  0  0  0  0  0  0
   -0.3037    0.7742   -0.9484 N   0  0  0  0  0  0  0  0  0  0  0  0
   -0.4352   -0.6095   -0.5718 C   0  0  2  0  0  0  0  0  0  0  0  0
   -1.6890   -0.7702    0.2816 C   0  0  0  0  0  0  0  0  0  0  0  0
   -2.1413    0.1312    0.9848 O   0  0  0  0  0  0  0  0  0  0  0  0
    0.8275   -1.1383    0.1187 C   0  0  0  0  0  0  0  0  0  0  0  0
    2.0487   -1.2427   -0.8042 C   0  0  0  0  0  0  0  0  0  0  0  0
    3.2616   -1.7993   -0.0549 C   0  0  0  0  0  0  0  0  0  0  0  0
    4.4772   -1.8784   -0.9666 C   0  0  0  0  0  0  0  0  0  0  0  0
    5.6308   -2.3986   -0.1942 N   0  3  0  0  0  0  0  0  0  0  0  0
   -0.6336    1.4811   -0.2948 H   0  0  0  0  0  0  0  0  0  0  0  0
   -0.5892   -1.1614   -1.5070 H   0  0  0  0  0  0  0  0  0  0  0  0
    1.0746   -0.4763    0.9588 H   0  0  0  0  0  0  0  0  0  0  0  0
    0.6219   -2.1270    0.5473 H   0  0  0  0  0  0  0  0  0  0  0  0
    1.8206   -1.8957   -1.6546 H   0  0  0  0  0  0  0  0  0  0  0  0
    2.2974   -0.2552   -1.2101 H   0  0  0  0  0  0  0  0  0  0  0  0
    3.0254   -2.7965    0.3369 H   0  0  0  0  0  0  0  0  0  0  0  0
    3.4853   -1.1598    0.8080 H   0  0  0  0  0  0  0  0  0  0  0  0
    4.3187   -2.5663   -1.8025 H   0  0  0  0  0  0  0  0  0  0  0  0
    4.7681   -0.8953   -1.3484 H   0  0  0  0  0  0  0  0  0  0  0  0
    6.5174   -2.1629   -0.6534 H   0  0  0  0  0  0  0  0  0  0  0  0
    5.5832   -3.4198   -0.1060 H   0  0  0  0  0  0  0  0  0  0  0  0
    5.6497   -2.0009    0.7514 H   0  0  0  0  0  0  0  0  0  0  0  0
   -2.2632   -2.0255    0.1418 N   0  0  0  0  0  0  0  0  0  0  0  0
   -3.4686   -2.4022    0.8409 C   0  0  2  0  0  0  0  0  0  0  0  0
   -3.6318   -3.9114    0.7173 C   0  0  0  0  0  0  0  0  0  0  0  0
   -3.1082   -4.5716   -0.1776 O   0  0  0  0  0  0  0  0  0  0  0  0
   -4.6824   -1.6766    0.2814 C   0  0  0  0  0  0  0  0  0  0  0  0
   -1.8205   -2.7020   -0.4729 H   0  0  0  0  0  0  0  0  0  0  0  0
   -3.3207   -2.1352    1.8929 H   0  0  0  0  0  0  0  0  0  0  0  0
   -4.8466   -1.9316   -0.7719 H   0  0  0  0  0  0  0  0  0  0  0  0
   -5.5915   -1.9418    0.8312 H   0  0  0  0  0  0  0  0  0  0  0  0
   -4.5505   -0.5910    0.3438 H   0  0  0  0  0  0  0  0  0  0  0  0
   -4.4661   -4.4281    1.6987 N   0  0  0  0  0  0  0  0  0  0  0  0
   -4.7883   -5.8332    1.7874 C   0  0  0  0  0  0  0  0  0  0  0  0
   -4.8413   -3.8099    2.4120 H   0  0  0  0  0  0  0  0  0  0  0  0
   -5.7150   -6.0334    1.2295 H   0  0  0  0  0  0  0  0  0  0  0  0
   -3.9668   -6.4255    1.3581 H   0  0  0  0  0  0  0  0  0  0  0  0
   -4.9284   -6.1113    2.8424 H   0  0  0  0  0  0  0  0  0  0  0  0
  1  3  1  0  0  0  0
  1  7  1  0  0  0  0
  1  2  2  0  0  0  0
 40 41  1  0  0  0  0
 41 49  1  0  0  0  0
 41 42  2  0  0  0  0
  8  9  1  0  0  0  0
  9 17  1  0  0  0  0
  9 10  2  0  0  0  0
 18 19  1  0  0  0  0
 19 39  1  0  0  0  0
 19 20  2  0  0  0  0
 40 43  1  0  0  0  0
  8 11  1  0  0  0  0
 49 50  1  0  0  0  0
 22 23  1  0  0  0  0
 21 22  1  0  0  0  0
 23 24  1  0  0  0  0
 18 21  1  0  0  0  0
 24 25  1  0  0  0  0
 39 40  1  0  0  0  0
  7  8  1  0  0  0  0
 17 18  1  0  0  0  0
  3  4  1  0  0  0  0
  3  5  1  0  0  0  0
  3  6  1  0  0  0  0
 43 46  1  0  0  0  0
 43 47  1  0  0  0  0
 43 48  1  0  0  0  0
 11 14  1  0  0  0  0
 11 15  1  0  0  0  0
 11 16  1  0  0  0  0
 50 52  1  0  0  0  0
 50 53  1  0  0  0  0
 50 54  1  0  0  0  0
 22 30  1  0  0  0  0
 22 31  1  0  0  0  0
 23 32  1  0  0  0  0
 23 33  1  0  0  0  0
 21 28  1  0  0  0  0
 21 29  1  0  0  0  0
 24 34  1  0  0  0  0
 24 35  1  0  0  0  0
 40 45  1  0  0  0  0
  8 13  1  0  0  0  0
 18 27  1  0  0  0  0
 49 51  1  0  0  0  0
  7 12  1  0  0  0  0
 39 44  1  0  0  0  0
 17 26  1  0  0  0  0
 25 36  1  0  0  0  0
 25 37  1  0  0  0  0
 25 38  1  0  0  0  0
M  CHG  1  25   1
M  END
$$$$

  -OEChem-05262214473D

 54 53  0     1  0  0  0  0  0999 V2000
    2.6714    2.8829   -3.0005 C   0  0  0  0  0  0  0  0  0  0  0  0
    3.1741    2.4398   -1.9745 O   0  0  0  0  0  0  0  0  0  0  0  0
    3.5527    3.3077   -4.1279 C   0  0  0  0  0  0  0  0  0  0  0  0
    3.8407    4.3691   -4.0597 H   0  0  0  0  0  0  0  0  0  0  0  0
    4.5024    2.7495   -4.1526 H   0  0  0  0  0  0  0  0  0  0  0  0
    3.1208    3.1887   -5.1345 H   0  0  0  0  0  0  0  0  0  0  0  0
    1.3174    3.0407   -3.2467 N   0  0  0  0  0  0  0  0  0  0  0  0
    0.2944    2.6927   -2.2960 C   0  0  2  0  0  0  0  0  0  0  0  0
    0.2976    1.1783   -2.1349 C   0  0  0  0  0  0  0  0  0  0  0  0
    0.7500    0.4142   -2.9850 O   0  0  0  0  0  0  0  0  0  0  0  0
   -1.0710    3.1886   -2.7460 C   0  0  0  0  0  0  0  0  0  0  0  0
    1.0312    3.4224   -4.1464 H   0  0  0  0  0  0  0  0  0  0  0  0
    0.5725    3.1622   -1.3461 H   0  0  0  0  0  0  0  0  0  0  0  0
   -1.3666    2.7292   -3.6963 H   0  0  0  0  0  0  0  0  0  0  0  0
   -1.8434    2.9482   -2.0082 H   0  0  0  0  0  0  0  0  0  0  0  0
   -1.0632    4.2744   -2.8901 H   0  0  0  0  0  0  0  0  0  0  0  0
   -0.3037    0.7742   -0.9484 N   0  0  0  0  0  0  0  0  0  0  0  0
   -0.4352   -0.6095   -0.5718 C   0  0  2  0  0  0  0  0  0  0  0  0
   -1.6890   -0.7702    0.2816 C   0  0  0  0  0  0  0  0  0  0  0  0
   -2.2944    0.1822    0.7695 O   0  0  0  0  0  0  0  0  0  0  0  0
    0.8275   -1.1383    0.1187 C   0  0  0  0  0  0  0  0  0  0  0  0
    2.0487   -1.2427   -0.8042 C   0  0  0  0  0  0  0  0  0  0  0  0
    3.2616   -1.7993   -0.0549 C   0  0  0  0  0  0  0  0  0  0  0  0
    4.4772   -1.8784   -0.9666 C   0  0  0  0  0  0  0  0  0  0  0  0
    5.6308   -2.3986   -0.1942 N   0  3  0  0  0  0  0  0  0  0  0  0
   -0.6336    1.4811   -0.2948 H   0  0  0  0  0  0  0  0  0  0  0  0
   -0.5892   -1.1614   -1.5070 H   0  0  0  0  0  0  0  0  0  0  0  0
    1.0746   -0.4763    0.9588 H   0  0  0  0  0  0  0  0  0  0  0  0
    0.6219   -2.1270    0.5473 H   0  0  0  0  0  0  0  0  0  0  0  0
    1.8206   -1.8957   -1.6546 H   0  0  0  0  0  0  0  0  0  0  0  0
    2.2974   -0.2552   -1.2101 H   0  0  0  0  0  0  0  0  0  0  0  0
    3.0254   -2.7965    0.3369 H   0  0  0  0  0  0  0  0  0  0  0  0
    3.4853   -1.1598    0.8080 H   0  0  0  0  0  0  0  0  0  0  0  0
    4.3187   -2.5663   -1.8025 H   0  0  0  0  0  0  0  0  0  0  0  0
    4.7681   -0.8953   -1.3484 H   0  0  0  0  0  0  0  0  0  0  0  0
    6.5174   -2.1629   -0.6534 H   0  0  0  0  0  0  0  0  0  0  0  0
    5.5832   -3.4198   -0.1060 H   0  0  0  0  0  0  0  0  0  0  0  0
    5.6497   -2.0009    0.7514 H   0  0  0  0  0  0  0  0  0  0  0  0
   -2.0727   -2.0975    0.4081 N   0  0  0  0  0  0  0  0  0  0  0  0
   -3.2414   -2.4923    1.1577 C   0  0  2  0  0  0  0  0  0  0  0  0
   -3.1834   -4.0008    1.3592 C   0  0  0  0  0  0  0  0  0  0  0  0
   -2.5334   -4.7500    0.6331 O   0  0  0  0  0  0  0  0  0  0  0  0
   -4.5207   -2.0884    0.4414 C   0  0  0  0  0  0  0  0  0  0  0  0
   -1.5125   -2.8154   -0.0419 H   0  0  0  0  0  0  0  0  0  0  0  0
   -3.1782   -1.9907    2.1295 H   0  0  0  0  0  0  0  0  0  0  0  0
   -4.6017   -2.5812   -0.5344 H   0  0  0  0  0  0  0  0  0  0  0  0
   -5.4057   -2.3631    1.0247 H   0  0  0  0  0  0  0  0  0  0  0  0
   -4.5470   -1.0068    0.2707 H   0  0  0  0  0  0  0  0  0  0  0  0
   -3.9773   -4.4166    2.4190 N   0  0  0  0  0  0  0  0  0  0  0  0
   -4.1004   -5.8033    2.8036 C   0  0  0  0  0  0  0  0  0  0  0  0
   -4.4667   -3.7243    2.9784 H   0  0  0  0  0  0  0  0  0  0  0  0
   -4.9645   -6.2512    2.2910 H   0  0  0  0  0  0  0  0  0  0  0  0
   -3.1855   -6.3447    2.5211 H   0  0  0  0  0  0  0  0  0  0  0  0
   -4.2448   -5.8703    3.8921 H   0  0  0  0  0  0  0  0  0  0  0  0
  1  3  1  0  0  0  0
  1  7  1  0  0  0  0
  1  2  2  0  0  0  0
 40 41  1  0  0  0  0
 41 49  1  0  0  0  0
 41 42  2  0  0  0  0
  8  9  1  0  0  0  0
  9 17  1  0  0  0  0
  9 10  2  0  0  0  0
 18 19  1  0  0  0  0
 19 39  1  0  0  0  0
 19 20  2  0  0  0  0
 40 43  1  0  0  0  0
  8 11  1  0  0  0  0
 49 50  1  0  0  0  0
 22 23  1  0  0  0  0
 21 22  1  0  0  0  0
 23 24  1  0  0  0  0
 18 21  1  0  0  0  0
 24 25  1  0  0  0  0
 39 40  1  0  0  0  0
  7  8  1  0  0  0  0
 17 18  1  0  0  0  0
  3  4  1  0  0  0  0
  3  5  1  0  0  0  0
  3  6  1  0  0  0  0
 43 46  1  0  0  0  0
 43 47  1  0  0  0  0
 43 48  1  0  0  0  0
 11 14  1  0  0  0  0
 11 15  1  0  0  0  0
 11 16  1  0  0  0  0
 50 52  1  0  0  0  0
 50 53  1  0  0  0  0
 50 54  1  0  0  0  0
 22 30  1  0  0  0  0
 22 31  1  0  0  0  0
 23 32  1  0  0  0  0
 23 33  1  0  0  0  0
 21 28  1  0  0  0  0
 21 29  1  0  0  0  0
 24 34  1  0  0  0  0
 24 35  1  0  0  0  0
 40 45  1  0  0  0  0
  8 13  1  0  0  0  0
 18 27  1  0  0  0  0
 49 51  1  0  0  0  0
  7 12  1  0  0  0  0
 39 44  1  0  0  0  0
 17 26  1  0  0  0  0
 25 36  1  0  0  0  0
 25 37  1  0  0  0  0
 25 38  1  0  0  0  0
M  CHG  1  25   1
M  END
$$$$

  -OEChem-05262214473D

 54 53  0     1  0  0  0  0  0999 V2000
    2.6714    2.8829   -3.0005 C   0  0  0  0  0  0  0  0  0  0  0  0
    3.1741    2.4398   -1.9745 O   0  0  0  0  0  0  0  0  0  0  0  0
    3.5527    3.3077   -4.1279 C   0  0  0  0  0  0  0  0  0  0  0  0
    3.8407    4.3691   -4.0597 H   0  0  0  0  0  0  0  0  0  0  0  0
    4.5024    2.7495   -4.1526 H   0  0  0  0  0  0  0  0  0  0  0  0
    3.1208    3.1887   -5.1345 H   0  0  0  0  0  0  0  0  0  0  0  0
    1.3174    3.0407   -3.2467 N   0  0  0  0  0  0  0  0  0  0  0  0
    0.2944    2.6927   -2.2960 C   0  0  2  0  0  0  0  0  0  0  0  0
    0.2976    1.1783   -2.1349 C   0  0  0  0  0  0  0  0  0  0  0  0
    0.7500    0.4142   -2.9850 O   0  0  0  0  0  0  0  0  0  0  0  0
   -1.0710    3.1886   -2.7460 C   0  0  0  0  0  0  0  0  0  0  0  0
    1.0312    3.4224   -4.1464 H   0  0  0  0  0  0  0  0  0  0  0  0
    0.5725    3.1622   -1.3461 H   0  0  0  0  0  0  0  0  0  0  0  0
   -1.3666    2.7292   -3.6963 H   0  0  0  0  0  0  0  0  0  0  0  0
   -1.8434    2.9482   -2.0082 H   0  0  0  0  0  0  0  0  0  0  0  0
   -1.0632    4.2744   -2.8901 H   0  0  0  0  0  0  0  0  0  0  0  0
   -0.3037    0.7742   -0.9484 N   0  0  0  0  0  0  0  0  0  0  0  0
   -0.4352   -0.6095   -0.5718 C   0  0  2  0  0  0  0  0  0  0  0  0
   -1.8492   -0.8455   -0.0511 C   0  0  0  0  0  0  0  0  0  0  0  0
   -2.7049    0.0364   -0.0118 O   0  0  0  0  0  0  0  0  0  0  0  0
    0.6467   -1.0373    0.4268 C   0  0  0  0  0  0  0  0  0  0  0  0
    2.0637   -1.0690   -0.1607 C   0  0  0  0  0  0  0  0  0  0  0  0
    3.0847   -1.5271    0.8834 C   0  0  0  0  0  0  0  0  0  0  0  0
    4.4918   -1.5339    0.3044 C   0  0  0  0  0  0  0  0  0  0  0  0
    5.4474   -1.9596    1.3551 N   0  3  0  0  0  0  0  0  0  0  0  0
   -0.6336    1.4811   -0.2948 H   0  0  0  0  0  0  0  0  0  0  0  0
   -0.3150   -1.1849   -1.4977 H   0  0  0  0  0  0  0  0  0  0  0  0
    0.6330   -0.3468    1.2801 H   0  0  0  0  0  0  0  0  0  0  0  0
    0.4051   -2.0314    0.8227 H   0  0  0  0  0  0  0  0  0  0  0  0
    2.0977   -1.7493   -1.0196 H   0  0  0  0  0  0  0  0  0  0  0  0
    2.3414   -0.0726   -0.5239 H   0  0  0  0  0  0  0  0  0  0  0  0
    2.8232   -2.5325    1.2363 H   0  0  0  0  0  0  0  0  0  0  0  0
    3.0442   -0.8605    1.7538 H   0  0  0  0  0  0  0  0  0  0  0  0
    4.5917   -2.2438   -0.5220 H   0  0  0  0  0  0  0  0  0  0  0  0
    4.8046   -0.5386   -0.0248 H   0  0  0  0  0  0  0  0  0  0  0  0
    6.4033   -1.6687    1.1226 H   0  0  0  0  0  0  0  0  0  0  0  0
    5.4454   -2.9801    1.4616 H   0  0  0  0  0  0  0  0  0  0  0  0
    5.2040   -1.5473    2.2625 H   0  0  0  0  0  0  0  0  0  0  0  0
   -2.0551   -2.1625    0.3337 N   0  0  0  0  0  0  0  0  0  0  0  0
   -3.3236   -2.6256    0.8437 C   0  0  2  0  0  0  0  0  0  0  0  0
   -3.1089   -4.0020    1.4591 C   0  0  0  0  0  0  0  0  0  0  0  0
   -2.1696   -4.7340    1.1542 O   0  0  0  0  0  0  0  0  0  0  0  0
   -4.3750   -2.6788   -0.2538 C   0  0  0  0  0  0  0  0  0  0  0  0
   -1.2875   -2.8229    0.2540 H   0  0  0  0  0  0  0  0  0  0  0  0
   -3.6276   -1.9194    1.6240 H   0  0  0  0  0  0  0  0  0  0  0  0
   -4.0878   -3.3813   -1.0447 H   0  0  0  0  0  0  0  0  0  0  0  0
   -5.3439   -3.0029    0.1403 H   0  0  0  0  0  0  0  0  0  0  0  0
   -4.5067   -1.6943   -0.7154 H   0  0  0  0  0  0  0  0  0  0  0  0
   -4.1135   -4.3348    2.3570 N   0  0  0  0  0  0  0  0  0  0  0  0
   -4.1421   -5.5942    3.0633 C   0  0  0  0  0  0  0  0  0  0  0  0
   -4.8433   -3.6590    2.5632 H   0  0  0  0  0  0  0  0  0  0  0  0
   -4.7384   -6.3216    2.4929 H   0  0  0  0  0  0  0  0  0  0  0  0
   -3.1158   -5.9726    3.1798 H   0  0  0  0  0  0  0  0  0  0  0  0
   -4.5937   -5.4478    4.0556 H   0  0  0  0  0  0  0  0  0  0  0  0
  1  3  1  0  0  0  0
  1  7  1  0  0  0  0
  1  2  2  0  0  0  0
 40 41  1  0  0  0  0
 41 49  1  0  0  0  0
 41 42  2  0  0  0  0
  8  9  1  0  0  0  0
  9 17  1  0  0  0  0
  9 10  2  0  0  0  0
 18 19  1  0  0  0  0
 19 39  1  0  0  0  0
 19 20  2  0  0  0  0
 40 43  1  0  0  0  0
  8 11  1  0  0  0  0
 49 50  1  0  0  0  0
 22 23  1  0  0  0  0
 21 22  1  0  0  0  0
 23 24  1  0  0  0  0
 18 21  1  0  0  0  0
 24 25  1  0  0  0  0
 39 40  1  0  0  0  0
  7  8  1  0  0  0  0
 17 18  1  0  0  0  0
  3  4  1  0  0  0  0
  3  5  1  0  0  0  0
  3  6  1  0  0  0  0
 43 46  1  0  0  0  0
 43 47  1  0  0  0  0
 43 48  1  0  0  0  0
 11 14  1  0  0  0  0
 11 15  1  0  0  0  0
 11 16  1  0  0  0  0
 50 52  1  0  0  0  0
 50 53  1  0  0  0  0
 50 54  1  0  0  0  0
 22 30  1  0  0  0  0
 22 31  1  0  0  0  0
 23 32  1  0  0  0  0
 23 33  1  0  0  0  0
 21 28  1  0  0  0  0
 21 29  1  0  0  0  0
 24 34  1  0  0  0  0
 24 35  1  0  0  0  0
 40 45  1  0  0  0  0
  8 13  1  0  0  0  0
 18 27  1  0  0  0  0
 49 51  1  0  0  0  0
  7 12  1  0  0  0  0
 39 44  1  0  0  0  0
 17 26  1  0  0  0  0
 25 36  1  0  0  0  0
 25 37  1  0  0  0  0
 25 38  1  0  0  0  0
M  CHG  1  25   1
M  END
$$$$

  -OEChem-05262214473D

 54 53  0     1  0  0  0  0  0999 V2000
    2.6714    2.8829   -3.0005 C   0  0  0  0  0  0  0  0  0  0  0  0
    3.1741    2.4398   -1.9745 O   0  0  0  0  0  0  0  0  0  0  0  0
    3.5527    3.3077   -4.1279 C   0  0  0  0  0  0  0  0  0  0  0  0
    3.8407    4.3691   -4.0597 H   0  0  0  0  0  0  0  0  0  0  0  0
    4.5024    2.7495   -4.1526 H   0  0  0  0  0  0  0  0  0  0  0  0
    3.1208    3.1887   -5.1345 H   0  0  0  0  0  0  0  0  0  0  0  0
    1.3174    3.0407   -3.2467 N   0  0  0  0  0  0  0  0  0  0  0  0
    0.2944    2.6927   -2.2960 C   0  0  2  0  0  0  0  0  0  0  0  0
    0.2976    1.1783   -2.1349 C   0  0  0  0  0  0  0  0  0  0  0  0
    0.7500    0.4142   -2.9850 O   0  0  0  0  0  0  0  0  0  0  0  0
   -1.0710    3.1886   -2.7460 C   0  0  0  0  0  0  0  0  0  0  0  0
    1.0312    3.4224   -4.1464 H   0  0  0  0  0  0  0  0  0  0  0  0
    0.5725    3.1622   -1.3461 H   0  0  0  0  0  0  0  0  0  0  0  0
   -1.3666    2.7292   -3.6963 H   0  0  0  0  0  0  0  0  0  0  0  0
   -1.8434    2.9482   -2.0082 H   0  0  0  0  0  0  0  0  0  0  0  0
   -1.0632    4.2744   -2.8901 H   0  0  0  0  0  0  0  0  0  0  0  0
   -0.3037    0.7742   -0.9484 N   0  0  0  0  0  0  0  0  0  0  0  0
   -0.4352   -0.6095   -0.5718 C   0  0  2  0  0  0  0  0  0  0  0  0
   -1.8492   -0.8455   -0.0511 C   0  0  0  0  0  0  0  0  0  0  0  0
   -2.7764   -0.0634   -0.2512 O   0  0  0  0  0  0  0  0  0  0  0  0
    0.6467   -1.0373    0.4268 C   0  0  0  0  0  0  0  0  0  0  0  0
    2.0637   -1.0690   -0.1607 C   0  0  0  0  0  0  0  0  0  0  0  0
    3.0847   -1.5271    0.8834 C   0  0  0  0  0  0  0  0  0  0  0  0
    4.4918   -1.5339    0.3044 C   0  0  0  0  0  0  0  0  0  0  0  0
    5.4474   -1.9596    1.3551 N   0  3  0  0  0  0  0  0  0  0  0  0
   -0.6336    1.4811   -0.2948 H   0  0  0  0  0  0  0  0  0  0  0  0
   -0.3150   -1.1849   -1.4977 H   0  0  0  0  0  0  0  0  0  0  0  0
    0.6330   -0.3468    1.2801 H   0  0  0  0  0  0  0  0  0  0  0  0
    0.4051   -2.0314    0.8227 H   0  0  0  0  0  0  0  0  0  0  0  0
    2.0977   -1.7493   -1.0196 H   0  0  0  0  0  0  0  0  0  0  0  0
    2.3414   -0.0726   -0.5239 H   0  0  0  0  0  0  0  0  0  0  0  0
    2.8232   -2.5325    1.2363 H   0  0  0  0  0  0  0  0  0  0  0  0
    3.0442   -0.8605    1.7538 H   0  0  0  0  0  0  0  0  0  0  0  0
    4.5917   -2.2438   -0.5220 H   0  0  0  0  0  0  0  0  0  0  0  0
    4.8046   -0.5386   -0.0248 H   0  0  0  0  0  0  0  0  0  0  0  0
    6.4033   -1.6687    1.1226 H   0  0  0  0  0  0  0  0  0  0  0  0
    5.4454   -2.9801    1.4616 H   0  0  0  0  0  0  0  0  0  0  0  0
    5.2040   -1.5473    2.2625 H   0  0  0  0  0  0  0  0  0  0  0  0
   -1.9637   -2.0462    0.6345 N   0  0  0  0  0  0  0  0  0  0  0  0
   -3.2134   -2.4908    1.2039 C   0  0  2  0  0  0  0  0  0  0  0  0
   -2.9161   -3.6549    2.1398 C   0  0  0  0  0  0  0  0  0  0  0  0
   -1.9047   -4.3475    2.0486 O   0  0  0  0  0  0  0  0  0  0  0  0
   -4.1996   -2.9017    0.1216 C   0  0  0  0  0  0  0  0  0  0  0  0
   -1.1407   -2.6321    0.7392 H   0  0  0  0  0  0  0  0  0  0  0  0
   -3.6146   -1.6506    1.7812 H   0  0  0  0  0  0  0  0  0  0  0  0
   -3.8149   -3.7423   -0.4673 H   0  0  0  0  0  0  0  0  0  0  0  0
   -5.1568   -3.2115    0.5538 H   0  0  0  0  0  0  0  0  0  0  0  0
   -4.3894   -2.0721   -0.5680 H   0  0  0  0  0  0  0  0  0  0  0  0
   -3.9338   -3.8564    3.0617 N   0  0  0  0  0  0  0  0  0  0  0  0
   -3.8930   -4.9084    4.0505 C   0  0  0  0  0  0  0  0  0  0  0  0
   -4.7270   -3.2220    3.0771 H   0  0  0  0  0  0  0  0  0  0  0  0
   -4.3968   -5.8031    3.6557 H   0  0  0  0  0  0  0  0  0  0  0  0
   -2.8460   -5.1508    4.2849 H   0  0  0  0  0  0  0  0  0  0  0  0
   -4.4051   -4.5727    4.9643 H   0  0  0  0  0  0  0  0  0  0  0  0
  1  3  1  0  0  0  0
  1  7  1  0  0  0  0
  1  2  2  0  0  0  0
 40 41  1  0  0  0  0
 41 49  1  0  0  0  0
 41 42  2  0  0  0  0
  8  9  1  0  0  0  0
  9 17  1  0  0  0  0
  9 10  2  0  0  0  0
 18 19  1  0  0  0  0
 19 39  1  0  0  0  0
 19 20  2  0  0  0  0
 40 43  1  0  0  0  0
  8 11  1  0  0  0  0
 49 50  1  0  0  0  0
 22 23  1  0  0  0  0
 21 22  1  0  0  0  0
 23 24  1  0  0  0  0
 18 21  1  0  0  0  0
 24 25  1  0  0  0  0
 39 40  1  0  0  0  0
  7  8  1  0  0  0  0
 17 18  1  0  0  0  0
  3  4  1  0  0  0  0
  3  5  1  0  0  0  0
  3  6  1  0  0  0  0
 43 46  1  0  0  0  0
 43 47  1  0  0  0  0
 43 48  1  0  0  0  0
 11 14  1  0  0  0  0
 11 15  1  0  0  0  0
 11 16  1  0  0  0  0
 50 52  1  0  0  0  0
 50 53  1  0  0  0  0
 50 54  1  0  0  0  0
 22 30  1  0  0  0  0
 22 31  1  0  0  0  0
 23 32  1  0  0  0  0
 23 33  1  0  0  0  0
 21 28  1  0  0  0  0
 21 29  1  0  0  0  0
 24 34  1  0  0  0  0
 24 35  1  0  0  0  0
 40 45  1  0  0  0  0
  8 13  1  0  0  0  0
 18 27  1  0  0  0  0
 49 51  1  0  0  0  0
  7 12  1  0  0  0  0
 39 44  1  0  0  0  0
 17 26  1  0  0  0  0
 25 36  1  0  0  0  0
 25 37  1  0  0  0  0
 25 38  1  0  0  0  0
M  CHG  1  25   1
M  END
$$$$

  -OEChem-05262214473D

 54 53  0     1  0  0  0  0  0999 V2000
    2.6714    2.8829   -3.0005 C   0  0  0  0  0  0  0  0  0  0  0  0
    3.1741    2.4398   -1.9745 O   0  0  0  0  0  0  0  0  0  0  0  0
    3.5527    3.3077   -4.1279 C   0  0  0  0  0  0  0  0  0  0  0  0
    3.8407    4.3691   -4.0597 H   0  0  0  0  0  0  0  0  0  0  0  0
    4.5024    2.7495   -4.1526 H   0  0  0  0  0  0  0  0  0  0  0  0
    3.1208    3.1887   -5.1345 H   0  0  0  0  0  0  0  0  0  0  0  0
    1.3174    3.0407   -3.2467 N   0  0  0  0  0  0  0  0  0  0  0  0
    0.2944    2.6927   -2.2960 C   0  0  2  0  0  0  0  0  0  0  0  0
    0.2976    1.1783   -2.1349 C   0  0  0  0  0  0  0  0  0  0  0  0
    0.7500    0.4142   -2.9850 O   0  0  0  0  0  0  0  0  0  0  0  0
   -1.0710    3.1886   -2.7460 C   0  0  0  0  0  0  0  0  0  0  0  0
    1.0312    3.4224   -4.1464 H   0  0  0  0  0  0  0  0  0  0  0  0
    0.5725    3.1622   -1.3461 H   0  0  0  0  0  0  0  0  0  0  0  0
   -1.3666    2.7292   -3.6963 H   0  0  0  0  0  0  0  0  0  0  0  0
   -1.8434    2.9482   -2.0082 H   0  0  0  0  0  0  0  0  0  0  0  0
   -1.0632    4.2744   -2.8901 H   0  0  0  0  0  0  0  0  0  0  0  0
   -0.3037    0.7742   -0.9484 N   0  0  0  0  0  0  0  0  0  0  0  0
   -0.4352   -0.6095   -0.5718 C   0  0  2  0  0  0  0  0  0  0  0  0
   -1.8492   -0.8455   -0.0511 C   0  0  0  0  0  0  0  0  0  0  0  0
   -2.8271   -0.2235   -0.4614 O   0  0  0  0  0  0  0  0  0  0  0  0
    0.6467   -1.0373    0.4268 C   0  0  0  0  0  0  0  0  0  0  0  0
    2.0637   -1.0690   -0.1607 C   0  0  0  0  0  0  0  0  0  0  0  0
    3.0847   -1.5271    0.8834 C   0  0  0  0  0  0  0  0  0  0  0  0
    4.4918   -1.5339    0.3044 C   0  0  0  0  0  0  0  0  0  0  0  0
    5.4474   -1.9596    1.3551 N   0  3  0  0  0  0  0  0  0  0  0  0
   -0.6336    1.4811   -0.2948 H   0  0  0  0  0  0  0  0  0  0  0  0
   -0.3150   -1.1849   -1.4977 H   0  0  0  0  0  0  0  0  0  0  0  0
    0.6330   -0.3468    1.2801 H   0  0  0  0  0  0  0  0  0  0  0  0
    0.4051   -2.0314    0.8227 H   0  0  0  0  0  0  0  0  0  0  0  0
    2.0977   -1.7493   -1.0196 H   0  0  0  0  0  0  0  0  0  0  0  0
    2.3414   -0.0726   -0.5239 H   0  0  0  0  0  0  0  0  0  0  0  0
    2.8232   -2.5325    1.2363 H   0  0  0  0  0  0  0  0  0  0  0  0
    3.0442   -0.8605    1.7538 H   0  0  0  0  0  0  0  0  0  0  0  0
    4.5917   -2.2438   -0.5220 H   0  0  0  0  0  0  0  0  0  0  0  0
    4.8046   -0.5386   -0.0248 H   0  0  0  0  0  0  0  0  0  0  0  0
    6.4033   -1.6687    1.1226 H   0  0  0  0  0  0  0  0  0  0  0  0
    5.4454   -2.9801    1.4616 H   0  0  0  0  0  0  0  0  0  0  0  0
    5.2040   -1.5473    2.2625 H   0  0  0  0  0  0  0  0  0  0  0  0
   -1.8978   -1.8537    0.9008 N   0  0  0  0  0  0  0  0  0  0  0  0
   -3.1334   -2.2644    1.5240 C   0  0  2  0  0  0  0  0  0  0  0  0
   -2.7879   -3.1392    2.7218 C   0  0  0  0  0  0  0  0  0  0  0  0
   -1.7188   -3.7362    2.8303 O   0  0  0  0  0  0  0  0  0  0  0  0
   -4.0254   -3.0113    0.5447 C   0  0  0  0  0  0  0  0  0  0  0  0
   -1.0351   -2.3184    1.1681 H   0  0  0  0  0  0  0  0  0  0  0  0
   -3.6321   -1.3521    1.8690 H   0  0  0  0  0  0  0  0  0  0  0  0
   -3.5425   -3.9284    0.1880 H   0  0  0  0  0  0  0  0  0  0  0  0
   -4.9742   -3.2972    1.0108 H   0  0  0  0  0  0  0  0  0  0  0  0
   -4.2485   -2.3913   -0.3303 H   0  0  0  0  0  0  0  0  0  0  0  0
   -3.8307   -3.2093    3.6349 N   0  0  0  0  0  0  0  0  0  0  0  0
   -3.7526   -3.9871    4.8494 C   0  0  0  0  0  0  0  0  0  0  0  0
   -4.6738   -2.6664    3.4732 H   0  0  0  0  0  0  0  0  0  0  0  0
   -4.1592   -4.9930    4.6680 H   0  0  0  0  0  0  0  0  0  0  0  0
   -2.7023   -4.0679    5.1660 H   0  0  0  0  0  0  0  0  0  0  0  0
   -4.3367   -3.4927    5.6395 H   0  0  0  0  0  0  0  0  0  0  0  0
  1  3  1  0  0  0  0
  1  7  1  0  0  0  0
  1  2  2  0  0  0  0
 40 41  1  0  0  0  0
 41 49  1  0  0  0  0
 41 42  2  0  0  0  0
  8  9  1  0  0  0  0
  9 17  1  0  0  0  0
  9 10  2  0  0  0  0
 18 19  1  0  0  0  0
 19 39  1  0  0  0  0
 19 20  2  0  0  0  0
 40 43  1  0  0  0  0
  8 11  1  0  0  0  0
 49 50  1  0  0  0  0
 22 23  1  0  0  0  0
 21 22  1  0  0  0  0
 23 24  1  0  0  0  0
 18 21  1  0  0  0  0
 24 25  1  0  0  0  0
 39 40  1  0  0  0  0
  7  8  1  0  0  0  0
 17 18  1  0  0  0  0
  3  4  1  0  0  0  0
  3  5  1  0  0  0  0
  3  6  1  0  0  0  0
 43 46  1  0  0  0  0
 43 47  1  0  0  0  0
 43 48  1  0  0  0  0
 11 14  1  0  0  0  0
 11 15  1  0  0  0  0
 11 16  1  0  0  0  0
 50 52  1  0  0  0  0
 50 53  1  0  0  0  0
 50 54  1  0  0  0  0
 22 30  1  0  0  0  0
 22 31  1  0  0  0  0
 23 32  1  0  0  0  0
 23 33  1  0  0  0  0
 21 28  1  0  0  0  0
 21 29  1  0  0  0  0
 24 34  1  0  0  0  0
 24 35  1  0  0  0  0
 40 45  1  0  0  0  0
  8 13  1  0  0  0  0
 18 27  1  0  0  0  0
 49 51  1  0  0  0  0
  7 12  1  0  0  0  0
 39 44  1  0  0  0  0
 17 26  1  0  0  0  0
 25 36  1  0  0  0  0
 25 37  1  0  0  0  0
 25 38  1  0  0  0  0
M  CHG  1  25   1
M  END
$$$$

  -OEChem-05262214473D

 54 53  0     1  0  0  0  0  0999 V2000
    2.6714    2.8829   -3.0005 C   0  0  0  0  0  0  0  0  0  0  0  0
    3.1741    2.4398   -1.9745 O   0  0  0  0  0  0  0  0  0  0  0  0
    3.5527    3.3077   -4.1279 C   0  0  0  0  0  0  0  0  0  0  0  0
    3.8407    4.3691   -4.0597 H   0  0  0  0  0  0  0  0  0  0  0  0
    4.5024    2.7495   -4.1526 H   0  0  0  0  0  0  0  0  0  0  0  0
    3.1208    3.1887   -5.1345 H   0  0  0  0  0  0  0  0  0  0  0  0
    1.3174    3.0407   -3.2467 N   0  0  0  0  0  0  0  0  0  0  0  0
    0.2944    2.6927   -2.2960 C   0  0  2  0  0  0  0  0  0  0  0  0
    0.2976    1.1783   -2.1349 C   0  0  0  0  0  0  0  0  0  0  0  0
    0.7500    0.4142   -2.9850 O   0  0  0  0  0  0  0  0  0  0  0  0
   -1.0710    3.1886   -2.7460 C   0  0  0  0  0  0  0  0  0  0  0  0
    1.0312    3.4224   -4.1464 H   0  0  0  0  0  0  0  0  0  0  0  0
    0.5725    3.1622   -1.3461 H   0  0  0  0  0  0  0  0  0  0  0  0
   -1.3666    2.7292   -3.6963 H   0  0  0  0  0  0  0  0  0  0  0  0
   -1.8434    2.9482   -2.0082 H   0  0  0  0  0  0  0  0  0  0  0  0
   -1.0632    4.2744   -2.8901 H   0  0  0  0  0  0  0  0  0  0  0  0
   -0.3037    0.7742   -0.9484 N   0  0  0  0  0  0  0  0  0  0  0  0
   -0.4352   -0.6095   -0.5718 C   0  0  2  0  0  0  0  0  0  0  0  0
   -1.8492   -0.8455   -0.0511 C   0  0  0  0  0  0  0  0  0  0  0  0
   -2.8535   -0.4331   -0.6280 O   0  0  0  0  0  0  0  0  0  0  0  0
    0.6467   -1.0373    0.4268 C   0  0  0  0  0  0  0  0  0  0  0  0
    2.0637   -1.0690   -0.1607 C   0  0  0  0  0  0  0  0  0  0  0  0
    3.0847   -1.5271    0.8834 C   0  0  0  0  0  0  0  0  0  0  0  0
    4.4918   -1.5339    0.3044 C   0  0  0  0  0  0  0  0  0  0  0  0
    5.4474   -1.9596    1.3551 N   0  3  0  0  0  0  0  0  0  0  0  0
   -0.6336    1.4811   -0.2948 H   0  0  0  0  0  0  0  0  0  0  0  0
   -0.3150   -1.1849   -1.4977 H   0  0  0  0  0  0  0  0  0  0  0  0
    0.6330   -0.3468    1.2801 H   0  0  0  0  0  0  0  0  0  0  0  0
    0.4051   -2.0314    0.8227 H   0  0  0  0  0  0  0  0  0  0  0  0
    2.0977   -1.7493   -1.0196 H   0  0  0  0  0  0  0  0  0  0  0  0
    2.3414   -0.0726   -0.5239 H   0  0  0  0  0  0  0  0  0  0  0  0
    2.8232   -2.5325    1.2363 H   0  0  0  0  0  0  0  0  0  0  0  0
    3.0442   -0.8605    1.7538 H   0  0  0  0  0  0  0  0  0  0  0  0
    4.5917   -2.2438   -0.5220 H   0  0  0  0  0  0  0  0  0  0  0  0
    4.8046   -0.5386   -0.0248 H   0  0  0  0  0  0  0  0  0  0  0  0
    6.4033   -1.6687    1.1226 H   0  0  0  0  0  0  0  0  0  0  0  0
    5.4454   -2.9801    1.4616 H   0  0  0  0  0  0  0  0  0  0  0  0
    5.2040   -1.5473    2.2625 H   0  0  0  0  0  0  0  0  0  0  0  0
   -1.8618   -1.5980    1.1144 N   0  0  0  0  0  0  0  0  0  0  0  0
   -3.0888   -1.9619    1.7820 C   0  0  2  0  0  0  0  0  0  0  0  0
   -2.7329   -2.4901    3.1654 C   0  0  0  0  0  0  0  0  0  0  0  0
   -1.6246   -2.9417    3.4462 O   0  0  0  0  0  0  0  0  0  0  0  0
   -3.8645   -3.0003    0.9867 C   0  0  0  0  0  0  0  0  0  0  0  0
   -0.9780   -1.9031    1.5113 H   0  0  0  0  0  0  0  0  0  0  0  0
   -3.6788   -1.0442    1.8815 H   0  0  0  0  0  0  0  0  0  0  0  0
   -3.2892   -3.9268    0.8765 H   0  0  0  0  0  0  0  0  0  0  0  0
   -4.8085   -3.2542    1.4801 H   0  0  0  0  0  0  0  0  0  0  0  0
   -4.0938   -2.6301   -0.0184 H   0  0  0  0  0  0  0  0  0  0  0  0
   -3.8113   -2.4377    4.0374 N   0  0  0  0  0  0  0  0  0  0  0  0
   -3.7303   -2.8931    5.4056 C   0  0  0  0  0  0  0  0  0  0  0  0
   -4.6874   -2.0299    3.7247 H   0  0  0  0  0  0  0  0  0  0  0  0
   -4.0418   -3.9467    5.4610 H   0  0  0  0  0  0  0  0  0  0  0  0
   -2.6944   -2.7979    5.7630 H   0  0  0  0  0  0  0  0  0  0  0  0
   -4.3931   -2.2814    6.0354 H   0  0  0  0  0  0  0  0  0  0  0  0
  1  3  1  0  0  0  0
  1  7  1  0  0  0  0
  1  2  2  0  0  0  0
 40 41  1  0  0  0  0
 41 49  1  0  0  0  0
 41 42  2  0  0  0  0
  8  9  1  0  0  0  0
  9 17  1  0  0  0  0
  9 10  2  0  0  0  0
 18 19  1  0  0  0  0
 19 39  1  0  0  0  0
 19 20  2  0  0  0  0
 40 43  1  0  0  0  0
  8 11  1  0  0  0  0
 49 50  1  0  0  0  0
 22 23  1  0  0  0  0
 21 22  1  0  0  0  0
 23 24  1  0  0  0  0
 18 21  1  0  0  0  0
 24 25  1  0  0  0  0
 39 40  1  0  0  0  0
  7  8  1  0  0  0  0
 17 18  1  0  0  0  0
  3  4  1  0  0  0  0
  3  5  1  0  0  0  0
  3  6  1  0  0  0  0
 43 46  1  0  0  0  0
 43 47  1  0  0  0  0
 43 48  1  0  0  0  0
 11 14  1  0  0  0  0
 11 15  1  0  0  0  0
 11 16  1  0  0  0  0
 50 52  1  0  0  0  0
 50 53  1  0  0  0  0
 50 54  1  0  0  0  0
 22 30  1  0  0  0  0
 22 31  1  0  0  0  0
 23 32  1  0  0  0  0
 23 33  1  0  0  0  0
 21 28  1  0  0  0  0
 21 29  1  0  0  0  0
 24 34  1  0  0  0  0
 24 35  1  0  0  0  0
 40 45  1  0  0  0  0
  8 13  1  0  0  0  0
 18 27  1  0  0  0  0
 49 51  1  0  0  0  0
  7 12  1  0  0  0  0
 39 44  1  0  0  0  0
 17 26  1  0  0  0  0
 25 36  1  0  0  0  0
 25 37  1  0  0  0  0
 25 38  1  0  0  0  0
M  CHG  1  25   1
M  END
$$$$

  -OEChem-05262214473D

 54 53  0     1  0  0  0  0  0999 V2000
    2.6714    2.8829   -3.0005 C   0  0  0  0  0  0  0  0  0  0  0  0
    3.1741    2.4398   -1.9745 O   0  0  0  0  0  0  0  0  0  0  0  0
    3.5527    3.3077   -4.1279 C   0  0  0  0  0  0  0  0  0  0  0  0
    3.8407    4.3691   -4.0597 H   0  0  0  0  0  0  0  0  0  0  0  0
    4.5024    2.7495   -4.1526 H   0  0  0  0  0  0  0  0  0  0  0  0
    3.1208    3.1887   -5.1345 H   0  0  0  0  0  0  0  0  0  0  0  0
    1.3174    3.0407   -3.2467 N   0  0  0  0  0  0  0  0  0  0  0  0
    0.2944    2.6927   -2.2960 C   0  0  2  0  0  0  0  0  0  0  0  0
    0.2976    1.1783   -2.1349 C   0  0  0  0  0  0  0  0  0  0  0  0
    0.7500    0.4142   -2.9850 O   0  0  0  0  0  0  0  0  0  0  0  0
   -1.0710    3.1886   -2.7460 C   0  0  0  0  0  0  0  0  0  0  0  0
    1.0312    3.4224   -4.1464 H   0  0  0  0  0  0  0  0  0  0  0  0
    0.5725    3.1622   -1.3461 H   0  0  0  0  0  0  0  0  0  0  0  0
   -1.3666    2.7292   -3.6963 H   0  0  0  0  0  0  0  0  0  0  0  0
   -1.8434    2.9482   -2.0082 H   0  0  0  0  0  0  0  0  0  0  0  0
   -1.0632    4.2744   -2.8901 H   0  0  0  0  0  0  0  0  0  0  0  0
   -0.3037    0.7742   -0.9484 N   0  0  0  0  0  0  0  0  0  0  0  0
   -0.4352   -0.6095   -0.5718 C   0  0  2  0  0  0  0  0  0  0  0  0
   -1.8492   -0.8455   -0.0511 C   0  0  0  0  0  0  0  0  0  0  0  0
   -2.8538   -0.6779   -0.7398 O   0  0  0  0  0  0  0  0  0  0  0  0
    0.6467   -1.0373    0.4268 C   0  0  0  0  0  0  0  0  0  0  0  0
    2.0637   -1.0690   -0.1607 C   0  0  0  0  0  0  0  0  0  0  0  0
    3.0847   -1.5271    0.8834 C   0  0  0  0  0  0  0  0  0  0  0  0
    4.4918   -1.5339    0.3044 C   0  0  0  0  0  0  0  0  0  0  0  0
    5.4474   -1.9596    1.3551 N   0  3  0  0  0  0  0  0  0  0  0  0
   -0.6336    1.4811   -0.2948 H   0  0  0  0  0  0  0  0  0  0  0  0
   -0.3150   -1.1849   -1.4977 H   0  0  0  0  0  0  0  0  0  0  0  0
    0.6330   -0.3468    1.2801 H   0  0  0  0  0  0  0  0  0  0  0  0
    0.4051   -2.0314    0.8227 H   0  0  0  0  0  0  0  0  0  0  0  0
    2.0977   -1.7493   -1.0196 H   0  0  0  0  0  0  0  0  0  0  0  0
    2.3414   -0.0726   -0.5239 H   0  0  0  0  0  0  0  0  0  0  0  0
    2.8232   -2.5325    1.2363 H   0  0  0  0  0  0  0  0  0  0  0  0
    3.0442   -0.8605    1.7538 H   0  0  0  0  0  0  0  0  0  0  0  0
    4.5917   -2.2438   -0.5220 H   0  0  0  0  0  0  0  0  0  0  0  0
    4.8046   -0.5386   -0.0248 H   0  0  0  0  0  0  0  0  0  0  0  0
    6.4033   -1.6687    1.1226 H   0  0  0  0  0  0  0  0  0  0  0  0
    5.4454   -2.9801    1.4616 H   0  0  0  0  0  0  0  0  0  0  0  0
    5.2040   -1.5473    2.2625 H   0  0  0  0  0  0  0  0  0  0  0  0
   -1.8581   -1.2966    1.2609 N   0  0  0  0  0  0  0  0  0  0  0  0
   -3.0829   -1.6038    1.9604 C   0  0  2  0  0  0  0  0  0  0  0  0
   -2.7549   -1.7518    3.4403 C   0  0  0  0  0  0  0  0  0  0  0  0
   -1.6285   -2.0182    3.8543 O   0  0  0  0  0  0  0  0  0  0  0  0
   -3.7277   -2.8695    1.4174 C   0  0  0  0  0  0  0  0  0  0  0  0
   -0.9733   -1.4146    1.7454 H   0  0  0  0  0  0  0  0  0  0  0  0
   -3.7517   -0.7480    1.8178 H   0  0  0  0  0  0  0  0  0  0  0  0
   -3.0723   -3.7377    1.5514 H   0  0  0  0  0  0  0  0  0  0  0  0
   -4.6711   -3.0854    1.9297 H   0  0  0  0  0  0  0  0  0  0  0  0
   -3.9357   -2.7723    0.3464 H   0  0  0  0  0  0  0  0  0  0  0  0
   -3.8768   -1.5940    4.2418 N   0  0  0  0  0  0  0  0  0  0  0  0
   -3.8278   -1.7009    5.6813 C   0  0  0  0  0  0  0  0  0  0  0  0
   -4.7669   -1.3560    3.8143 H   0  0  0  0  0  0  0  0  0  0  0  0
   -4.0526   -2.7353    5.9806 H   0  0  0  0  0  0  0  0  0  0  0  0
   -2.8229   -1.4271    6.0352 H   0  0  0  0  0  0  0  0  0  0  0  0
   -4.5705   -1.0214    6.1248 H   0  0  0  0  0  0  0  0  0  0  0  0
  1  3  1  0  0  0  0
  1  7  1  0  0  0  0
  1  2  2  0  0  0  0
 40 41  1  0  0  0  0
 41 49  1  0  0  0  0
 41 42  2  0  0  0  0
  8  9  1  0  0  0  0
  9 17  1  0  0  0  0
  9 10  2  0  0  0  0
 18 19  1  0  0  0  0
 19 39  1  0  0  0  0
 19 20  2  0  0  0  0
 40 43  1  0  0  0  0
  8 11  1  0  0  0  0
 49 50  1  0  0  0  0
 22 23  1  0  0  0  0
 21 22  1  0  0  0  0
 23 24  1  0  0  0  0
 18 21  1  0  0  0  0
 24 25  1  0  0  0  0
 39 40  1  0  0  0  0
  7  8  1  0  0  0  0
 17 18  1  0  0  0  0
  3  4  1  0  0  0  0
  3  5  1  0  0  0  0
  3  6  1  0  0  0  0
 43 46  1  0  0  0  0
 43 47  1  0  0  0  0
 43 48  1  0  0  0  0
 11 14  1  0  0  0  0
 11 15  1  0  0  0  0
 11 16  1  0  0  0  0
 50 52  1  0  0  0  0
 50 53  1  0  0  0  0
 50 54  1  0  0  0  0
 22 30  1  0  0  0  0
 22 31  1  0  0  0  0
 23 32  1  0  0  0  0
 23 33  1  0  0  0  0
 21 28  1  0  0  0  0
 21 29  1  0  0  0  0
 24 34  1  0  0  0  0
 24 35  1  0  0  0  0
 40 45  1  0  0  0  0
  8 13  1  0  0  0  0
 18 27  1  0  0  0  0
 49 51  1  0  0  0  0
  7 12  1  0  0  0  0
 39 44  1  0  0  0  0
 17 26  1  0  0  0  0
 25 36  1  0  0  0  0
 25 37  1  0  0  0  0
 25 38  1  0  0  0  0
M  CHG  1  25   1
M  END
$$$$

  -OEChem-05262214473D

 54 53  0     1  0  0  0  0  0999 V2000
    2.6714    2.8829   -3.0005 C   0  0  0  0  0  0  0  0  0  0  0  0
    3.1741    2.4398   -1.9745 O   0  0  0  0  0  0  0  0  0  0  0  0
    3.5527    3.3077   -4.1279 C   0  0  0  0  0  0  0  0  0  0  0  0
    3.8407    4.3691   -4.0597 H   0  0  0  0  0  0  0  0  0  0  0  0
    4.5024    2.7495   -4.1526 H   0  0  0  0  0  0  0  0  0  0  0  0
    3.1208    3.1887   -5.1345 H   0  0  0  0  0  0  0  0  0  0  0  0
    1.3174    3.0407   -3.2467 N   0  0  0  0  0  0  0  0  0  0  0  0
    0.2944    2.6927   -2.2960 C   0  0  2  0  0  0  0  0  0  0  0  0
    0.2976    1.1783   -2.1349 C   0  0  0  0  0  0  0  0  0  0  0  0
    0.7500    0.4142   -2.9850 O   0  0  0  0  0  0  0  0  0  0  0  0
   -1.0710    3.1886   -2.7460 C   0  0  0  0  0  0  0  0  0  0  0  0
    1.0312    3.4224   -4.1464 H   0  0  0  0  0  0  0  0  0  0  0  0
    0.5725    3.1622   -1.3461 H   0  0  0  0  0  0  0  0  0  0  0  0
   -1.3666    2.7292   -3.6963 H   0  0  0  0  0  0  0  0  0  0  0  0
   -1.8434    2.9482   -2.0082 H   0  0  0  0  0  0  0  0  0  0  0  0
   -1.0632    4.2744   -2.8901 H   0  0  0  0  0  0  0  0  0  0  0  0
   -0.3037    0.7742   -0.9484 N   0  0  0  0  0  0  0  0  0  0  0  0
   -0.4352   -0.6095   -0.5718 C   0  0  2  0  0  0  0  0  0  0  0  0
   -1.8492   -0.8455   -0.0511 C   0  0  0  0  0  0  0  0  0  0  0  0
   -2.8279   -0.9411   -0.7890 O   0  0  0  0  0  0  0  0  0  0  0  0
    0.6467   -1.0373    0.4268 C   0  0  0  0  0  0  0  0  0  0  0  0
    2.0637   -1.0690   -0.1607 C   0  0  0  0  0  0  0  0  0  0  0  0
    3.0847   -1.5271    0.8834 C   0  0  0  0  0  0  0  0  0  0  0  0
    4.4918   -1.5339    0.3044 C   0  0  0  0  0  0  0  0  0  0  0  0
    5.4474   -1.9596    1.3551 N   0  3  0  0  0  0  0  0  0  0  0  0
   -0.6336    1.4811   -0.2948 H   0  0  0  0  0  0  0  0  0  0  0  0
   -0.3150   -1.1849   -1.4977 H   0  0  0  0  0  0  0  0  0  0  0  0
    0.6330   -0.3468    1.2801 H   0  0  0  0  0  0  0  0  0  0  0  0
    0.4051   -2.0314    0.8227 H   0  0  0  0  0  0  0  0  0  0  0  0
    2.0977   -1.7493   -1.0196 H   0  0  0  0  0  0  0  0  0  0  0  0
    2.3414   -0.0726   -0.5239 H   0  0  0  0  0  0  0  0  0  0  0  0
    2.8232   -2.5325    1.2363 H   0  0  0  0  0  0  0  0  0  0  0  0
    3.0442   -0.8605    1.7538 H   0  0  0  0  0  0  0  0  0  0  0  0
    4.5917   -2.2438   -0.5220 H   0  0  0  0  0  0  0  0  0  0  0  0
    4.8046   -0.5386   -0.0248 H   0  0  0  0  0  0  0  0  0  0  0  0
    6.4033   -1.6687    1.1226 H   0  0  0  0  0  0  0  0  0  0  0  0
    5.4454   -2.9801    1.4616 H   0  0  0  0  0  0  0  0  0  0  0  0
    5.2040   -1.5473    2.2625 H   0  0  0  0  0  0  0  0  0  0  0  0
   -1.8871   -0.9700    1.3302 N   0  0  0  0  0  0  0  0  0  0  0  0
   -3.1159   -1.2146    2.0471 C   0  0  2  0  0  0  0  0  0  0  0  0
   -2.8524   -0.9746    3.5278 C   0  0  0  0  0  0  0  0  0  0  0  0
   -1.7302   -1.0285    4.0267 O   0  0  0  0  0  0  0  0  0  0  0  0
   -3.6244   -2.6276    1.8075 C   0  0  0  0  0  0  0  0  0  0  0  0
   -1.0213   -0.8862    1.8546 H   0  0  0  0  0  0  0  0  0  0  0  0
   -3.8458   -0.4836    1.6823 H   0  0  0  0  0  0  0  0  0  0  0  0
   -2.9064   -3.3740    2.1665 H   0  0  0  0  0  0  0  0  0  0  0  0
   -4.5713   -2.8023    2.3289 H   0  0  0  0  0  0  0  0  0  0  0  0
   -3.7851   -2.8081    0.7391 H   0  0  0  0  0  0  0  0  0  0  0  0
   -4.0228   -0.7359    4.2342 N   0  0  0  0  0  0  0  0  0  0  0  0
   -4.0383   -0.4918    5.6577 C   0  0  0  0  0  0  0  0  0  0  0  0
   -4.9068   -0.6906    3.7360 H   0  0  0  0  0  0  0  0  0  0  0  0
   -4.1909   -1.4415    6.1914 H   0  0  0  0  0  0  0  0  0  0  0  0
   -3.0791   -0.0492    5.9641 H   0  0  0  0  0  0  0  0  0  0  0  0
   -4.8567    0.2014    5.9018 H   0  0  0  0  0  0  0  0  0  0  0  0
  1  3  1  0  0  0  0
  1  7  1  0  0  0  0
  1  2  2  0  0  0  0
 40 41  1  0  0  0  0
 41 49  1  0  0  0  0
 41 42  2  0  0  0  0
  8  9  1  0  0  0  0
  9 17  1  0  0  0  0
  9 10  2  0  0  0  0
 18 19  1  0  0  0  0
 19 39  1  0  0  0  0
 19 20  2  0  0  0  0
 40 43  1  0  0  0  0
  8 11  1  0  0  0  0
 49 50  1  0  0  0  0
 22 23  1  0  0  0  0
 21 22  1  0  0  0  0
 23 24  1  0  0  0  0
 18 21  1  0  0  0  0
 24 25  1  0  0  0  0
 39 40  1  0  0  0  0
  7  8  1  0  0  0  0
 17 18  1  0  0  0  0
  3  4  1  0  0  0  0
  3  5  1  0  0  0  0
  3  6  1  0  0  0  0
 43 46  1  0  0  0  0
 43 47  1  0  0  0  0
 43 48  1  0  0  0  0
 11 14  1  0  0  0  0
 11 15  1  0  0  0  0
 11 16  1  0  0  0  0
 50 52  1  0  0  0  0
 50 53  1  0  0  0  0
 50 54  1  0  0  0  0
 22 30  1  0  0  0  0
 22 31  1  0  0  0  0
 23 32  1  0  0  0  0
 23 33  1  0  0  0  0
 21 28  1  0  0  0  0
 21 29  1  0  0  0  0
 24 34  1  0  0  0  0
 24 35  1  0  0  0  0
 40 45  1  0  0  0  0
  8 13  1  0  0  0  0
 18 27  1  0  0  0  0
 49 51  1  0  0  0  0
  7 12  1  0  0  0  0
 39 44  1  0  0  0  0
 17 26  1  0  0  0  0
 25 36  1  0  0  0  0
 25 37  1  0  0  0  0
 25 38  1  0  0  0  0
M  CHG  1  25   1
M  END
$$$$

  -OEChem-05262214473D

 54 53  0     1  0  0  0  0  0999 V2000
    2.6714    2.8829   -3.0005 C   0  0  0  0  0  0  0  0  0  0  0  0
    3.1741    2.4398   -1.9745 O   0  0  0  0  0  0  0  0  0  0  0  0
    3.5527    3.3077   -4.1279 C   0  0  0  0  0  0  0  0  0  0  0  0
    3.8407    4.3691   -4.0597 H   0  0  0  0  0  0  0  0  0  0  0  0
    4.5024    2.7495   -4.1526 H   0  0  0  0  0  0  0  0  0  0  0  0
    3.1208    3.1887   -5.1345 H   0  0  0  0  0  0  0  0  0  0  0  0
    1.3174    3.0407   -3.2467 N   0  0  0  0  0  0  0  0  0  0  0  0
    0.2944    2.6927   -2.2960 C   0  0  2  0  0  0  0  0  0  0  0  0
    0.2976    1.1783   -2.1349 C   0  0  0  0  0  0  0  0  0  0  0  0
    0.7500    0.4142   -2.9850 O   0  0  0  0  0  0  0  0  0  0  0  0
   -1.0710    3.1886   -2.7460 C   0  0  0  0  0  0  0  0  0  0  0  0
    1.0312    3.4224   -4.1464 H   0  0  0  0  0  0  0  0  0  0  0  0
    0.5725    3.1622   -1.3461 H   0  0  0  0  0  0  0  0  0  0  0  0
   -1.3666    2.7292   -3.6963 H   0  0  0  0  0  0  0  0  0  0  0  0
   -1.8434    2.9482   -2.0082 H   0  0  0  0  0  0  0  0  0  0  0  0
   -1.0632    4.2744   -2.8901 H   0  0  0  0  0  0  0  0  0  0  0  0
   -0.3037    0.7742   -0.9484 N   0  0  0  0  0  0  0  0  0  0  0  0
   -0.4352   -0.6095   -0.5718 C   0  0  2  0  0  0  0  0  0  0  0  0
   -1.8492   -0.8455   -0.0511 C   0  0  0  0  0  0  0  0  0  0  0  0
   -2.7778   -1.2049   -0.7723 O   0  0  0  0  0  0  0  0  0  0  0  0
    0.6467   -1.0373    0.4268 C   0  0  0  0  0  0  0  0  0  0  0  0
    2.0637   -1.0690   -0.1607 C   0  0  0  0  0  0  0  0  0  0  0  0
    3.0847   -1.5271    0.8834 C   0  0  0  0  0  0  0  0  0  0  0  0
    4.4918   -1.5339    0.3044 C   0  0  0  0  0  0  0  0  0  0  0  0
    5.4474   -1.9596    1.3551 N   0  3  0  0  0  0  0  0  0  0  0  0
   -0.6336    1.4811   -0.2948 H   0  0  0  0  0  0  0  0  0  0  0  0
   -0.3150   -1.1849   -1.4977 H   0  0  0  0  0  0  0  0  0  0  0  0
    0.6330   -0.3468    1.2801 H   0  0  0  0  0  0  0  0  0  0  0  0
    0.4051   -2.0314    0.8227 H   0  0  0  0  0  0  0  0  0  0  0  0
    2.0977   -1.7493   -1.0196 H   0  0  0  0  0  0  0  0  0  0  0  0
    2.3414   -0.0726   -0.5239 H   0  0  0  0  0  0  0  0  0  0  0  0
    2.8232   -2.5325    1.2363 H   0  0  0  0  0  0  0  0  0  0  0  0
    3.0442   -0.8605    1.7538 H   0  0  0  0  0  0  0  0  0  0  0  0
    4.5917   -2.2438   -0.5220 H   0  0  0  0  0  0  0  0  0  0  0  0
    4.8046   -0.5386   -0.0248 H   0  0  0  0  0  0  0  0  0  0  0  0
    6.4033   -1.6687    1.1226 H   0  0  0  0  0  0  0  0  0  0  0  0
    5.4454   -2.9801    1.4616 H   0  0  0  0  0  0  0  0  0  0  0  0
    5.2040   -1.5473    2.2625 H   0  0  0  0  0  0  0  0  0  0  0  0
   -1.9468   -0.6404    1.3176 N   0  0  0  0  0  0  0  0  0  0  0  0
   -3.1857   -0.8208    2.0361 C   0  0  2  0  0  0  0  0  0  0  0  0
   -3.0187   -0.2116    3.4219 C   0  0  0  0  0  0  0  0  0  0  0  0
   -1.9228   -0.0402    3.9517 O   0  0  0  0  0  0  0  0  0  0  0  0
   -3.5616   -2.2913    2.1304 C   0  0  0  0  0  0  0  0  0  0  0  0
   -1.1188   -0.3538    1.8312 H   0  0  0  0  0  0  0  0  0  0  0  0
   -3.9545   -0.2690    1.4842 H   0  0  0  0  0  0  0  0  0  0  0  0
   -2.8030   -2.8604    2.6801 H   0  0  0  0  0  0  0  0  0  0  0  0
   -4.5159   -2.4243    2.6507 H   0  0  0  0  0  0  0  0  0  0  0  0
   -3.6522   -2.7352    1.1331 H   0  0  0  0  0  0  0  0  0  0  0  0
   -4.2394    0.0783    4.0151 N   0  0  0  0  0  0  0  0  0  0  0  0
   -4.3476    0.6518    5.3363 C   0  0  0  0  0  0  0  0  0  0  0  0
   -5.0976   -0.0790    3.4950 H   0  0  0  0  0  0  0  0  0  0  0  0
   -4.4473   -0.1534    6.0790 H   0  0  0  0  0  0  0  0  0  0  0  0
   -3.4455    1.2422    5.5546 H   0  0  0  0  0  0  0  0  0  0  0  0
   -5.2323    1.3038    5.3815 H   0  0  0  0  0  0  0  0  0  0  0  0
  1  3  1  0  0  0  0
  1  7  1  0  0  0  0
  1  2  2  0  0  0  0
 40 41  1  0  0  0  0
 41 49  1  0  0  0  0
 41 42  2  0  0  0  0
  8  9  1  0  0  0  0
  9 17  1  0  0  0  0
  9 10  2  0  0  0  0
 18 19  1  0  0  0  0
 19 39  1  0  0  0  0
 19 20  2  0  0  0  0
 40 43  1  0  0  0  0
  8 11  1  0  0  0  0
 49 50  1  0  0  0  0
 22 23  1  0  0  0  0
 21 22  1  0  0  0  0
 23 24  1  0  0  0  0
 18 21  1  0  0  0  0
 24 25  1  0  0  0  0
 39 40  1  0  0  0  0
  7  8  1  0  0  0  0
 17 18  1  0  0  0  0
  3  4  1  0  0  0  0
  3  5  1  0  0  0  0
  3  6  1  0  0  0  0
 43 46  1  0  0  0  0
 43 47  1  0  0  0  0
 43 48  1  0  0  0  0
 11 14  1  0  0  0  0
 11 15  1  0  0  0  0
 11 16  1  0  0  0  0
 50 52  1  0  0  0  0
 50 53  1  0  0  0  0
 50 54  1  0  0  0  0
 22 30  1  0  0  0  0
 22 31  1  0  0  0  0
 23 32  1  0  0  0  0
 23 33  1  0  0  0  0
 21 28  1  0  0  0  0
 21 29  1  0  0  0  0
 24 34  1  0  0  0  0
 24 35  1  0  0  0  0
 40 45  1  0  0  0  0
  8 13  1  0  0  0  0
 18 27  1  0  0  0  0
 49 51  1  0  0  0  0
  7 12  1  0  0  0  0
 39 44  1  0  0  0  0
 17 26  1  0  0  0  0
 25 36  1  0  0  0  0
 25 37  1  0  0  0  0
 25 38  1  0  0  0  0
M  CHG  1  25   1
M  END
$$$$

  -OEChem-05262214473D

 54 53  0     1  0  0  0  0  0999 V2000
    2.6714    2.8829   -3.0005 C   0  0  0  0  0  0  0  0  0  0  0  0
    3.1741    2.4398   -1.9745 O   0  0  0  0  0  0  0  0  0  0  0  0
    3.5527    3.3077   -4.1279 C   0  0  0  0  0  0  0  0  0  0  0  0
    3.8407    4.3691   -4.0597 H   0  0  0  0  0  0  0  0  0  0  0  0
    4.5024    2.7495   -4.1526 H   0  0  0  0  0  0  0  0  0  0  0  0
    3.1208    3.1887   -5.1345 H   0  0  0  0  0  0  0  0  0  0  0  0
    1.3174    3.0407   -3.2467 N   0  0  0  0  0  0  0  0  0  0  0  0
    0.2944    2.6927   -2.2960 C   0  0  2  0  0  0  0  0  0  0  0  0
    0.2976    1.1783   -2.1349 C   0  0  0  0  0  0  0  0  0  0  0  0
    0.7500    0.4142   -2.9850 O   0  0  0  0  0  0  0  0  0  0  0  0
   -1.0710    3.1886   -2.7460 C   0  0  0  0  0  0  0  0  0  0  0  0
    1.0312    3.4224   -4.1464 H   0  0  0  0  0  0  0  0  0  0  0  0
    0.5725    3.1622   -1.3461 H   0  0  0  0  0  0  0  0  0  0  0  0
   -1.3666    2.7292   -3.6963 H   0  0  0  0  0  0  0  0  0  0  0  0
   -1.8434    2.9482   -2.0082 H   0  0  0  0  0  0  0  0  0  0  0  0
   -1.0632    4.2744   -2.8901 H   0  0  0  0  0  0  0  0  0  0  0  0
   -0.3037    0.7742   -0.9484 N   0  0  0  0  0  0  0  0  0  0  0  0
   -0.4352   -0.6095   -0.5718 C   0  0  2  0  0  0  0  0  0  0  0  0
   -1.8492   -0.8455   -0.0511 C   0  0  0  0  0  0  0  0  0  0  0  0
   -2.7067   -1.4513   -0.6908 O   0  0  0  0  0  0  0  0  0  0  0  0
    0.6467   -1.0373    0.4268 C   0  0  0  0  0  0  0  0  0  0  0  0
    2.0637   -1.0690   -0.1607 C   0  0  0  0  0  0  0  0  0  0  0  0
    3.0847   -1.5271    0.8834 C   0  0  0  0  0  0  0  0  0  0  0  0
    4.4918   -1.5339    0.3044 C   0  0  0  0  0  0  0  0  0  0  0  0
    5.4474   -1.9596    1.3551 N   0  3  0  0  0  0  0  0  0  0  0  0
   -0.6336    1.4811   -0.2948 H   0  0  0  0  0  0  0  0  0  0  0  0
   -0.3150   -1.1849   -1.4977 H   0  0  0  0  0  0  0  0  0  0  0  0
    0.6330   -0.3468    1.2801 H   0  0  0  0  0  0  0  0  0  0  0  0
    0.4051   -2.0314    0.8227 H   0  0  0  0  0  0  0  0  0  0  0  0
    2.0977   -1.7493   -1.0196 H   0  0  0  0  0  0  0  0  0  0  0  0
    2.3414   -0.0726   -0.5239 H   0  0  0  0  0  0  0  0  0  0  0  0
    2.8232   -2.5325    1.2363 H   0  0  0  0  0  0  0  0  0  0  0  0
    3.0442   -0.8605    1.7538 H   0  0  0  0  0  0  0  0  0  0  0  0
    4.5917   -2.2438   -0.5220 H   0  0  0  0  0  0  0  0  0  0  0  0
    4.8046   -0.5386   -0.0248 H   0  0  0  0  0  0  0  0  0  0  0  0
    6.4033   -1.6687    1.1226 H   0  0  0  0  0  0  0  0  0  0  0  0
    5.4454   -2.9801    1.4616 H   0  0  0  0  0  0  0  0  0  0  0  0
    5.2040   -1.5473    2.2625 H   0  0  0  0  0  0  0  0  0  0  0  0
   -2.0330   -0.3304    1.2240 N   0  0  0  0  0  0  0  0  0  0  0  0
   -3.2875   -0.4492    1.9281 C   0  0  2  0  0  0  0  0  0  0  0  0
   -3.2426    0.4853    3.1299 C   0  0  0  0  0  0  0  0  0  0  0  0
   -2.1931    0.8794    3.6343 O   0  0  0  0  0  0  0  0  0  0  0  0
   -3.5436   -1.8834    2.3642 C   0  0  0  0  0  0  0  0  0  0  0  0
   -1.2590    0.1463    1.6771 H   0  0  0  0  0  0  0  0  0  0  0  0
   -4.0706   -0.1189    1.2370 H   0  0  0  0  0  0  0  0  0  0  0  0
   -2.7691   -2.2319    3.0571 H   0  0  0  0  0  0  0  0  0  0  0  0
   -4.5087   -1.9770    2.8730 H   0  0  0  0  0  0  0  0  0  0  0  0
   -3.5460   -2.5584    1.5015 H   0  0  0  0  0  0  0  0  0  0  0  0
   -4.5118    0.7931    3.5994 N   0  0  0  0  0  0  0  0  0  0  0  0
   -4.7345    1.6520    4.7390 C   0  0  0  0  0  0  0  0  0  0  0  0
   -5.3263    0.4370    3.1079 H   0  0  0  0  0  0  0  0  0  0  0  0
   -4.8043    1.0412    5.6512 H   0  0  0  0  0  0  0  0  0  0  0  0
   -3.8971    2.3588    4.8344 H   0  0  0  0  0  0  0  0  0  0  0  0
   -5.6717    2.2106    4.5994 H   0  0  0  0  0  0  0  0  0  0  0  0
  1  3  1  0  0  0  0
  1  7  1  0  0  0  0
  1  2  2  0  0  0  0
 40 41  1  0  0  0  0
 41 49  1  0  0  0  0
 41 42  2  0  0  0  0
  8  9  1  0  0  0  0
  9 17  1  0  0  0  0
  9 10  2  0  0  0  0
 18 19  1  0  0  0  0
 19 39  1  0  0  0  0
 19 20  2  0  0  0  0
 40 43  1  0  0  0  0
  8 11  1  0  0  0  0
 49 50  1  0  0  0  0
 22 23  1  0  0  0  0
 21 22  1  0  0  0  0
 23 24  1  0  0  0  0
 18 21  1  0  0  0  0
 24 25  1  0  0  0  0
 39 40  1  0  0  0  0
  7  8  1  0  0  0  0
 17 18  1  0  0  0  0
  3  4  1  0  0  0  0
  3  5  1  0  0  0  0
  3  6  1  0  0  0  0
 43 46  1  0  0  0  0
 43 47  1  0  0  0  0
 43 48  1  0  0  0  0
 11 14  1  0  0  0  0
 11 15  1  0  0  0  0
 11 16  1  0  0  0  0
 50 52  1  0  0  0  0
 50 53  1  0  0  0  0
 50 54  1  0  0  0  0
 22 30  1  0  0  0  0
 22 31  1  0  0  0  0
 23 32  1  0  0  0  0
 23 33  1  0  0  0  0
 21 28  1  0  0  0  0
 21 29  1  0  0  0  0
 24 34  1  0  0  0  0
 24 35  1  0  0  0  0
 40 45  1  0  0  0  0
  8 13  1  0  0  0  0
 18 27  1  0  0  0  0
 49 51  1  0  0  0  0
  7 12  1  0  0  0  0
 39 44  1  0  0  0  0
 17 26  1  0  0  0  0
 25 36  1  0  0  0  0
 25 37  1  0  0  0  0
 25 38  1  0  0  0  0
M  CHG  1  25   1
M  END
$$$$

  -OEChem-05262214473D

 54 53  0     1  0  0  0  0  0999 V2000
    2.6714    2.8829   -3.0005 C   0  0  0  0  0  0  0  0  0  0  0  0
    3.1741    2.4398   -1.9745 O   0  0  0  0  0  0  0  0  0  0  0  0
    3.5527    3.3077   -4.1279 C   0  0  0  0  0  0  0  0  0  0  0  0
    3.8407    4.3691   -4.0597 H   0  0  0  0  0  0  0  0  0  0  0  0
    4.5024    2.7495   -4.1526 H   0  0  0  0  0  0  0  0  0  0  0  0
    3.1208    3.1887   -5.1345 H   0  0  0  0  0  0  0  0  0  0  0  0
    1.3174    3.0407   -3.2467 N   0  0  0  0  0  0  0  0  0  0  0  0
    0.2944    2.6927   -2.2960 C   0  0  2  0  0  0  0  0  0  0  0  0
    0.2976    1.1783   -2.1349 C   0  0  0  0  0  0  0  0  0  0  0  0
    0.7500    0.4142   -2.9850 O   0  0  0  0  0  0  0  0  0  0  0  0
   -1.0710    3.1886   -2.7460 C   0  0  0  0  0  0  0  0  0  0  0  0
    1.0312    3.4224   -4.1464 H   0  0  0  0  0  0  0  0  0  0  0  0
    0.5725    3.1622   -1.3461 H   0  0  0  0  0  0  0  0  0  0  0  0
   -1.3666    2.7292   -3.6963 H   0  0  0  0  0  0  0  0  0  0  0  0
   -1.8434    2.9482   -2.0082 H   0  0  0  0  0  0  0  0  0  0  0  0
   -1.0632    4.2744   -2.8901 H   0  0  0  0  0  0  0  0  0  0  0  0
   -0.3037    0.7742   -0.9484 N   0  0  0  0  0  0  0  0  0  0  0  0
   -0.4352   -0.6095   -0.5718 C   0  0  2  0  0  0  0  0  0  0  0  0
   -1.8492   -0.8455   -0.0511 C   0  0  0  0  0  0  0  0  0  0  0  0
   -2.6195   -1.6635   -0.5502 O   0  0  0  0  0  0  0  0  0  0  0  0
    0.6467   -1.0373    0.4268 C   0  0  0  0  0  0  0  0  0  0  0  0
    2.0637   -1.0690   -0.1607 C   0  0  0  0  0  0  0  0  0  0  0  0
    3.0847   -1.5271    0.8834 C   0  0  0  0  0  0  0  0  0  0  0  0
    4.4918   -1.5339    0.3044 C   0  0  0  0  0  0  0  0  0  0  0  0
    5.4474   -1.9596    1.3551 N   0  3  0  0  0  0  0  0  0  0  0  0
   -0.6336    1.4811   -0.2948 H   0  0  0  0  0  0  0  0  0  0  0  0
   -0.3150   -1.1849   -1.4977 H   0  0  0  0  0  0  0  0  0  0  0  0
    0.6330   -0.3468    1.2801 H   0  0  0  0  0  0  0  0  0  0  0  0
    0.4051   -2.0314    0.8227 H   0  0  0  0  0  0  0  0  0  0  0  0
    2.0977   -1.7493   -1.0196 H   0  0  0  0  0  0  0  0  0  0  0  0
    2.3414   -0.0726   -0.5239 H   0  0  0  0  0  0  0  0  0  0  0  0
    2.8232   -2.5325    1.2363 H   0  0  0  0  0  0  0  0  0  0  0  0
    3.0442   -0.8605    1.7538 H   0  0  0  0  0  0  0  0  0  0  0  0
    4.5917   -2.2438   -0.5220 H   0  0  0  0  0  0  0  0  0  0  0  0
    4.8046   -0.5386   -0.0248 H   0  0  0  0  0  0  0  0  0  0  0  0
    6.4033   -1.6687    1.1226 H   0  0  0  0  0  0  0  0  0  0  0  0
    5.4454   -2.9801    1.4616 H   0  0  0  0  0  0  0  0  0  0  0  0
    5.2040   -1.5473    2.2625 H   0  0  0  0  0  0  0  0  0  0  0  0
   -2.1400   -0.0610    1.0557 N   0  0  0  0  0  0  0  0  0  0  0  0
   -3.4143   -0.1251    1.7307 C   0  0  2  0  0  0  0  0  0  0  0  0
   -3.5087    1.0687    2.6716 C   0  0  0  0  0  0  0  0  0  0  0  0
   -2.5228    1.6676    3.0963 O   0  0  0  0  0  0  0  0  0  0  0  0
   -3.5717   -1.4317    2.4928 C   0  0  0  0  0  0  0  0  0  0  0  0
   -1.4325    0.5799    1.4026 H   0  0  0  0  0  0  0  0  0  0  0  0
   -4.1861   -0.0434    0.9576 H   0  0  0  0  0  0  0  0  0  0  0  0
   -2.8070   -1.5313    3.2717 H   0  0  0  0  0  0  0  0  0  0  0  0
   -4.5502   -1.4911    2.9807 H   0  0  0  0  0  0  0  0  0  0  0  0
   -3.4738   -2.2899    1.8192 H   0  0  0  0  0  0  0  0  0  0  0  0
   -4.8214    1.3596    3.0155 N   0  0  0  0  0  0  0  0  0  0  0  0
   -5.1727    2.4406    3.9066 C   0  0  0  0  0  0  0  0  0  0  0  0
   -5.5773    0.8224    2.6010 H   0  0  0  0  0  0  0  0  0  0  0  0
   -5.2375    2.0608    4.9369 H   0  0  0  0  0  0  0  0  0  0  0  0
   -4.4031    3.2248    3.8528 H   0  0  0  0  0  0  0  0  0  0  0  0
   -6.1450    2.8600    3.6087 H   0  0  0  0  0  0  0  0  0  0  0  0
  1  3  1  0  0  0  0
  1  7  1  0  0  0  0
  1  2  2  0  0  0  0
 40 41  1  0  0  0  0
 41 49  1  0  0  0  0
 41 42  2  0  0  0  0
  8  9  1  0  0  0  0
  9 17  1  0  0  0  0
  9 10  2  0  0  0  0
 18 19  1  0  0  0  0
 19 39  1  0  0  0  0
 19 20  2  0  0  0  0
 40 43  1  0  0  0  0
  8 11  1  0  0  0  0
 49 50  1  0  0  0  0
 22 23  1  0  0  0  0
 21 22  1  0  0  0  0
 23 24  1  0  0  0  0
 18 21  1  0  0  0  0
 24 25  1  0  0  0  0
 39 40  1  0  0  0  0
  7  8  1  0  0  0  0
 17 18  1  0  0  0  0
  3  4  1  0  0  0  0
  3  5  1  0  0  0  0
  3  6  1  0  0  0  0
 43 46  1  0  0  0  0
 43 47  1  0  0  0  0
 43 48  1  0  0  0  0
 11 14  1  0  0  0  0
 11 15  1  0  0  0  0
 11 16  1  0  0  0  0
 50 52  1  0  0  0  0
 50 53  1  0  0  0  0
 50 54  1  0  0  0  0
 22 30  1  0  0  0  0
 22 31  1  0  0  0  0
 23 32  1  0  0  0  0
 23 33  1  0  0  0  0
 21 28  1  0  0  0  0
 21 29  1  0  0  0  0
 24 34  1  0  0  0  0
 24 35  1  0  0  0  0
 40 45  1  0  0  0  0
  8 13  1  0  0  0  0
 18 27  1  0  0  0  0
 49 51  1  0  0  0  0
  7 12  1  0  0  0  0
 39 44  1  0  0  0  0
 17 26  1  0  0  0  0
 25 36  1  0  0  0  0
 25 37  1  0  0  0  0
 25 38  1  0  0  0  0
M  CHG  1  25   1
M  END
$$$$

  -OEChem-05262214473D

 54 53  0     1  0  0  0  0  0999 V2000
    2.6714    2.8829   -3.0005 C   0  0  0  0  0  0  0  0  0  0  0  0
    3.1741    2.4398   -1.9745 O   0  0  0  0  0  0  0  0  0  0  0  0
    3.5527    3.3077   -4.1279 C   0  0  0  0  0  0  0  0  0  0  0  0
    3.8407    4.3691   -4.0597 H   0  0  0  0  0  0  0  0  0  0  0  0
    4.5024    2.7495   -4.1526 H   0  0  0  0  0  0  0  0  0  0  0  0
    3.1208    3.1887   -5.1345 H   0  0  0  0  0  0  0  0  0  0  0  0
    1.3174    3.0407   -3.2467 N   0  0  0  0  0  0  0  0  0  0  0  0
    0.2944    2.6927   -2.2960 C   0  0  2  0  0  0  0  0  0  0  0  0
    0.2976    1.1783   -2.1349 C   0  0  0  0  0  0  0  0  0  0  0  0
    0.7500    0.4142   -2.9850 O   0  0  0  0  0  0  0  0  0  0  0  0
   -1.0710    3.1886   -2.7460 C   0  0  0  0  0  0  0  0  0  0  0  0
    1.0312    3.4224   -4.1464 H   0  0  0  0  0  0  0  0  0  0  0  0
    0.5725    3.1622   -1.3461 H   0  0  0  0  0  0  0  0  0  0  0  0
   -1.3666    2.7292   -3.6963 H   0  0  0  0  0  0  0  0  0  0  0  0
   -1.8434    2.9482   -2.0082 H   0  0  0  0  0  0  0  0  0  0  0  0
   -1.0632    4.2744   -2.8901 H   0  0  0  0  0  0  0  0  0  0  0  0
   -0.3037    0.7742   -0.9484 N   0  0  0  0  0  0  0  0  0  0  0  0
   -0.4352   -0.6095   -0.5718 C   0  0  2  0  0  0  0  0  0  0  0  0
   -1.8492   -0.8455   -0.0511 C   0  0  0  0  0  0  0  0  0  0  0  0
   -2.5221   -1.8270   -0.3600 O   0  0  0  0  0  0  0  0  0  0  0  0
    0.6467   -1.0373    0.4268 C   0  0  0  0  0  0  0  0  0  0  0  0
    2.0637   -1.0690   -0.1607 C   0  0  0  0  0  0  0  0  0  0  0  0
    3.0847   -1.5271    0.8834 C   0  0  0  0  0  0  0  0  0  0  0  0
    4.4918   -1.5339    0.3044 C   0  0  0  0  0  0  0  0  0  0  0  0
    5.4474   -1.9596    1.3551 N   0  3  0  0  0  0  0  0  0  0  0  0
   -0.6336    1.4811   -0.2948 H   0  0  0  0  0  0  0  0  0  0  0  0
   -0.3150   -1.1849   -1.4977 H   0  0  0  0  0  0  0  0  0  0  0  0
    0.6330   -0.3468    1.2801 H   0  0  0  0  0  0  0  0  0  0  0  0
    0.4051   -2.0314    0.8227 H   0  0  0  0  0  0  0  0  0  0  0  0
    2.0977   -1.7493   -1.0196 H   0  0  0  0  0  0  0  0  0  0  0  0
    2.3414   -0.0726   -0.5239 H   0  0  0  0  0  0  0  0  0  0  0  0
    2.8232   -2.5325    1.2363 H   0  0  0  0  0  0  0  0  0  0  0  0
    3.0442   -0.8605    1.7538 H   0  0  0  0  0  0  0  0  0  0  0  0
    4.5917   -2.2438   -0.5220 H   0  0  0  0  0  0  0  0  0  0  0  0
    4.8046   -0.5386   -0.0248 H   0  0  0  0  0  0  0  0  0  0  0  0
    6.4033   -1.6687    1.1226 H   0  0  0  0  0  0  0  0  0  0  0  0
    5.4454   -2.9801    1.4616 H   0  0  0  0  0  0  0  0  0  0  0  0
    5.2040   -1.5473    2.2625 H   0  0  0  0  0  0  0  0  0  0  0  0
   -2.2603    0.1494    0.8242 N   0  0  0  0  0  0  0  0  0  0  0  0
   -3.5575    0.1293    1.4571 C   0  0  2  0  0  0  0  0  0  0  0  0
   -3.7990    1.4987    2.0784 C   0  0  0  0  0  0  0  0  0  0  0  0
   -2.8894    2.2708    2.3744 O   0  0  0  0  0  0  0  0  0  0  0  0
   -3.6438   -0.9670    2.5075 C   0  0  0  0  0  0  0  0  0  0  0  0
   -1.6274    0.9175    1.0264 H   0  0  0  0  0  0  0  0  0  0  0  0
   -4.2932   -0.0478    0.6649 H   0  0  0  0  0  0  0  0  0  0  0  0
   -2.9141   -0.8065    3.3095 H   0  0  0  0  0  0  0  0  0  0  0  0
   -4.6375   -0.9995    2.9664 H   0  0  0  0  0  0  0  0  0  0  0  0
   -3.4405   -1.9480    2.0646 H   0  0  0  0  0  0  0  0  0  0  0  0
   -5.1472    1.7394    2.3031 N   0  0  0  0  0  0  0  0  0  0  0  0
   -5.6323    2.9639    2.8958 C   0  0  0  0  0  0  0  0  0  0  0  0
   -5.8336    1.0509    2.0089 H   0  0  0  0  0  0  0  0  0  0  0  0
   -5.7175    2.8361    3.9850 H   0  0  0  0  0  0  0  0  0  0  0  0
   -4.9291    3.7809    2.6765 H   0  0  0  0  0  0  0  0  0  0  0  0
   -6.6198    3.2077    2.4770 H   0  0  0  0  0  0  0  0  0  0  0  0
  1  3  1  0  0  0  0
  1  7  1  0  0  0  0
  1  2  2  0  0  0  0
 40 41  1  0  0  0  0
 41 49  1  0  0  0  0
 41 42  2  0  0  0  0
  8  9  1  0  0  0  0
  9 17  1  0  0  0  0
  9 10  2  0  0  0  0
 18 19  1  0  0  0  0
 19 39  1  0  0  0  0
 19 20  2  0  0  0  0
 40 43  1  0  0  0  0
  8 11  1  0  0  0  0
 49 50  1  0  0  0  0
 22 23  1  0  0  0  0
 21 22  1  0  0  0  0
 23 24  1  0  0  0  0
 18 21  1  0  0  0  0
 24 25  1  0  0  0  0
 39 40  1  0  0  0  0
  7  8  1  0  0  0  0
 17 18  1  0  0  0  0
  3  4  1  0  0  0  0
  3  5  1  0  0  0  0
  3  6  1  0  0  0  0
 43 46  1  0  0  0  0
 43 47  1  0  0  0  0
 43 48  1  0  0  0  0
 11 14  1  0  0  0  0
 11 15  1  0  0  0  0
 11 16  1  0  0  0  0
 50 52  1  0  0  0  0
 50 53  1  0  0  0  0
 50 54  1  0  0  0  0
 22 30  1  0  0  0  0
 22 31  1  0  0  0  0
 23 32  1  0  0  0  0
 23 33  1  0  0  0  0
 21 28  1  0  0  0  0
 21 29  1  0  0  0  0
 24 34  1  0  0  0  0
 24 35  1  0  0  0  0
 40 45  1  0  0  0  0
  8 13  1  0  0  0  0
 18 27  1  0  0  0  0
 49 51  1  0  0  0  0
  7 12  1  0  0  0  0
 39 44  1  0  0  0  0
 17 26  1  0  0  0  0
 25 36  1  0  0  0  0
 25 37  1  0  0  0  0
 25 38  1  0  0  0  0
M  CHG  1  25   1
M  END
$$$$

  -OEChem-05262214473D

 54 53  0     1  0  0  0  0  0999 V2000
    2.6714    2.8829   -3.0005 C   0  0  0  0  0  0  0  0  0  0  0  0
    3.1741    2.4398   -1.9745 O   0  0  0  0  0  0  0  0  0  0  0  0
    3.5527    3.3077   -4.1279 C   0  0  0  0  0  0  0  0  0  0  0  0
    3.8407    4.3691   -4.0597 H   0  0  0  0  0  0  0  0  0  0  0  0
    4.5024    2.7495   -4.1526 H   0  0  0  0  0  0  0  0  0  0  0  0
    3.1208    3.1887   -5.1345 H   0  0  0  0  0  0  0  0  0  0  0  0
    1.3174    3.0407   -3.2467 N   0  0  0  0  0  0  0  0  0  0  0  0
    0.2944    2.6927   -2.2960 C   0  0  2  0  0  0  0  0  0  0  0  0
    0.2976    1.1783   -2.1349 C   0  0  0  0  0  0  0  0  0  0  0  0
    0.7500    0.4142   -2.9850 O   0  0  0  0  0  0  0  0  0  0  0  0
   -1.0710    3.1886   -2.7460 C   0  0  0  0  0  0  0  0  0  0  0  0
    1.0312    3.4224   -4.1464 H   0  0  0  0  0  0  0  0  0  0  0  0
    0.5725    3.1622   -1.3461 H   0  0  0  0  0  0  0  0  0  0  0  0
   -1.3666    2.7292   -3.6963 H   0  0  0  0  0  0  0  0  0  0  0  0
   -1.8434    2.9482   -2.0082 H   0  0  0  0  0  0  0  0  0  0  0  0
   -1.0632    4.2744   -2.8901 H   0  0  0  0  0  0  0  0  0  0  0  0
   -0.3037    0.7742   -0.9484 N   0  0  0  0  0  0  0  0  0  0  0  0
   -0.4352   -0.6095   -0.5718 C   0  0  2  0  0  0  0  0  0  0  0  0
   -1.8492   -0.8455   -0.0511 C   0  0  0  0  0  0  0  0  0  0  0  0
   -2.4213   -1.9306   -0.1331 O   0  0  0  0  0  0  0  0  0  0  0  0
    0.6467   -1.0373    0.4268 C   0  0  0  0  0  0  0  0  0  0  0  0
    2.0637   -1.0690   -0.1607 C   0  0  0  0  0  0  0  0  0  0  0  0
    3.0847   -1.5271    0.8834 C   0  0  0  0  0  0  0  0  0  0  0  0
    4.4918   -1.5339    0.3044 C   0  0  0  0  0  0  0  0  0  0  0  0
    5.4474   -1.9596    1.3551 N   0  3  0  0  0  0  0  0  0  0  0  0
   -0.6336    1.4811   -0.2948 H   0  0  0  0  0  0  0  0  0  0  0  0
   -0.3150   -1.1849   -1.4977 H   0  0  0  0  0  0  0  0  0  0  0  0
    0.6330   -0.3468    1.2801 H   0  0  0  0  0  0  0  0  0  0  0  0
    0.4051   -2.0314    0.8227 H   0  0  0  0  0  0  0  0  0  0  0  0
    2.0977   -1.7493   -1.0196 H   0  0  0  0  0  0  0  0  0  0  0  0
    2.3414   -0.0726   -0.5239 H   0  0  0  0  0  0  0  0  0  0  0  0
    2.8232   -2.5325    1.2363 H   0  0  0  0  0  0  0  0  0  0  0  0
    3.0442   -0.8605    1.7538 H   0  0  0  0  0  0  0  0  0  0  0  0
    4.5917   -2.2438   -0.5220 H   0  0  0  0  0  0  0  0  0  0  0  0
    4.8046   -0.5386   -0.0248 H   0  0  0  0  0  0  0  0  0  0  0  0
    6.4033   -1.6687    1.1226 H   0  0  0  0  0  0  0  0  0  0  0  0
    5.4454   -2.9801    1.4616 H   0  0  0  0  0  0  0  0  0  0  0  0
    5.2040   -1.5473    2.2625 H   0  0  0  0  0  0  0  0  0  0  0  0
   -2.3859    0.2864    0.5453 N   0  0  0  0  0  0  0  0  0  0  0  0
   -3.7074    0.2967    1.1260 C   0  0  2  0  0  0  0  0  0  0  0  0
   -4.0936    1.7460    1.3905 C   0  0  0  0  0  0  0  0  0  0  0  0
   -3.2679    2.6477    1.5176 O   0  0  0  0  0  0  0  0  0  0  0  0
   -3.7551   -0.5210    2.4073 C   0  0  0  0  0  0  0  0  0  0  0  0
   -1.8304    1.1362    0.5743 H   0  0  0  0  0  0  0  0  0  0  0  0
   -4.3845   -0.1318    0.3790 H   0  0  0  0  0  0  0  0  0  0  0  0
   -3.0831   -0.1068    3.1677 H   0  0  0  0  0  0  0  0  0  0  0  0
   -4.7647   -0.5357    2.8312 H   0  0  0  0  0  0  0  0  0  0  0  0
   -3.4484   -1.5559    2.2209 H   0  0  0  0  0  0  0  0  0  0  0  0
   -5.4669    1.9066    1.5109 N   0  0  0  0  0  0  0  0  0  0  0  0
   -6.0820    3.1862    1.7755 C   0  0  0  0  0  0  0  0  0  0  0  0
   -6.0775    1.1069    1.3718 H   0  0  0  0  0  0  0  0  0  0  0  0
   -6.2115    3.3141    2.8603 H   0  0  0  0  0  0  0  0  0  0  0  0
   -5.4393    3.9894    1.3859 H   0  0  0  0  0  0  0  0  0  0  0  0
   -7.0638    3.2301    1.2815 H   0  0  0  0  0  0  0  0  0  0  0  0
  1  3  1  0  0  0  0
  1  7  1  0  0  0  0
  1  2  2  0  0  0  0
 40 41  1  0  0  0  0
 41 49  1  0  0  0  0
 41 42  2  0  0  0  0
  8  9  1  0  0  0  0
  9 17  1  0  0  0  0
  9 10  2  0  0  0  0
 18 19  1  0  0  0  0
 19 39  1  0  0  0  0
 19 20  2  0  0  0  0
 40 43  1  0  0  0  0
  8 11  1  0  0  0  0
 49 50  1  0  0  0  0
 22 23  1  0  0  0  0
 21 22  1  0  0  0  0
 23 24  1  0  0  0  0
 18 21  1  0  0  0  0
 24 25  1  0  0  0  0
 39 40  1  0  0  0  0
  7  8  1  0  0  0  0
 17 18  1  0  0  0  0
  3  4  1  0  0  0  0
  3  5  1  0  0  0  0
  3  6  1  0  0  0  0
 43 46  1  0  0  0  0
 43 47  1  0  0  0  0
 43 48  1  0  0  0  0
 11 14  1  0  0  0  0
 11 15  1  0  0  0  0
 11 16  1  0  0  0  0
 50 52  1  0  0  0  0
 50 53  1  0  0  0  0
 50 54  1  0  0  0  0
 22 30  1  0  0  0  0
 22 31  1  0  0  0  0
 23 32  1  0  0  0  0
 23 33  1  0  0  0  0
 21 28  1  0  0  0  0
 21 29  1  0  0  0  0
 24 34  1  0  0  0  0
 24 35  1  0  0  0  0
 40 45  1  0  0  0  0
  8 13  1  0  0  0  0
 18 27  1  0  0  0  0
 49 51  1  0  0  0  0
  7 12  1  0  0  0  0
 39 44  1  0  0  0  0
 17 26  1  0  0  0  0
 25 36  1  0  0  0  0
 25 37  1  0  0  0  0
 25 38  1  0  0  0  0
M  CHG  1  25   1
M  END
$$$$

  -OEChem-05262214473D

 54 53  0     1  0  0  0  0  0999 V2000
    2.6714    2.8829   -3.0005 C   0  0  0  0  0  0  0  0  0  0  0  0
    3.1741    2.4398   -1.9745 O   0  0  0  0  0  0  0  0  0  0  0  0
    3.5527    3.3077   -4.1279 C   0  0  0  0  0  0  0  0  0  0  0  0
    3.8407    4.3691   -4.0597 H   0  0  0  0  0  0  0  0  0  0  0  0
    4.5024    2.7495   -4.1526 H   0  0  0  0  0  0  0  0  0  0  0  0
    3.1208    3.1887   -5.1345 H   0  0  0  0  0  0  0  0  0  0  0  0
    1.3174    3.0407   -3.2467 N   0  0  0  0  0  0  0  0  0  0  0  0
    0.2944    2.6927   -2.2960 C   0  0  2  0  0  0  0  0  0  0  0  0
    0.2976    1.1783   -2.1349 C   0  0  0  0  0  0  0  0  0  0  0  0
    0.7500    0.4142   -2.9850 O   0  0  0  0  0  0  0  0  0  0  0  0
   -1.0710    3.1886   -2.7460 C   0  0  0  0  0  0  0  0  0  0  0  0
    1.0312    3.4224   -4.1464 H   0  0  0  0  0  0  0  0  0  0  0  0
    0.5725    3.1622   -1.3461 H   0  0  0  0  0  0  0  0  0  0  0  0
   -1.3666    2.7292   -3.6963 H   0  0  0  0  0  0  0  0  0  0  0  0
   -1.8434    2.9482   -2.0082 H   0  0  0  0  0  0  0  0  0  0  0  0
   -1.0632    4.2744   -2.8901 H   0  0  0  0  0  0  0  0  0  0  0  0
   -0.3037    0.7742   -0.9484 N   0  0  0  0  0  0  0  0  0  0  0  0
   -0.4352   -0.6095   -0.5718 C   0  0  2  0  0  0  0  0  0  0  0  0
   -1.8492   -0.8455   -0.0511 C   0  0  0  0  0  0  0  0  0  0  0  0
   -2.3238   -1.9674    0.1149 O   0  0  0  0  0  0  0  0  0  0  0  0
    0.6467   -1.0373    0.4268 C   0  0  0  0  0  0  0  0  0  0  0  0
    2.0637   -1.0690   -0.1607 C   0  0  0  0  0  0  0  0  0  0  0  0
    3.0847   -1.5271    0.8834 C   0  0  0  0  0  0  0  0  0  0  0  0
    4.4918   -1.5339    0.3044 C   0  0  0  0  0  0  0  0  0  0  0  0
    5.4474   -1.9596    1.3551 N   0  3  0  0  0  0  0  0  0  0  0  0
   -0.6336    1.4811   -0.2948 H   0  0  0  0  0  0  0  0  0  0  0  0
   -0.3150   -1.1849   -1.4977 H   0  0  0  0  0  0  0  0  0  0  0  0
    0.6330   -0.3468    1.2801 H   0  0  0  0  0  0  0  0  0  0  0  0
    0.4051   -2.0314    0.8227 H   0  0  0  0  0  0  0  0  0  0  0  0
    2.0977   -1.7493   -1.0196 H   0  0  0  0  0  0  0  0  0  0  0  0
    2.3414   -0.0726   -0.5239 H   0  0  0  0  0  0  0  0  0  0  0  0
    2.8232   -2.5325    1.2363 H   0  0  0  0  0  0  0  0  0  0  0  0
    3.0442   -0.8605    1.7538 H   0  0  0  0  0  0  0  0  0  0  0  0
    4.5917   -2.2438   -0.5220 H   0  0  0  0  0  0  0  0  0  0  0  0
    4.8046   -0.5386   -0.0248 H   0  0  0  0  0  0  0  0  0  0  0  0
    6.4033   -1.6687    1.1226 H   0  0  0  0  0  0  0  0  0  0  0  0
    5.4454   -2.9801    1.4616 H   0  0  0  0  0  0  0  0  0  0  0  0
    5.2040   -1.5473    2.2625 H   0  0  0  0  0  0  0  0  0  0  0  0
   -2.5081    0.3407    0.2380 N   0  0  0  0  0  0  0  0  0  0  0  0
   -3.8537    0.3658    0.7601 C   0  0  2  0  0  0  0  0  0  0  0  0
   -4.3724    1.7938    0.6549 C   0  0  0  0  0  0  0  0  0  0  0  0
   -3.6324    2.7728    0.5843 O   0  0  0  0  0  0  0  0  0  0  0  0
   -3.8981   -0.1241    2.1991 C   0  0  0  0  0  0  0  0  0  0  0  0
   -2.0277    1.2210    0.0770 H   0  0  0  0  0  0  0  0  0  0  0  0
   -4.4538   -0.2895    0.1193 H   0  0  0  0  0  0  0  0  0  0  0  0
   -3.3024    0.5201    2.8562 H   0  0  0  0  0  0  0  0  0  0  0  0
   -4.9231   -0.1315    2.5843 H   0  0  0  0  0  0  0  0  0  0  0  0
   -3.4970   -1.1403    2.2774 H   0  0  0  0  0  0  0  0  0  0  0  0
   -5.7587    1.8496    0.6927 N   0  0  0  0  0  0  0  0  0  0  0  0
   -6.4911    3.0924    0.6220 C   0  0  0  0  0  0  0  0  0  0  0  0
   -6.2926    0.9865    0.7333 H   0  0  0  0  0  0  0  0  0  0  0  0
   -6.6858    3.4623    1.6395 H   0  0  0  0  0  0  0  0  0  0  0  0
   -5.8987    3.8360    0.0687 H   0  0  0  0  0  0  0  0  0  0  0  0
   -7.4468    2.9256    0.1035 H   0  0  0  0  0  0  0  0  0  0  0  0
  1  3  1  0  0  0  0
  1  7  1  0  0  0  0
  1  2  2  0  0  0  0
 40 41  1  0  0  0  0
 41 49  1  0  0  0  0
 41 42  2  0  0  0  0
  8  9  1  0  0  0  0
  9 17  1  0  0  0  0
  9 10  2  0  0  0  0
 18 19  1  0  0  0  0
 19 39  1  0  0  0  0
 19 20  2  0  0  0  0
 40 43  1  0  0  0  0
  8 11  1  0  0  0  0
 49 50  1  0  0  0  0
 22 23  1  0  0  0  0
 21 22  1  0  0  0  0
 23 24  1  0  0  0  0
 18 21  1  0  0  0  0
 24 25  1  0  0  0  0
 39 40  1  0  0  0  0
  7  8  1  0  0  0  0
 17 18  1  0  0  0  0
  3  4  1  0  0  0  0
  3  5  1  0  0  0  0
  3  6  1  0  0  0  0
 43 46  1  0  0  0  0
 43 47  1  0  0  0  0
 43 48  1  0  0  0  0
 11 14  1  0  0  0  0
 11 15  1  0  0  0  0
 11 16  1  0  0  0  0
 50 52  1  0  0  0  0
 50 53  1  0  0  0  0
 50 54  1  0  0  0  0
 22 30  1  0  0  0  0
 22 31  1  0  0  0  0
 23 32  1  0  0  0  0
 23 33  1  0  0  0  0
 21 28  1  0  0  0  0
 21 29  1  0  0  0  0
 24 34  1  0  0  0  0
 24 35  1  0  0  0  0
 40 45  1  0  0  0  0
  8 13  1  0  0  0  0
 18 27  1  0  0  0  0
 49 51  1  0  0  0  0
  7 12  1  0  0  0  0
 39 44  1  0  0  0  0
 17 26  1  0  0  0  0
 25 36  1  0  0  0  0
 25 37  1  0  0  0  0
 25 38  1  0  0  0  0
M  CHG  1  25   1
M  END
$$$$

  -OEChem-05262214473D

 54 53  0     1  0  0  0  0  0999 V2000
    2.6714    2.8829   -3.0005 C   0  0  0  0  0  0  0  0  0  0  0  0
    3.1741    2.4398   -1.9745 O   0  0  0  0  0  0  0  0  0  0  0  0
    3.5527    3.3077   -4.1279 C   0  0  0  0  0  0  0  0  0  0  0  0
    3.8407    4.3691   -4.0597 H   0  0  0  0  0  0  0  0  0  0  0  0
    4.5024    2.7495   -4.1526 H   0  0  0  0  0  0  0  0  0  0  0  0
    3.1208    3.1887   -5.1345 H   0  0  0  0  0  0  0  0  0  0  0  0
    1.3174    3.0407   -3.2467 N   0  0  0  0  0  0  0  0  0  0  0  0
    0.2944    2.6927   -2.2960 C   0  0  2  0  0  0  0  0  0  0  0  0
    0.2976    1.1783   -2.1349 C   0  0  0  0  0  0  0  0  0  0  0  0
    0.7500    0.4142   -2.9850 O   0  0  0  0  0  0  0  0  0  0  0  0
   -1.0710    3.1886   -2.7460 C   0  0  0  0  0  0  0  0  0  0  0  0
    1.0312    3.4224   -4.1464 H   0  0  0  0  0  0  0  0  0  0  0  0
    0.5725    3.1622   -1.3461 H   0  0  0  0  0  0  0  0  0  0  0  0
   -1.3666    2.7292   -3.6963 H   0  0  0  0  0  0  0  0  0  0  0  0
   -1.8434    2.9482   -2.0082 H   0  0  0  0  0  0  0  0  0  0  0  0
   -1.0632    4.2744   -2.8901 H   0  0  0  0  0  0  0  0  0  0  0  0
   -0.3037    0.7742   -0.9484 N   0  0  0  0  0  0  0  0  0  0  0  0
   -0.4352   -0.6095   -0.5718 C   0  0  2  0  0  0  0  0  0  0  0  0
   -1.8492   -0.8455   -0.0511 C   0  0  0  0  0  0  0  0  0  0  0  0
   -2.2363   -1.9348    0.3673 O   0  0  0  0  0  0  0  0  0  0  0  0
    0.6467   -1.0373    0.4268 C   0  0  0  0  0  0  0  0  0  0  0  0
    2.0637   -1.0690   -0.1607 C   0  0  0  0  0  0  0  0  0  0  0  0
    3.0847   -1.5271    0.8834 C   0  0  0  0  0  0  0  0  0  0  0  0
    4.4918   -1.5339    0.3044 C   0  0  0  0  0  0  0  0  0  0  0  0
    5.4474   -1.9596    1.3551 N   0  3  0  0  0  0  0  0  0  0  0  0
   -0.6336    1.4811   -0.2948 H   0  0  0  0  0  0  0  0  0  0  0  0
   -0.3150   -1.1849   -1.4977 H   0  0  0  0  0  0  0  0  0  0  0  0
    0.6330   -0.3468    1.2801 H   0  0  0  0  0  0  0  0  0  0  0  0
    0.4051   -2.0314    0.8227 H   0  0  0  0  0  0  0  0  0  0  0  0
    2.0977   -1.7493   -1.0196 H   0  0  0  0  0  0  0  0  0  0  0  0
    2.3414   -0.0726   -0.5239 H   0  0  0  0  0  0  0  0  0  0  0  0
    2.8232   -2.5325    1.2363 H   0  0  0  0  0  0  0  0  0  0  0  0
    3.0442   -0.8605    1.7538 H   0  0  0  0  0  0  0  0  0  0  0  0
    4.5917   -2.2438   -0.5220 H   0  0  0  0  0  0  0  0  0  0  0  0
    4.8046   -0.5386   -0.0248 H   0  0  0  0  0  0  0  0  0  0  0  0
    6.4033   -1.6687    1.1226 H   0  0  0  0  0  0  0  0  0  0  0  0
    5.4454   -2.9801    1.4616 H   0  0  0  0  0  0  0  0  0  0  0  0
    5.2040   -1.5473    2.2625 H   0  0  0  0  0  0  0  0  0  0  0  0
   -2.6187    0.3087   -0.0767 N   0  0  0  0  0  0  0  0  0  0  0  0
   -3.9864    0.3318    0.3842 C   0  0  2  0  0  0  0  0  0  0  0  0
   -4.6166    1.6389   -0.0782 C   0  0  0  0  0  0  0  0  0  0  0  0
   -3.9582    2.6375   -0.3617 O   0  0  0  0  0  0  0  0  0  0  0  0
   -4.0629    0.1968    1.8970 C   0  0  0  0  0  0  0  0  0  0  0  0
   -2.2058    1.1661   -0.4317 H   0  0  0  0  0  0  0  0  0  0  0  0
   -4.4964   -0.5103   -0.0964 H   0  0  0  0  0  0  0  0  0  0  0  0
   -3.5573    1.0315    2.3960 H   0  0  0  0  0  0  0  0  0  0  0  0
   -5.1019    0.1857    2.2424 H   0  0  0  0  0  0  0  0  0  0  0  0
   -3.5828   -0.7297    2.2304 H   0  0  0  0  0  0  0  0  0  0  0  0
   -6.0027    1.5726   -0.0957 N   0  0  0  0  0  0  0  0  0  0  0  0
   -6.8318    2.6889   -0.4861 C   0  0  0  0  0  0  0  0  0  0  0  0
   -6.4641    0.6980    0.1368 H   0  0  0  0  0  0  0  0  0  0  0  0
   -7.1082    3.2706    0.4056 H   0  0  0  0  0  0  0  0  0  0  0  0
   -6.2762    3.3312   -1.1851 H   0  0  0  0  0  0  0  0  0  0  0  0
   -7.7427    2.3150   -0.9766 H   0  0  0  0  0  0  0  0  0  0  0  0
  1  3  1  0  0  0  0
  1  7  1  0  0  0  0
  1  2  2  0  0  0  0
 40 41  1  0  0  0  0
 41 49  1  0  0  0  0
 41 42  2  0  0  0  0
  8  9  1  0  0  0  0
  9 17  1  0  0  0  0
  9 10  2  0  0  0  0
 18 19  1  0  0  0  0
 19 39  1  0  0  0  0
 19 20  2  0  0  0  0
 40 43  1  0  0  0  0
  8 11  1  0  0  0  0
 49 50  1  0  0  0  0
 22 23  1  0  0  0  0
 21 22  1  0  0  0  0
 23 24  1  0  0  0  0
 18 21  1  0  0  0  0
 24 25  1  0  0  0  0
 39 40  1  0  0  0  0
  7  8  1  0  0  0  0
 17 18  1  0  0  0  0
  3  4  1  0  0  0  0
  3  5  1  0  0  0  0
  3  6  1  0  0  0  0
 43 46  1  0  0  0  0
 43 47  1  0  0  0  0
 43 48  1  0  0  0  0
 11 14  1  0  0  0  0
 11 15  1  0  0  0  0
 11 16  1  0  0  0  0
 50 52  1  0  0  0  0
 50 53  1  0  0  0  0
 50 54  1  0  0  0  0
 22 30  1  0  0  0  0
 22 31  1  0  0  0  0
 23 32  1  0  0  0  0
 23 33  1  0  0  0  0
 21 28  1  0  0  0  0
 21 29  1  0  0  0  0
 24 34  1  0  0  0  0
 24 35  1  0  0  0  0
 40 45  1  0  0  0  0
  8 13  1  0  0  0  0
 18 27  1  0  0  0  0
 49 51  1  0  0  0  0
  7 12  1  0  0  0  0
 39 44  1  0  0  0  0
 17 26  1  0  0  0  0
 25 36  1  0  0  0  0
 25 37  1  0  0  0  0
 25 38  1  0  0  0  0
M  CHG  1  25   1
M  END
$$$$

  -OEChem-05262214473D

 54 53  0     1  0  0  0  0  0999 V2000
    2.6714    2.8829   -3.0005 C   0  0  0  0  0  0  0  0  0  0  0  0
    3.1741    2.4398   -1.9745 O   0  0  0  0  0  0  0  0  0  0  0  0
    3.5527    3.3077   -4.1279 C   0  0  0  0  0  0  0  0  0  0  0  0
    3.8407    4.3691   -4.0597 H   0  0  0  0  0  0  0  0  0  0  0  0
    4.5024    2.7495   -4.1526 H   0  0  0  0  0  0  0  0  0  0  0  0
    3.1208    3.1887   -5.1345 H   0  0  0  0  0  0  0  0  0  0  0  0
    1.3174    3.0407   -3.2467 N   0  0  0  0  0  0  0  0  0  0  0  0
    0.2944    2.6927   -2.2960 C   0  0  2  0  0  0  0  0  0  0  0  0
    0.2976    1.1783   -2.1349 C   0  0  0  0  0  0  0  0  0  0  0  0
    0.7500    0.4142   -2.9850 O   0  0  0  0  0  0  0  0  0  0  0  0
   -1.0710    3.1886   -2.7460 C   0  0  0  0  0  0  0  0  0  0  0  0
    1.0312    3.4224   -4.1464 H   0  0  0  0  0  0  0  0  0  0  0  0
    0.5725    3.1622   -1.3461 H   0  0  0  0  0  0  0  0  0  0  0  0
   -1.3666    2.7292   -3.6963 H   0  0  0  0  0  0  0  0  0  0  0  0
   -1.8434    2.9482   -2.0082 H   0  0  0  0  0  0  0  0  0  0  0  0
   -1.0632    4.2744   -2.8901 H   0  0  0  0  0  0  0  0  0  0  0  0
   -0.3037    0.7742   -0.9484 N   0  0  0  0  0  0  0  0  0  0  0  0
   -0.4352   -0.6095   -0.5718 C   0  0  2  0  0  0  0  0  0  0  0  0
   -1.8492   -0.8455   -0.0511 C   0  0  0  0  0  0  0  0  0  0  0  0
   -2.1648   -1.8351    0.6067 O   0  0  0  0  0  0  0  0  0  0  0  0
    0.6467   -1.0373    0.4268 C   0  0  0  0  0  0  0  0  0  0  0  0
    2.0637   -1.0690   -0.1607 C   0  0  0  0  0  0  0  0  0  0  0  0
    3.0847   -1.5271    0.8834 C   0  0  0  0  0  0  0  0  0  0  0  0
    4.4918   -1.5339    0.3044 C   0  0  0  0  0  0  0  0  0  0  0  0
    5.4474   -1.9596    1.3551 N   0  3  0  0  0  0  0  0  0  0  0  0
   -0.6336    1.4811   -0.2948 H   0  0  0  0  0  0  0  0  0  0  0  0
   -0.3150   -1.1849   -1.4977 H   0  0  0  0  0  0  0  0  0  0  0  0
    0.6330   -0.3468    1.2801 H   0  0  0  0  0  0  0  0  0  0  0  0
    0.4051   -2.0314    0.8227 H   0  0  0  0  0  0  0  0  0  0  0  0
    2.0977   -1.7493   -1.0196 H   0  0  0  0  0  0  0  0  0  0  0  0
    2.3414   -0.0726   -0.5239 H   0  0  0  0  0  0  0  0  0  0  0  0
    2.8232   -2.5325    1.2363 H   0  0  0  0  0  0  0  0  0  0  0  0
    3.0442   -0.8605    1.7538 H   0  0  0  0  0  0  0  0  0  0  0  0
    4.5917   -2.2438   -0.5220 H   0  0  0  0  0  0  0  0  0  0  0  0
    4.8046   -0.5386   -0.0248 H   0  0  0  0  0  0  0  0  0  0  0  0
    6.4033   -1.6687    1.1226 H   0  0  0  0  0  0  0  0  0  0  0  0
    5.4454   -2.9801    1.4616 H   0  0  0  0  0  0  0  0  0  0  0  0
    5.2040   -1.5473    2.2625 H   0  0  0  0  0  0  0  0  0  0  0  0
   -2.7101    0.1925   -0.3775 N   0  0  0  0  0  0  0  0  0  0  0  0
   -4.0966    0.1970    0.0239 C   0  0  2  0  0  0  0  0  0  0  0  0
   -4.8094    1.2917   -0.7590 C   0  0  0  0  0  0  0  0  0  0  0  0
   -4.2231    2.2511   -1.2561 O   0  0  0  0  0  0  0  0  0  0  0  0
   -4.2383    0.4196    1.5216 C   0  0  0  0  0  0  0  0  0  0  0  0
   -2.3527    0.9753   -0.9170 H   0  0  0  0  0  0  0  0  0  0  0  0
   -4.5094   -0.7791   -0.2536 H   0  0  0  0  0  0  0  0  0  0  0  0
   -3.8302    1.3926    1.8186 H   0  0  0  0  0  0  0  0  0  0  0  0
   -5.2890    0.3943    1.8289 H   0  0  0  0  0  0  0  0  0  0  0  0
   -3.7002   -0.3519    2.0830 H   0  0  0  0  0  0  0  0  0  0  0  0
   -6.1825    1.0942   -0.8004 N   0  0  0  0  0  0  0  0  0  0  0  0
   -7.0809    2.0031   -1.4733 C   0  0  0  0  0  0  0  0  0  0  0  0
   -6.5804    0.2610   -0.3771 H   0  0  0  0  0  0  0  0  0  0  0  0
   -7.4498    2.7520   -0.7571 H   0  0  0  0  0  0  0  0  0  0  0  0
   -6.5461    2.5094   -2.2903 H   0  0  0  0  0  0  0  0  0  0  0  0
   -7.9313    1.4399   -1.8853 H   0  0  0  0  0  0  0  0  0  0  0  0
  1  3  1  0  0  0  0
  1  7  1  0  0  0  0
  1  2  2  0  0  0  0
 40 41  1  0  0  0  0
 41 49  1  0  0  0  0
 41 42  2  0  0  0  0
  8  9  1  0  0  0  0
  9 17  1  0  0  0  0
  9 10  2  0  0  0  0
 18 19  1  0  0  0  0
 19 39  1  0  0  0  0
 19 20  2  0  0  0  0
 40 43  1  0  0  0  0
  8 11  1  0  0  0  0
 49 50  1  0  0  0  0
 22 23  1  0  0  0  0
 21 22  1  0  0  0  0
 23 24  1  0  0  0  0
 18 21  1  0  0  0  0
 24 25  1  0  0  0  0
 39 40  1  0  0  0  0
  7  8  1  0  0  0  0
 17 18  1  0  0  0  0
  3  4  1  0  0  0  0
  3  5  1  0  0  0  0
  3  6  1  0  0  0  0
 43 46  1  0  0  0  0
 43 47  1  0  0  0  0
 43 48  1  0  0  0  0
 11 14  1  0  0  0  0
 11 15  1  0  0  0  0
 11 16  1  0  0  0  0
 50 52  1  0  0  0  0
 50 53  1  0  0  0  0
 50 54  1  0  0  0  0
 22 30  1  0  0  0  0
 22 31  1  0  0  0  0
 23 32  1  0  0  0  0
 23 33  1  0  0  0  0
 21 28  1  0  0  0  0
 21 29  1  0  0  0  0
 24 34  1  0  0  0  0
 24 35  1  0  0  0  0
 40 45  1  0  0  0  0
  8 13  1  0  0  0  0
 18 27  1  0  0  0  0
 49 51  1  0  0  0  0
  7 12  1  0  0  0  0
 39 44  1  0  0  0  0
 17 26  1  0  0  0  0
 25 36  1  0  0  0  0
 25 37  1  0  0  0  0
 25 38  1  0  0  0  0
M  CHG  1  25   1
M  END
$$$$

  -OEChem-05262214473D

 54 53  0     1  0  0  0  0  0999 V2000
    2.6714    2.8829   -3.0005 C   0  0  0  0  0  0  0  0  0  0  0  0
    3.1741    2.4398   -1.9745 O   0  0  0  0  0  0  0  0  0  0  0  0
    3.5527    3.3077   -4.1279 C   0  0  0  0  0  0  0  0  0  0  0  0
    3.8407    4.3691   -4.0597 H   0  0  0  0  0  0  0  0  0  0  0  0
    4.5024    2.7495   -4.1526 H   0  0  0  0  0  0  0  0  0  0  0  0
    3.1208    3.1887   -5.1345 H   0  0  0  0  0  0  0  0  0  0  0  0
    1.3174    3.0407   -3.2467 N   0  0  0  0  0  0  0  0  0  0  0  0
    0.2944    2.6927   -2.2960 C   0  0  2  0  0  0  0  0  0  0  0  0
    0.2976    1.1783   -2.1349 C   0  0  0  0  0  0  0  0  0  0  0  0
    0.7500    0.4142   -2.9850 O   0  0  0  0  0  0  0  0  0  0  0  0
   -1.0710    3.1886   -2.7460 C   0  0  0  0  0  0  0  0  0  0  0  0
    1.0312    3.4224   -4.1464 H   0  0  0  0  0  0  0  0  0  0  0  0
    0.5725    3.1622   -1.3461 H   0  0  0  0  0  0  0  0  0  0  0  0
   -1.3666    2.7292   -3.6963 H   0  0  0  0  0  0  0  0  0  0  0  0
   -1.8434    2.9482   -2.0082 H   0  0  0  0  0  0  0  0  0  0  0  0
   -1.0632    4.2744   -2.8901 H   0  0  0  0  0  0  0  0  0  0  0  0
   -0.3037    0.7742   -0.9484 N   0  0  0  0  0  0  0  0  0  0  0  0
   -0.4352   -0.6095   -0.5718 C   0  0  2  0  0  0  0  0  0  0  0  0
   -1.8492   -0.8455   -0.0511 C   0  0  0  0  0  0  0  0  0  0  0  0
   -2.1141   -1.6749    0.8169 O   0  0  0  0  0  0  0  0  0  0  0  0
    0.6467   -1.0373    0.4268 C   0  0  0  0  0  0  0  0  0  0  0  0
    2.0637   -1.0690   -0.1607 C   0  0  0  0  0  0  0  0  0  0  0  0
    3.0847   -1.5271    0.8834 C   0  0  0  0  0  0  0  0  0  0  0  0
    4.4918   -1.5339    0.3044 C   0  0  0  0  0  0  0  0  0  0  0  0
    5.4474   -1.9596    1.3551 N   0  3  0  0  0  0  0  0  0  0  0  0
   -0.6336    1.4811   -0.2948 H   0  0  0  0  0  0  0  0  0  0  0  0
   -0.3150   -1.1849   -1.4977 H   0  0  0  0  0  0  0  0  0  0  0  0
    0.6330   -0.3468    1.2801 H   0  0  0  0  0  0  0  0  0  0  0  0
    0.4051   -2.0314    0.8227 H   0  0  0  0  0  0  0  0  0  0  0  0
    2.0977   -1.7493   -1.0196 H   0  0  0  0  0  0  0  0  0  0  0  0
    2.3414   -0.0726   -0.5239 H   0  0  0  0  0  0  0  0  0  0  0  0
    2.8232   -2.5325    1.2363 H   0  0  0  0  0  0  0  0  0  0  0  0
    3.0442   -0.8605    1.7538 H   0  0  0  0  0  0  0  0  0  0  0  0
    4.5917   -2.2438   -0.5220 H   0  0  0  0  0  0  0  0  0  0  0  0
    4.8046   -0.5386   -0.0248 H   0  0  0  0  0  0  0  0  0  0  0  0
    6.4033   -1.6687    1.1226 H   0  0  0  0  0  0  0  0  0  0  0  0
    5.4454   -2.9801    1.4616 H   0  0  0  0  0  0  0  0  0  0  0  0
    5.2040   -1.5473    2.2625 H   0  0  0  0  0  0  0  0  0  0  0  0
   -2.7760   -0.0001   -0.6438 N   0  0  0  0  0  0  0  0  0  0  0  0
   -4.1767   -0.0294   -0.2961 C   0  0  2  0  0  0  0  0  0  0  0  0
   -4.9376    0.7760   -1.3410 C   0  0  0  0  0  0  0  0  0  0  0  0
   -4.4090    1.6397   -2.0379 O   0  0  0  0  0  0  0  0  0  0  0  0
   -4.4124    0.5293    1.0985 C   0  0  0  0  0  0  0  0  0  0  0  0
   -2.4583    0.6616   -1.3458 H   0  0  0  0  0  0  0  0  0  0  0  0
   -4.4919   -1.0776   -0.3414 H   0  0  0  0  0  0  0  0  0  0  0  0
   -4.1026    1.5787    1.1633 H   0  0  0  0  0  0  0  0  0  0  0  0
   -5.4716    0.4800    1.3719 H   0  0  0  0  0  0  0  0  0  0  0  0
   -3.8410   -0.0327    1.8452 H   0  0  0  0  0  0  0  0  0  0  0  0
   -6.2855    0.4471   -1.3736 N   0  0  0  0  0  0  0  0  0  0  0  0
   -7.2214    1.0818   -2.2722 C   0  0  0  0  0  0  0  0  0  0  0  0
   -6.6336   -0.2946   -0.7732 H   0  0  0  0  0  0  0  0  0  0  0  0
   -7.6875    1.9420   -1.7694 H   0  0  0  0  0  0  0  0  0  0  0  0
   -6.6898    1.4266   -3.1714 H   0  0  0  0  0  0  0  0  0  0  0  0
   -7.9997    0.3599   -2.5606 H   0  0  0  0  0  0  0  0  0  0  0  0
  1  3  1  0  0  0  0
  1  7  1  0  0  0  0
  1  2  2  0  0  0  0
 40 41  1  0  0  0  0
 41 49  1  0  0  0  0
 41 42  2  0  0  0  0
  8  9  1  0  0  0  0
  9 17  1  0  0  0  0
  9 10  2  0  0  0  0
 18 19  1  0  0  0  0
 19 39  1  0  0  0  0
 19 20  2  0  0  0  0
 40 43  1  0  0  0  0
  8 11  1  0  0  0  0
 49 50  1  0  0  0  0
 22 23  1  0  0  0  0
 21 22  1  0  0  0  0
 23 24  1  0  0  0  0
 18 21  1  0  0  0  0
 24 25  1  0  0  0  0
 39 40  1  0  0  0  0
  7  8  1  0  0  0  0
 17 18  1  0  0  0  0
  3  4  1  0  0  0  0
  3  5  1  0  0  0  0
  3  6  1  0  0  0  0
 43 46  1  0  0  0  0
 43 47  1  0  0  0  0
 43 48  1  0  0  0  0
 11 14  1  0  0  0  0
 11 15  1  0  0  0  0
 11 16  1  0  0  0  0
 50 52  1  0  0  0  0
 50 53  1  0  0  0  0
 50 54  1  0  0  0  0
 22 30  1  0  0  0  0
 22 31  1  0  0  0  0
 23 32  1  0  0  0  0
 23 33  1  0  0  0  0
 21 28  1  0  0  0  0
 21 29  1  0  0  0  0
 24 34  1  0  0  0  0
 24 35  1  0  0  0  0
 40 45  1  0  0  0  0
  8 13  1  0  0  0  0
 18 27  1  0  0  0  0
 49 51  1  0  0  0  0
  7 12  1  0  0  0  0
 39 44  1  0  0  0  0
 17 26  1  0  0  0  0
 25 36  1  0  0  0  0
 25 37  1  0  0  0  0
 25 38  1  0  0  0  0
M  CHG  1  25   1
M  END
$$$$

  -OEChem-05262214473D

 54 53  0     1  0  0  0  0  0999 V2000
    2.6714    2.8829   -3.0005 C   0  0  0  0  0  0  0  0  0  0  0  0
    3.1741    2.4398   -1.9745 O   0  0  0  0  0  0  0  0  0  0  0  0
    3.5527    3.3077   -4.1279 C   0  0  0  0  0  0  0  0  0  0  0  0
    3.8407    4.3691   -4.0597 H   0  0  0  0  0  0  0  0  0  0  0  0
    4.5024    2.7495   -4.1526 H   0  0  0  0  0  0  0  0  0  0  0  0
    3.1208    3.1887   -5.1345 H   0  0  0  0  0  0  0  0  0  0  0  0
    1.3174    3.0407   -3.2467 N   0  0  0  0  0  0  0  0  0  0  0  0
    0.2944    2.6927   -2.2960 C   0  0  2  0  0  0  0  0  0  0  0  0
    0.2976    1.1783   -2.1349 C   0  0  0  0  0  0  0  0  0  0  0  0
    0.7500    0.4142   -2.9850 O   0  0  0  0  0  0  0  0  0  0  0  0
   -1.0710    3.1886   -2.7460 C   0  0  0  0  0  0  0  0  0  0  0  0
    1.0312    3.4224   -4.1464 H   0  0  0  0  0  0  0  0  0  0  0  0
    0.5725    3.1622   -1.3461 H   0  0  0  0  0  0  0  0  0  0  0  0
   -1.3666    2.7292   -3.6963 H   0  0  0  0  0  0  0  0  0  0  0  0
   -1.8434    2.9482   -2.0082 H   0  0  0  0  0  0  0  0  0  0  0  0
   -1.0632    4.2744   -2.8901 H   0  0  0  0  0  0  0  0  0  0  0  0
   -0.3037    0.7742   -0.9484 N   0  0  0  0  0  0  0  0  0  0  0  0
   -0.4352   -0.6095   -0.5718 C   0  0  2  0  0  0  0  0  0  0  0  0
   -1.8492   -0.8455   -0.0511 C   0  0  0  0  0  0  0  0  0  0  0  0
   -2.0877   -1.4653    0.9835 O   0  0  0  0  0  0  0  0  0  0  0  0
    0.6467   -1.0373    0.4268 C   0  0  0  0  0  0  0  0  0  0  0  0
    2.0637   -1.0690   -0.1607 C   0  0  0  0  0  0  0  0  0  0  0  0
    3.0847   -1.5271    0.8834 C   0  0  0  0  0  0  0  0  0  0  0  0
    4.4918   -1.5339    0.3044 C   0  0  0  0  0  0  0  0  0  0  0  0
    5.4474   -1.9596    1.3551 N   0  3  0  0  0  0  0  0  0  0  0  0
   -0.6336    1.4811   -0.2948 H   0  0  0  0  0  0  0  0  0  0  0  0
   -0.3150   -1.1849   -1.4977 H   0  0  0  0  0  0  0  0  0  0  0  0
    0.6330   -0.3468    1.2801 H   0  0  0  0  0  0  0  0  0  0  0  0
    0.4051   -2.0314    0.8227 H   0  0  0  0  0  0  0  0  0  0  0  0
    2.0977   -1.7493   -1.0196 H   0  0  0  0  0  0  0  0  0  0  0  0
    2.3414   -0.0726   -0.5239 H   0  0  0  0  0  0  0  0  0  0  0  0
    2.8232   -2.5325    1.2363 H   0  0  0  0  0  0  0  0  0  0  0  0
    3.0442   -0.8605    1.7538 H   0  0  0  0  0  0  0  0  0  0  0  0
    4.5917   -2.2438   -0.5220 H   0  0  0  0  0  0  0  0  0  0  0  0
    4.8046   -0.5386   -0.0248 H   0  0  0  0  0  0  0  0  0  0  0  0
    6.4033   -1.6687    1.1226 H   0  0  0  0  0  0  0  0  0  0  0  0
    5.4454   -2.9801    1.4616 H   0  0  0  0  0  0  0  0  0  0  0  0
    5.2040   -1.5473    2.2625 H   0  0  0  0  0  0  0  0  0  0  0  0
   -2.8120   -0.2558   -0.8575 N   0  0  0  0  0  0  0  0  0  0  0  0
   -4.2212   -0.3320   -0.5541 C   0  0  2  0  0  0  0  0  0  0  0  0
   -4.9926    0.1269   -1.7845 C   0  0  0  0  0  0  0  0  0  0  0  0
   -4.5032    0.8452   -2.6538 O   0  0  0  0  0  0  0  0  0  0  0  0
   -4.5734    0.5183    0.6566 C   0  0  0  0  0  0  0  0  0  0  0  0
   -2.5154    0.2463   -1.6890 H   0  0  0  0  0  0  0  0  0  0  0  0
   -4.4451   -1.3854   -0.3539 H   0  0  0  0  0  0  0  0  0  0  0  0
   -4.3559    1.5771    0.4747 H   0  0  0  0  0  0  0  0  0  0  0  0
   -5.6373    0.4369    0.9026 H   0  0  0  0  0  0  0  0  0  0  0  0
   -3.9957    0.2062    1.5333 H   0  0  0  0  0  0  0  0  0  0  0  0
   -6.3050   -0.3245   -1.7761 N   0  0  0  0  0  0  0  0  0  0  0  0
   -7.2436   -0.0123   -2.8284 C   0  0  0  0  0  0  0  0  0  0  0  0
   -6.6199   -0.9311   -1.0247 H   0  0  0  0  0  0  0  0  0  0  0  0
   -7.8048    0.8956   -2.5624 H   0  0  0  0  0  0  0  0  0  0  0  0
   -6.6977    0.1565   -3.7684 H   0  0  0  0  0  0  0  0  0  0  0  0
   -7.9433   -0.8514   -2.9564 H   0  0  0  0  0  0  0  0  0  0  0  0
  1  3  1  0  0  0  0
  1  7  1  0  0  0  0
  1  2  2  0  0  0  0
 40 41  1  0  0  0  0
 41 49  1  0  0  0  0
 41 42  2  0  0  0  0
  8  9  1  0  0  0  0
  9 17  1  0  0  0  0
  9 10  2  0  0  0  0
 18 19  1  0  0  0  0
 19 39  1  0  0  0  0
 19 20  2  0  0  0  0
 40 43  1  0  0  0  0
  8 11  1  0  0  0  0
 49 50  1  0  0  0  0
 22 23  1  0  0  0  0
 21 22  1  0  0  0  0
 23 24  1  0  0  0  0
 18 21  1  0  0  0  0
 24 25  1  0  0  0  0
 39 40  1  0  0  0  0
  7  8  1  0  0  0  0
 17 18  1  0  0  0  0
  3  4  1  0  0  0  0
  3  5  1  0  0  0  0
  3  6  1  0  0  0  0
 43 46  1  0  0  0  0
 43 47  1  0  0  0  0
 43 48  1  0  0  0  0
 11 14  1  0  0  0  0
 11 15  1  0  0  0  0
 11 16  1  0  0  0  0
 50 52  1  0  0  0  0
 50 53  1  0  0  0  0
 50 54  1  0  0  0  0
 22 30  1  0  0  0  0
 22 31  1  0  0  0  0
 23 32  1  0  0  0  0
 23 33  1  0  0  0  0
 21 28  1  0  0  0  0
 21 29  1  0  0  0  0
 24 34  1  0  0  0  0
 24 35  1  0  0  0  0
 40 45  1  0  0  0  0
  8 13  1  0  0  0  0
 18 27  1  0  0  0  0
 49 51  1  0  0  0  0
  7 12  1  0  0  0  0
 39 44  1  0  0  0  0
 17 26  1  0  0  0  0
 25 36  1  0  0  0  0
 25 37  1  0  0  0  0
 25 38  1  0  0  0  0
M  CHG  1  25   1
M  END
$$$$

  -OEChem-05262214473D

 54 53  0     1  0  0  0  0  0999 V2000
    2.6714    2.8829   -3.0005 C   0  0  0  0  0  0  0  0  0  0  0  0
    3.1741    2.4398   -1.9745 O   0  0  0  0  0  0  0  0  0  0  0  0
    3.5527    3.3077   -4.1279 C   0  0  0  0  0  0  0  0  0  0  0  0
    3.8407    4.3691   -4.0597 H   0  0  0  0  0  0  0  0  0  0  0  0
    4.5024    2.7495   -4.1526 H   0  0  0  0  0  0  0  0  0  0  0  0
    3.1208    3.1887   -5.1345 H   0  0  0  0  0  0  0  0  0  0  0  0
    1.3174    3.0407   -3.2467 N   0  0  0  0  0  0  0  0  0  0  0  0
    0.2944    2.6927   -2.2960 C   0  0  2  0  0  0  0  0  0  0  0  0
    0.2976    1.1783   -2.1349 C   0  0  0  0  0  0  0  0  0  0  0  0
    0.7500    0.4142   -2.9850 O   0  0  0  0  0  0  0  0  0  0  0  0
   -1.0710    3.1886   -2.7460 C   0  0  0  0  0  0  0  0  0  0  0  0
    1.0312    3.4224   -4.1464 H   0  0  0  0  0  0  0  0  0  0  0  0
    0.5725    3.1622   -1.3461 H   0  0  0  0  0  0  0  0  0  0  0  0
   -1.3666    2.7292   -3.6963 H   0  0  0  0  0  0  0  0  0  0  0  0
   -1.8434    2.9482   -2.0082 H   0  0  0  0  0  0  0  0  0  0  0  0
   -1.0632    4.2744   -2.8901 H   0  0  0  0  0  0  0  0  0  0  0  0
   -0.3037    0.7742   -0.9484 N   0  0  0  0  0  0  0  0  0  0  0  0
   -0.4352   -0.6095   -0.5718 C   0  0  2  0  0  0  0  0  0  0  0  0
   -1.8492   -0.8455   -0.0511 C   0  0  0  0  0  0  0  0  0  0  0  0
   -2.0874   -1.2206    1.0952 O   0  0  0  0  0  0  0  0  0  0  0  0
    0.6467   -1.0373    0.4268 C   0  0  0  0  0  0  0  0  0  0  0  0
    2.0637   -1.0690   -0.1607 C   0  0  0  0  0  0  0  0  0  0  0  0
    3.0847   -1.5271    0.8834 C   0  0  0  0  0  0  0  0  0  0  0  0
    4.4918   -1.5339    0.3044 C   0  0  0  0  0  0  0  0  0  0  0  0
    5.4474   -1.9596    1.3551 N   0  3  0  0  0  0  0  0  0  0  0  0
   -0.6336    1.4811   -0.2948 H   0  0  0  0  0  0  0  0  0  0  0  0
   -0.3150   -1.1849   -1.4977 H   0  0  0  0  0  0  0  0  0  0  0  0
    0.6330   -0.3468    1.2801 H   0  0  0  0  0  0  0  0  0  0  0  0
    0.4051   -2.0314    0.8227 H   0  0  0  0  0  0  0  0  0  0  0  0
    2.0977   -1.7493   -1.0196 H   0  0  0  0  0  0  0  0  0  0  0  0
    2.3414   -0.0726   -0.5239 H   0  0  0  0  0  0  0  0  0  0  0  0
    2.8232   -2.5325    1.2363 H   0  0  0  0  0  0  0  0  0  0  0  0
    3.0442   -0.8605    1.7538 H   0  0  0  0  0  0  0  0  0  0  0  0
    4.5917   -2.2438   -0.5220 H   0  0  0  0  0  0  0  0  0  0  0  0
    4.8046   -0.5386   -0.0248 H   0  0  0  0  0  0  0  0  0  0  0  0
    6.4033   -1.6687    1.1226 H   0  0  0  0  0  0  0  0  0  0  0  0
    5.4454   -2.9801    1.4616 H   0  0  0  0  0  0  0  0  0  0  0  0
    5.2040   -1.5473    2.2625 H   0  0  0  0  0  0  0  0  0  0  0  0
   -2.8156   -0.5572   -1.0039 N   0  0  0  0  0  0  0  0  0  0  0  0
   -4.2272   -0.6900   -0.7325 C   0  0  2  0  0  0  0  0  0  0  0  0
   -4.9706   -0.6114   -2.0594 C   0  0  0  0  0  0  0  0  0  0  0  0
   -4.4993   -0.0783   -3.0618 O   0  0  0  0  0  0  0  0  0  0  0  0
   -4.7102    0.3874    0.2259 C   0  0  0  0  0  0  0  0  0  0  0  0
   -2.5201   -0.2422   -1.9231 H   0  0  0  0  0  0  0  0  0  0  0  0
   -4.3722   -1.6817   -0.2902 H   0  0  0  0  0  0  0  0  0  0  0  0
   -4.5729    1.3880   -0.2001 H   0  0  0  0  0  0  0  0  0  0  0  0
   -5.7747    0.2682    0.4530 H   0  0  0  0  0  0  0  0  0  0  0  0
   -4.1538    0.3483    1.1686 H   0  0  0  0  0  0  0  0  0  0  0  0
   -6.2394   -1.1682   -1.9805 N   0  0  0  0  0  0  0  0  0  0  0  0
   -7.1462   -1.2044   -3.1041 C   0  0  0  0  0  0  0  0  0  0  0  0
   -6.5404   -1.6050   -1.1143 H   0  0  0  0  0  0  0  0  0  0  0  0
   -7.7940   -0.3157   -3.0820 H   0  0  0  0  0  0  0  0  0  0  0  0
   -6.5691   -1.2142   -4.0406 H   0  0  0  0  0  0  0  0  0  0  0  0
   -7.7659   -2.1114   -3.0459 H   0  0  0  0  0  0  0  0  0  0  0  0
  1  3  1  0  0  0  0
  1  7  1  0  0  0  0
  1  2  2  0  0  0  0
 40 41  1  0  0  0  0
 41 49  1  0  0  0  0
 41 42  2  0  0  0  0
  8  9  1  0  0  0  0
  9 17  1  0  0  0  0
  9 10  2  0  0  0  0
 18 19  1  0  0  0  0
 19 39  1  0  0  0  0
 19 20  2  0  0  0  0
 40 43  1  0  0  0  0
  8 11  1  0  0  0  0
 49 50  1  0  0  0  0
 22 23  1  0  0  0  0
 21 22  1  0  0  0  0
 23 24  1  0  0  0  0
 18 21  1  0  0  0  0
 24 25  1  0  0  0  0
 39 40  1  0  0  0  0
  7  8  1  0  0  0  0
 17 18  1  0  0  0  0
  3  4  1  0  0  0  0
  3  5  1  0  0  0  0
  3  6  1  0  0  0  0
 43 46  1  0  0  0  0
 43 47  1  0  0  0  0
 43 48  1  0  0  0  0
 11 14  1  0  0  0  0
 11 15  1  0  0  0  0
 11 16  1  0  0  0  0
 50 52  1  0  0  0  0
 50 53  1  0  0  0  0
 50 54  1  0  0  0  0
 22 30  1  0  0  0  0
 22 31  1  0  0  0  0
 23 32  1  0  0  0  0
 23 33  1  0  0  0  0
 21 28  1  0  0  0  0
 21 29  1  0  0  0  0
 24 34  1  0  0  0  0
 24 35  1  0  0  0  0
 40 45  1  0  0  0  0
  8 13  1  0  0  0  0
 18 27  1  0  0  0  0
 49 51  1  0  0  0  0
  7 12  1  0  0  0  0
 39 44  1  0  0  0  0
 17 26  1  0  0  0  0
 25 36  1  0  0  0  0
 25 37  1  0  0  0  0
 25 38  1  0  0  0  0
M  CHG  1  25   1
M  END
$$$$

  -OEChem-05262214473D

 54 53  0     1  0  0  0  0  0999 V2000
    2.6714    2.8829   -3.0005 C   0  0  0  0  0  0  0  0  0  0  0  0
    3.1741    2.4398   -1.9745 O   0  0  0  0  0  0  0  0  0  0  0  0
    3.5527    3.3077   -4.1279 C   0  0  0  0  0  0  0  0  0  0  0  0
    3.8407    4.3691   -4.0597 H   0  0  0  0  0  0  0  0  0  0  0  0
    4.5024    2.7495   -4.1526 H   0  0  0  0  0  0  0  0  0  0  0  0
    3.1208    3.1887   -5.1345 H   0  0  0  0  0  0  0  0  0  0  0  0
    1.3174    3.0407   -3.2467 N   0  0  0  0  0  0  0  0  0  0  0  0
    0.2944    2.6927   -2.2960 C   0  0  2  0  0  0  0  0  0  0  0  0
    0.2976    1.1783   -2.1349 C   0  0  0  0  0  0  0  0  0  0  0  0
    0.7500    0.4142   -2.9850 O   0  0  0  0  0  0  0  0  0  0  0  0
   -1.0710    3.1886   -2.7460 C   0  0  0  0  0  0  0  0  0  0  0  0
    1.0312    3.4224   -4.1464 H   0  0  0  0  0  0  0  0  0  0  0  0
    0.5725    3.1622   -1.3461 H   0  0  0  0  0  0  0  0  0  0  0  0
   -1.3666    2.7292   -3.6963 H   0  0  0  0  0  0  0  0  0  0  0  0
   -1.8434    2.9482   -2.0082 H   0  0  0  0  0  0  0  0  0  0  0  0
   -1.0632    4.2744   -2.8901 H   0  0  0  0  0  0  0  0  0  0  0  0
   -0.3037    0.7742   -0.9484 N   0  0  0  0  0  0  0  0  0  0  0  0
   -0.4352   -0.6095   -0.5718 C   0  0  2  0  0  0  0  0  0  0  0  0
   -1.8492   -0.8455   -0.0511 C   0  0  0  0  0  0  0  0  0  0  0  0
   -2.1132   -0.9573    1.1444 O   0  0  0  0  0  0  0  0  0  0  0  0
    0.6467   -1.0373    0.4268 C   0  0  0  0  0  0  0  0  0  0  0  0
    2.0637   -1.0690   -0.1607 C   0  0  0  0  0  0  0  0  0  0  0  0
    3.0847   -1.5271    0.8834 C   0  0  0  0  0  0  0  0  0  0  0  0
    4.4918   -1.5339    0.3044 C   0  0  0  0  0  0  0  0  0  0  0  0
    5.4474   -1.9596    1.3551 N   0  3  0  0  0  0  0  0  0  0  0  0
   -0.6336    1.4811   -0.2948 H   0  0  0  0  0  0  0  0  0  0  0  0
   -0.3150   -1.1849   -1.4977 H   0  0  0  0  0  0  0  0  0  0  0  0
    0.6330   -0.3468    1.2801 H   0  0  0  0  0  0  0  0  0  0  0  0
    0.4051   -2.0314    0.8227 H   0  0  0  0  0  0  0  0  0  0  0  0
    2.0977   -1.7493   -1.0196 H   0  0  0  0  0  0  0  0  0  0  0  0
    2.3414   -0.0726   -0.5239 H   0  0  0  0  0  0  0  0  0  0  0  0
    2.8232   -2.5325    1.2363 H   0  0  0  0  0  0  0  0  0  0  0  0
    3.0442   -0.8605    1.7538 H   0  0  0  0  0  0  0  0  0  0  0  0
    4.5917   -2.2438   -0.5220 H   0  0  0  0  0  0  0  0  0  0  0  0
    4.8046   -0.5386   -0.0248 H   0  0  0  0  0  0  0  0  0  0  0  0
    6.4033   -1.6687    1.1226 H   0  0  0  0  0  0  0  0  0  0  0  0
    5.4454   -2.9801    1.4616 H   0  0  0  0  0  0  0  0  0  0  0  0
    5.2040   -1.5473    2.2625 H   0  0  0  0  0  0  0  0  0  0  0  0
   -2.7866   -0.8838   -1.0732 N   0  0  0  0  0  0  0  0  0  0  0  0
   -4.1941   -1.0792   -0.8192 C   0  0  2  0  0  0  0  0  0  0  0  0
   -4.8731   -1.3885   -2.1469 C   0  0  0  0  0  0  0  0  0  0  0  0
   -4.3976   -1.0680   -3.2342 O   0  0  0  0  0  0  0  0  0  0  0  0
   -4.8135    0.1456   -0.1643 C   0  0  0  0  0  0  0  0  0  0  0  0
   -2.4720   -0.7706   -2.0323 H   0  0  0  0  0  0  0  0  0  0  0  0
   -4.2782   -1.9461   -0.1547 H   0  0  0  0  0  0  0  0  0  0  0  0
   -4.7387    1.0242   -0.8153 H   0  0  0  0  0  0  0  0  0  0  0  0
   -5.8745   -0.0149    0.0538 H   0  0  0  0  0  0  0  0  0  0  0  0
   -4.3044    0.3842    0.7758 H   0  0  0  0  0  0  0  0  0  0  0  0
   -6.0934   -2.0263   -1.9729 N   0  0  0  0  0  0  0  0  0  0  0  0
   -6.9356   -2.4135   -3.0805 C   0  0  0  0  0  0  0  0  0  0  0  0
   -6.4005   -2.2704   -1.0360 H   0  0  0  0  0  0  0  0  0  0  0  0
   -7.6557   -1.6095   -3.2928 H   0  0  0  0  0  0  0  0  0  0  0  0
   -6.3130   -2.5922   -3.9695 H   0  0  0  0  0  0  0  0  0  0  0  0
   -7.4797   -3.3342   -2.8229 H   0  0  0  0  0  0  0  0  0  0  0  0
  1  3  1  0  0  0  0
  1  7  1  0  0  0  0
  1  2  2  0  0  0  0
 40 41  1  0  0  0  0
 41 49  1  0  0  0  0
 41 42  2  0  0  0  0
  8  9  1  0  0  0  0
  9 17  1  0  0  0  0
  9 10  2  0  0  0  0
 18 19  1  0  0  0  0
 19 39  1  0  0  0  0
 19 20  2  0  0  0  0
 40 43  1  0  0  0  0
  8 11  1  0  0  0  0
 49 50  1  0  0  0  0
 22 23  1  0  0  0  0
 21 22  1  0  0  0  0
 23 24  1  0  0  0  0
 18 21  1  0  0  0  0
 24 25  1  0  0  0  0
 39 40  1  0  0  0  0
  7  8  1  0  0  0  0
 17 18  1  0  0  0  0
  3  4  1  0  0  0  0
  3  5  1  0  0  0  0
  3  6  1  0  0  0  0
 43 46  1  0  0  0  0
 43 47  1  0  0  0  0
 43 48  1  0  0  0  0
 11 14  1  0  0  0  0
 11 15  1  0  0  0  0
 11 16  1  0  0  0  0
 50 52  1  0  0  0  0
 50 53  1  0  0  0  0
 50 54  1  0  0  0  0
 22 30  1  0  0  0  0
 22 31  1  0  0  0  0
 23 32  1  0  0  0  0
 23 33  1  0  0  0  0
 21 28  1  0  0  0  0
 21 29  1  0  0  0  0
 24 34  1  0  0  0  0
 24 35  1  0  0  0  0
 40 45  1  0  0  0  0
  8 13  1  0  0  0  0
 18 27  1  0  0  0  0
 49 51  1  0  0  0  0
  7 12  1  0  0  0  0
 39 44  1  0  0  0  0
 17 26  1  0  0  0  0
 25 36  1  0  0  0  0
 25 37  1  0  0  0  0
 25 38  1  0  0  0  0
M  CHG  1  25   1
M  END
$$$$

  -OEChem-05262214473D

 54 53  0     1  0  0  0  0  0999 V2000
    2.6714    2.8829   -3.0005 C   0  0  0  0  0  0  0  0  0  0  0  0
    3.1741    2.4398   -1.9745 O   0  0  0  0  0  0  0  0  0  0  0  0
    3.5527    3.3077   -4.1279 C   0  0  0  0  0  0  0  0  0  0  0  0
    3.8407    4.3691   -4.0597 H   0  0  0  0  0  0  0  0  0  0  0  0
    4.5024    2.7495   -4.1526 H   0  0  0  0  0  0  0  0  0  0  0  0
    3.1208    3.1887   -5.1345 H   0  0  0  0  0  0  0  0  0  0  0  0
    1.3174    3.0407   -3.2467 N   0  0  0  0  0  0  0  0  0  0  0  0
    0.2944    2.6927   -2.2960 C   0  0  2  0  0  0  0  0  0  0  0  0
    0.2976    1.1783   -2.1349 C   0  0  0  0  0  0  0  0  0  0  0  0
    0.7500    0.4142   -2.9850 O   0  0  0  0  0  0  0  0  0  0  0  0
   -1.0710    3.1886   -2.7460 C   0  0  0  0  0  0  0  0  0  0  0  0
    1.0312    3.4224   -4.1464 H   0  0  0  0  0  0  0  0  0  0  0  0
    0.5725    3.1622   -1.3461 H   0  0  0  0  0  0  0  0  0  0  0  0
   -1.3666    2.7292   -3.6963 H   0  0  0  0  0  0  0  0  0  0  0  0
   -1.8434    2.9482   -2.0082 H   0  0  0  0  0  0  0  0  0  0  0  0
   -1.0632    4.2744   -2.8901 H   0  0  0  0  0  0  0  0  0  0  0  0
   -0.3037    0.7742   -0.9484 N   0  0  0  0  0  0  0  0  0  0  0  0
   -0.4352   -0.6095   -0.5718 C   0  0  2  0  0  0  0  0  0  0  0  0
   -1.8492   -0.8455   -0.0511 C   0  0  0  0  0  0  0  0  0  0  0  0
   -2.1634   -0.6935    1.1277 O   0  0  0  0  0  0  0  0  0  0  0  0
    0.6467   -1.0373    0.4268 C   0  0  0  0  0  0  0  0  0  0  0  0
    2.0637   -1.0690   -0.1607 C   0  0  0  0  0  0  0  0  0  0  0  0
    3.0847   -1.5271    0.8834 C   0  0  0  0  0  0  0  0  0  0  0  0
    4.4918   -1.5339    0.3044 C   0  0  0  0  0  0  0  0  0  0  0  0
    5.4474   -1.9596    1.3551 N   0  3  0  0  0  0  0  0  0  0  0  0
   -0.6336    1.4811   -0.2948 H   0  0  0  0  0  0  0  0  0  0  0  0
   -0.3150   -1.1849   -1.4977 H   0  0  0  0  0  0  0  0  0  0  0  0
    0.6330   -0.3468    1.2801 H   0  0  0  0  0  0  0  0  0  0  0  0
    0.4051   -2.0314    0.8227 H   0  0  0  0  0  0  0  0  0  0  0  0
    2.0977   -1.7493   -1.0196 H   0  0  0  0  0  0  0  0  0  0  0  0
    2.3414   -0.0726   -0.5239 H   0  0  0  0  0  0  0  0  0  0  0  0
    2.8232   -2.5325    1.2363 H   0  0  0  0  0  0  0  0  0  0  0  0
    3.0442   -0.8605    1.7538 H   0  0  0  0  0  0  0  0  0  0  0  0
    4.5917   -2.2438   -0.5220 H   0  0  0  0  0  0  0  0  0  0  0  0
    4.8046   -0.5386   -0.0248 H   0  0  0  0  0  0  0  0  0  0  0  0
    6.4033   -1.6687    1.1226 H   0  0  0  0  0  0  0  0  0  0  0  0
    5.4454   -2.9801    1.4616 H   0  0  0  0  0  0  0  0  0  0  0  0
    5.2040   -1.5473    2.2625 H   0  0  0  0  0  0  0  0  0  0  0  0
   -2.7270   -1.2134   -1.0606 N   0  0  0  0  0  0  0  0  0  0  0  0
   -4.1243   -1.4731   -0.8082 C   0  0  2  0  0  0  0  0  0  0  0  0
   -4.7068   -2.1516   -2.0410 C   0  0  0  0  0  0  0  0  0  0  0  0
   -4.2050   -2.0563   -3.1592 O   0  0  0  0  0  0  0  0  0  0  0  0
   -4.8762   -0.1908   -0.4872 C   0  0  0  0  0  0  0  0  0  0  0  0
   -2.3746   -1.3030   -2.0090 H   0  0  0  0  0  0  0  0  0  0  0  0
   -4.1694   -2.1607    0.0434 H   0  0  0  0  0  0  0  0  0  0  0  0
   -4.8421    0.5106   -1.3288 H   0  0  0  0  0  0  0  0  0  0  0  0
   -5.9299   -0.3929   -0.2680 H   0  0  0  0  0  0  0  0  0  0  0  0
   -4.4374    0.3112    0.3818 H   0  0  0  0  0  0  0  0  0  0  0  0
   -5.8768   -2.8405   -1.7538 N   0  0  0  0  0  0  0  0  0  0  0  0
   -6.6264   -3.5572   -2.7591 C   0  0  0  0  0  0  0  0  0  0  0  0
   -6.2097   -2.8820   -0.7951 H   0  0  0  0  0  0  0  0  0  0  0  0
   -7.3993   -2.8976   -3.1805 H   0  0  0  0  0  0  0  0  0  0  0  0
   -5.9466   -3.8835   -3.5599 H   0  0  0  0  0  0  0  0  0  0  0  0
   -7.1041   -4.4366   -2.3026 H   0  0  0  0  0  0  0  0  0  0  0  0
  1  3  1  0  0  0  0
  1  7  1  0  0  0  0
  1  2  2  0  0  0  0
 40 41  1  0  0  0  0
 41 49  1  0  0  0  0
 41 42  2  0  0  0  0
  8  9  1  0  0  0  0
  9 17  1  0  0  0  0
  9 10  2  0  0  0  0
 18 19  1  0  0  0  0
 19 39  1  0  0  0  0
 19 20  2  0  0  0  0
 40 43  1  0  0  0  0
  8 11  1  0  0  0  0
 49 50  1  0  0  0  0
 22 23  1  0  0  0  0
 21 22  1  0  0  0  0
 23 24  1  0  0  0  0
 18 21  1  0  0  0  0
 24 25  1  0  0  0  0
 39 40  1  0  0  0  0
  7  8  1  0  0  0  0
 17 18  1  0  0  0  0
  3  4  1  0  0  0  0
  3  5  1  0  0  0  0
  3  6  1  0  0  0  0
 43 46  1  0  0  0  0
 43 47  1  0  0  0  0
 43 48  1  0  0  0  0
 11 14  1  0  0  0  0
 11 15  1  0  0  0  0
 11 16  1  0  0  0  0
 50 52  1  0  0  0  0
 50 53  1  0  0  0  0
 50 54  1  0  0  0  0
 22 30  1  0  0  0  0
 22 31  1  0  0  0  0
 23 32  1  0  0  0  0
 23 33  1  0  0  0  0
 21 28  1  0  0  0  0
 21 29  1  0  0  0  0
 24 34  1  0  0  0  0
 24 35  1  0  0  0  0
 40 45  1  0  0  0  0
  8 13  1  0  0  0  0
 18 27  1  0  0  0  0
 49 51  1  0  0  0  0
  7 12  1  0  0  0  0
 39 44  1  0  0  0  0
 17 26  1  0  0  0  0
 25 36  1  0  0  0  0
 25 37  1  0  0  0  0
 25 38  1  0  0  0  0
M  CHG  1  25   1
M  END
$$$$

  -OEChem-05262214473D

 54 53  0     1  0  0  0  0  0999 V2000
    2.6714    2.8829   -3.0005 C   0  0  0  0  0  0  0  0  0  0  0  0
    3.1741    2.4398   -1.9745 O   0  0  0  0  0  0  0  0  0  0  0  0
    3.5527    3.3077   -4.1279 C   0  0  0  0  0  0  0  0  0  0  0  0
    3.8407    4.3691   -4.0597 H   0  0  0  0  0  0  0  0  0  0  0  0
    4.5024    2.7495   -4.1526 H   0  0  0  0  0  0  0  0  0  0  0  0
    3.1208    3.1887   -5.1345 H   0  0  0  0  0  0  0  0  0  0  0  0
    1.3174    3.0407   -3.2467 N   0  0  0  0  0  0  0  0  0  0  0  0
    0.2944    2.6927   -2.2960 C   0  0  2  0  0  0  0  0  0  0  0  0
    0.2976    1.1783   -2.1349 C   0  0  0  0  0  0  0  0  0  0  0  0
    0.7500    0.4142   -2.9850 O   0  0  0  0  0  0  0  0  0  0  0  0
   -1.0710    3.1886   -2.7460 C   0  0  0  0  0  0  0  0  0  0  0  0
    1.0312    3.4224   -4.1464 H   0  0  0  0  0  0  0  0  0  0  0  0
    0.5725    3.1622   -1.3461 H   0  0  0  0  0  0  0  0  0  0  0  0
   -1.3666    2.7292   -3.6963 H   0  0  0  0  0  0  0  0  0  0  0  0
   -1.8434    2.9482   -2.0082 H   0  0  0  0  0  0  0  0  0  0  0  0
   -1.0632    4.2744   -2.8901 H   0  0  0  0  0  0  0  0  0  0  0  0
   -0.3037    0.7742   -0.9484 N   0  0  0  0  0  0  0  0  0  0  0  0
   -0.4352   -0.6095   -0.5718 C   0  0  2  0  0  0  0  0  0  0  0  0
   -1.8492   -0.8455   -0.0511 C   0  0  0  0  0  0  0  0  0  0  0  0
   -2.2345   -0.4471    1.0463 O   0  0  0  0  0  0  0  0  0  0  0  0
    0.6467   -1.0373    0.4268 C   0  0  0  0  0  0  0  0  0  0  0  0
    2.0637   -1.0690   -0.1607 C   0  0  0  0  0  0  0  0  0  0  0  0
    3.0847   -1.5271    0.8834 C   0  0  0  0  0  0  0  0  0  0  0  0
    4.4918   -1.5339    0.3044 C   0  0  0  0  0  0  0  0  0  0  0  0
    5.4474   -1.9596    1.3551 N   0  3  0  0  0  0  0  0  0  0  0  0
   -0.6336    1.4811   -0.2948 H   0  0  0  0  0  0  0  0  0  0  0  0
   -0.3150   -1.1849   -1.4977 H   0  0  0  0  0  0  0  0  0  0  0  0
    0.6330   -0.3468    1.2801 H   0  0  0  0  0  0  0  0  0  0  0  0
    0.4051   -2.0314    0.8227 H   0  0  0  0  0  0  0  0  0  0  0  0
    2.0977   -1.7493   -1.0196 H   0  0  0  0  0  0  0  0  0  0  0  0
    2.3414   -0.0726   -0.5239 H   0  0  0  0  0  0  0  0  0  0  0  0
    2.8232   -2.5325    1.2363 H   0  0  0  0  0  0  0  0  0  0  0  0
    3.0442   -0.8605    1.7538 H   0  0  0  0  0  0  0  0  0  0  0  0
    4.5917   -2.2438   -0.5220 H   0  0  0  0  0  0  0  0  0  0  0  0
    4.8046   -0.5386   -0.0248 H   0  0  0  0  0  0  0  0  0  0  0  0
    6.4033   -1.6687    1.1226 H   0  0  0  0  0  0  0  0  0  0  0  0
    5.4454   -2.9801    1.4616 H   0  0  0  0  0  0  0  0  0  0  0  0
    5.2040   -1.5473    2.2625 H   0  0  0  0  0  0  0  0  0  0  0  0
   -2.6408   -1.5234   -0.9670 N   0  0  0  0  0  0  0  0  0  0  0  0
   -4.0226   -1.8447   -0.7003 C   0  0  2  0  0  0  0  0  0  0  0  0
   -4.4829   -2.8485   -1.7490 C   0  0  0  0  0  0  0  0  0  0  0  0
   -3.9347   -2.9759   -2.8419 O   0  0  0  0  0  0  0  0  0  0  0  0
   -4.8942   -0.5987   -0.7209 C   0  0  0  0  0  0  0  0  0  0  0  0
   -2.2344   -1.8030   -1.8548 H   0  0  0  0  0  0  0  0  0  0  0  0
   -4.0533   -2.3108    0.2906 H   0  0  0  0  0  0  0  0  0  0  0  0
   -4.8760   -0.1179   -1.7058 H   0  0  0  0  0  0  0  0  0  0  0  0
   -5.9371   -0.8402   -0.4903 H   0  0  0  0  0  0  0  0  0  0  0  0
   -4.5435    0.1345    0.0134 H   0  0  0  0  0  0  0  0  0  0  0  0
   -5.6044   -3.5553   -1.3381 N   0  0  0  0  0  0  0  0  0  0  0  0
   -6.2395   -4.5574   -2.1618 C   0  0  0  0  0  0  0  0  0  0  0  0
   -5.9810   -3.3981   -0.4080 H   0  0  0  0  0  0  0  0  0  0  0  0
   -7.0423   -4.0922   -2.7526 H   0  0  0  0  0  0  0  0  0  0  0  0
   -5.4950   -5.0002   -2.8398 H   0  0  0  0  0  0  0  0  0  0  0  0
   -6.6647   -5.3434   -1.5204 H   0  0  0  0  0  0  0  0  0  0  0  0
  1  3  1  0  0  0  0
  1  7  1  0  0  0  0
  1  2  2  0  0  0  0
 40 41  1  0  0  0  0
 41 49  1  0  0  0  0
 41 42  2  0  0  0  0
  8  9  1  0  0  0  0
  9 17  1  0  0  0  0
  9 10  2  0  0  0  0
 18 19  1  0  0  0  0
 19 39  1  0  0  0  0
 19 20  2  0  0  0  0
 40 43  1  0  0  0  0
  8 11  1  0  0  0  0
 49 50  1  0  0  0  0
 22 23  1  0  0  0  0
 21 22  1  0  0  0  0
 23 24  1  0  0  0  0
 18 21  1  0  0  0  0
 24 25  1  0  0  0  0
 39 40  1  0  0  0  0
  7  8  1  0  0  0  0
 17 18  1  0  0  0  0
  3  4  1  0  0  0  0
  3  5  1  0  0  0  0
  3  6  1  0  0  0  0
 43 46  1  0  0  0  0
 43 47  1  0  0  0  0
 43 48  1  0  0  0  0
 11 14  1  0  0  0  0
 11 15  1  0  0  0  0
 11 16  1  0  0  0  0
 50 52  1  0  0  0  0
 50 53  1  0  0  0  0
 50 54  1  0  0  0  0
 22 30  1  0  0  0  0
 22 31  1  0  0  0  0
 23 32  1  0  0  0  0
 23 33  1  0  0  0  0
 21 28  1  0  0  0  0
 21 29  1  0  0  0  0
 24 34  1  0  0  0  0
 24 35  1  0  0  0  0
 40 45  1  0  0  0  0
  8 13  1  0  0  0  0
 18 27  1  0  0  0  0
 49 51  1  0  0  0  0
  7 12  1  0  0  0  0
 39 44  1  0  0  0  0
 17 26  1  0  0  0  0
 25 36  1  0  0  0  0
 25 37  1  0  0  0  0
 25 38  1  0  0  0  0
M  CHG  1  25   1
M  END
$$$$

  -OEChem-05262214473D

 54 53  0     1  0  0  0  0  0999 V2000
    2.6714    2.8829   -3.0005 C   0  0  0  0  0  0  0  0  0  0  0  0
    3.1741    2.4398   -1.9745 O   0  0  0  0  0  0  0  0  0  0  0  0
    3.5527    3.3077   -4.1279 C   0  0  0  0  0  0  0  0  0  0  0  0
    3.8407    4.3691   -4.0597 H   0  0  0  0  0  0  0  0  0  0  0  0
    4.5024    2.7495   -4.1526 H   0  0  0  0  0  0  0  0  0  0  0  0
    3.1208    3.1887   -5.1345 H   0  0  0  0  0  0  0  0  0  0  0  0
    1.3174    3.0407   -3.2467 N   0  0  0  0  0  0  0  0  0  0  0  0
    0.2944    2.6927   -2.2960 C   0  0  2  0  0  0  0  0  0  0  0  0
    0.2976    1.1783   -2.1349 C   0  0  0  0  0  0  0  0  0  0  0  0
    0.7500    0.4142   -2.9850 O   0  0  0  0  0  0  0  0  0  0  0  0
   -1.0710    3.1886   -2.7460 C   0  0  0  0  0  0  0  0  0  0  0  0
    1.0312    3.4224   -4.1464 H   0  0  0  0  0  0  0  0  0  0  0  0
    0.5725    3.1622   -1.3461 H   0  0  0  0  0  0  0  0  0  0  0  0
   -1.3666    2.7292   -3.6963 H   0  0  0  0  0  0  0  0  0  0  0  0
   -1.8434    2.9482   -2.0082 H   0  0  0  0  0  0  0  0  0  0  0  0
   -1.0632    4.2744   -2.8901 H   0  0  0  0  0  0  0  0  0  0  0  0
   -0.3037    0.7742   -0.9484 N   0  0  0  0  0  0  0  0  0  0  0  0
   -0.4352   -0.6095   -0.5718 C   0  0  2  0  0  0  0  0  0  0  0  0
   -1.8492   -0.8455   -0.0511 C   0  0  0  0  0  0  0  0  0  0  0  0
   -2.3217   -0.2350    0.9057 O   0  0  0  0  0  0  0  0  0  0  0  0
    0.6467   -1.0373    0.4268 C   0  0  0  0  0  0  0  0  0  0  0  0
    2.0637   -1.0690   -0.1607 C   0  0  0  0  0  0  0  0  0  0  0  0
    3.0847   -1.5271    0.8834 C   0  0  0  0  0  0  0  0  0  0  0  0
    4.4918   -1.5339    0.3044 C   0  0  0  0  0  0  0  0  0  0  0  0
    5.4474   -1.9596    1.3551 N   0  3  0  0  0  0  0  0  0  0  0  0
   -0.6336    1.4811   -0.2948 H   0  0  0  0  0  0  0  0  0  0  0  0
   -0.3150   -1.1849   -1.4977 H   0  0  0  0  0  0  0  0  0  0  0  0
    0.6330   -0.3468    1.2801 H   0  0  0  0  0  0  0  0  0  0  0  0
    0.4051   -2.0314    0.8227 H   0  0  0  0  0  0  0  0  0  0  0  0
    2.0977   -1.7493   -1.0196 H   0  0  0  0  0  0  0  0  0  0  0  0
    2.3414   -0.0726   -0.5239 H   0  0  0  0  0  0  0  0  0  0  0  0
    2.8232   -2.5325    1.2363 H   0  0  0  0  0  0  0  0  0  0  0  0
    3.0442   -0.8605    1.7538 H   0  0  0  0  0  0  0  0  0  0  0  0
    4.5917   -2.2438   -0.5220 H   0  0  0  0  0  0  0  0  0  0  0  0
    4.8046   -0.5386   -0.0248 H   0  0  0  0  0  0  0  0  0  0  0  0
    6.4033   -1.6687    1.1226 H   0  0  0  0  0  0  0  0  0  0  0  0
    5.4454   -2.9801    1.4616 H   0  0  0  0  0  0  0  0  0  0  0  0
    5.2040   -1.5473    2.2625 H   0  0  0  0  0  0  0  0  0  0  0  0
   -2.5338   -1.7928   -0.7987 N   0  0  0  0  0  0  0  0  0  0  0  0
   -3.8957   -2.1687   -0.5028 C   0  0  2  0  0  0  0  0  0  0  0  0
   -4.2168   -3.4318   -1.2908 C   0  0  0  0  0  0  0  0  0  0  0  0
   -3.6050   -3.7641   -2.3039 O   0  0  0  0  0  0  0  0  0  0  0  0
   -4.8662   -1.0504   -0.8495 C   0  0  0  0  0  0  0  0  0  0  0  0
   -2.0609   -2.2366   -1.5803 H   0  0  0  0  0  0  0  0  0  0  0  0
   -3.9378   -2.3862    0.5700 H   0  0  0  0  0  0  0  0  0  0  0  0
   -4.8381   -0.8184   -1.9205 H   0  0  0  0  0  0  0  0  0  0  0  0
   -5.8956   -1.3262   -0.5980 H   0  0  0  0  0  0  0  0  0  0  0  0
   -4.6157   -0.1340   -0.3043 H   0  0  0  0  0  0  0  0  0  0  0  0
   -5.2948   -4.1218   -0.7542 N   0  0  0  0  0  0  0  0  0  0  0  0
   -5.8013   -5.3460   -1.3294 C   0  0  0  0  0  0  0  0  0  0  0  0
   -5.7300   -3.7835    0.0989 H   0  0  0  0  0  0  0  0  0  0  0  0
   -6.6091   -5.1118   -2.0384 H   0  0  0  0  0  0  0  0  0  0  0  0
   -4.9889   -5.8661   -1.8582 H   0  0  0  0  0  0  0  0  0  0  0  0
   -6.1914   -5.9928   -0.5298 H   0  0  0  0  0  0  0  0  0  0  0  0
  1  3  1  0  0  0  0
  1  7  1  0  0  0  0
  1  2  2  0  0  0  0
 40 41  1  0  0  0  0
 41 49  1  0  0  0  0
 41 42  2  0  0  0  0
  8  9  1  0  0  0  0
  9 17  1  0  0  0  0
  9 10  2  0  0  0  0
 18 19  1  0  0  0  0
 19 39  1  0  0  0  0
 19 20  2  0  0  0  0
 40 43  1  0  0  0  0
  8 11  1  0  0  0  0
 49 50  1  0  0  0  0
 22 23  1  0  0  0  0
 21 22  1  0  0  0  0
 23 24  1  0  0  0  0
 18 21  1  0  0  0  0
 24 25  1  0  0  0  0
 39 40  1  0  0  0  0
  7  8  1  0  0  0  0
 17 18  1  0  0  0  0
  3  4  1  0  0  0  0
  3  5  1  0  0  0  0
  3  6  1  0  0  0  0
 43 46  1  0  0  0  0
 43 47  1  0  0  0  0
 43 48  1  0  0  0  0
 11 14  1  0  0  0  0
 11 15  1  0  0  0  0
 11 16  1  0  0  0  0
 50 52  1  0  0  0  0
 50 53  1  0  0  0  0
 50 54  1  0  0  0  0
 22 30  1  0  0  0  0
 22 31  1  0  0  0  0
 23 32  1  0  0  0  0
 23 33  1  0  0  0  0
 21 28  1  0  0  0  0
 21 29  1  0  0  0  0
 24 34  1  0  0  0  0
 24 35  1  0  0  0  0
 40 45  1  0  0  0  0
  8 13  1  0  0  0  0
 18 27  1  0  0  0  0
 49 51  1  0  0  0  0
  7 12  1  0  0  0  0
 39 44  1  0  0  0  0
 17 26  1  0  0  0  0
 25 36  1  0  0  0  0
 25 37  1  0  0  0  0
 25 38  1  0  0  0  0
M  CHG  1  25   1
M  END
$$$$

  -OEChem-05262214473D

 54 53  0     1  0  0  0  0  0999 V2000
    2.6714    2.8829   -3.0005 C   0  0  0  0  0  0  0  0  0  0  0  0
    3.1741    2.4398   -1.9745 O   0  0  0  0  0  0  0  0  0  0  0  0
    3.5527    3.3077   -4.1279 C   0  0  0  0  0  0  0  0  0  0  0  0
    3.8407    4.3691   -4.0597 H   0  0  0  0  0  0  0  0  0  0  0  0
    4.5024    2.7495   -4.1526 H   0  0  0  0  0  0  0  0  0  0  0  0
    3.1208    3.1887   -5.1345 H   0  0  0  0  0  0  0  0  0  0  0  0
    1.3174    3.0407   -3.2467 N   0  0  0  0  0  0  0  0  0  0  0  0
    0.2944    2.6927   -2.2960 C   0  0  2  0  0  0  0  0  0  0  0  0
    0.2976    1.1783   -2.1349 C   0  0  0  0  0  0  0  0  0  0  0  0
    0.7500    0.4142   -2.9850 O   0  0  0  0  0  0  0  0  0  0  0  0
   -1.0710    3.1886   -2.7460 C   0  0  0  0  0  0  0  0  0  0  0  0
    1.0312    3.4224   -4.1464 H   0  0  0  0  0  0  0  0  0  0  0  0
    0.5725    3.1622   -1.3461 H   0  0  0  0  0  0  0  0  0  0  0  0
   -1.3666    2.7292   -3.6963 H   0  0  0  0  0  0  0  0  0  0  0  0
   -1.8434    2.9482   -2.0082 H   0  0  0  0  0  0  0  0  0  0  0  0
   -1.0632    4.2744   -2.8901 H   0  0  0  0  0  0  0  0  0  0  0  0
   -0.3037    0.7742   -0.9484 N   0  0  0  0  0  0  0  0  0  0  0  0
   -0.4352   -0.6095   -0.5718 C   0  0  2  0  0  0  0  0  0  0  0  0
   -1.8492   -0.8455   -0.0511 C   0  0  0  0  0  0  0  0  0  0  0  0
   -2.4191   -0.0715    0.7155 O   0  0  0  0  0  0  0  0  0  0  0  0
    0.6467   -1.0373    0.4268 C   0  0  0  0  0  0  0  0  0  0  0  0
    2.0637   -1.0690   -0.1607 C   0  0  0  0  0  0  0  0  0  0  0  0
    3.0847   -1.5271    0.8834 C   0  0  0  0  0  0  0  0  0  0  0  0
    4.4918   -1.5339    0.3044 C   0  0  0  0  0  0  0  0  0  0  0  0
    5.4474   -1.9596    1.3551 N   0  3  0  0  0  0  0  0  0  0  0  0
   -0.6336    1.4811   -0.2948 H   0  0  0  0  0  0  0  0  0  0  0  0
   -0.3150   -1.1849   -1.4977 H   0  0  0  0  0  0  0  0  0  0  0  0
    0.6330   -0.3468    1.2801 H   0  0  0  0  0  0  0  0  0  0  0  0
    0.4051   -2.0314    0.8227 H   0  0  0  0  0  0  0  0  0  0  0  0
    2.0977   -1.7493   -1.0196 H   0  0  0  0  0  0  0  0  0  0  0  0
    2.3414   -0.0726   -0.5239 H   0  0  0  0  0  0  0  0  0  0  0  0
    2.8232   -2.5325    1.2363 H   0  0  0  0  0  0  0  0  0  0  0  0
    3.0442   -0.8605    1.7538 H   0  0  0  0  0  0  0  0  0  0  0  0
    4.5917   -2.2438   -0.5220 H   0  0  0  0  0  0  0  0  0  0  0  0
    4.8046   -0.5386   -0.0248 H   0  0  0  0  0  0  0  0  0  0  0  0
    6.4033   -1.6687    1.1226 H   0  0  0  0  0  0  0  0  0  0  0  0
    5.4454   -2.9801    1.4616 H   0  0  0  0  0  0  0  0  0  0  0  0
    5.2040   -1.5473    2.2625 H   0  0  0  0  0  0  0  0  0  0  0  0
   -2.4135   -2.0032   -0.5672 N   0  0  0  0  0  0  0  0  0  0  0  0
   -3.7525   -2.4231   -0.2292 C   0  0  2  0  0  0  0  0  0  0  0  0
   -3.9265   -3.8618   -0.6975 C   0  0  0  0  0  0  0  0  0  0  0  0
   -3.2384   -4.3673   -1.5819 O   0  0  0  0  0  0  0  0  0  0  0  0
   -4.7941   -1.5151   -0.8643 C   0  0  0  0  0  0  0  0  0  0  0  0
   -1.8660   -2.5743   -1.2042 H   0  0  0  0  0  0  0  0  0  0  0  0
   -3.8308   -2.3818    0.8627 H   0  0  0  0  0  0  0  0  0  0  0  0
   -4.7311   -1.5432   -1.9582 H   0  0  0  0  0  0  0  0  0  0  0  0
   -5.8083   -1.8178   -0.5838 H   0  0  0  0  0  0  0  0  0  0  0  0
   -4.6490   -0.4759   -0.5497 H   0  0  0  0  0  0  0  0  0  0  0  0
   -4.9691   -4.5016   -0.0418 N   0  0  0  0  0  0  0  0  0  0  0  0
   -5.3417   -5.8693   -0.3186 C   0  0  0  0  0  0  0  0  0  0  0  0
   -5.4738   -4.0119    0.6911 H   0  0  0  0  0  0  0  0  0  0  0  0
   -6.1292   -5.8871   -1.0865 H   0  0  0  0  0  0  0  0  0  0  0  0
   -4.4629   -6.4223   -0.6819 H   0  0  0  0  0  0  0  0  0  0  0  0
   -5.7166   -6.3405    0.6019 H   0  0  0  0  0  0  0  0  0  0  0  0
  1  3  1  0  0  0  0
  1  7  1  0  0  0  0
  1  2  2  0  0  0  0
 40 41  1  0  0  0  0
 41 49  1  0  0  0  0
 41 42  2  0  0  0  0
  8  9  1  0  0  0  0
  9 17  1  0  0  0  0
  9 10  2  0  0  0  0
 18 19  1  0  0  0  0
 19 39  1  0  0  0  0
 19 20  2  0  0  0  0
 40 43  1  0  0  0  0
  8 11  1  0  0  0  0
 49 50  1  0  0  0  0
 22 23  1  0  0  0  0
 21 22  1  0  0  0  0
 23 24  1  0  0  0  0
 18 21  1  0  0  0  0
 24 25  1  0  0  0  0
 39 40  1  0  0  0  0
  7  8  1  0  0  0  0
 17 18  1  0  0  0  0
  3  4  1  0  0  0  0
  3  5  1  0  0  0  0
  3  6  1  0  0  0  0
 43 46  1  0  0  0  0
 43 47  1  0  0  0  0
 43 48  1  0  0  0  0
 11 14  1  0  0  0  0
 11 15  1  0  0  0  0
 11 16  1  0  0  0  0
 50 52  1  0  0  0  0
 50 53  1  0  0  0  0
 50 54  1  0  0  0  0
 22 30  1  0  0  0  0
 22 31  1  0  0  0  0
 23 32  1  0  0  0  0
 23 33  1  0  0  0  0
 21 28  1  0  0  0  0
 21 29  1  0  0  0  0
 24 34  1  0  0  0  0
 24 35  1  0  0  0  0
 40 45  1  0  0  0  0
  8 13  1  0  0  0  0
 18 27  1  0  0  0  0
 49 51  1  0  0  0  0
  7 12  1  0  0  0  0
 39 44  1  0  0  0  0
 17 26  1  0  0  0  0
 25 36  1  0  0  0  0
 25 37  1  0  0  0  0
 25 38  1  0  0  0  0
M  CHG  1  25   1
M  END
$$$$

  -OEChem-05262214473D

 54 53  0     1  0  0  0  0  0999 V2000
    2.6714    2.8829   -3.0005 C   0  0  0  0  0  0  0  0  0  0  0  0
    3.1741    2.4398   -1.9745 O   0  0  0  0  0  0  0  0  0  0  0  0
    3.5527    3.3077   -4.1279 C   0  0  0  0  0  0  0  0  0  0  0  0
    3.8407    4.3691   -4.0597 H   0  0  0  0  0  0  0  0  0  0  0  0
    4.5024    2.7495   -4.1526 H   0  0  0  0  0  0  0  0  0  0  0  0
    3.1208    3.1887   -5.1345 H   0  0  0  0  0  0  0  0  0  0  0  0
    1.3174    3.0407   -3.2467 N   0  0  0  0  0  0  0  0  0  0  0  0
    0.2944    2.6927   -2.2960 C   0  0  2  0  0  0  0  0  0  0  0  0
    0.2976    1.1783   -2.1349 C   0  0  0  0  0  0  0  0  0  0  0  0
    0.7500    0.4142   -2.9850 O   0  0  0  0  0  0  0  0  0  0  0  0
   -1.0710    3.1886   -2.7460 C   0  0  0  0  0  0  0  0  0  0  0  0
    1.0312    3.4224   -4.1464 H   0  0  0  0  0  0  0  0  0  0  0  0
    0.5725    3.1622   -1.3461 H   0  0  0  0  0  0  0  0  0  0  0  0
   -1.3666    2.7292   -3.6963 H   0  0  0  0  0  0  0  0  0  0  0  0
   -1.8434    2.9482   -2.0082 H   0  0  0  0  0  0  0  0  0  0  0  0
   -1.0632    4.2744   -2.8901 H   0  0  0  0  0  0  0  0  0  0  0  0
   -0.3037    0.7742   -0.9484 N   0  0  0  0  0  0  0  0  0  0  0  0
   -0.4352   -0.6095   -0.5718 C   0  0  2  0  0  0  0  0  0  0  0  0
   -1.8492   -0.8455   -0.0511 C   0  0  0  0  0  0  0  0  0  0  0  0
   -2.5199    0.0322    0.4886 O   0  0  0  0  0  0  0  0  0  0  0  0
    0.6467   -1.0373    0.4268 C   0  0  0  0  0  0  0  0  0  0  0  0
    2.0637   -1.0690   -0.1607 C   0  0  0  0  0  0  0  0  0  0  0  0
    3.0847   -1.5271    0.8834 C   0  0  0  0  0  0  0  0  0  0  0  0
    4.4918   -1.5339    0.3044 C   0  0  0  0  0  0  0  0  0  0  0  0
    5.4474   -1.9596    1.3551 N   0  3  0  0  0  0  0  0  0  0  0  0
   -0.6336    1.4811   -0.2948 H   0  0  0  0  0  0  0  0  0  0  0  0
   -0.3150   -1.1849   -1.4977 H   0  0  0  0  0  0  0  0  0  0  0  0
    0.6330   -0.3468    1.2801 H   0  0  0  0  0  0  0  0  0  0  0  0
    0.4051   -2.0314    0.8227 H   0  0  0  0  0  0  0  0  0  0  0  0
    2.0977   -1.7493   -1.0196 H   0  0  0  0  0  0  0  0  0  0  0  0
    2.3414   -0.0726   -0.5239 H   0  0  0  0  0  0  0  0  0  0  0  0
    2.8232   -2.5325    1.2363 H   0  0  0  0  0  0  0  0  0  0  0  0
    3.0442   -0.8605    1.7538 H   0  0  0  0  0  0  0  0  0  0  0  0
    4.5917   -2.2438   -0.5220 H   0  0  0  0  0  0  0  0  0  0  0  0
    4.8046   -0.5386   -0.0248 H   0  0  0  0  0  0  0  0  0  0  0  0
    6.4033   -1.6687    1.1226 H   0  0  0  0  0  0  0  0  0  0  0  0
    5.4454   -2.9801    1.4616 H   0  0  0  0  0  0  0  0  0  0  0  0
    5.2040   -1.5473    2.2625 H   0  0  0  0  0  0  0  0  0  0  0  0
   -2.2879   -2.1402   -0.2883 N   0  0  0  0  0  0  0  0  0  0  0  0
   -3.6027   -2.5905    0.1018 C   0  0  2  0  0  0  0  0  0  0  0  0
   -3.6319   -4.1092   -0.0096 C   0  0  0  0  0  0  0  0  0  0  0  0
   -2.8599   -4.7442   -0.7251 O   0  0  0  0  0  0  0  0  0  0  0  0
   -4.6827   -1.9611   -0.7641 C   0  0  0  0  0  0  0  0  0  0  0  0
   -1.6630   -2.7930   -0.7520 H   0  0  0  0  0  0  0  0  0  0  0  0
   -3.7395   -2.2979    1.1486 H   0  0  0  0  0  0  0  0  0  0  0  0
   -4.5621   -2.2429   -1.8165 H   0  0  0  0  0  0  0  0  0  0  0  0
   -5.6811   -2.2815   -0.4485 H   0  0  0  0  0  0  0  0  0  0  0  0
   -4.6411   -0.8680   -0.7059 H   0  0  0  0  0  0  0  0  0  0  0  0
   -4.6494   -4.6688    0.7505 N   0  0  0  0  0  0  0  0  0  0  0  0
   -4.8920   -6.0916    0.8017 C   0  0  0  0  0  0  0  0  0  0  0  0
   -5.2299   -4.0679    1.3282 H   0  0  0  0  0  0  0  0  0  0  0  0
   -5.6352   -6.3651    0.0382 H   0  0  0  0  0  0  0  0  0  0  0  0
   -3.9528   -6.6308    0.6087 H   0  0  0  0  0  0  0  0  0  0  0  0
   -5.2726   -6.3629    1.7975 H   0  0  0  0  0  0  0  0  0  0  0  0
  1  3  1  0  0  0  0
  1  7  1  0  0  0  0
  1  2  2  0  0  0  0
 40 41  1  0  0  0  0
 41 49  1  0  0  0  0
 41 42  2  0  0  0  0
  8  9  1  0  0  0  0
  9 17  1  0  0  0  0
  9 10  2  0  0  0  0
 18 19  1  0  0  0  0
 19 39  1  0  0  0  0
 19 20  2  0  0  0  0
 40 43  1  0  0  0  0
  8 11  1  0  0  0  0
 49 50  1  0  0  0  0
 22 23  1  0  0  0  0
 21 22  1  0  0  0  0
 23 24  1  0  0  0  0
 18 21  1  0  0  0  0
 24 25  1  0  0  0  0
 39 40  1  0  0  0  0
  7  8  1  0  0  0  0
 17 18  1  0  0  0  0
  3  4  1  0  0  0  0
  3  5  1  0  0  0  0
  3  6  1  0  0  0  0
 43 46  1  0  0  0  0
 43 47  1  0  0  0  0
 43 48  1  0  0  0  0
 11 14  1  0  0  0  0
 11 15  1  0  0  0  0
 11 16  1  0  0  0  0
 50 52  1  0  0  0  0
 50 53  1  0  0  0  0
 50 54  1  0  0  0  0
 22 30  1  0  0  0  0
 22 31  1  0  0  0  0
 23 32  1  0  0  0  0
 23 33  1  0  0  0  0
 21 28  1  0  0  0  0
 21 29  1  0  0  0  0
 24 34  1  0  0  0  0
 24 35  1  0  0  0  0
 40 45  1  0  0  0  0
  8 13  1  0  0  0  0
 18 27  1  0  0  0  0
 49 51  1  0  0  0  0
  7 12  1  0  0  0  0
 39 44  1  0  0  0  0
 17 26  1  0  0  0  0
 25 36  1  0  0  0  0
 25 37  1  0  0  0  0
 25 38  1  0  0  0  0
M  CHG  1  25   1
M  END
$$$$

  -OEChem-05262214473D

 54 53  0     1  0  0  0  0  0999 V2000
    2.6714    2.8829   -3.0005 C   0  0  0  0  0  0  0  0  0  0  0  0
    3.1741    2.4398   -1.9745 O   0  0  0  0  0  0  0  0  0  0  0  0
    3.5527    3.3077   -4.1279 C   0  0  0  0  0  0  0  0  0  0  0  0
    3.8407    4.3691   -4.0597 H   0  0  0  0  0  0  0  0  0  0  0  0
    4.5024    2.7495   -4.1526 H   0  0  0  0  0  0  0  0  0  0  0  0
    3.1208    3.1887   -5.1345 H   0  0  0  0  0  0  0  0  0  0  0  0
    1.3174    3.0407   -3.2467 N   0  0  0  0  0  0  0  0  0  0  0  0
    0.2944    2.6927   -2.2960 C   0  0  2  0  0  0  0  0  0  0  0  0
    0.2976    1.1783   -2.1349 C   0  0  0  0  0  0  0  0  0  0  0  0
    0.7500    0.4142   -2.9850 O   0  0  0  0  0  0  0  0  0  0  0  0
   -1.0710    3.1886   -2.7460 C   0  0  0  0  0  0  0  0  0  0  0  0
    1.0312    3.4224   -4.1464 H   0  0  0  0  0  0  0  0  0  0  0  0
    0.5725    3.1622   -1.3461 H   0  0  0  0  0  0  0  0  0  0  0  0
   -1.3666    2.7292   -3.6963 H   0  0  0  0  0  0  0  0  0  0  0  0
   -1.8434    2.9482   -2.0082 H   0  0  0  0  0  0  0  0  0  0  0  0
   -1.0632    4.2744   -2.8901 H   0  0  0  0  0  0  0  0  0  0  0  0
   -0.3037    0.7742   -0.9484 N   0  0  0  0  0  0  0  0  0  0  0  0
   -0.4352   -0.6095   -0.5718 C   0  0  2  0  0  0  0  0  0  0  0  0
   -1.8492   -0.8455   -0.0511 C   0  0  0  0  0  0  0  0  0  0  0  0
   -2.6174    0.0690    0.2405 O   0  0  0  0  0  0  0  0  0  0  0  0
    0.6467   -1.0373    0.4268 C   0  0  0  0  0  0  0  0  0  0  0  0
    2.0637   -1.0690   -0.1607 C   0  0  0  0  0  0  0  0  0  0  0  0
    3.0847   -1.5271    0.8834 C   0  0  0  0  0  0  0  0  0  0  0  0
    4.4918   -1.5339    0.3044 C   0  0  0  0  0  0  0  0  0  0  0  0
    5.4474   -1.9596    1.3551 N   0  3  0  0  0  0  0  0  0  0  0  0
   -0.6336    1.4811   -0.2948 H   0  0  0  0  0  0  0  0  0  0  0  0
   -0.3150   -1.1849   -1.4977 H   0  0  0  0  0  0  0  0  0  0  0  0
    0.6330   -0.3468    1.2801 H   0  0  0  0  0  0  0  0  0  0  0  0
    0.4051   -2.0314    0.8227 H   0  0  0  0  0  0  0  0  0  0  0  0
    2.0977   -1.7493   -1.0196 H   0  0  0  0  0  0  0  0  0  0  0  0
    2.3414   -0.0726   -0.5239 H   0  0  0  0  0  0  0  0  0  0  0  0
    2.8232   -2.5325    1.2363 H   0  0  0  0  0  0  0  0  0  0  0  0
    3.0442   -0.8605    1.7538 H   0  0  0  0  0  0  0  0  0  0  0  0
    4.5917   -2.2438   -0.5220 H   0  0  0  0  0  0  0  0  0  0  0  0
    4.8046   -0.5386   -0.0248 H   0  0  0  0  0  0  0  0  0  0  0  0
    6.4033   -1.6687    1.1226 H   0  0  0  0  0  0  0  0  0  0  0  0
    5.4454   -2.9801    1.4616 H   0  0  0  0  0  0  0  0  0  0  0  0
    5.2040   -1.5473    2.2625 H   0  0  0  0  0  0  0  0  0  0  0  0
   -2.1656   -2.1945    0.0190 N   0  0  0  0  0  0  0  0  0  0  0  0
   -3.4564   -2.6596    0.4678 C   0  0  2  0  0  0  0  0  0  0  0  0
   -3.3530   -4.1570    0.7259 C   0  0  0  0  0  0  0  0  0  0  0  0
   -2.4954   -4.8693    0.2081 O   0  0  0  0  0  0  0  0  0  0  0  0
   -4.5398   -2.3580   -0.5559 C   0  0  0  0  0  0  0  0  0  0  0  0
   -1.4657   -2.8777   -0.2547 H   0  0  0  0  0  0  0  0  0  0  0  0
   -3.6702   -2.1402    1.4083 H   0  0  0  0  0  0  0  0  0  0  0  0
   -4.3427   -2.8699   -1.5049 H   0  0  0  0  0  0  0  0  0  0  0  0
   -5.5227   -2.6857   -0.2016 H   0  0  0  0  0  0  0  0  0  0  0  0
   -4.5926   -1.2836   -0.7625 H   0  0  0  0  0  0  0  0  0  0  0  0
   -4.3576   -4.6118    1.5686 N   0  0  0  0  0  0  0  0  0  0  0  0
   -4.4828   -5.9978    1.9552 C   0  0  0  0  0  0  0  0  0  0  0  0
   -5.0148   -3.9475    1.9667 H   0  0  0  0  0  0  0  0  0  0  0  0
   -5.1608   -6.5133    1.2591 H   0  0  0  0  0  0  0  0  0  0  0  0
   -3.4933   -6.4774    1.9259 H   0  0  0  0  0  0  0  0  0  0  0  0
   -4.8896   -6.0584    2.9755 H   0  0  0  0  0  0  0  0  0  0  0  0
  1  3  1  0  0  0  0
  1  7  1  0  0  0  0
  1  2  2  0  0  0  0
 40 41  1  0  0  0  0
 41 49  1  0  0  0  0
 41 42  2  0  0  0  0
  8  9  1  0  0  0  0
  9 17  1  0  0  0  0
  9 10  2  0  0  0  0
 18 19  1  0  0  0  0
 19 39  1  0  0  0  0
 19 20  2  0  0  0  0
 40 43  1  0  0  0  0
  8 11  1  0  0  0  0
 49 50  1  0  0  0  0
 22 23  1  0  0  0  0
 21 22  1  0  0  0  0
 23 24  1  0  0  0  0
 18 21  1  0  0  0  0
 24 25  1  0  0  0  0
 39 40  1  0  0  0  0
  7  8  1  0  0  0  0
 17 18  1  0  0  0  0
  3  4  1  0  0  0  0
  3  5  1  0  0  0  0
  3  6  1  0  0  0  0
 43 46  1  0  0  0  0
 43 47  1  0  0  0  0
 43 48  1  0  0  0  0
 11 14  1  0  0  0  0
 11 15  1  0  0  0  0
 11 16  1  0  0  0  0
 50 52  1  0  0  0  0
 50 53  1  0  0  0  0
 50 54  1  0  0  0  0
 22 30  1  0  0  0  0
 22 31  1  0  0  0  0
 23 32  1  0  0  0  0
 23 33  1  0  0  0  0
 21 28  1  0  0  0  0
 21 29  1  0  0  0  0
 24 34  1  0  0  0  0
 24 35  1  0  0  0  0
 40 45  1  0  0  0  0
  8 13  1  0  0  0  0
 18 27  1  0  0  0  0
 49 51  1  0  0  0  0
  7 12  1  0  0  0  0
 39 44  1  0  0  0  0
 17 26  1  0  0  0  0
 25 36  1  0  0  0  0
 25 37  1  0  0  0  0
 25 38  1  0  0  0  0
M  CHG  1  25   1
M  END
$$$$

  -OEChem-05262214473D

 54 53  0     1  0  0  0  0  0999 V2000
    2.6714    2.8829   -3.0005 C   0  0  0  0  0  0  0  0  0  0  0  0
    3.1741    2.4398   -1.9745 O   0  0  0  0  0  0  0  0  0  0  0  0
    3.5527    3.3077   -4.1279 C   0  0  0  0  0  0  0  0  0  0  0  0
    3.8407    4.3691   -4.0597 H   0  0  0  0  0  0  0  0  0  0  0  0
    4.5024    2.7495   -4.1526 H   0  0  0  0  0  0  0  0  0  0  0  0
    3.1208    3.1887   -5.1345 H   0  0  0  0  0  0  0  0  0  0  0  0
    1.3174    3.0407   -3.2467 N   0  0  0  0  0  0  0  0  0  0  0  0
    0.2944    2.6927   -2.2960 C   0  0  2  0  0  0  0  0  0  0  0  0
    0.2976    1.1783   -2.1349 C   0  0  0  0  0  0  0  0  0  0  0  0
    0.7500    0.4142   -2.9850 O   0  0  0  0  0  0  0  0  0  0  0  0
   -1.0710    3.1886   -2.7460 C   0  0  0  0  0  0  0  0  0  0  0  0
    1.0312    3.4224   -4.1464 H   0  0  0  0  0  0  0  0  0  0  0  0
    0.5725    3.1622   -1.3461 H   0  0  0  0  0  0  0  0  0  0  0  0
   -1.3666    2.7292   -3.6963 H   0  0  0  0  0  0  0  0  0  0  0  0
   -1.8434    2.9482   -2.0082 H   0  0  0  0  0  0  0  0  0  0  0  0
   -1.0632    4.2744   -2.8901 H   0  0  0  0  0  0  0  0  0  0  0  0
   -0.3037    0.7742   -0.9484 N   0  0  0  0  0  0  0  0  0  0  0  0
   -0.4352   -0.6095   -0.5718 C   0  0  2  0  0  0  0  0  0  0  0  0
   -1.9161   -0.9369   -0.4105 C   0  0  0  0  0  0  0  0  0  0  0  0
   -2.8097   -0.1172   -0.6130 O   0  0  0  0  0  0  0  0  0  0  0  0
    0.3886   -0.9446    0.6771 C   0  0  0  0  0  0  0  0  0  0  0  0
    1.9064   -0.8850    0.4605 C   0  0  0  0  0  0  0  0  0  0  0  0
    2.6620   -1.2540    1.7392 C   0  0  0  0  0  0  0  0  0  0  0  0
    4.1664   -1.1701    1.5277 C   0  0  0  0  0  0  0  0  0  0  0  0
    4.8551   -1.5113    2.7956 N   0  3  0  0  0  0  0  0  0  0  0  0
   -0.6336    1.4811   -0.2948 H   0  0  0  0  0  0  0  0  0  0  0  0
   -0.0508   -1.1889   -1.4199 H   0  0  0  0  0  0  0  0  0  0  0  0
    0.1179   -0.2441    1.4777 H   0  0  0  0  0  0  0  0  0  0  0  0
    0.1207   -1.9473    1.0325 H   0  0  0  0  0  0  0  0  0  0  0  0
    2.1976   -1.5741   -0.3408 H   0  0  0  0  0  0  0  0  0  0  0  0
    2.2009    0.1229    0.1456 H   0  0  0  0  0  0  0  0  0  0  0  0
    2.3863   -2.2699    2.0485 H   0  0  0  0  0  0  0  0  0  0  0  0
    2.3626   -0.5789    2.5505 H   0  0  0  0  0  0  0  0  0  0  0  0
    4.5151   -1.8836    0.7751 H   0  0  0  0  0  0  0  0  0  0  0  0
    4.4864   -0.1603    1.2544 H   0  0  0  0  0  0  0  0  0  0  0  0
    5.8179   -1.1572    2.7981 H   0  0  0  0  0  0  0  0  0  0  0  0
    4.8927   -2.5277    2.9311 H   0  0  0  0  0  0  0  0  0  0  0  0
    4.3669   -1.1036    3.6006 H   0  0  0  0  0  0  0  0  0  0  0  0
   -2.1258   -2.2592   -0.0465 N   0  0  0  0  0  0  0  0  0  0  0  0
   -3.4488   -2.8031    0.1477 C   0  0  2  0  0  0  0  0  0  0  0  0
   -3.3058   -4.1515    0.8411 C   0  0  0  0  0  0  0  0  0  0  0  0
   -2.2748   -4.8198    0.8023 O   0  0  0  0  0  0  0  0  0  0  0  0
   -4.1874   -2.9470   -1.1738 C   0  0  0  0  0  0  0  0  0  0  0  0
   -1.3216   -2.8649    0.0878 H   0  0  0  0  0  0  0  0  0  0  0  0
   -3.9829   -2.1084    0.8052 H   0  0  0  0  0  0  0  0  0  0  0  0
   -3.6672   -3.6393   -1.8458 H   0  0  0  0  0  0  0  0  0  0  0  0
   -5.2009   -3.3328   -1.0220 H   0  0  0  0  0  0  0  0  0  0  0  0
   -4.2631   -1.9813   -1.6852 H   0  0  0  0  0  0  0  0  0  0  0  0
   -4.4790   -4.5408    1.4722 N   0  0  0  0  0  0  0  0  0  0  0  0
   -4.6014   -5.7883    2.1896 C   0  0  0  0  0  0  0  0  0  0  0  0
   -5.2793   -3.9152    1.4693 H   0  0  0  0  0  0  0  0  0  0  0  0
   -4.9882   -6.5645    1.5129 H   0  0  0  0  0  0  0  0  0  0  0  0
   -3.6144   -6.0914    2.5689 H   0  0  0  0  0  0  0  0  0  0  0  0
   -5.2948   -5.6592    3.0337 H   0  0  0  0  0  0  0  0  0  0  0  0
  1  3  1  0  0  0  0
  1  7  1  0  0  0  0
  1  2  2  0  0  0  0
 40 41  1  0  0  0  0
 41 49  1  0  0  0  0
 41 42  2  0  0  0  0
  8  9  1  0  0  0  0
  9 17  1  0  0  0  0
  9 10  2  0  0  0  0
 18 19  1  0  0  0  0
 19 39  1  0  0  0  0
 19 20  2  0  0  0  0
 40 43  1  0  0  0  0
  8 11  1  0  0  0  0
 49 50  1  0  0  0  0
 22 23  1  0  0  0  0
 21 22  1  0  0  0  0
 23 24  1  0  0  0  0
 18 21  1  0  0  0  0
 24 25  1  0  0  0  0
 39 40  1  0  0  0  0
  7  8  1  0  0  0  0
 17 18  1  0  0  0  0
  3  4  1  0  0  0  0
  3  5  1  0  0  0  0
  3  6  1  0  0  0  0
 43 46  1  0  0  0  0
 43 47  1  0  0  0  0
 43 48  1  0  0  0  0
 11 14  1  0  0  0  0
 11 15  1  0  0  0  0
 11 16  1  0  0  0  0
 50 52  1  0  0  0  0
 50 53  1  0  0  0  0
 50 54  1  0  0  0  0
 22 30  1  0  0  0  0
 22 31  1  0  0  0  0
 23 32  1  0  0  0  0
 23 33  1  0  0  0  0
 21 28  1  0  0  0  0
 21 29  1  0  0  0  0
 24 34  1  0  0  0  0
 24 35  1  0  0  0  0
 40 45  1  0  0  0  0
  8 13  1  0  0  0  0
 18 27  1  0  0  0  0
 49 51  1  0  0  0  0
  7 12  1  0  0  0  0
 39 44  1  0  0  0  0
 17 26  1  0  0  0  0
 25 36  1  0  0  0  0
 25 37  1  0  0  0  0
 25 38  1  0  0  0  0
M  CHG  1  25   1
M  END
$$$$

  -OEChem-05262214473D

 54 53  0     1  0  0  0  0  0999 V2000
    2.6714    2.8829   -3.0005 C   0  0  0  0  0  0  0  0  0  0  0  0
    3.1741    2.4398   -1.9745 O   0  0  0  0  0  0  0  0  0  0  0  0
    3.5527    3.3077   -4.1279 C   0  0  0  0  0  0  0  0  0  0  0  0
    3.8407    4.3691   -4.0597 H   0  0  0  0  0  0  0  0  0  0  0  0
    4.5024    2.7495   -4.1526 H   0  0  0  0  0  0  0  0  0  0  0  0
    3.1208    3.1887   -5.1345 H   0  0  0  0  0  0  0  0  0  0  0  0
    1.3174    3.0407   -3.2467 N   0  0  0  0  0  0  0  0  0  0  0  0
    0.2944    2.6927   -2.2960 C   0  0  2  0  0  0  0  0  0  0  0  0
    0.2976    1.1783   -2.1349 C   0  0  0  0  0  0  0  0  0  0  0  0
    0.7500    0.4142   -2.9850 O   0  0  0  0  0  0  0  0  0  0  0  0
   -1.0710    3.1886   -2.7460 C   0  0  0  0  0  0  0  0  0  0  0  0
    1.0312    3.4224   -4.1464 H   0  0  0  0  0  0  0  0  0  0  0  0
    0.5725    3.1622   -1.3461 H   0  0  0  0  0  0  0  0  0  0  0  0
   -1.3666    2.7292   -3.6963 H   0  0  0  0  0  0  0  0  0  0  0  0
   -1.8434    2.9482   -2.0082 H   0  0  0  0  0  0  0  0  0  0  0  0
   -1.0632    4.2744   -2.8901 H   0  0  0  0  0  0  0  0  0  0  0  0
   -0.3037    0.7742   -0.9484 N   0  0  0  0  0  0  0  0  0  0  0  0
   -0.4352   -0.6095   -0.5718 C   0  0  2  0  0  0  0  0  0  0  0  0
   -1.9161   -0.9369   -0.4105 C   0  0  0  0  0  0  0  0  0  0  0  0
   -2.8126   -0.2254   -0.8593 O   0  0  0  0  0  0  0  0  0  0  0  0
    0.3886   -0.9446    0.6771 C   0  0  0  0  0  0  0  0  0  0  0  0
    1.9064   -0.8850    0.4605 C   0  0  0  0  0  0  0  0  0  0  0  0
    2.6620   -1.2540    1.7392 C   0  0  0  0  0  0  0  0  0  0  0  0
    4.1664   -1.1701    1.5277 C   0  0  0  0  0  0  0  0  0  0  0  0
    4.8551   -1.5113    2.7956 N   0  3  0  0  0  0  0  0  0  0  0  0
   -0.6336    1.4811   -0.2948 H   0  0  0  0  0  0  0  0  0  0  0  0
   -0.0508   -1.1889   -1.4199 H   0  0  0  0  0  0  0  0  0  0  0  0
    0.1179   -0.2441    1.4777 H   0  0  0  0  0  0  0  0  0  0  0  0
    0.1207   -1.9473    1.0325 H   0  0  0  0  0  0  0  0  0  0  0  0
    2.1976   -1.5741   -0.3408 H   0  0  0  0  0  0  0  0  0  0  0  0
    2.2009    0.1229    0.1456 H   0  0  0  0  0  0  0  0  0  0  0  0
    2.3863   -2.2699    2.0485 H   0  0  0  0  0  0  0  0  0  0  0  0
    2.3626   -0.5789    2.5505 H   0  0  0  0  0  0  0  0  0  0  0  0
    4.5151   -1.8836    0.7751 H   0  0  0  0  0  0  0  0  0  0  0  0
    4.4864   -0.1603    1.2544 H   0  0  0  0  0  0  0  0  0  0  0  0
    5.8179   -1.1572    2.7981 H   0  0  0  0  0  0  0  0  0  0  0  0
    4.8927   -2.5277    2.9311 H   0  0  0  0  0  0  0  0  0  0  0  0
    4.3669   -1.1036    3.6006 H   0  0  0  0  0  0  0  0  0  0  0  0
   -2.1201   -2.1323    0.2636 N   0  0  0  0  0  0  0  0  0  0  0  0
   -3.4409   -2.6554    0.5195 C   0  0  2  0  0  0  0  0  0  0  0  0
   -3.3119   -3.7813    1.5369 C   0  0  0  0  0  0  0  0  0  0  0  0
   -2.2671   -4.4021    1.7215 O   0  0  0  0  0  0  0  0  0  0  0  0
   -4.0971   -3.1512   -0.7597 C   0  0  0  0  0  0  0  0  0  0  0  0
   -1.3131   -2.6569    0.5879 H   0  0  0  0  0  0  0  0  0  0  0  0
   -4.0269   -1.8370    0.9519 H   0  0  0  0  0  0  0  0  0  0  0  0
   -3.5242   -3.9714   -1.2075 H   0  0  0  0  0  0  0  0  0  0  0  0
   -5.1098   -3.5213   -0.5685 H   0  0  0  0  0  0  0  0  0  0  0  0
   -4.1621   -2.3476   -1.5012 H   0  0  0  0  0  0  0  0  0  0  0  0
   -4.5122   -4.0403    2.1837 N   0  0  0  0  0  0  0  0  0  0  0  0
   -4.6514   -5.0718    3.1851 C   0  0  0  0  0  0  0  0  0  0  0  0
   -5.3234   -3.4634    1.9815 H   0  0  0  0  0  0  0  0  0  0  0  0
   -4.9818   -6.0057    2.7067 H   0  0  0  0  0  0  0  0  0  0  0  0
   -3.6826   -5.2360    3.6794 H   0  0  0  0  0  0  0  0  0  0  0  0
   -5.3960   -4.7593    3.9321 H   0  0  0  0  0  0  0  0  0  0  0  0
  1  3  1  0  0  0  0
  1  7  1  0  0  0  0
  1  2  2  0  0  0  0
 40 41  1  0  0  0  0
 41 49  1  0  0  0  0
 41 42  2  0  0  0  0
  8  9  1  0  0  0  0
  9 17  1  0  0  0  0
  9 10  2  0  0  0  0
 18 19  1  0  0  0  0
 19 39  1  0  0  0  0
 19 20  2  0  0  0  0
 40 43  1  0  0  0  0
  8 11  1  0  0  0  0
 49 50  1  0  0  0  0
 22 23  1  0  0  0  0
 21 22  1  0  0  0  0
 23 24  1  0  0  0  0
 18 21  1  0  0  0  0
 24 25  1  0  0  0  0
 39 40  1  0  0  0  0
  7  8  1  0  0  0  0
 17 18  1  0  0  0  0
  3  4  1  0  0  0  0
  3  5  1  0  0  0  0
  3  6  1  0  0  0  0
 43 46  1  0  0  0  0
 43 47  1  0  0  0  0
 43 48  1  0  0  0  0
 11 14  1  0  0  0  0
 11 15  1  0  0  0  0
 11 16  1  0  0  0  0
 50 52  1  0  0  0  0
 50 53  1  0  0  0  0
 50 54  1  0  0  0  0
 22 30  1  0  0  0  0
 22 31  1  0  0  0  0
 23 32  1  0  0  0  0
 23 33  1  0  0  0  0
 21 28  1  0  0  0  0
 21 29  1  0  0  0  0
 24 34  1  0  0  0  0
 24 35  1  0  0  0  0
 40 45  1  0  0  0  0
  8 13  1  0  0  0  0
 18 27  1  0  0  0  0
 49 51  1  0  0  0  0
  7 12  1  0  0  0  0
 39 44  1  0  0  0  0
 17 26  1  0  0  0  0
 25 36  1  0  0  0  0
 25 37  1  0  0  0  0
 25 38  1  0  0  0  0
M  CHG  1  25   1
M  END
$$$$

  -OEChem-05262214473D

 54 53  0     1  0  0  0  0  0999 V2000
    2.6714    2.8829   -3.0005 C   0  0  0  0  0  0  0  0  0  0  0  0
    3.1741    2.4398   -1.9745 O   0  0  0  0  0  0  0  0  0  0  0  0
    3.5527    3.3077   -4.1279 C   0  0  0  0  0  0  0  0  0  0  0  0
    3.8407    4.3691   -4.0597 H   0  0  0  0  0  0  0  0  0  0  0  0
    4.5024    2.7495   -4.1526 H   0  0  0  0  0  0  0  0  0  0  0  0
    3.1208    3.1887   -5.1345 H   0  0  0  0  0  0  0  0  0  0  0  0
    1.3174    3.0407   -3.2467 N   0  0  0  0  0  0  0  0  0  0  0  0
    0.2944    2.6927   -2.2960 C   0  0  2  0  0  0  0  0  0  0  0  0
    0.2976    1.1783   -2.1349 C   0  0  0  0  0  0  0  0  0  0  0  0
    0.7500    0.4142   -2.9850 O   0  0  0  0  0  0  0  0  0  0  0  0
   -1.0710    3.1886   -2.7460 C   0  0  0  0  0  0  0  0  0  0  0  0
    1.0312    3.4224   -4.1464 H   0  0  0  0  0  0  0  0  0  0  0  0
    0.5725    3.1622   -1.3461 H   0  0  0  0  0  0  0  0  0  0  0  0
   -1.3666    2.7292   -3.6963 H   0  0  0  0  0  0  0  0  0  0  0  0
   -1.8434    2.9482   -2.0082 H   0  0  0  0  0  0  0  0  0  0  0  0
   -1.0632    4.2744   -2.8901 H   0  0  0  0  0  0  0  0  0  0  0  0
   -0.3037    0.7742   -0.9484 N   0  0  0  0  0  0  0  0  0  0  0  0
   -0.4352   -0.6095   -0.5718 C   0  0  2  0  0  0  0  0  0  0  0  0
   -1.9161   -0.9369   -0.4105 C   0  0  0  0  0  0  0  0  0  0  0  0
   -2.7988   -0.3919   -1.0702 O   0  0  0  0  0  0  0  0  0  0  0  0
    0.3886   -0.9446    0.6771 C   0  0  0  0  0  0  0  0  0  0  0  0
    1.9064   -0.8850    0.4605 C   0  0  0  0  0  0  0  0  0  0  0  0
    2.6620   -1.2540    1.7392 C   0  0  0  0  0  0  0  0  0  0  0  0
    4.1664   -1.1701    1.5277 C   0  0  0  0  0  0  0  0  0  0  0  0
    4.8551   -1.5113    2.7956 N   0  3  0  0  0  0  0  0  0  0  0  0
   -0.6336    1.4811   -0.2948 H   0  0  0  0  0  0  0  0  0  0  0  0
   -0.0508   -1.1889   -1.4199 H   0  0  0  0  0  0  0  0  0  0  0  0
    0.1179   -0.2441    1.4777 H   0  0  0  0  0  0  0  0  0  0  0  0
    0.1207   -1.9473    1.0325 H   0  0  0  0  0  0  0  0  0  0  0  0
    2.1976   -1.5741   -0.3408 H   0  0  0  0  0  0  0  0  0  0  0  0
    2.2009    0.1229    0.1456 H   0  0  0  0  0  0  0  0  0  0  0  0
    2.3863   -2.2699    2.0485 H   0  0  0  0  0  0  0  0  0  0  0  0
    2.3626   -0.5789    2.5505 H   0  0  0  0  0  0  0  0  0  0  0  0
    4.5151   -1.8836    0.7751 H   0  0  0  0  0  0  0  0  0  0  0  0
    4.4864   -0.1603    1.2544 H   0  0  0  0  0  0  0  0  0  0  0  0
    5.8179   -1.1572    2.7981 H   0  0  0  0  0  0  0  0  0  0  0  0
    4.8927   -2.5277    2.9311 H   0  0  0  0  0  0  0  0  0  0  0  0
    4.3669   -1.1036    3.6006 H   0  0  0  0  0  0  0  0  0  0  0  0
   -2.1353   -1.9316    0.5316 N   0  0  0  0  0  0  0  0  0  0  0  0
   -3.4581   -2.4191    0.8419 C   0  0  2  0  0  0  0  0  0  0  0  0
   -3.3665   -3.2491    2.1156 C   0  0  0  0  0  0  0  0  0  0  0  0
   -2.3221   -3.7674    2.5049 O   0  0  0  0  0  0  0  0  0  0  0  0
   -4.0274   -3.2419   -0.3033 C   0  0  0  0  0  0  0  0  0  0  0  0
   -1.3384   -2.3300    1.0192 H   0  0  0  0  0  0  0  0  0  0  0  0
   -4.0850   -1.5392    1.0230 H   0  0  0  0  0  0  0  0  0  0  0  0
   -3.4125   -4.1279   -0.4995 H   0  0  0  0  0  0  0  0  0  0  0  0
   -5.0418   -3.5870   -0.0780 H   0  0  0  0  0  0  0  0  0  0  0  0
   -4.0647   -2.6524   -1.2258 H   0  0  0  0  0  0  0  0  0  0  0  0
   -4.5974   -3.3790    2.7434 N   0  0  0  0  0  0  0  0  0  0  0  0
   -4.7747   -4.1309    3.9638 C   0  0  0  0  0  0  0  0  0  0  0  0
   -5.4068   -2.8995    2.3604 H   0  0  0  0  0  0  0  0  0  0  0  0
   -5.0572   -5.1657    3.7197 H   0  0  0  0  0  0  0  0  0  0  0  0
   -3.8336   -4.1325    4.5333 H   0  0  0  0  0  0  0  0  0  0  0  0
   -5.5682   -3.6672    4.5681 H   0  0  0  0  0  0  0  0  0  0  0  0
  1  3  1  0  0  0  0
  1  7  1  0  0  0  0
  1  2  2  0  0  0  0
 40 41  1  0  0  0  0
 41 49  1  0  0  0  0
 41 42  2  0  0  0  0
  8  9  1  0  0  0  0
  9 17  1  0  0  0  0
  9 10  2  0  0  0  0
 18 19  1  0  0  0  0
 19 39  1  0  0  0  0
 19 20  2  0  0  0  0
 40 43  1  0  0  0  0
  8 11  1  0  0  0  0
 49 50  1  0  0  0  0
 22 23  1  0  0  0  0
 21 22  1  0  0  0  0
 23 24  1  0  0  0  0
 18 21  1  0  0  0  0
 24 25  1  0  0  0  0
 39 40  1  0  0  0  0
  7  8  1  0  0  0  0
 17 18  1  0  0  0  0
  3  4  1  0  0  0  0
  3  5  1  0  0  0  0
  3  6  1  0  0  0  0
 43 46  1  0  0  0  0
 43 47  1  0  0  0  0
 43 48  1  0  0  0  0
 11 14  1  0  0  0  0
 11 15  1  0  0  0  0
 11 16  1  0  0  0  0
 50 52  1  0  0  0  0
 50 53  1  0  0  0  0
 50 54  1  0  0  0  0
 22 30  1  0  0  0  0
 22 31  1  0  0  0  0
 23 32  1  0  0  0  0
 23 33  1  0  0  0  0
 21 28  1  0  0  0  0
 21 29  1  0  0  0  0
 24 34  1  0  0  0  0
 24 35  1  0  0  0  0
 40 45  1  0  0  0  0
  8 13  1  0  0  0  0
 18 27  1  0  0  0  0
 49 51  1  0  0  0  0
  7 12  1  0  0  0  0
 39 44  1  0  0  0  0
 17 26  1  0  0  0  0
 25 36  1  0  0  0  0
 25 37  1  0  0  0  0
 25 38  1  0  0  0  0
M  CHG  1  25   1
M  END
$$$$

  -OEChem-05262214473D

 54 53  0     1  0  0  0  0  0999 V2000
    2.6714    2.8829   -3.0005 C   0  0  0  0  0  0  0  0  0  0  0  0
    3.1741    2.4398   -1.9745 O   0  0  0  0  0  0  0  0  0  0  0  0
    3.5527    3.3077   -4.1279 C   0  0  0  0  0  0  0  0  0  0  0  0
    3.8407    4.3691   -4.0597 H   0  0  0  0  0  0  0  0  0  0  0  0
    4.5024    2.7495   -4.1526 H   0  0  0  0  0  0  0  0  0  0  0  0
    3.1208    3.1887   -5.1345 H   0  0  0  0  0  0  0  0  0  0  0  0
    1.3174    3.0407   -3.2467 N   0  0  0  0  0  0  0  0  0  0  0  0
    0.2944    2.6927   -2.2960 C   0  0  2  0  0  0  0  0  0  0  0  0
    0.2976    1.1783   -2.1349 C   0  0  0  0  0  0  0  0  0  0  0  0
    0.7500    0.4142   -2.9850 O   0  0  0  0  0  0  0  0  0  0  0  0
   -1.0710    3.1886   -2.7460 C   0  0  0  0  0  0  0  0  0  0  0  0
    1.0312    3.4224   -4.1464 H   0  0  0  0  0  0  0  0  0  0  0  0
    0.5725    3.1622   -1.3461 H   0  0  0  0  0  0  0  0  0  0  0  0
   -1.3666    2.7292   -3.6963 H   0  0  0  0  0  0  0  0  0  0  0  0
   -1.8434    2.9482   -2.0082 H   0  0  0  0  0  0  0  0  0  0  0  0
   -1.0632    4.2744   -2.8901 H   0  0  0  0  0  0  0  0  0  0  0  0
   -0.3037    0.7742   -0.9484 N   0  0  0  0  0  0  0  0  0  0  0  0
   -0.4352   -0.6095   -0.5718 C   0  0  2  0  0  0  0  0  0  0  0  0
   -1.9161   -0.9369   -0.4105 C   0  0  0  0  0  0  0  0  0  0  0  0
   -2.7692   -0.6053   -1.2314 O   0  0  0  0  0  0  0  0  0  0  0  0
    0.3886   -0.9446    0.6771 C   0  0  0  0  0  0  0  0  0  0  0  0
    1.9064   -0.8850    0.4605 C   0  0  0  0  0  0  0  0  0  0  0  0
    2.6620   -1.2540    1.7392 C   0  0  0  0  0  0  0  0  0  0  0  0
    4.1664   -1.1701    1.5277 C   0  0  0  0  0  0  0  0  0  0  0  0
    4.8551   -1.5113    2.7956 N   0  3  0  0  0  0  0  0  0  0  0  0
   -0.6336    1.4811   -0.2948 H   0  0  0  0  0  0  0  0  0  0  0  0
   -0.0508   -1.1889   -1.4199 H   0  0  0  0  0  0  0  0  0  0  0  0
    0.1179   -0.2441    1.4777 H   0  0  0  0  0  0  0  0  0  0  0  0
    0.1207   -1.9473    1.0325 H   0  0  0  0  0  0  0  0  0  0  0  0
    2.1976   -1.5741   -0.3408 H   0  0  0  0  0  0  0  0  0  0  0  0
    2.2009    0.1229    0.1456 H   0  0  0  0  0  0  0  0  0  0  0  0
    2.3863   -2.2699    2.0485 H   0  0  0  0  0  0  0  0  0  0  0  0
    2.3626   -0.5789    2.5505 H   0  0  0  0  0  0  0  0  0  0  0  0
    4.5151   -1.8836    0.7751 H   0  0  0  0  0  0  0  0  0  0  0  0
    4.4864   -0.1603    1.2544 H   0  0  0  0  0  0  0  0  0  0  0  0
    5.8179   -1.1572    2.7981 H   0  0  0  0  0  0  0  0  0  0  0  0
    4.8927   -2.5277    2.9311 H   0  0  0  0  0  0  0  0  0  0  0  0
    4.3669   -1.1036    3.6006 H   0  0  0  0  0  0  0  0  0  0  0  0
   -2.1704   -1.6708    0.7391 N   0  0  0  0  0  0  0  0  0  0  0  0
   -3.4990   -2.1103    1.0931 C   0  0  2  0  0  0  0  0  0  0  0  0
   -3.4661   -2.5912    2.5378 C   0  0  0  0  0  0  0  0  0  0  0  0
   -2.4361   -2.9590    3.0990 O   0  0  0  0  0  0  0  0  0  0  0  0
   -3.9828   -3.2129    0.1641 C   0  0  0  0  0  0  0  0  0  0  0  0
   -1.3957   -1.9067    1.3523 H   0  0  0  0  0  0  0  0  0  0  0  0
   -4.1532   -1.2353    1.0136 H   0  0  0  0  0  0  0  0  0  0  0  0
   -3.3396   -4.0980    0.2299 H   0  0  0  0  0  0  0  0  0  0  0  0
   -5.0017   -3.5253    0.4161 H   0  0  0  0  0  0  0  0  0  0  0  0
   -3.9776   -2.8750   -0.8778 H   0  0  0  0  0  0  0  0  0  0  0  0
   -4.7290   -2.6020    3.1131 N   0  0  0  0  0  0  0  0  0  0  0  0
   -4.9627   -3.0298    4.4726 C   0  0  0  0  0  0  0  0  0  0  0  0
   -5.5239   -2.2619    2.5800 H   0  0  0  0  0  0  0  0  0  0  0  0
   -5.2093   -4.1018    4.4830 H   0  0  0  0  0  0  0  0  0  0  0  0
   -4.0571   -2.8562    5.0724 H   0  0  0  0  0  0  0  0  0  0  0  0
   -5.7998   -2.4571    4.8984 H   0  0  0  0  0  0  0  0  0  0  0  0
  1  3  1  0  0  0  0
  1  7  1  0  0  0  0
  1  2  2  0  0  0  0
 40 41  1  0  0  0  0
 41 49  1  0  0  0  0
 41 42  2  0  0  0  0
  8  9  1  0  0  0  0
  9 17  1  0  0  0  0
  9 10  2  0  0  0  0
 18 19  1  0  0  0  0
 19 39  1  0  0  0  0
 19 20  2  0  0  0  0
 40 43  1  0  0  0  0
  8 11  1  0  0  0  0
 49 50  1  0  0  0  0
 22 23  1  0  0  0  0
 21 22  1  0  0  0  0
 23 24  1  0  0  0  0
 18 21  1  0  0  0  0
 24 25  1  0  0  0  0
 39 40  1  0  0  0  0
  7  8  1  0  0  0  0
 17 18  1  0  0  0  0
  3  4  1  0  0  0  0
  3  5  1  0  0  0  0
  3  6  1  0  0  0  0
 43 46  1  0  0  0  0
 43 47  1  0  0  0  0
 43 48  1  0  0  0  0
 11 14  1  0  0  0  0
 11 15  1  0  0  0  0
 11 16  1  0  0  0  0
 50 52  1  0  0  0  0
 50 53  1  0  0  0  0
 50 54  1  0  0  0  0
 22 30  1  0  0  0  0
 22 31  1  0  0  0  0
 23 32  1  0  0  0  0
 23 33  1  0  0  0  0
 21 28  1  0  0  0  0
 21 29  1  0  0  0  0
 24 34  1  0  0  0  0
 24 35  1  0  0  0  0
 40 45  1  0  0  0  0
  8 13  1  0  0  0  0
 18 27  1  0  0  0  0
 49 51  1  0  0  0  0
  7 12  1  0  0  0  0
 39 44  1  0  0  0  0
 17 26  1  0  0  0  0
 25 36  1  0  0  0  0
 25 37  1  0  0  0  0
 25 38  1  0  0  0  0
M  CHG  1  25   1
M  END
$$$$

  -OEChem-05262214473D

 54 53  0     1  0  0  0  0  0999 V2000
    2.6714    2.8829   -3.0005 C   0  0  0  0  0  0  0  0  0  0  0  0
    3.1741    2.4398   -1.9745 O   0  0  0  0  0  0  0  0  0  0  0  0
    3.5527    3.3077   -4.1279 C   0  0  0  0  0  0  0  0  0  0  0  0
    3.8407    4.3691   -4.0597 H   0  0  0  0  0  0  0  0  0  0  0  0
    4.5024    2.7495   -4.1526 H   0  0  0  0  0  0  0  0  0  0  0  0
    3.1208    3.1887   -5.1345 H   0  0  0  0  0  0  0  0  0  0  0  0
    1.3174    3.0407   -3.2467 N   0  0  0  0  0  0  0  0  0  0  0  0
    0.2944    2.6927   -2.2960 C   0  0  2  0  0  0  0  0  0  0  0  0
    0.2976    1.1783   -2.1349 C   0  0  0  0  0  0  0  0  0  0  0  0
    0.7500    0.4142   -2.9850 O   0  0  0  0  0  0  0  0  0  0  0  0
   -1.0710    3.1886   -2.7460 C   0  0  0  0  0  0  0  0  0  0  0  0
    1.0312    3.4224   -4.1464 H   0  0  0  0  0  0  0  0  0  0  0  0
    0.5725    3.1622   -1.3461 H   0  0  0  0  0  0  0  0  0  0  0  0
   -1.3666    2.7292   -3.6963 H   0  0  0  0  0  0  0  0  0  0  0  0
   -1.8434    2.9482   -2.0082 H   0  0  0  0  0  0  0  0  0  0  0  0
   -1.0632    4.2744   -2.8901 H   0  0  0  0  0  0  0  0  0  0  0  0
   -0.3037    0.7742   -0.9484 N   0  0  0  0  0  0  0  0  0  0  0  0
   -0.4352   -0.6095   -0.5718 C   0  0  2  0  0  0  0  0  0  0  0  0
   -1.9161   -0.9369   -0.4105 C   0  0  0  0  0  0  0  0  0  0  0  0
   -2.7257   -0.8511   -1.3317 O   0  0  0  0  0  0  0  0  0  0  0  0
    0.3886   -0.9446    0.6771 C   0  0  0  0  0  0  0  0  0  0  0  0
    1.9064   -0.8850    0.4605 C   0  0  0  0  0  0  0  0  0  0  0  0
    2.6620   -1.2540    1.7392 C   0  0  0  0  0  0  0  0  0  0  0  0
    4.1664   -1.1701    1.5277 C   0  0  0  0  0  0  0  0  0  0  0  0
    4.8551   -1.5113    2.7956 N   0  3  0  0  0  0  0  0  0  0  0  0
   -0.6336    1.4811   -0.2948 H   0  0  0  0  0  0  0  0  0  0  0  0
   -0.0508   -1.1889   -1.4199 H   0  0  0  0  0  0  0  0  0  0  0  0
    0.1179   -0.2441    1.4777 H   0  0  0  0  0  0  0  0  0  0  0  0
    0.1207   -1.9473    1.0325 H   0  0  0  0  0  0  0  0  0  0  0  0
    2.1976   -1.5741   -0.3408 H   0  0  0  0  0  0  0  0  0  0  0  0
    2.2009    0.1229    0.1456 H   0  0  0  0  0  0  0  0  0  0  0  0
    2.3863   -2.2699    2.0485 H   0  0  0  0  0  0  0  0  0  0  0  0
    2.3626   -0.5789    2.5505 H   0  0  0  0  0  0  0  0  0  0  0  0
    4.5151   -1.8836    0.7751 H   0  0  0  0  0  0  0  0  0  0  0  0
    4.4864   -0.1603    1.2544 H   0  0  0  0  0  0  0  0  0  0  0  0
    5.8179   -1.1572    2.7981 H   0  0  0  0  0  0  0  0  0  0  0  0
    4.8927   -2.5277    2.9311 H   0  0  0  0  0  0  0  0  0  0  0  0
    4.3669   -1.1036    3.6006 H   0  0  0  0  0  0  0  0  0  0  0  0
   -2.2229   -1.3677    0.8722 N   0  0  0  0  0  0  0  0  0  0  0  0
   -3.5609   -1.7501    1.2557 C   0  0  2  0  0  0  0  0  0  0  0  0
   -3.6036   -1.8522    2.7747 C   0  0  0  0  0  0  0  0  0  0  0  0
   -2.6014   -2.0320    3.4634 O   0  0  0  0  0  0  0  0  0  0  0  0
   -3.9666   -3.0662    0.6109 C   0  0  0  0  0  0  0  0  0  0  0  0
   -1.4812   -1.4156    1.5644 H   0  0  0  0  0  0  0  0  0  0  0  0
   -4.2269   -0.9460    0.9243 H   0  0  0  0  0  0  0  0  0  0  0  0
   -3.3106   -3.8839    0.9311 H   0  0  0  0  0  0  0  0  0  0  0  0
   -4.9920   -3.3405    0.8800 H   0  0  0  0  0  0  0  0  0  0  0  0
   -3.9067   -3.0001   -0.4808 H   0  0  0  0  0  0  0  0  0  0  0  0
   -4.8979   -1.7621    3.2676 N   0  0  0  0  0  0  0  0  0  0  0  0
   -5.2028   -1.8435    4.6770 C   0  0  0  0  0  0  0  0  0  0  0  0
   -5.6666   -1.5940    2.6254 H   0  0  0  0  0  0  0  0  0  0  0  0
   -5.4278   -2.8865    4.9444 H   0  0  0  0  0  0  0  0  0  0  0  0
   -4.3379   -1.4941    5.2600 H   0  0  0  0  0  0  0  0  0  0  0  0
   -6.0750   -1.2115    4.9005 H   0  0  0  0  0  0  0  0  0  0  0  0
  1  3  1  0  0  0  0
  1  7  1  0  0  0  0
  1  2  2  0  0  0  0
 40 41  1  0  0  0  0
 41 49  1  0  0  0  0
 41 42  2  0  0  0  0
  8  9  1  0  0  0  0
  9 17  1  0  0  0  0
  9 10  2  0  0  0  0
 18 19  1  0  0  0  0
 19 39  1  0  0  0  0
 19 20  2  0  0  0  0
 40 43  1  0  0  0  0
  8 11  1  0  0  0  0
 49 50  1  0  0  0  0
 22 23  1  0  0  0  0
 21 22  1  0  0  0  0
 23 24  1  0  0  0  0
 18 21  1  0  0  0  0
 24 25  1  0  0  0  0
 39 40  1  0  0  0  0
  7  8  1  0  0  0  0
 17 18  1  0  0  0  0
  3  4  1  0  0  0  0
  3  5  1  0  0  0  0
  3  6  1  0  0  0  0
 43 46  1  0  0  0  0
 43 47  1  0  0  0  0
 43 48  1  0  0  0  0
 11 14  1  0  0  0  0
 11 15  1  0  0  0  0
 11 16  1  0  0  0  0
 50 52  1  0  0  0  0
 50 53  1  0  0  0  0
 50 54  1  0  0  0  0
 22 30  1  0  0  0  0
 22 31  1  0  0  0  0
 23 32  1  0  0  0  0
 23 33  1  0  0  0  0
 21 28  1  0  0  0  0
 21 29  1  0  0  0  0
 24 34  1  0  0  0  0
 24 35  1  0  0  0  0
 40 45  1  0  0  0  0
  8 13  1  0  0  0  0
 18 27  1  0  0  0  0
 49 51  1  0  0  0  0
  7 12  1  0  0  0  0
 39 44  1  0  0  0  0
 17 26  1  0  0  0  0
 25 36  1  0  0  0  0
 25 37  1  0  0  0  0
 25 38  1  0  0  0  0
M  CHG  1  25   1
M  END
$$$$

  -OEChem-05262214473D

 54 53  0     1  0  0  0  0  0999 V2000
    2.6714    2.8829   -3.0005 C   0  0  0  0  0  0  0  0  0  0  0  0
    3.1741    2.4398   -1.9745 O   0  0  0  0  0  0  0  0  0  0  0  0
    3.5527    3.3077   -4.1279 C   0  0  0  0  0  0  0  0  0  0  0  0
    3.8407    4.3691   -4.0597 H   0  0  0  0  0  0  0  0  0  0  0  0
    4.5024    2.7495   -4.1526 H   0  0  0  0  0  0  0  0  0  0  0  0
    3.1208    3.1887   -5.1345 H   0  0  0  0  0  0  0  0  0  0  0  0
    1.3174    3.0407   -3.2467 N   0  0  0  0  0  0  0  0  0  0  0  0
    0.2944    2.6927   -2.2960 C   0  0  2  0  0  0  0  0  0  0  0  0
    0.2976    1.1783   -2.1349 C   0  0  0  0  0  0  0  0  0  0  0  0
    0.7500    0.4142   -2.9850 O   0  0  0  0  0  0  0  0  0  0  0  0
   -1.0710    3.1886   -2.7460 C   0  0  0  0  0  0  0  0  0  0  0  0
    1.0312    3.4224   -4.1464 H   0  0  0  0  0  0  0  0  0  0  0  0
    0.5725    3.1622   -1.3461 H   0  0  0  0  0  0  0  0  0  0  0  0
   -1.3666    2.7292   -3.6963 H   0  0  0  0  0  0  0  0  0  0  0  0
   -1.8434    2.9482   -2.0082 H   0  0  0  0  0  0  0  0  0  0  0  0
   -1.0632    4.2744   -2.8901 H   0  0  0  0  0  0  0  0  0  0  0  0
   -0.3037    0.7742   -0.9484 N   0  0  0  0  0  0  0  0  0  0  0  0
   -0.4352   -0.6095   -0.5718 C   0  0  2  0  0  0  0  0  0  0  0  0
   -1.9161   -0.9369   -0.4105 C   0  0  0  0  0  0  0  0  0  0  0  0
   -2.6715   -1.1126   -1.3645 O   0  0  0  0  0  0  0  0  0  0  0  0
    0.3886   -0.9446    0.6771 C   0  0  0  0  0  0  0  0  0  0  0  0
    1.9064   -0.8850    0.4605 C   0  0  0  0  0  0  0  0  0  0  0  0
    2.6620   -1.2540    1.7392 C   0  0  0  0  0  0  0  0  0  0  0  0
    4.1664   -1.1701    1.5277 C   0  0  0  0  0  0  0  0  0  0  0  0
    4.8551   -1.5113    2.7956 N   0  3  0  0  0  0  0  0  0  0  0  0
   -0.6336    1.4811   -0.2948 H   0  0  0  0  0  0  0  0  0  0  0  0
   -0.0508   -1.1889   -1.4199 H   0  0  0  0  0  0  0  0  0  0  0  0
    0.1179   -0.2441    1.4777 H   0  0  0  0  0  0  0  0  0  0  0  0
    0.1207   -1.9473    1.0325 H   0  0  0  0  0  0  0  0  0  0  0  0
    2.1976   -1.5741   -0.3408 H   0  0  0  0  0  0  0  0  0  0  0  0
    2.2009    0.1229    0.1456 H   0  0  0  0  0  0  0  0  0  0  0  0
    2.3863   -2.2699    2.0485 H   0  0  0  0  0  0  0  0  0  0  0  0
    2.3626   -0.5789    2.5505 H   0  0  0  0  0  0  0  0  0  0  0  0
    4.5151   -1.8836    0.7751 H   0  0  0  0  0  0  0  0  0  0  0  0
    4.4864   -0.1603    1.2544 H   0  0  0  0  0  0  0  0  0  0  0  0
    5.8179   -1.1572    2.7981 H   0  0  0  0  0  0  0  0  0  0  0  0
    4.8927   -2.5277    2.9311 H   0  0  0  0  0  0  0  0  0  0  0  0
    4.3669   -1.1036    3.6006 H   0  0  0  0  0  0  0  0  0  0  0  0
   -2.2893   -1.0429    0.9215 N   0  0  0  0  0  0  0  0  0  0  0  0
   -3.6397   -1.3629    1.3189 C   0  0  2  0  0  0  0  0  0  0  0  0
   -3.7699   -1.0827    2.8102 C   0  0  0  0  0  0  0  0  0  0  0  0
   -2.8067   -1.0496    3.5732 O   0  0  0  0  0  0  0  0  0  0  0  0
   -3.9798   -2.8118    1.0064 C   0  0  0  0  0  0  0  0  0  0  0  0
   -1.5890   -0.8903    1.6412 H   0  0  0  0  0  0  0  0  0  0  0  0
   -4.3011   -0.6909    0.7613 H   0  0  0  0  0  0  0  0  0  0  0  0
   -3.3274   -3.5001    1.5561 H   0  0  0  0  0  0  0  0  0  0  0  0
   -5.0135   -3.0451    1.2822 H   0  0  0  0  0  0  0  0  0  0  0  0
   -3.8568   -3.0193   -0.0621 H   0  0  0  0  0  0  0  0  0  0  0  0
   -5.0926   -0.9166    3.1964 N   0  0  0  0  0  0  0  0  0  0  0  0
   -5.4785   -0.6528    4.5630 C   0  0  0  0  0  0  0  0  0  0  0  0
   -5.8253   -0.9414    2.4934 H   0  0  0  0  0  0  0  0  0  0  0  0
   -5.6977   -1.6027    5.0725 H   0  0  0  0  0  0  0  0  0  0  0  0
   -4.6568   -0.1389    5.0832 H   0  0  0  0  0  0  0  0  0  0  0  0
   -6.3750   -0.0155    4.5742 H   0  0  0  0  0  0  0  0  0  0  0  0
  1  3  1  0  0  0  0
  1  7  1  0  0  0  0
  1  2  2  0  0  0  0
 40 41  1  0  0  0  0
 41 49  1  0  0  0  0
 41 42  2  0  0  0  0
  8  9  1  0  0  0  0
  9 17  1  0  0  0  0
  9 10  2  0  0  0  0
 18 19  1  0  0  0  0
 19 39  1  0  0  0  0
 19 20  2  0  0  0  0
 40 43  1  0  0  0  0
  8 11  1  0  0  0  0
 49 50  1  0  0  0  0
 22 23  1  0  0  0  0
 21 22  1  0  0  0  0
 23 24  1  0  0  0  0
 18 21  1  0  0  0  0
 24 25  1  0  0  0  0
 39 40  1  0  0  0  0
  7  8  1  0  0  0  0
 17 18  1  0  0  0  0
  3  4  1  0  0  0  0
  3  5  1  0  0  0  0
  3  6  1  0  0  0  0
 43 46  1  0  0  0  0
 43 47  1  0  0  0  0
 43 48  1  0  0  0  0
 11 14  1  0  0  0  0
 11 15  1  0  0  0  0
 11 16  1  0  0  0  0
 50 52  1  0  0  0  0
 50 53  1  0  0  0  0
 50 54  1  0  0  0  0
 22 30  1  0  0  0  0
 22 31  1  0  0  0  0
 23 32  1  0  0  0  0
 23 33  1  0  0  0  0
 21 28  1  0  0  0  0
 21 29  1  0  0  0  0
 24 34  1  0  0  0  0
 24 35  1  0  0  0  0
 40 45  1  0  0  0  0
  8 13  1  0  0  0  0
 18 27  1  0  0  0  0
 49 51  1  0  0  0  0
  7 12  1  0  0  0  0
 39 44  1  0  0  0  0
 17 26  1  0  0  0  0
 25 36  1  0  0  0  0
 25 37  1  0  0  0  0
 25 38  1  0  0  0  0
M  CHG  1  25   1
M  END
$$$$

  -OEChem-05262214473D

 54 53  0     1  0  0  0  0  0999 V2000
    2.6714    2.8829   -3.0005 C   0  0  0  0  0  0  0  0  0  0  0  0
    3.1741    2.4398   -1.9745 O   0  0  0  0  0  0  0  0  0  0  0  0
    3.5527    3.3077   -4.1279 C   0  0  0  0  0  0  0  0  0  0  0  0
    3.8407    4.3691   -4.0597 H   0  0  0  0  0  0  0  0  0  0  0  0
    4.5024    2.7495   -4.1526 H   0  0  0  0  0  0  0  0  0  0  0  0
    3.1208    3.1887   -5.1345 H   0  0  0  0  0  0  0  0  0  0  0  0
    1.3174    3.0407   -3.2467 N   0  0  0  0  0  0  0  0  0  0  0  0
    0.2944    2.6927   -2.2960 C   0  0  2  0  0  0  0  0  0  0  0  0
    0.2976    1.1783   -2.1349 C   0  0  0  0  0  0  0  0  0  0  0  0
    0.7500    0.4142   -2.9850 O   0  0  0  0  0  0  0  0  0  0  0  0
   -1.0710    3.1886   -2.7460 C   0  0  0  0  0  0  0  0  0  0  0  0
    1.0312    3.4224   -4.1464 H   0  0  0  0  0  0  0  0  0  0  0  0
    0.5725    3.1622   -1.3461 H   0  0  0  0  0  0  0  0  0  0  0  0
   -1.3666    2.7292   -3.6963 H   0  0  0  0  0  0  0  0  0  0  0  0
   -1.8434    2.9482   -2.0082 H   0  0  0  0  0  0  0  0  0  0  0  0
   -1.0632    4.2744   -2.8901 H   0  0  0  0  0  0  0  0  0  0  0  0
   -0.3037    0.7742   -0.9484 N   0  0  0  0  0  0  0  0  0  0  0  0
   -0.4352   -0.6095   -0.5718 C   0  0  2  0  0  0  0  0  0  0  0  0
   -1.9161   -0.9369   -0.4105 C   0  0  0  0  0  0  0  0  0  0  0  0
   -2.6101   -1.3719   -1.3274 O   0  0  0  0  0  0  0  0  0  0  0  0
    0.3886   -0.9446    0.6771 C   0  0  0  0  0  0  0  0  0  0  0  0
    1.9064   -0.8850    0.4605 C   0  0  0  0  0  0  0  0  0  0  0  0
    2.6620   -1.2540    1.7392 C   0  0  0  0  0  0  0  0  0  0  0  0
    4.1664   -1.1701    1.5277 C   0  0  0  0  0  0  0  0  0  0  0  0
    4.8551   -1.5113    2.7956 N   0  3  0  0  0  0  0  0  0  0  0  0
   -0.6336    1.4811   -0.2948 H   0  0  0  0  0  0  0  0  0  0  0  0
   -0.0508   -1.1889   -1.4199 H   0  0  0  0  0  0  0  0  0  0  0  0
    0.1179   -0.2441    1.4777 H   0  0  0  0  0  0  0  0  0  0  0  0
    0.1207   -1.9473    1.0325 H   0  0  0  0  0  0  0  0  0  0  0  0
    2.1976   -1.5741   -0.3408 H   0  0  0  0  0  0  0  0  0  0  0  0
    2.2009    0.1229    0.1456 H   0  0  0  0  0  0  0  0  0  0  0  0
    2.3863   -2.2699    2.0485 H   0  0  0  0  0  0  0  0  0  0  0  0
    2.3626   -0.5789    2.5505 H   0  0  0  0  0  0  0  0  0  0  0  0
    4.5151   -1.8836    0.7751 H   0  0  0  0  0  0  0  0  0  0  0  0
    4.4864   -0.1603    1.2544 H   0  0  0  0  0  0  0  0  0  0  0  0
    5.8179   -1.1572    2.7981 H   0  0  0  0  0  0  0  0  0  0  0  0
    4.8927   -2.5277    2.9311 H   0  0  0  0  0  0  0  0  0  0  0  0
    4.3669   -1.1036    3.6006 H   0  0  0  0  0  0  0  0  0  0  0  0
   -2.3651   -0.7186    0.8839 N   0  0  0  0  0  0  0  0  0  0  0  0
   -3.7298   -0.9752    1.2783 C   0  0  2  0  0  0  0  0  0  0  0  0
   -3.9536   -0.3350    2.6419 C   0  0  0  0  0  0  0  0  0  0  0  0
   -3.0380   -0.0786    3.4210 O   0  0  0  0  0  0  0  0  0  0  0  0
   -4.0215   -2.4671    1.3238 C   0  0  0  0  0  0  0  0  0  0  0  0
   -1.7118   -0.3665    1.5773 H   0  0  0  0  0  0  0  0  0  0  0  0
   -4.3706   -0.4876    0.5356 H   0  0  0  0  0  0  0  0  0  0  0  0
   -3.3888   -2.9727    2.0624 H   0  0  0  0  0  0  0  0  0  0  0  0
   -5.0647   -2.6593    1.5953 H   0  0  0  0  0  0  0  0  0  0  0  0
   -3.8314   -2.9312    0.3500 H   0  0  0  0  0  0  0  0  0  0  0  0
   -5.2999   -0.1231    2.9044 N   0  0  0  0  0  0  0  0  0  0  0  0
   -5.7711    0.4611    4.1383 C   0  0  0  0  0  0  0  0  0  0  0  0
   -5.9891   -0.3485    2.1931 H   0  0  0  0  0  0  0  0  0  0  0  0
   -6.0007   -0.3378    4.8587 H   0  0  0  0  0  0  0  0  0  0  0  0
   -4.9921    1.1170    4.5543 H   0  0  0  0  0  0  0  0  0  0  0  0
   -6.6794    1.0496    3.9418 H   0  0  0  0  0  0  0  0  0  0  0  0
  1  3  1  0  0  0  0
  1  7  1  0  0  0  0
  1  2  2  0  0  0  0
 40 41  1  0  0  0  0
 41 49  1  0  0  0  0
 41 42  2  0  0  0  0
  8  9  1  0  0  0  0
  9 17  1  0  0  0  0
  9 10  2  0  0  0  0
 18 19  1  0  0  0  0
 19 39  1  0  0  0  0
 19 20  2  0  0  0  0
 40 43  1  0  0  0  0
  8 11  1  0  0  0  0
 49 50  1  0  0  0  0
 22 23  1  0  0  0  0
 21 22  1  0  0  0  0
 23 24  1  0  0  0  0
 18 21  1  0  0  0  0
 24 25  1  0  0  0  0
 39 40  1  0  0  0  0
  7  8  1  0  0  0  0
 17 18  1  0  0  0  0
  3  4  1  0  0  0  0
  3  5  1  0  0  0  0
  3  6  1  0  0  0  0
 43 46  1  0  0  0  0
 43 47  1  0  0  0  0
 43 48  1  0  0  0  0
 11 14  1  0  0  0  0
 11 15  1  0  0  0  0
 11 16  1  0  0  0  0
 50 52  1  0  0  0  0
 50 53  1  0  0  0  0
 50 54  1  0  0  0  0
 22 30  1  0  0  0  0
 22 31  1  0  0  0  0
 23 32  1  0  0  0  0
 23 33  1  0  0  0  0
 21 28  1  0  0  0  0
 21 29  1  0  0  0  0
 24 34  1  0  0  0  0
 24 35  1  0  0  0  0
 40 45  1  0  0  0  0
  8 13  1  0  0  0  0
 18 27  1  0  0  0  0
 49 51  1  0  0  0  0
  7 12  1  0  0  0  0
 39 44  1  0  0  0  0
 17 26  1  0  0  0  0
 25 36  1  0  0  0  0
 25 37  1  0  0  0  0
 25 38  1  0  0  0  0
M  CHG  1  25   1
M  END
$$$$

  -OEChem-05262214473D

 54 53  0     1  0  0  0  0  0999 V2000
    2.6714    2.8829   -3.0005 C   0  0  0  0  0  0  0  0  0  0  0  0
    3.1741    2.4398   -1.9745 O   0  0  0  0  0  0  0  0  0  0  0  0
    3.5527    3.3077   -4.1279 C   0  0  0  0  0  0  0  0  0  0  0  0
    3.8407    4.3691   -4.0597 H   0  0  0  0  0  0  0  0  0  0  0  0
    4.5024    2.7495   -4.1526 H   0  0  0  0  0  0  0  0  0  0  0  0
    3.1208    3.1887   -5.1345 H   0  0  0  0  0  0  0  0  0  0  0  0
    1.3174    3.0407   -3.2467 N   0  0  0  0  0  0  0  0  0  0  0  0
    0.2944    2.6927   -2.2960 C   0  0  2  0  0  0  0  0  0  0  0  0
    0.2976    1.1783   -2.1349 C   0  0  0  0  0  0  0  0  0  0  0  0
    0.7500    0.4142   -2.9850 O   0  0  0  0  0  0  0  0  0  0  0  0
   -1.0710    3.1886   -2.7460 C   0  0  0  0  0  0  0  0  0  0  0  0
    1.0312    3.4224   -4.1464 H   0  0  0  0  0  0  0  0  0  0  0  0
    0.5725    3.1622   -1.3461 H   0  0  0  0  0  0  0  0  0  0  0  0
   -1.3666    2.7292   -3.6963 H   0  0  0  0  0  0  0  0  0  0  0  0
   -1.8434    2.9482   -2.0082 H   0  0  0  0  0  0  0  0  0  0  0  0
   -1.0632    4.2744   -2.8901 H   0  0  0  0  0  0  0  0  0  0  0  0
   -0.3037    0.7742   -0.9484 N   0  0  0  0  0  0  0  0  0  0  0  0
   -0.4352   -0.6095   -0.5718 C   0  0  2  0  0  0  0  0  0  0  0  0
   -1.9161   -0.9369   -0.4105 C   0  0  0  0  0  0  0  0  0  0  0  0
   -2.5458   -1.6114   -1.2230 O   0  0  0  0  0  0  0  0  0  0  0  0
    0.3886   -0.9446    0.6771 C   0  0  0  0  0  0  0  0  0  0  0  0
    1.9064   -0.8850    0.4605 C   0  0  0  0  0  0  0  0  0  0  0  0
    2.6620   -1.2540    1.7392 C   0  0  0  0  0  0  0  0  0  0  0  0
    4.1664   -1.1701    1.5277 C   0  0  0  0  0  0  0  0  0  0  0  0
    4.8551   -1.5113    2.7956 N   0  3  0  0  0  0  0  0  0  0  0  0
   -0.6336    1.4811   -0.2948 H   0  0  0  0  0  0  0  0  0  0  0  0
   -0.0508   -1.1889   -1.4199 H   0  0  0  0  0  0  0  0  0  0  0  0
    0.1179   -0.2441    1.4777 H   0  0  0  0  0  0  0  0  0  0  0  0
    0.1207   -1.9473    1.0325 H   0  0  0  0  0  0  0  0  0  0  0  0
    2.1976   -1.5741   -0.3408 H   0  0  0  0  0  0  0  0  0  0  0  0
    2.2009    0.1229    0.1456 H   0  0  0  0  0  0  0  0  0  0  0  0
    2.3863   -2.2699    2.0485 H   0  0  0  0  0  0  0  0  0  0  0  0
    2.3626   -0.5789    2.5505 H   0  0  0  0  0  0  0  0  0  0  0  0
    4.5151   -1.8836    0.7751 H   0  0  0  0  0  0  0  0  0  0  0  0
    4.4864   -0.1603    1.2544 H   0  0  0  0  0  0  0  0  0  0  0  0
    5.8179   -1.1572    2.7981 H   0  0  0  0  0  0  0  0  0  0  0  0
    4.8927   -2.5277    2.9311 H   0  0  0  0  0  0  0  0  0  0  0  0
    4.3669   -1.1036    3.6006 H   0  0  0  0  0  0  0  0  0  0  0  0
   -2.4452   -0.4169    0.7619 N   0  0  0  0  0  0  0  0  0  0  0  0
   -3.8253   -0.6134    1.1366 C   0  0  2  0  0  0  0  0  0  0  0  0
   -4.1421    0.3399    2.2812 C   0  0  0  0  0  0  0  0  0  0  0  0
   -3.2795    0.8147    3.0171 O   0  0  0  0  0  0  0  0  0  0  0  0
   -4.0888   -2.0554    1.5415 C   0  0  0  0  0  0  0  0  0  0  0  0
   -1.8412    0.1200    1.3772 H   0  0  0  0  0  0  0  0  0  0  0  0
   -4.4309   -0.3498    0.2627 H   0  0  0  0  0  0  0  0  0  0  0  0
   -3.4907   -2.3378    2.4156 H   0  0  0  0  0  0  0  0  0  0  0  0
   -5.1421   -2.2094    1.7979 H   0  0  0  0  0  0  0  0  0  0  0  0
   -3.8322   -2.7419    0.7274 H   0  0  0  0  0  0  0  0  0  0  0  0
   -5.5056    0.5642    2.4114 N   0  0  0  0  0  0  0  0  0  0  0  0
   -6.0606    1.4224    3.4319 C   0  0  0  0  0  0  0  0  0  0  0  0
   -6.1469    0.1442    1.7450 H   0  0  0  0  0  0  0  0  0  0  0  0
   -6.3161    0.8220    4.3175 H   0  0  0  0  0  0  0  0  0  0  0  0
   -5.3210    2.1880    3.7091 H   0  0  0  0  0  0  0  0  0  0  0  0
   -6.9675    1.9112    3.0464 H   0  0  0  0  0  0  0  0  0  0  0  0
  1  3  1  0  0  0  0
  1  7  1  0  0  0  0
  1  2  2  0  0  0  0
 40 41  1  0  0  0  0
 41 49  1  0  0  0  0
 41 42  2  0  0  0  0
  8  9  1  0  0  0  0
  9 17  1  0  0  0  0
  9 10  2  0  0  0  0
 18 19  1  0  0  0  0
 19 39  1  0  0  0  0
 19 20  2  0  0  0  0
 40 43  1  0  0  0  0
  8 11  1  0  0  0  0
 49 50  1  0  0  0  0
 22 23  1  0  0  0  0
 21 22  1  0  0  0  0
 23 24  1  0  0  0  0
 18 21  1  0  0  0  0
 24 25  1  0  0  0  0
 39 40  1  0  0  0  0
  7  8  1  0  0  0  0
 17 18  1  0  0  0  0
  3  4  1  0  0  0  0
  3  5  1  0  0  0  0
  3  6  1  0  0  0  0
 43 46  1  0  0  0  0
 43 47  1  0  0  0  0
 43 48  1  0  0  0  0
 11 14  1  0  0  0  0
 11 15  1  0  0  0  0
 11 16  1  0  0  0  0
 50 52  1  0  0  0  0
 50 53  1  0  0  0  0
 50 54  1  0  0  0  0
 22 30  1  0  0  0  0
 22 31  1  0  0  0  0
 23 32  1  0  0  0  0
 23 33  1  0  0  0  0
 21 28  1  0  0  0  0
 21 29  1  0  0  0  0
 24 34  1  0  0  0  0
 24 35  1  0  0  0  0
 40 45  1  0  0  0  0
  8 13  1  0  0  0  0
 18 27  1  0  0  0  0
 49 51  1  0  0  0  0
  7 12  1  0  0  0  0
 39 44  1  0  0  0  0
 17 26  1  0  0  0  0
 25 36  1  0  0  0  0
 25 37  1  0  0  0  0
 25 38  1  0  0  0  0
M  CHG  1  25   1
M  END
$$$$

  -OEChem-05262214473D

 54 53  0     1  0  0  0  0  0999 V2000
    2.6714    2.8829   -3.0005 C   0  0  0  0  0  0  0  0  0  0  0  0
    3.1741    2.4398   -1.9745 O   0  0  0  0  0  0  0  0  0  0  0  0
    3.5527    3.3077   -4.1279 C   0  0  0  0  0  0  0  0  0  0  0  0
    3.8407    4.3691   -4.0597 H   0  0  0  0  0  0  0  0  0  0  0  0
    4.5024    2.7495   -4.1526 H   0  0  0  0  0  0  0  0  0  0  0  0
    3.1208    3.1887   -5.1345 H   0  0  0  0  0  0  0  0  0  0  0  0
    1.3174    3.0407   -3.2467 N   0  0  0  0  0  0  0  0  0  0  0  0
    0.2944    2.6927   -2.2960 C   0  0  2  0  0  0  0  0  0  0  0  0
    0.2976    1.1783   -2.1349 C   0  0  0  0  0  0  0  0  0  0  0  0
    0.7500    0.4142   -2.9850 O   0  0  0  0  0  0  0  0  0  0  0  0
   -1.0710    3.1886   -2.7460 C   0  0  0  0  0  0  0  0  0  0  0  0
    1.0312    3.4224   -4.1464 H   0  0  0  0  0  0  0  0  0  0  0  0
    0.5725    3.1622   -1.3461 H   0  0  0  0  0  0  0  0  0  0  0  0
   -1.3666    2.7292   -3.6963 H   0  0  0  0  0  0  0  0  0  0  0  0
   -1.8434    2.9482   -2.0082 H   0  0  0  0  0  0  0  0  0  0  0  0
   -1.0632    4.2744   -2.8901 H   0  0  0  0  0  0  0  0  0  0  0  0
   -0.3037    0.7742   -0.9484 N   0  0  0  0  0  0  0  0  0  0  0  0
   -0.4352   -0.6095   -0.5718 C   0  0  2  0  0  0  0  0  0  0  0  0
   -1.9161   -0.9369   -0.4105 C   0  0  0  0  0  0  0  0  0  0  0  0
   -2.4829   -1.8147   -1.0584 O   0  0  0  0  0  0  0  0  0  0  0  0
    0.3886   -0.9446    0.6771 C   0  0  0  0  0  0  0  0  0  0  0  0
    1.9064   -0.8850    0.4605 C   0  0  0  0  0  0  0  0  0  0  0  0
    2.6620   -1.2540    1.7392 C   0  0  0  0  0  0  0  0  0  0  0  0
    4.1664   -1.1701    1.5277 C   0  0  0  0  0  0  0  0  0  0  0  0
    4.8551   -1.5113    2.7956 N   0  3  0  0  0  0  0  0  0  0  0  0
   -0.6336    1.4811   -0.2948 H   0  0  0  0  0  0  0  0  0  0  0  0
   -0.0508   -1.1889   -1.4199 H   0  0  0  0  0  0  0  0  0  0  0  0
    0.1179   -0.2441    1.4777 H   0  0  0  0  0  0  0  0  0  0  0  0
    0.1207   -1.9473    1.0325 H   0  0  0  0  0  0  0  0  0  0  0  0
    2.1976   -1.5741   -0.3408 H   0  0  0  0  0  0  0  0  0  0  0  0
    2.2009    0.1229    0.1456 H   0  0  0  0  0  0  0  0  0  0  0  0
    2.3863   -2.2699    2.0485 H   0  0  0  0  0  0  0  0  0  0  0  0
    2.3626   -0.5789    2.5505 H   0  0  0  0  0  0  0  0  0  0  0  0
    4.5151   -1.8836    0.7751 H   0  0  0  0  0  0  0  0  0  0  0  0
    4.4864   -0.1603    1.2544 H   0  0  0  0  0  0  0  0  0  0  0  0
    5.8179   -1.1572    2.7981 H   0  0  0  0  0  0  0  0  0  0  0  0
    4.8927   -2.5277    2.9311 H   0  0  0  0  0  0  0  0  0  0  0  0
    4.3669   -1.1036    3.6006 H   0  0  0  0  0  0  0  0  0  0  0  0
   -2.5239   -0.1583    0.5638 N   0  0  0  0  0  0  0  0  0  0  0  0
   -3.9195   -0.3022    0.9035 C   0  0  2  0  0  0  0  0  0  0  0  0
   -4.3227    0.8960    1.7528 C   0  0  0  0  0  0  0  0  0  0  0  0
   -3.5148    1.5695    2.3891 O   0  0  0  0  0  0  0  0  0  0  0  0
   -4.1772   -1.6050    1.6445 C   0  0  0  0  0  0  0  0  0  0  0  0
   -1.9683    0.5361    1.0544 H   0  0  0  0  0  0  0  0  0  0  0  0
   -4.4776   -0.2869   -0.0390 H   0  0  0  0  0  0  0  0  0  0  0  0
   -3.6262   -1.6386    2.5915 H   0  0  0  0  0  0  0  0  0  0  0  0
   -5.2405   -1.7260    1.8763 H   0  0  0  0  0  0  0  0  0  0  0  0
   -3.8590   -2.4642    1.0443 H   0  0  0  0  0  0  0  0  0  0  0  0
   -5.6957    1.0986    1.7510 N   0  0  0  0  0  0  0  0  0  0  0  0
   -6.3273    2.1654    2.4919 C   0  0  0  0  0  0  0  0  0  0  0  0
   -6.2879    0.5032    1.1796 H   0  0  0  0  0  0  0  0  0  0  0  0
   -6.6224    1.7976    3.4857 H   0  0  0  0  0  0  0  0  0  0  0  0
   -5.6210    3.0011    2.6053 H   0  0  0  0  0  0  0  0  0  0  0  0
   -7.2195    2.5105    1.9489 H   0  0  0  0  0  0  0  0  0  0  0  0
  1  3  1  0  0  0  0
  1  7  1  0  0  0  0
  1  2  2  0  0  0  0
 40 41  1  0  0  0  0
 41 49  1  0  0  0  0
 41 42  2  0  0  0  0
  8  9  1  0  0  0  0
  9 17  1  0  0  0  0
  9 10  2  0  0  0  0
 18 19  1  0  0  0  0
 19 39  1  0  0  0  0
 19 20  2  0  0  0  0
 40 43  1  0  0  0  0
  8 11  1  0  0  0  0
 49 50  1  0  0  0  0
 22 23  1  0  0  0  0
 21 22  1  0  0  0  0
 23 24  1  0  0  0  0
 18 21  1  0  0  0  0
 24 25  1  0  0  0  0
 39 40  1  0  0  0  0
  7  8  1  0  0  0  0
 17 18  1  0  0  0  0
  3  4  1  0  0  0  0
  3  5  1  0  0  0  0
  3  6  1  0  0  0  0
 43 46  1  0  0  0  0
 43 47  1  0  0  0  0
 43 48  1  0  0  0  0
 11 14  1  0  0  0  0
 11 15  1  0  0  0  0
 11 16  1  0  0  0  0
 50 52  1  0  0  0  0
 50 53  1  0  0  0  0
 50 54  1  0  0  0  0
 22 30  1  0  0  0  0
 22 31  1  0  0  0  0
 23 32  1  0  0  0  0
 23 33  1  0  0  0  0
 21 28  1  0  0  0  0
 21 29  1  0  0  0  0
 24 34  1  0  0  0  0
 24 35  1  0  0  0  0
 40 45  1  0  0  0  0
  8 13  1  0  0  0  0
 18 27  1  0  0  0  0
 49 51  1  0  0  0  0
  7 12  1  0  0  0  0
 39 44  1  0  0  0  0
 17 26  1  0  0  0  0
 25 36  1  0  0  0  0
 25 37  1  0  0  0  0
 25 38  1  0  0  0  0
M  CHG  1  25   1
M  END
$$$$

  -OEChem-05262214473D

 54 53  0     1  0  0  0  0  0999 V2000
    2.6714    2.8829   -3.0005 C   0  0  0  0  0  0  0  0  0  0  0  0
    3.1741    2.4398   -1.9745 O   0  0  0  0  0  0  0  0  0  0  0  0
    3.5527    3.3077   -4.1279 C   0  0  0  0  0  0  0  0  0  0  0  0
    3.8407    4.3691   -4.0597 H   0  0  0  0  0  0  0  0  0  0  0  0
    4.5024    2.7495   -4.1526 H   0  0  0  0  0  0  0  0  0  0  0  0
    3.1208    3.1887   -5.1345 H   0  0  0  0  0  0  0  0  0  0  0  0
    1.3174    3.0407   -3.2467 N   0  0  0  0  0  0  0  0  0  0  0  0
    0.2944    2.6927   -2.2960 C   0  0  2  0  0  0  0  0  0  0  0  0
    0.2976    1.1783   -2.1349 C   0  0  0  0  0  0  0  0  0  0  0  0
    0.7500    0.4142   -2.9850 O   0  0  0  0  0  0  0  0  0  0  0  0
   -1.0710    3.1886   -2.7460 C   0  0  0  0  0  0  0  0  0  0  0  0
    1.0312    3.4224   -4.1464 H   0  0  0  0  0  0  0  0  0  0  0  0
    0.5725    3.1622   -1.3461 H   0  0  0  0  0  0  0  0  0  0  0  0
   -1.3666    2.7292   -3.6963 H   0  0  0  0  0  0  0  0  0  0  0  0
   -1.8434    2.9482   -2.0082 H   0  0  0  0  0  0  0  0  0  0  0  0
   -1.0632    4.2744   -2.8901 H   0  0  0  0  0  0  0  0  0  0  0  0
   -0.3037    0.7742   -0.9484 N   0  0  0  0  0  0  0  0  0  0  0  0
   -0.4352   -0.6095   -0.5718 C   0  0  2  0  0  0  0  0  0  0  0  0
   -1.9161   -0.9369   -0.4105 C   0  0  0  0  0  0  0  0  0  0  0  0
   -2.4257   -1.9680   -0.8448 O   0  0  0  0  0  0  0  0  0  0  0  0
    0.3886   -0.9446    0.6771 C   0  0  0  0  0  0  0  0  0  0  0  0
    1.9064   -0.8850    0.4605 C   0  0  0  0  0  0  0  0  0  0  0  0
    2.6620   -1.2540    1.7392 C   0  0  0  0  0  0  0  0  0  0  0  0
    4.1664   -1.1701    1.5277 C   0  0  0  0  0  0  0  0  0  0  0  0
    4.8551   -1.5113    2.7956 N   0  3  0  0  0  0  0  0  0  0  0  0
   -0.6336    1.4811   -0.2948 H   0  0  0  0  0  0  0  0  0  0  0  0
   -0.0508   -1.1889   -1.4199 H   0  0  0  0  0  0  0  0  0  0  0  0
    0.1179   -0.2441    1.4777 H   0  0  0  0  0  0  0  0  0  0  0  0
    0.1207   -1.9473    1.0325 H   0  0  0  0  0  0  0  0  0  0  0  0
    2.1976   -1.5741   -0.3408 H   0  0  0  0  0  0  0  0  0  0  0  0
    2.2009    0.1229    0.1456 H   0  0  0  0  0  0  0  0  0  0  0  0
    2.3863   -2.2699    2.0485 H   0  0  0  0  0  0  0  0  0  0  0  0
    2.3626   -0.5789    2.5505 H   0  0  0  0  0  0  0  0  0  0  0  0
    4.5151   -1.8836    0.7751 H   0  0  0  0  0  0  0  0  0  0  0  0
    4.4864   -0.1603    1.2544 H   0  0  0  0  0  0  0  0  0  0  0  0
    5.8179   -1.1572    2.7981 H   0  0  0  0  0  0  0  0  0  0  0  0
    4.8927   -2.5277    2.9311 H   0  0  0  0  0  0  0  0  0  0  0  0
    4.3669   -1.1036    3.6006 H   0  0  0  0  0  0  0  0  0  0  0  0
   -2.5961    0.0395    0.3030 N   0  0  0  0  0  0  0  0  0  0  0  0
   -4.0060   -0.0627    0.5949 C   0  0  2  0  0  0  0  0  0  0  0  0
   -4.4829    1.2954    1.0925 C   0  0  0  0  0  0  0  0  0  0  0  0
   -3.7279    2.1343    1.5797 O   0  0  0  0  0  0  0  0  0  0  0  0
   -4.2806   -1.1464    1.6259 C   0  0  0  0  0  0  0  0  0  0  0  0
   -2.0846    0.8534    0.6310 H   0  0  0  0  0  0  0  0  0  0  0  0
   -4.5077   -0.3033   -0.3487 H   0  0  0  0  0  0  0  0  0  0  0  0
   -3.7860   -0.9226    2.5782 H   0  0  0  0  0  0  0  0  0  0  0  0
   -5.3531   -1.2420    1.8250 H   0  0  0  0  0  0  0  0  0  0  0  0
   -3.9102   -2.1171    1.2791 H   0  0  0  0  0  0  0  0  0  0  0  0
   -5.8572    1.4437    0.9682 N   0  0  0  0  0  0  0  0  0  0  0  0
   -6.5530    2.6396    1.3824 C   0  0  0  0  0  0  0  0  0  0  0  0
   -6.4025    0.7040    0.5353 H   0  0  0  0  0  0  0  0  0  0  0  0
   -6.8988    2.5225    2.4201 H   0  0  0  0  0  0  0  0  0  0  0  0
   -5.8718    3.5009    1.3181 H   0  0  0  0  0  0  0  0  0  0  0  0
   -7.4184    2.8067    0.7243 H   0  0  0  0  0  0  0  0  0  0  0  0
  1  3  1  0  0  0  0
  1  7  1  0  0  0  0
  1  2  2  0  0  0  0
 40 41  1  0  0  0  0
 41 49  1  0  0  0  0
 41 42  2  0  0  0  0
  8  9  1  0  0  0  0
  9 17  1  0  0  0  0
  9 10  2  0  0  0  0
 18 19  1  0  0  0  0
 19 39  1  0  0  0  0
 19 20  2  0  0  0  0
 40 43  1  0  0  0  0
  8 11  1  0  0  0  0
 49 50  1  0  0  0  0
 22 23  1  0  0  0  0
 21 22  1  0  0  0  0
 23 24  1  0  0  0  0
 18 21  1  0  0  0  0
 24 25  1  0  0  0  0
 39 40  1  0  0  0  0
  7  8  1  0  0  0  0
 17 18  1  0  0  0  0
  3  4  1  0  0  0  0
  3  5  1  0  0  0  0
  3  6  1  0  0  0  0
 43 46  1  0  0  0  0
 43 47  1  0  0  0  0
 43 48  1  0  0  0  0
 11 14  1  0  0  0  0
 11 15  1  0  0  0  0
 11 16  1  0  0  0  0
 50 52  1  0  0  0  0
 50 53  1  0  0  0  0
 50 54  1  0  0  0  0
 22 30  1  0  0  0  0
 22 31  1  0  0  0  0
 23 32  1  0  0  0  0
 23 33  1  0  0  0  0
 21 28  1  0  0  0  0
 21 29  1  0  0  0  0
 24 34  1  0  0  0  0
 24 35  1  0  0  0  0
 40 45  1  0  0  0  0
  8 13  1  0  0  0  0
 18 27  1  0  0  0  0
 49 51  1  0  0  0  0
  7 12  1  0  0  0  0
 39 44  1  0  0  0  0
 17 26  1  0  0  0  0
 25 36  1  0  0  0  0
 25 37  1  0  0  0  0
 25 38  1  0  0  0  0
M  CHG  1  25   1
M  END
$$$$

  -OEChem-05262214473D

 54 53  0     1  0  0  0  0  0999 V2000
    2.6714    2.8829   -3.0005 C   0  0  0  0  0  0  0  0  0  0  0  0
    3.1741    2.4398   -1.9745 O   0  0  0  0  0  0  0  0  0  0  0  0
    3.5527    3.3077   -4.1279 C   0  0  0  0  0  0  0  0  0  0  0  0
    3.8407    4.3691   -4.0597 H   0  0  0  0  0  0  0  0  0  0  0  0
    4.5024    2.7495   -4.1526 H   0  0  0  0  0  0  0  0  0  0  0  0
    3.1208    3.1887   -5.1345 H   0  0  0  0  0  0  0  0  0  0  0  0
    1.3174    3.0407   -3.2467 N   0  0  0  0  0  0  0  0  0  0  0  0
    0.2944    2.6927   -2.2960 C   0  0  2  0  0  0  0  0  0  0  0  0
    0.2976    1.1783   -2.1349 C   0  0  0  0  0  0  0  0  0  0  0  0
    0.7500    0.4142   -2.9850 O   0  0  0  0  0  0  0  0  0  0  0  0
   -1.0710    3.1886   -2.7460 C   0  0  0  0  0  0  0  0  0  0  0  0
    1.0312    3.4224   -4.1464 H   0  0  0  0  0  0  0  0  0  0  0  0
    0.5725    3.1622   -1.3461 H   0  0  0  0  0  0  0  0  0  0  0  0
   -1.3666    2.7292   -3.6963 H   0  0  0  0  0  0  0  0  0  0  0  0
   -1.8434    2.9482   -2.0082 H   0  0  0  0  0  0  0  0  0  0  0  0
   -1.0632    4.2744   -2.8901 H   0  0  0  0  0  0  0  0  0  0  0  0
   -0.3037    0.7742   -0.9484 N   0  0  0  0  0  0  0  0  0  0  0  0
   -0.4352   -0.6095   -0.5718 C   0  0  2  0  0  0  0  0  0  0  0  0
   -1.9161   -0.9369   -0.4105 C   0  0  0  0  0  0  0  0  0  0  0  0
   -2.3782   -2.0609   -0.5968 O   0  0  0  0  0  0  0  0  0  0  0  0
    0.3886   -0.9446    0.6771 C   0  0  0  0  0  0  0  0  0  0  0  0
    1.9064   -0.8850    0.4605 C   0  0  0  0  0  0  0  0  0  0  0  0
    2.6620   -1.2540    1.7392 C   0  0  0  0  0  0  0  0  0  0  0  0
    4.1664   -1.1701    1.5277 C   0  0  0  0  0  0  0  0  0  0  0  0
    4.8551   -1.5113    2.7956 N   0  3  0  0  0  0  0  0  0  0  0  0
   -0.6336    1.4811   -0.2948 H   0  0  0  0  0  0  0  0  0  0  0  0
   -0.0508   -1.1889   -1.4199 H   0  0  0  0  0  0  0  0  0  0  0  0
    0.1179   -0.2441    1.4777 H   0  0  0  0  0  0  0  0  0  0  0  0
    0.1207   -1.9473    1.0325 H   0  0  0  0  0  0  0  0  0  0  0  0
    2.1976   -1.5741   -0.3408 H   0  0  0  0  0  0  0  0  0  0  0  0
    2.2009    0.1229    0.1456 H   0  0  0  0  0  0  0  0  0  0  0  0
    2.3863   -2.2699    2.0485 H   0  0  0  0  0  0  0  0  0  0  0  0
    2.3626   -0.5789    2.5505 H   0  0  0  0  0  0  0  0  0  0  0  0
    4.5151   -1.8836    0.7751 H   0  0  0  0  0  0  0  0  0  0  0  0
    4.4864   -0.1603    1.2544 H   0  0  0  0  0  0  0  0  0  0  0  0
    5.8179   -1.1572    2.7981 H   0  0  0  0  0  0  0  0  0  0  0  0
    4.8927   -2.5277    2.9311 H   0  0  0  0  0  0  0  0  0  0  0  0
    4.3669   -1.1036    3.6006 H   0  0  0  0  0  0  0  0  0  0  0  0
   -2.6567    0.1631   -0.0025 N   0  0  0  0  0  0  0  0  0  0  0  0
   -4.0791    0.0887    0.2318 C   0  0  2  0  0  0  0  0  0  0  0  0
   -4.6119    1.5109    0.3455 C   0  0  0  0  0  0  0  0  0  0  0  0
   -3.9041    2.4706    0.6442 O   0  0  0  0  0  0  0  0  0  0  0  0
   -4.3920   -0.7109    1.4870 C   0  0  0  0  0  0  0  0  0  0  0  0
   -2.1821    1.0503    0.1359 H   0  0  0  0  0  0  0  0  0  0  0  0
   -4.5192   -0.3977   -0.6455 H   0  0  0  0  0  0  0  0  0  0  0  0
   -3.9591   -0.2388    2.3765 H   0  0  0  0  0  0  0  0  0  0  0  0
   -5.4722   -0.7905    1.6477 H   0  0  0  0  0  0  0  0  0  0  0  0
   -3.9822   -1.7242    1.4158 H   0  0  0  0  0  0  0  0  0  0  0  0
   -5.9792    1.5758    0.1165 N   0  0  0  0  0  0  0  0  0  0  0  0
   -6.7224    2.8127    0.1790 C   0  0  0  0  0  0  0  0  0  0  0  0
   -6.4828    0.7330   -0.1438 H   0  0  0  0  0  0  0  0  0  0  0  0
   -7.1264    2.9474    1.1932 H   0  0  0  0  0  0  0  0  0  0  0  0
   -6.0561    3.6533   -0.0648 H   0  0  0  0  0  0  0  0  0  0  0  0
   -7.5506    2.7796   -0.5441 H   0  0  0  0  0  0  0  0  0  0  0  0
  1  3  1  0  0  0  0
  1  7  1  0  0  0  0
  1  2  2  0  0  0  0
 40 41  1  0  0  0  0
 41 49  1  0  0  0  0
 41 42  2  0  0  0  0
  8  9  1  0  0  0  0
  9 17  1  0  0  0  0
  9 10  2  0  0  0  0
 18 19  1  0  0  0  0
 19 39  1  0  0  0  0
 19 20  2  0  0  0  0
 40 43  1  0  0  0  0
  8 11  1  0  0  0  0
 49 50  1  0  0  0  0
 22 23  1  0  0  0  0
 21 22  1  0  0  0  0
 23 24  1  0  0  0  0
 18 21  1  0  0  0  0
 24 25  1  0  0  0  0
 39 40  1  0  0  0  0
  7  8  1  0  0  0  0
 17 18  1  0  0  0  0
  3  4  1  0  0  0  0
  3  5  1  0  0  0  0
  3  6  1  0  0  0  0
 43 46  1  0  0  0  0
 43 47  1  0  0  0  0
 43 48  1  0  0  0  0
 11 14  1  0  0  0  0
 11 15  1  0  0  0  0
 11 16  1  0  0  0  0
 50 52  1  0  0  0  0
 50 53  1  0  0  0  0
 50 54  1  0  0  0  0
 22 30  1  0  0  0  0
 22 31  1  0  0  0  0
 23 32  1  0  0  0  0
 23 33  1  0  0  0  0
 21 28  1  0  0  0  0
 21 29  1  0  0  0  0
 24 34  1  0  0  0  0
 24 35  1  0  0  0  0
 40 45  1  0  0  0  0
  8 13  1  0  0  0  0
 18 27  1  0  0  0  0
 49 51  1  0  0  0  0
  7 12  1  0  0  0  0
 39 44  1  0  0  0  0
 17 26  1  0  0  0  0
 25 36  1  0  0  0  0
 25 37  1  0  0  0  0
 25 38  1  0  0  0  0
M  CHG  1  25   1
M  END
$$$$

  -OEChem-05262214473D

 54 53  0     1  0  0  0  0  0999 V2000
    2.6714    2.8829   -3.0005 C   0  0  0  0  0  0  0  0  0  0  0  0
    3.1741    2.4398   -1.9745 O   0  0  0  0  0  0  0  0  0  0  0  0
    3.5527    3.3077   -4.1279 C   0  0  0  0  0  0  0  0  0  0  0  0
    3.8407    4.3691   -4.0597 H   0  0  0  0  0  0  0  0  0  0  0  0
    4.5024    2.7495   -4.1526 H   0  0  0  0  0  0  0  0  0  0  0  0
    3.1208    3.1887   -5.1345 H   0  0  0  0  0  0  0  0  0  0  0  0
    1.3174    3.0407   -3.2467 N   0  0  0  0  0  0  0  0  0  0  0  0
    0.2944    2.6927   -2.2960 C   0  0  2  0  0  0  0  0  0  0  0  0
    0.2976    1.1783   -2.1349 C   0  0  0  0  0  0  0  0  0  0  0  0
    0.7500    0.4142   -2.9850 O   0  0  0  0  0  0  0  0  0  0  0  0
   -1.0710    3.1886   -2.7460 C   0  0  0  0  0  0  0  0  0  0  0  0
    1.0312    3.4224   -4.1464 H   0  0  0  0  0  0  0  0  0  0  0  0
    0.5725    3.1622   -1.3461 H   0  0  0  0  0  0  0  0  0  0  0  0
   -1.3666    2.7292   -3.6963 H   0  0  0  0  0  0  0  0  0  0  0  0
   -1.8434    2.9482   -2.0082 H   0  0  0  0  0  0  0  0  0  0  0  0
   -1.0632    4.2744   -2.8901 H   0  0  0  0  0  0  0  0  0  0  0  0
   -0.3037    0.7742   -0.9484 N   0  0  0  0  0  0  0  0  0  0  0  0
   -0.4352   -0.6095   -0.5718 C   0  0  2  0  0  0  0  0  0  0  0  0
   -1.9161   -0.9369   -0.4105 C   0  0  0  0  0  0  0  0  0  0  0  0
   -2.3435   -2.0870   -0.3313 O   0  0  0  0  0  0  0  0  0  0  0  0
    0.3886   -0.9446    0.6771 C   0  0  0  0  0  0  0  0  0  0  0  0
    1.9064   -0.8850    0.4605 C   0  0  0  0  0  0  0  0  0  0  0  0
    2.6620   -1.2540    1.7392 C   0  0  0  0  0  0  0  0  0  0  0  0
    4.1664   -1.1701    1.5277 C   0  0  0  0  0  0  0  0  0  0  0  0
    4.8551   -1.5113    2.7956 N   0  3  0  0  0  0  0  0  0  0  0  0
   -0.6336    1.4811   -0.2948 H   0  0  0  0  0  0  0  0  0  0  0  0
   -0.0508   -1.1889   -1.4199 H   0  0  0  0  0  0  0  0  0  0  0  0
    0.1179   -0.2441    1.4777 H   0  0  0  0  0  0  0  0  0  0  0  0
    0.1207   -1.9473    1.0325 H   0  0  0  0  0  0  0  0  0  0  0  0
    2.1976   -1.5741   -0.3408 H   0  0  0  0  0  0  0  0  0  0  0  0
    2.2009    0.1229    0.1456 H   0  0  0  0  0  0  0  0  0  0  0  0
    2.3863   -2.2699    2.0485 H   0  0  0  0  0  0  0  0  0  0  0  0
    2.3626   -0.5789    2.5505 H   0  0  0  0  0  0  0  0  0  0  0  0
    4.5151   -1.8836    0.7751 H   0  0  0  0  0  0  0  0  0  0  0  0
    4.4864   -0.1603    1.2544 H   0  0  0  0  0  0  0  0  0  0  0  0
    5.8179   -1.1572    2.7981 H   0  0  0  0  0  0  0  0  0  0  0  0
    4.8927   -2.5277    2.9311 H   0  0  0  0  0  0  0  0  0  0  0  0
    4.3669   -1.1036    3.6006 H   0  0  0  0  0  0  0  0  0  0  0  0
   -2.7016    0.2040   -0.3321 N   0  0  0  0  0  0  0  0  0  0  0  0
   -4.1336    0.1418   -0.1610 C   0  0  2  0  0  0  0  0  0  0  0  0
   -4.7010    1.5278   -0.4374 C   0  0  0  0  0  0  0  0  0  0  0  0
   -4.0316    2.5555   -0.3538 O   0  0  0  0  0  0  0  0  0  0  0  0
   -4.5038   -0.3282    1.2371 C   0  0  0  0  0  0  0  0  0  0  0  0
   -2.2542    1.1135   -0.3973 H   0  0  0  0  0  0  0  0  0  0  0  0
   -4.5111   -0.5639   -0.9090 H   0  0  0  0  0  0  0  0  0  0  0  0
   -4.1339    0.3663    2.0002 H   0  0  0  0  0  0  0  0  0  0  0  0
   -5.5898   -0.4023    1.3562 H   0  0  0  0  0  0  0  0  0  0  0  0
   -4.0701   -1.3123    1.4451 H   0  0  0  0  0  0  0  0  0  0  0  0
   -6.0534    1.4861   -0.7462 N   0  0  0  0  0  0  0  0  0  0  0  0
   -6.8238    2.6728   -1.0363 C   0  0  0  0  0  0  0  0  0  0  0  0
   -6.5235    0.5881   -0.8115 H   0  0  0  0  0  0  0  0  0  0  0  0
   -7.2897    3.0433   -0.1113 H   0  0  0  0  0  0  0  0  0  0  0  0
   -6.1615    3.4480   -1.4491 H   0  0  0  0  0  0  0  0  0  0  0  0
   -7.6071    2.4311   -1.7698 H   0  0  0  0  0  0  0  0  0  0  0  0
  1  3  1  0  0  0  0
  1  7  1  0  0  0  0
  1  2  2  0  0  0  0
 40 41  1  0  0  0  0
 41 49  1  0  0  0  0
 41 42  2  0  0  0  0
  8  9  1  0  0  0  0
  9 17  1  0  0  0  0
  9 10  2  0  0  0  0
 18 19  1  0  0  0  0
 19 39  1  0  0  0  0
 19 20  2  0  0  0  0
 40 43  1  0  0  0  0
  8 11  1  0  0  0  0
 49 50  1  0  0  0  0
 22 23  1  0  0  0  0
 21 22  1  0  0  0  0
 23 24  1  0  0  0  0
 18 21  1  0  0  0  0
 24 25  1  0  0  0  0
 39 40  1  0  0  0  0
  7  8  1  0  0  0  0
 17 18  1  0  0  0  0
  3  4  1  0  0  0  0
  3  5  1  0  0  0  0
  3  6  1  0  0  0  0
 43 46  1  0  0  0  0
 43 47  1  0  0  0  0
 43 48  1  0  0  0  0
 11 14  1  0  0  0  0
 11 15  1  0  0  0  0
 11 16  1  0  0  0  0
 50 52  1  0  0  0  0
 50 53  1  0  0  0  0
 50 54  1  0  0  0  0
 22 30  1  0  0  0  0
 22 31  1  0  0  0  0
 23 32  1  0  0  0  0
 23 33  1  0  0  0  0
 21 28  1  0  0  0  0
 21 29  1  0  0  0  0
 24 34  1  0  0  0  0
 24 35  1  0  0  0  0
 40 45  1  0  0  0  0
  8 13  1  0  0  0  0
 18 27  1  0  0  0  0
 49 51  1  0  0  0  0
  7 12  1  0  0  0  0
 39 44  1  0  0  0  0
 17 26  1  0  0  0  0
 25 36  1  0  0  0  0
 25 37  1  0  0  0  0
 25 38  1  0  0  0  0
M  CHG  1  25   1
M  END
$$$$

  -OEChem-05262214473D

 54 53  0     1  0  0  0  0  0999 V2000
    2.6714    2.8829   -3.0005 C   0  0  0  0  0  0  0  0  0  0  0  0
    3.1741    2.4398   -1.9745 O   0  0  0  0  0  0  0  0  0  0  0  0
    3.5527    3.3077   -4.1279 C   0  0  0  0  0  0  0  0  0  0  0  0
    3.8407    4.3691   -4.0597 H   0  0  0  0  0  0  0  0  0  0  0  0
    4.5024    2.7495   -4.1526 H   0  0  0  0  0  0  0  0  0  0  0  0
    3.1208    3.1887   -5.1345 H   0  0  0  0  0  0  0  0  0  0  0  0
    1.3174    3.0407   -3.2467 N   0  0  0  0  0  0  0  0  0  0  0  0
    0.2944    2.6927   -2.2960 C   0  0  2  0  0  0  0  0  0  0  0  0
    0.2976    1.1783   -2.1349 C   0  0  0  0  0  0  0  0  0  0  0  0
    0.7500    0.4142   -2.9850 O   0  0  0  0  0  0  0  0  0  0  0  0
   -1.0710    3.1886   -2.7460 C   0  0  0  0  0  0  0  0  0  0  0  0
    1.0312    3.4224   -4.1464 H   0  0  0  0  0  0  0  0  0  0  0  0
    0.5725    3.1622   -1.3461 H   0  0  0  0  0  0  0  0  0  0  0  0
   -1.3666    2.7292   -3.6963 H   0  0  0  0  0  0  0  0  0  0  0  0
   -1.8434    2.9482   -2.0082 H   0  0  0  0  0  0  0  0  0  0  0  0
   -1.0632    4.2744   -2.8901 H   0  0  0  0  0  0  0  0  0  0  0  0
   -0.3037    0.7742   -0.9484 N   0  0  0  0  0  0  0  0  0  0  0  0
   -0.4352   -0.6095   -0.5718 C   0  0  2  0  0  0  0  0  0  0  0  0
   -1.9161   -0.9369   -0.4105 C   0  0  0  0  0  0  0  0  0  0  0  0
   -2.3240   -2.0445   -0.0663 O   0  0  0  0  0  0  0  0  0  0  0  0
    0.3886   -0.9446    0.6771 C   0  0  0  0  0  0  0  0  0  0  0  0
    1.9064   -0.8850    0.4605 C   0  0  0  0  0  0  0  0  0  0  0  0
    2.6620   -1.2540    1.7392 C   0  0  0  0  0  0  0  0  0  0  0  0
    4.1664   -1.1701    1.5277 C   0  0  0  0  0  0  0  0  0  0  0  0
    4.8551   -1.5113    2.7956 N   0  3  0  0  0  0  0  0  0  0  0  0
   -0.6336    1.4811   -0.2948 H   0  0  0  0  0  0  0  0  0  0  0  0
   -0.0508   -1.1889   -1.4199 H   0  0  0  0  0  0  0  0  0  0  0  0
    0.1179   -0.2441    1.4777 H   0  0  0  0  0  0  0  0  0  0  0  0
    0.1207   -1.9473    1.0325 H   0  0  0  0  0  0  0  0  0  0  0  0
    2.1976   -1.5741   -0.3408 H   0  0  0  0  0  0  0  0  0  0  0  0
    2.2009    0.1229    0.1456 H   0  0  0  0  0  0  0  0  0  0  0  0
    2.3863   -2.2699    2.0485 H   0  0  0  0  0  0  0  0  0  0  0  0
    2.3626   -0.5789    2.5505 H   0  0  0  0  0  0  0  0  0  0  0  0
    4.5151   -1.8836    0.7751 H   0  0  0  0  0  0  0  0  0  0  0  0
    4.4864   -0.1603    1.2544 H   0  0  0  0  0  0  0  0  0  0  0  0
    5.8179   -1.1572    2.7981 H   0  0  0  0  0  0  0  0  0  0  0  0
    4.8927   -2.5277    2.9311 H   0  0  0  0  0  0  0  0  0  0  0  0
    4.3669   -1.1036    3.6006 H   0  0  0  0  0  0  0  0  0  0  0  0
   -2.7279    0.1595   -0.6633 N   0  0  0  0  0  0  0  0  0  0  0  0
   -4.1659    0.0928   -0.5568 C   0  0  2  0  0  0  0  0  0  0  0  0
   -4.7439    1.3450   -1.2028 C   0  0  0  0  0  0  0  0  0  0  0  0
   -4.1016    2.3833   -1.3462 O   0  0  0  0  0  0  0  0  0  0  0  0
   -4.6085   -0.0245    0.8934 C   0  0  0  0  0  0  0  0  0  0  0  0
   -2.2958    1.0385   -0.9322 H   0  0  0  0  0  0  0  0  0  0  0  0
   -4.4842   -0.7903   -1.1214 H   0  0  0  0  0  0  0  0  0  0  0  0
   -4.2984    0.8514    1.4750 H   0  0  0  0  0  0  0  0  0  0  0  0
   -5.6979   -0.1037    0.9706 H   0  0  0  0  0  0  0  0  0  0  0  0
   -4.1679   -0.9095    1.3651 H   0  0  0  0  0  0  0  0  0  0  0  0
   -6.0746    1.1806   -1.5611 N   0  0  0  0  0  0  0  0  0  0  0  0
   -6.8504    2.2295   -2.1806 C   0  0  0  0  0  0  0  0  0  0  0  0
   -6.5218    0.2792   -1.4223 H   0  0  0  0  0  0  0  0  0  0  0  0
   -7.3776    2.8037   -1.4044 H   0  0  0  0  0  0  0  0  0  0  0  0
   -6.1807    2.8989   -2.7404 H   0  0  0  0  0  0  0  0  0  0  0  0
   -7.5839    1.7849   -2.8693 H   0  0  0  0  0  0  0  0  0  0  0  0
  1  3  1  0  0  0  0
  1  7  1  0  0  0  0
  1  2  2  0  0  0  0
 40 41  1  0  0  0  0
 41 49  1  0  0  0  0
 41 42  2  0  0  0  0
  8  9  1  0  0  0  0
  9 17  1  0  0  0  0
  9 10  2  0  0  0  0
 18 19  1  0  0  0  0
 19 39  1  0  0  0  0
 19 20  2  0  0  0  0
 40 43  1  0  0  0  0
  8 11  1  0  0  0  0
 49 50  1  0  0  0  0
 22 23  1  0  0  0  0
 21 22  1  0  0  0  0
 23 24  1  0  0  0  0
 18 21  1  0  0  0  0
 24 25  1  0  0  0  0
 39 40  1  0  0  0  0
  7  8  1  0  0  0  0
 17 18  1  0  0  0  0
  3  4  1  0  0  0  0
  3  5  1  0  0  0  0
  3  6  1  0  0  0  0
 43 46  1  0  0  0  0
 43 47  1  0  0  0  0
 43 48  1  0  0  0  0
 11 14  1  0  0  0  0
 11 15  1  0  0  0  0
 11 16  1  0  0  0  0
 50 52  1  0  0  0  0
 50 53  1  0  0  0  0
 50 54  1  0  0  0  0
 22 30  1  0  0  0  0
 22 31  1  0  0  0  0
 23 32  1  0  0  0  0
 23 33  1  0  0  0  0
 21 28  1  0  0  0  0
 21 29  1  0  0  0  0
 24 34  1  0  0  0  0
 24 35  1  0  0  0  0
 40 45  1  0  0  0  0
  8 13  1  0  0  0  0
 18 27  1  0  0  0  0
 49 51  1  0  0  0  0
  7 12  1  0  0  0  0
 39 44  1  0  0  0  0
 17 26  1  0  0  0  0
 25 36  1  0  0  0  0
 25 37  1  0  0  0  0
 25 38  1  0  0  0  0
M  CHG  1  25   1
M  END
$$$$

  -OEChem-05262214473D

 54 53  0     1  0  0  0  0  0999 V2000
    2.6714    2.8829   -3.0005 C   0  0  0  0  0  0  0  0  0  0  0  0
    3.1741    2.4398   -1.9745 O   0  0  0  0  0  0  0  0  0  0  0  0
    3.5527    3.3077   -4.1279 C   0  0  0  0  0  0  0  0  0  0  0  0
    3.8407    4.3691   -4.0597 H   0  0  0  0  0  0  0  0  0  0  0  0
    4.5024    2.7495   -4.1526 H   0  0  0  0  0  0  0  0  0  0  0  0
    3.1208    3.1887   -5.1345 H   0  0  0  0  0  0  0  0  0  0  0  0
    1.3174    3.0407   -3.2467 N   0  0  0  0  0  0  0  0  0  0  0  0
    0.2944    2.6927   -2.2960 C   0  0  2  0  0  0  0  0  0  0  0  0
    0.2976    1.1783   -2.1349 C   0  0  0  0  0  0  0  0  0  0  0  0
    0.7500    0.4142   -2.9850 O   0  0  0  0  0  0  0  0  0  0  0  0
   -1.0710    3.1886   -2.7460 C   0  0  0  0  0  0  0  0  0  0  0  0
    1.0312    3.4224   -4.1464 H   0  0  0  0  0  0  0  0  0  0  0  0
    0.5725    3.1622   -1.3461 H   0  0  0  0  0  0  0  0  0  0  0  0
   -1.3666    2.7292   -3.6963 H   0  0  0  0  0  0  0  0  0  0  0  0
   -1.8434    2.9482   -2.0082 H   0  0  0  0  0  0  0  0  0  0  0  0
   -1.0632    4.2744   -2.8901 H   0  0  0  0  0  0  0  0  0  0  0  0
   -0.3037    0.7742   -0.9484 N   0  0  0  0  0  0  0  0  0  0  0  0
   -0.4352   -0.6095   -0.5718 C   0  0  2  0  0  0  0  0  0  0  0  0
   -1.9161   -0.9369   -0.4105 C   0  0  0  0  0  0  0  0  0  0  0  0
   -2.3211   -1.9363    0.1800 O   0  0  0  0  0  0  0  0  0  0  0  0
    0.3886   -0.9446    0.6771 C   0  0  0  0  0  0  0  0  0  0  0  0
    1.9064   -0.8850    0.4605 C   0  0  0  0  0  0  0  0  0  0  0  0
    2.6620   -1.2540    1.7392 C   0  0  0  0  0  0  0  0  0  0  0  0
    4.1664   -1.1701    1.5277 C   0  0  0  0  0  0  0  0  0  0  0  0
    4.8551   -1.5113    2.7956 N   0  3  0  0  0  0  0  0  0  0  0  0
   -0.6336    1.4811   -0.2948 H   0  0  0  0  0  0  0  0  0  0  0  0
   -0.0508   -1.1889   -1.4199 H   0  0  0  0  0  0  0  0  0  0  0  0
    0.1179   -0.2441    1.4777 H   0  0  0  0  0  0  0  0  0  0  0  0
    0.1207   -1.9473    1.0325 H   0  0  0  0  0  0  0  0  0  0  0  0
    2.1976   -1.5741   -0.3408 H   0  0  0  0  0  0  0  0  0  0  0  0
    2.2009    0.1229    0.1456 H   0  0  0  0  0  0  0  0  0  0  0  0
    2.3863   -2.2699    2.0485 H   0  0  0  0  0  0  0  0  0  0  0  0
    2.3626   -0.5789    2.5505 H   0  0  0  0  0  0  0  0  0  0  0  0
    4.5151   -1.8836    0.7751 H   0  0  0  0  0  0  0  0  0  0  0  0
    4.4864   -0.1603    1.2544 H   0  0  0  0  0  0  0  0  0  0  0  0
    5.8179   -1.1572    2.7981 H   0  0  0  0  0  0  0  0  0  0  0  0
    4.8927   -2.5277    2.9311 H   0  0  0  0  0  0  0  0  0  0  0  0
    4.3669   -1.1036    3.6006 H   0  0  0  0  0  0  0  0  0  0  0  0
   -2.7336    0.0325   -0.9734 N   0  0  0  0  0  0  0  0  0  0  0  0
   -4.1737   -0.0549   -0.9285 C   0  0  2  0  0  0  0  0  0  0  0  0
   -4.7378    0.9749   -1.8985 C   0  0  0  0  0  0  0  0  0  0  0  0
   -4.1094    1.9656   -2.2654 O   0  0  0  0  0  0  0  0  0  0  0  0
   -4.6987    0.1797    0.4793 C   0  0  0  0  0  0  0  0  0  0  0  0
   -2.3043    0.8305   -1.4324 H   0  0  0  0  0  0  0  0  0  0  0  0
   -4.4402   -1.0617   -1.2681 H   0  0  0  0  0  0  0  0  0  0  0  0
   -4.4414    1.1835    0.8367 H   0  0  0  0  0  0  0  0  0  0  0  0
   -5.7889    0.0849    0.5172 H   0  0  0  0  0  0  0  0  0  0  0  0
   -4.2689   -0.5432    1.1811 H   0  0  0  0  0  0  0  0  0  0  0  0
   -6.0414    0.6802   -2.2727 N   0  0  0  0  0  0  0  0  0  0  0  0
   -6.8004    1.5130   -3.1761 C   0  0  0  0  0  0  0  0  0  0  0  0
   -6.4777   -0.1726   -1.9346 H   0  0  0  0  0  0  0  0  0  0  0  0
   -7.3840    2.2448   -2.5982 H   0  0  0  0  0  0  0  0  0  0  0  0
   -6.1126    2.0435   -3.8509 H   0  0  0  0  0  0  0  0  0  0  0  0
   -7.4828    0.8850   -3.7677 H   0  0  0  0  0  0  0  0  0  0  0  0
  1  3  1  0  0  0  0
  1  7  1  0  0  0  0
  1  2  2  0  0  0  0
 40 41  1  0  0  0  0
 41 49  1  0  0  0  0
 41 42  2  0  0  0  0
  8  9  1  0  0  0  0
  9 17  1  0  0  0  0
  9 10  2  0  0  0  0
 18 19  1  0  0  0  0
 19 39  1  0  0  0  0
 19 20  2  0  0  0  0
 40 43  1  0  0  0  0
  8 11  1  0  0  0  0
 49 50  1  0  0  0  0
 22 23  1  0  0  0  0
 21 22  1  0  0  0  0
 23 24  1  0  0  0  0
 18 21  1  0  0  0  0
 24 25  1  0  0  0  0
 39 40  1  0  0  0  0
  7  8  1  0  0  0  0
 17 18  1  0  0  0  0
  3  4  1  0  0  0  0
  3  5  1  0  0  0  0
  3  6  1  0  0  0  0
 43 46  1  0  0  0  0
 43 47  1  0  0  0  0
 43 48  1  0  0  0  0
 11 14  1  0  0  0  0
 11 15  1  0  0  0  0
 11 16  1  0  0  0  0
 50 52  1  0  0  0  0
 50 53  1  0  0  0  0
 50 54  1  0  0  0  0
 22 30  1  0  0  0  0
 22 31  1  0  0  0  0
 23 32  1  0  0  0  0
 23 33  1  0  0  0  0
 21 28  1  0  0  0  0
 21 29  1  0  0  0  0
 24 34  1  0  0  0  0
 24 35  1  0  0  0  0
 40 45  1  0  0  0  0
  8 13  1  0  0  0  0
 18 27  1  0  0  0  0
 49 51  1  0  0  0  0
  7 12  1  0  0  0  0
 39 44  1  0  0  0  0
 17 26  1  0  0  0  0
 25 36  1  0  0  0  0
 25 37  1  0  0  0  0
 25 38  1  0  0  0  0
M  CHG  1  25   1
M  END
$$$$

  -OEChem-05262214473D

 54 53  0     1  0  0  0  0  0999 V2000
    2.6714    2.8829   -3.0005 C   0  0  0  0  0  0  0  0  0  0  0  0
    3.1741    2.4398   -1.9745 O   0  0  0  0  0  0  0  0  0  0  0  0
    3.5527    3.3077   -4.1279 C   0  0  0  0  0  0  0  0  0  0  0  0
    3.8407    4.3691   -4.0597 H   0  0  0  0  0  0  0  0  0  0  0  0
    4.5024    2.7495   -4.1526 H   0  0  0  0  0  0  0  0  0  0  0  0
    3.1208    3.1887   -5.1345 H   0  0  0  0  0  0  0  0  0  0  0  0
    1.3174    3.0407   -3.2467 N   0  0  0  0  0  0  0  0  0  0  0  0
    0.2944    2.6927   -2.2960 C   0  0  2  0  0  0  0  0  0  0  0  0
    0.2976    1.1783   -2.1349 C   0  0  0  0  0  0  0  0  0  0  0  0
    0.7500    0.4142   -2.9850 O   0  0  0  0  0  0  0  0  0  0  0  0
   -1.0710    3.1886   -2.7460 C   0  0  0  0  0  0  0  0  0  0  0  0
    1.0312    3.4224   -4.1464 H   0  0  0  0  0  0  0  0  0  0  0  0
    0.5725    3.1622   -1.3461 H   0  0  0  0  0  0  0  0  0  0  0  0
   -1.3666    2.7292   -3.6963 H   0  0  0  0  0  0  0  0  0  0  0  0
   -1.8434    2.9482   -2.0082 H   0  0  0  0  0  0  0  0  0  0  0  0
   -1.0632    4.2744   -2.8901 H   0  0  0  0  0  0  0  0  0  0  0  0
   -0.3037    0.7742   -0.9484 N   0  0  0  0  0  0  0  0  0  0  0  0
   -0.4352   -0.6095   -0.5718 C   0  0  2  0  0  0  0  0  0  0  0  0
   -1.9161   -0.9369   -0.4105 C   0  0  0  0  0  0  0  0  0  0  0  0
   -2.3349   -1.7698    0.3909 O   0  0  0  0  0  0  0  0  0  0  0  0
    0.3886   -0.9446    0.6771 C   0  0  0  0  0  0  0  0  0  0  0  0
    1.9064   -0.8850    0.4605 C   0  0  0  0  0  0  0  0  0  0  0  0
    2.6620   -1.2540    1.7392 C   0  0  0  0  0  0  0  0  0  0  0  0
    4.1664   -1.1701    1.5277 C   0  0  0  0  0  0  0  0  0  0  0  0
    4.8551   -1.5113    2.7956 N   0  3  0  0  0  0  0  0  0  0  0  0
   -0.6336    1.4811   -0.2948 H   0  0  0  0  0  0  0  0  0  0  0  0
   -0.0508   -1.1889   -1.4199 H   0  0  0  0  0  0  0  0  0  0  0  0
    0.1179   -0.2441    1.4777 H   0  0  0  0  0  0  0  0  0  0  0  0
    0.1207   -1.9473    1.0325 H   0  0  0  0  0  0  0  0  0  0  0  0
    2.1976   -1.5741   -0.3408 H   0  0  0  0  0  0  0  0  0  0  0  0
    2.2009    0.1229    0.1456 H   0  0  0  0  0  0  0  0  0  0  0  0
    2.3863   -2.2699    2.0485 H   0  0  0  0  0  0  0  0  0  0  0  0
    2.3626   -0.5789    2.5505 H   0  0  0  0  0  0  0  0  0  0  0  0
    4.5151   -1.8836    0.7751 H   0  0  0  0  0  0  0  0  0  0  0  0
    4.4864   -0.1603    1.2544 H   0  0  0  0  0  0  0  0  0  0  0  0
    5.8179   -1.1572    2.7981 H   0  0  0  0  0  0  0  0  0  0  0  0
    4.8927   -2.5277    2.9311 H   0  0  0  0  0  0  0  0  0  0  0  0
    4.3669   -1.1036    3.6006 H   0  0  0  0  0  0  0  0  0  0  0  0
   -2.7184   -0.1682   -1.2414 N   0  0  0  0  0  0  0  0  0  0  0  0
   -4.1566   -0.2912   -1.2510 C   0  0  2  0  0  0  0  0  0  0  0  0
   -4.6832    0.4427   -2.4772 C   0  0  0  0  0  0  0  0  0  0  0  0
   -4.0544    1.3309   -3.0488 O   0  0  0  0  0  0  0  0  0  0  0  0
   -4.7685    0.2704    0.0230 C   0  0  0  0  0  0  0  0  0  0  0  0
   -2.2790    0.5036   -1.8637 H   0  0  0  0  0  0  0  0  0  0  0  0
   -4.3821   -1.3595   -1.3392 H   0  0  0  0  0  0  0  0  0  0  0  0
   -4.5531    1.3400    0.1287 H   0  0  0  0  0  0  0  0  0  0  0  0
   -5.8569    0.1505    0.0267 H   0  0  0  0  0  0  0  0  0  0  0  0
   -4.3663   -0.2384    0.9057 H   0  0  0  0  0  0  0  0  0  0  0  0
   -5.9562    0.0189   -2.8323 N   0  0  0  0  0  0  0  0  0  0  0  0
   -6.6772    0.5721   -3.9548 C   0  0  0  0  0  0  0  0  0  0  0  0
   -6.3942   -0.7365   -2.3134 H   0  0  0  0  0  0  0  0  0  0  0  0
   -7.3086    1.4048   -3.6113 H   0  0  0  0  0  0  0  0  0  0  0  0
   -5.9616    0.9401   -4.7048 H   0  0  0  0  0  0  0  0  0  0  0  0
   -7.3106   -0.2072   -4.4037 H   0  0  0  0  0  0  0  0  0  0  0  0
  1  3  1  0  0  0  0
  1  7  1  0  0  0  0
  1  2  2  0  0  0  0
 40 41  1  0  0  0  0
 41 49  1  0  0  0  0
 41 42  2  0  0  0  0
  8  9  1  0  0  0  0
  9 17  1  0  0  0  0
  9 10  2  0  0  0  0
 18 19  1  0  0  0  0
 19 39  1  0  0  0  0
 19 20  2  0  0  0  0
 40 43  1  0  0  0  0
  8 11  1  0  0  0  0
 49 50  1  0  0  0  0
 22 23  1  0  0  0  0
 21 22  1  0  0  0  0
 23 24  1  0  0  0  0
 18 21  1  0  0  0  0
 24 25  1  0  0  0  0
 39 40  1  0  0  0  0
  7  8  1  0  0  0  0
 17 18  1  0  0  0  0
  3  4  1  0  0  0  0
  3  5  1  0  0  0  0
  3  6  1  0  0  0  0
 43 46  1  0  0  0  0
 43 47  1  0  0  0  0
 43 48  1  0  0  0  0
 11 14  1  0  0  0  0
 11 15  1  0  0  0  0
 11 16  1  0  0  0  0
 50 52  1  0  0  0  0
 50 53  1  0  0  0  0
 50 54  1  0  0  0  0
 22 30  1  0  0  0  0
 22 31  1  0  0  0  0
 23 32  1  0  0  0  0
 23 33  1  0  0  0  0
 21 28  1  0  0  0  0
 21 29  1  0  0  0  0
 24 34  1  0  0  0  0
 24 35  1  0  0  0  0
 40 45  1  0  0  0  0
  8 13  1  0  0  0  0
 18 27  1  0  0  0  0
 49 51  1  0  0  0  0
  7 12  1  0  0  0  0
 39 44  1  0  0  0  0
 17 26  1  0  0  0  0
 25 36  1  0  0  0  0
 25 37  1  0  0  0  0
 25 38  1  0  0  0  0
M  CHG  1  25   1
M  END
$$$$

  -OEChem-05262214473D

 54 53  0     1  0  0  0  0  0999 V2000
    2.6714    2.8829   -3.0005 C   0  0  0  0  0  0  0  0  0  0  0  0
    3.1741    2.4398   -1.9745 O   0  0  0  0  0  0  0  0  0  0  0  0
    3.5527    3.3077   -4.1279 C   0  0  0  0  0  0  0  0  0  0  0  0
    3.8407    4.3691   -4.0597 H   0  0  0  0  0  0  0  0  0  0  0  0
    4.5024    2.7495   -4.1526 H   0  0  0  0  0  0  0  0  0  0  0  0
    3.1208    3.1887   -5.1345 H   0  0  0  0  0  0  0  0  0  0  0  0
    1.3174    3.0407   -3.2467 N   0  0  0  0  0  0  0  0  0  0  0  0
    0.2944    2.6927   -2.2960 C   0  0  2  0  0  0  0  0  0  0  0  0
    0.2976    1.1783   -2.1349 C   0  0  0  0  0  0  0  0  0  0  0  0
    0.7500    0.4142   -2.9850 O   0  0  0  0  0  0  0  0  0  0  0  0
   -1.0710    3.1886   -2.7460 C   0  0  0  0  0  0  0  0  0  0  0  0
    1.0312    3.4224   -4.1464 H   0  0  0  0  0  0  0  0  0  0  0  0
    0.5725    3.1622   -1.3461 H   0  0  0  0  0  0  0  0  0  0  0  0
   -1.3666    2.7292   -3.6963 H   0  0  0  0  0  0  0  0  0  0  0  0
   -1.8434    2.9482   -2.0082 H   0  0  0  0  0  0  0  0  0  0  0  0
   -1.0632    4.2744   -2.8901 H   0  0  0  0  0  0  0  0  0  0  0  0
   -0.3037    0.7742   -0.9484 N   0  0  0  0  0  0  0  0  0  0  0  0
   -0.4352   -0.6095   -0.5718 C   0  0  2  0  0  0  0  0  0  0  0  0
   -1.9161   -0.9369   -0.4105 C   0  0  0  0  0  0  0  0  0  0  0  0
   -2.3646   -1.5564    0.5521 O   0  0  0  0  0  0  0  0  0  0  0  0
    0.3886   -0.9446    0.6771 C   0  0  0  0  0  0  0  0  0  0  0  0
    1.9064   -0.8850    0.4605 C   0  0  0  0  0  0  0  0  0  0  0  0
    2.6620   -1.2540    1.7392 C   0  0  0  0  0  0  0  0  0  0  0  0
    4.1664   -1.1701    1.5277 C   0  0  0  0  0  0  0  0  0  0  0  0
    4.8551   -1.5113    2.7956 N   0  3  0  0  0  0  0  0  0  0  0  0
   -0.6336    1.4811   -0.2948 H   0  0  0  0  0  0  0  0  0  0  0  0
   -0.0508   -1.1889   -1.4199 H   0  0  0  0  0  0  0  0  0  0  0  0
    0.1179   -0.2441    1.4777 H   0  0  0  0  0  0  0  0  0  0  0  0
    0.1207   -1.9473    1.0325 H   0  0  0  0  0  0  0  0  0  0  0  0
    2.1976   -1.5741   -0.3408 H   0  0  0  0  0  0  0  0  0  0  0  0
    2.2009    0.1229    0.1456 H   0  0  0  0  0  0  0  0  0  0  0  0
    2.3863   -2.2699    2.0485 H   0  0  0  0  0  0  0  0  0  0  0  0
    2.3626   -0.5789    2.5505 H   0  0  0  0  0  0  0  0  0  0  0  0
    4.5151   -1.8836    0.7751 H   0  0  0  0  0  0  0  0  0  0  0  0
    4.4864   -0.1603    1.2544 H   0  0  0  0  0  0  0  0  0  0  0  0
    5.8179   -1.1572    2.7981 H   0  0  0  0  0  0  0  0  0  0  0  0
    4.8927   -2.5277    2.9311 H   0  0  0  0  0  0  0  0  0  0  0  0
    4.3669   -1.1036    3.6006 H   0  0  0  0  0  0  0  0  0  0  0  0
   -2.6833   -0.4290   -1.4489 N   0  0  0  0  0  0  0  0  0  0  0  0
   -4.1157   -0.6000   -1.5021 C   0  0  2  0  0  0  0  0  0  0  0  0
   -4.5837   -0.2153   -2.8994 C   0  0  0  0  0  0  0  0  0  0  0  0
   -3.9404    0.5226   -3.6429 O   0  0  0  0  0  0  0  0  0  0  0  0
   -4.8130    0.2414   -0.4445 C   0  0  0  0  0  0  0  0  0  0  0  0
   -2.2217    0.0803   -2.1967 H   0  0  0  0  0  0  0  0  0  0  0  0
   -4.3138   -1.6635   -1.3298 H   0  0  0  0  0  0  0  0  0  0  0  0
   -4.6260    1.3101   -0.6008 H   0  0  0  0  0  0  0  0  0  0  0  0
   -5.8971    0.0888   -0.4674 H   0  0  0  0  0  0  0  0  0  0  0  0
   -4.4535   -0.0158    0.5577 H   0  0  0  0  0  0  0  0  0  0  0  0
   -5.8246   -0.7582   -3.2020 N   0  0  0  0  0  0  0  0  0  0  0  0
   -6.4892   -0.5290   -4.4637 C   0  0  0  0  0  0  0  0  0  0  0  0
   -6.2772   -1.3741   -2.5330 H   0  0  0  0  0  0  0  0  0  0  0  0
   -7.1565    0.3409   -4.3745 H   0  0  0  0  0  0  0  0  0  0  0  0
   -5.7381   -0.3362   -5.2439 H   0  0  0  0  0  0  0  0  0  0  0  0
   -7.0790   -1.4173   -4.7340 H   0  0  0  0  0  0  0  0  0  0  0  0
  1  3  1  0  0  0  0
  1  7  1  0  0  0  0
  1  2  2  0  0  0  0
 40 41  1  0  0  0  0
 41 49  1  0  0  0  0
 41 42  2  0  0  0  0
  8  9  1  0  0  0  0
  9 17  1  0  0  0  0
  9 10  2  0  0  0  0
 18 19  1  0  0  0  0
 19 39  1  0  0  0  0
 19 20  2  0  0  0  0
 40 43  1  0  0  0  0
  8 11  1  0  0  0  0
 49 50  1  0  0  0  0
 22 23  1  0  0  0  0
 21 22  1  0  0  0  0
 23 24  1  0  0  0  0
 18 21  1  0  0  0  0
 24 25  1  0  0  0  0
 39 40  1  0  0  0  0
  7  8  1  0  0  0  0
 17 18  1  0  0  0  0
  3  4  1  0  0  0  0
  3  5  1  0  0  0  0
  3  6  1  0  0  0  0
 43 46  1  0  0  0  0
 43 47  1  0  0  0  0
 43 48  1  0  0  0  0
 11 14  1  0  0  0  0
 11 15  1  0  0  0  0
 11 16  1  0  0  0  0
 50 52  1  0  0  0  0
 50 53  1  0  0  0  0
 50 54  1  0  0  0  0
 22 30  1  0  0  0  0
 22 31  1  0  0  0  0
 23 32  1  0  0  0  0
 23 33  1  0  0  0  0
 21 28  1  0  0  0  0
 21 29  1  0  0  0  0
 24 34  1  0  0  0  0
 24 35  1  0  0  0  0
 40 45  1  0  0  0  0
  8 13  1  0  0  0  0
 18 27  1  0  0  0  0
 49 51  1  0  0  0  0
  7 12  1  0  0  0  0
 39 44  1  0  0  0  0
 17 26  1  0  0  0  0
 25 36  1  0  0  0  0
 25 37  1  0  0  0  0
 25 38  1  0  0  0  0
M  CHG  1  25   1
M  END
$$$$

  -OEChem-05262214473D

 54 53  0     1  0  0  0  0  0999 V2000
    2.6714    2.8829   -3.0005 C   0  0  0  0  0  0  0  0  0  0  0  0
    3.1741    2.4398   -1.9745 O   0  0  0  0  0  0  0  0  0  0  0  0
    3.5527    3.3077   -4.1279 C   0  0  0  0  0  0  0  0  0  0  0  0
    3.8407    4.3691   -4.0597 H   0  0  0  0  0  0  0  0  0  0  0  0
    4.5024    2.7495   -4.1526 H   0  0  0  0  0  0  0  0  0  0  0  0
    3.1208    3.1887   -5.1345 H   0  0  0  0  0  0  0  0  0  0  0  0
    1.3174    3.0407   -3.2467 N   0  0  0  0  0  0  0  0  0  0  0  0
    0.2944    2.6927   -2.2960 C   0  0  2  0  0  0  0  0  0  0  0  0
    0.2976    1.1783   -2.1349 C   0  0  0  0  0  0  0  0  0  0  0  0
    0.7500    0.4142   -2.9850 O   0  0  0  0  0  0  0  0  0  0  0  0
   -1.0710    3.1886   -2.7460 C   0  0  0  0  0  0  0  0  0  0  0  0
    1.0312    3.4224   -4.1464 H   0  0  0  0  0  0  0  0  0  0  0  0
    0.5725    3.1622   -1.3461 H   0  0  0  0  0  0  0  0  0  0  0  0
   -1.3666    2.7292   -3.6963 H   0  0  0  0  0  0  0  0  0  0  0  0
   -1.8434    2.9482   -2.0082 H   0  0  0  0  0  0  0  0  0  0  0  0
   -1.0632    4.2744   -2.8901 H   0  0  0  0  0  0  0  0  0  0  0  0
   -0.3037    0.7742   -0.9484 N   0  0  0  0  0  0  0  0  0  0  0  0
   -0.4352   -0.6095   -0.5718 C   0  0  2  0  0  0  0  0  0  0  0  0
   -1.9161   -0.9369   -0.4105 C   0  0  0  0  0  0  0  0  0  0  0  0
   -2.4080   -1.3106    0.6524 O   0  0  0  0  0  0  0  0  0  0  0  0
    0.3886   -0.9446    0.6771 C   0  0  0  0  0  0  0  0  0  0  0  0
    1.9064   -0.8850    0.4605 C   0  0  0  0  0  0  0  0  0  0  0  0
    2.6620   -1.2540    1.7392 C   0  0  0  0  0  0  0  0  0  0  0  0
    4.1664   -1.1701    1.5277 C   0  0  0  0  0  0  0  0  0  0  0  0
    4.8551   -1.5113    2.7956 N   0  3  0  0  0  0  0  0  0  0  0  0
   -0.6336    1.4811   -0.2948 H   0  0  0  0  0  0  0  0  0  0  0  0
   -0.0508   -1.1889   -1.4199 H   0  0  0  0  0  0  0  0  0  0  0  0
    0.1179   -0.2441    1.4777 H   0  0  0  0  0  0  0  0  0  0  0  0
    0.1207   -1.9473    1.0325 H   0  0  0  0  0  0  0  0  0  0  0  0
    2.1976   -1.5741   -0.3408 H   0  0  0  0  0  0  0  0  0  0  0  0
    2.2009    0.1229    0.1456 H   0  0  0  0  0  0  0  0  0  0  0  0
    2.3863   -2.2699    2.0485 H   0  0  0  0  0  0  0  0  0  0  0  0
    2.3626   -0.5789    2.5505 H   0  0  0  0  0  0  0  0  0  0  0  0
    4.5151   -1.8836    0.7751 H   0  0  0  0  0  0  0  0  0  0  0  0
    4.4864   -0.1603    1.2544 H   0  0  0  0  0  0  0  0  0  0  0  0
    5.8179   -1.1572    2.7981 H   0  0  0  0  0  0  0  0  0  0  0  0
    4.8927   -2.5277    2.9311 H   0  0  0  0  0  0  0  0  0  0  0  0
    4.3669   -1.1036    3.6006 H   0  0  0  0  0  0  0  0  0  0  0  0
   -2.6308   -0.7321   -1.5819 N   0  0  0  0  0  0  0  0  0  0  0  0
   -4.0537   -0.9602   -1.6648 C   0  0  2  0  0  0  0  0  0  0  0  0
   -4.4461   -0.9543   -3.1364 C   0  0  0  0  0  0  0  0  0  0  0  0
   -3.7751   -0.4045   -4.0073 O   0  0  0  0  0  0  0  0  0  0  0  0
   -4.8292    0.0948   -0.8912 C   0  0  0  0  0  0  0  0  0  0  0  0
   -2.1362   -0.4108   -2.4089 H   0  0  0  0  0  0  0  0  0  0  0  0
   -4.2401   -1.9528   -1.2405 H   0  0  0  0  0  0  0  0  0  0  0  0
   -4.6550    1.0960   -1.3019 H   0  0  0  0  0  0  0  0  0  0  0  0
   -5.9067   -0.0960   -0.9313 H   0  0  0  0  0  0  0  0  0  0  0  0
   -4.5244    0.1093    0.1607 H   0  0  0  0  0  0  0  0  0  0  0  0
   -5.6557   -1.5981   -3.3566 N   0  0  0  0  0  0  0  0  0  0  0  0
   -6.2491   -1.7153   -4.6681 C   0  0  0  0  0  0  0  0  0  0  0  0
   -6.1344   -2.0420   -2.5784 H   0  0  0  0  0  0  0  0  0  0  0  0
   -6.9381   -0.8744   -4.8359 H   0  0  0  0  0  0  0  0  0  0  0  0
   -5.4573   -1.6984   -5.4315 H   0  0  0  0  0  0  0  0  0  0  0  0
   -6.8038   -2.6628   -4.7361 H   0  0  0  0  0  0  0  0  0  0  0  0
  1  3  1  0  0  0  0
  1  7  1  0  0  0  0
  1  2  2  0  0  0  0
 40 41  1  0  0  0  0
 41 49  1  0  0  0  0
 41 42  2  0  0  0  0
  8  9  1  0  0  0  0
  9 17  1  0  0  0  0
  9 10  2  0  0  0  0
 18 19  1  0  0  0  0
 19 39  1  0  0  0  0
 19 20  2  0  0  0  0
 40 43  1  0  0  0  0
  8 11  1  0  0  0  0
 49 50  1  0  0  0  0
 22 23  1  0  0  0  0
 21 22  1  0  0  0  0
 23 24  1  0  0  0  0
 18 21  1  0  0  0  0
 24 25  1  0  0  0  0
 39 40  1  0  0  0  0
  7  8  1  0  0  0  0
 17 18  1  0  0  0  0
  3  4  1  0  0  0  0
  3  5  1  0  0  0  0
  3  6  1  0  0  0  0
 43 46  1  0  0  0  0
 43 47  1  0  0  0  0
 43 48  1  0  0  0  0
 11 14  1  0  0  0  0
 11 15  1  0  0  0  0
 11 16  1  0  0  0  0
 50 52  1  0  0  0  0
 50 53  1  0  0  0  0
 50 54  1  0  0  0  0
 22 30  1  0  0  0  0
 22 31  1  0  0  0  0
 23 32  1  0  0  0  0
 23 33  1  0  0  0  0
 21 28  1  0  0  0  0
 21 29  1  0  0  0  0
 24 34  1  0  0  0  0
 24 35  1  0  0  0  0
 40 45  1  0  0  0  0
  8 13  1  0  0  0  0
 18 27  1  0  0  0  0
 49 51  1  0  0  0  0
  7 12  1  0  0  0  0
 39 44  1  0  0  0  0
 17 26  1  0  0  0  0
 25 36  1  0  0  0  0
 25 37  1  0  0  0  0
 25 38  1  0  0  0  0
M  CHG  1  25   1
M  END
$$$$

  -OEChem-05262214473D

 54 53  0     1  0  0  0  0  0999 V2000
    2.6714    2.8829   -3.0005 C   0  0  0  0  0  0  0  0  0  0  0  0
    3.1741    2.4398   -1.9745 O   0  0  0  0  0  0  0  0  0  0  0  0
    3.5527    3.3077   -4.1279 C   0  0  0  0  0  0  0  0  0  0  0  0
    3.8407    4.3691   -4.0597 H   0  0  0  0  0  0  0  0  0  0  0  0
    4.5024    2.7495   -4.1526 H   0  0  0  0  0  0  0  0  0  0  0  0
    3.1208    3.1887   -5.1345 H   0  0  0  0  0  0  0  0  0  0  0  0
    1.3174    3.0407   -3.2467 N   0  0  0  0  0  0  0  0  0  0  0  0
    0.2944    2.6927   -2.2960 C   0  0  2  0  0  0  0  0  0  0  0  0
    0.2976    1.1783   -2.1349 C   0  0  0  0  0  0  0  0  0  0  0  0
    0.7500    0.4142   -2.9850 O   0  0  0  0  0  0  0  0  0  0  0  0
   -1.0710    3.1886   -2.7460 C   0  0  0  0  0  0  0  0  0  0  0  0
    1.0312    3.4224   -4.1464 H   0  0  0  0  0  0  0  0  0  0  0  0
    0.5725    3.1622   -1.3461 H   0  0  0  0  0  0  0  0  0  0  0  0
   -1.3666    2.7292   -3.6963 H   0  0  0  0  0  0  0  0  0  0  0  0
   -1.8434    2.9482   -2.0082 H   0  0  0  0  0  0  0  0  0  0  0  0
   -1.0632    4.2744   -2.8901 H   0  0  0  0  0  0  0  0  0  0  0  0
   -0.3037    0.7742   -0.9484 N   0  0  0  0  0  0  0  0  0  0  0  0
   -0.4352   -0.6095   -0.5718 C   0  0  2  0  0  0  0  0  0  0  0  0
   -1.9161   -0.9369   -0.4105 C   0  0  0  0  0  0  0  0  0  0  0  0
   -2.4622   -1.0491    0.6852 O   0  0  0  0  0  0  0  0  0  0  0  0
    0.3886   -0.9446    0.6771 C   0  0  0  0  0  0  0  0  0  0  0  0
    1.9064   -0.8850    0.4605 C   0  0  0  0  0  0  0  0  0  0  0  0
    2.6620   -1.2540    1.7392 C   0  0  0  0  0  0  0  0  0  0  0  0
    4.1664   -1.1701    1.5277 C   0  0  0  0  0  0  0  0  0  0  0  0
    4.8551   -1.5113    2.7956 N   0  3  0  0  0  0  0  0  0  0  0  0
   -0.6336    1.4811   -0.2948 H   0  0  0  0  0  0  0  0  0  0  0  0
   -0.0508   -1.1889   -1.4199 H   0  0  0  0  0  0  0  0  0  0  0  0
    0.1179   -0.2441    1.4777 H   0  0  0  0  0  0  0  0  0  0  0  0
    0.1207   -1.9473    1.0325 H   0  0  0  0  0  0  0  0  0  0  0  0
    2.1976   -1.5741   -0.3408 H   0  0  0  0  0  0  0  0  0  0  0  0
    2.2009    0.1229    0.1456 H   0  0  0  0  0  0  0  0  0  0  0  0
    2.3863   -2.2699    2.0485 H   0  0  0  0  0  0  0  0  0  0  0  0
    2.3626   -0.5789    2.5505 H   0  0  0  0  0  0  0  0  0  0  0  0
    4.5151   -1.8836    0.7751 H   0  0  0  0  0  0  0  0  0  0  0  0
    4.4864   -0.1603    1.2544 H   0  0  0  0  0  0  0  0  0  0  0  0
    5.8179   -1.1572    2.7981 H   0  0  0  0  0  0  0  0  0  0  0  0
    4.8927   -2.5277    2.9311 H   0  0  0  0  0  0  0  0  0  0  0  0
    4.3669   -1.1036    3.6006 H   0  0  0  0  0  0  0  0  0  0  0  0
   -2.5643   -1.0568   -1.6313 N   0  0  0  0  0  0  0  0  0  0  0  0
   -3.9750   -1.3474   -1.7280 C   0  0  2  0  0  0  0  0  0  0  0  0
   -4.2798   -1.7238   -3.1719 C   0  0  0  0  0  0  0  0  0  0  0  0
   -3.5698   -1.3869   -4.1171 O   0  0  0  0  0  0  0  0  0  0  0  0
   -4.8161   -0.1596   -1.2868 C   0  0  0  0  0  0  0  0  0  0  0  0
   -2.0284   -0.9361   -2.4856 H   0  0  0  0  0  0  0  0  0  0  0  0
   -4.1660   -2.2079   -1.0775 H   0  0  0  0  0  0  0  0  0  0  0  0
   -4.6382    0.7122   -1.9269 H   0  0  0  0  0  0  0  0  0  0  0  0
   -5.8852   -0.3914   -1.3335 H   0  0  0  0  0  0  0  0  0  0  0  0
   -4.5742    0.1285   -0.2581 H   0  0  0  0  0  0  0  0  0  0  0  0
   -5.4610   -2.4436   -3.2853 N   0  0  0  0  0  0  0  0  0  0  0  0
   -5.9734   -2.9060   -4.5541 C   0  0  0  0  0  0  0  0  0  0  0  0
   -5.9757   -2.6946   -2.4464 H   0  0  0  0  0  0  0  0  0  0  0  0
   -6.6681   -2.1582   -4.9640 H   0  0  0  0  0  0  0  0  0  0  0  0
   -5.1384   -3.0536   -5.2548 H   0  0  0  0  0  0  0  0  0  0  0  0
   -6.5038   -3.8589   -4.4098 H   0  0  0  0  0  0  0  0  0  0  0  0
  1  3  1  0  0  0  0
  1  7  1  0  0  0  0
  1  2  2  0  0  0  0
 40 41  1  0  0  0  0
 41 49  1  0  0  0  0
 41 42  2  0  0  0  0
  8  9  1  0  0  0  0
  9 17  1  0  0  0  0
  9 10  2  0  0  0  0
 18 19  1  0  0  0  0
 19 39  1  0  0  0  0
 19 20  2  0  0  0  0
 40 43  1  0  0  0  0
  8 11  1  0  0  0  0
 49 50  1  0  0  0  0
 22 23  1  0  0  0  0
 21 22  1  0  0  0  0
 23 24  1  0  0  0  0
 18 21  1  0  0  0  0
 24 25  1  0  0  0  0
 39 40  1  0  0  0  0
  7  8  1  0  0  0  0
 17 18  1  0  0  0  0
  3  4  1  0  0  0  0
  3  5  1  0  0  0  0
  3  6  1  0  0  0  0
 43 46  1  0  0  0  0
 43 47  1  0  0  0  0
 43 48  1  0  0  0  0
 11 14  1  0  0  0  0
 11 15  1  0  0  0  0
 11 16  1  0  0  0  0
 50 52  1  0  0  0  0
 50 53  1  0  0  0  0
 50 54  1  0  0  0  0
 22 30  1  0  0  0  0
 22 31  1  0  0  0  0
 23 32  1  0  0  0  0
 23 33  1  0  0  0  0
 21 28  1  0  0  0  0
 21 29  1  0  0  0  0
 24 34  1  0  0  0  0
 24 35  1  0  0  0  0
 40 45  1  0  0  0  0
  8 13  1  0  0  0  0
 18 27  1  0  0  0  0
 49 51  1  0  0  0  0
  7 12  1  0  0  0  0
 39 44  1  0  0  0  0
 17 26  1  0  0  0  0
 25 36  1  0  0  0  0
 25 37  1  0  0  0  0
 25 38  1  0  0  0  0
M  CHG  1  25   1
M  END
$$$$

  -OEChem-05262214473D

 54 53  0     1  0  0  0  0  0999 V2000
    2.6714    2.8829   -3.0005 C   0  0  0  0  0  0  0  0  0  0  0  0
    3.1741    2.4398   -1.9745 O   0  0  0  0  0  0  0  0  0  0  0  0
    3.5527    3.3077   -4.1279 C   0  0  0  0  0  0  0  0  0  0  0  0
    3.8407    4.3691   -4.0597 H   0  0  0  0  0  0  0  0  0  0  0  0
    4.5024    2.7495   -4.1526 H   0  0  0  0  0  0  0  0  0  0  0  0
    3.1208    3.1887   -5.1345 H   0  0  0  0  0  0  0  0  0  0  0  0
    1.3174    3.0407   -3.2467 N   0  0  0  0  0  0  0  0  0  0  0  0
    0.2944    2.6927   -2.2960 C   0  0  2  0  0  0  0  0  0  0  0  0
    0.2976    1.1783   -2.1349 C   0  0  0  0  0  0  0  0  0  0  0  0
    0.7500    0.4142   -2.9850 O   0  0  0  0  0  0  0  0  0  0  0  0
   -1.0710    3.1886   -2.7460 C   0  0  0  0  0  0  0  0  0  0  0  0
    1.0312    3.4224   -4.1464 H   0  0  0  0  0  0  0  0  0  0  0  0
    0.5725    3.1622   -1.3461 H   0  0  0  0  0  0  0  0  0  0  0  0
   -1.3666    2.7292   -3.6963 H   0  0  0  0  0  0  0  0  0  0  0  0
   -1.8434    2.9482   -2.0082 H   0  0  0  0  0  0  0  0  0  0  0  0
   -1.0632    4.2744   -2.8901 H   0  0  0  0  0  0  0  0  0  0  0  0
   -0.3037    0.7742   -0.9484 N   0  0  0  0  0  0  0  0  0  0  0  0
   -0.4352   -0.6095   -0.5718 C   0  0  2  0  0  0  0  0  0  0  0  0
   -1.9161   -0.9369   -0.4105 C   0  0  0  0  0  0  0  0  0  0  0  0
   -2.5236   -0.7898    0.6481 O   0  0  0  0  0  0  0  0  0  0  0  0
    0.3886   -0.9446    0.6771 C   0  0  0  0  0  0  0  0  0  0  0  0
    1.9064   -0.8850    0.4605 C   0  0  0  0  0  0  0  0  0  0  0  0
    2.6620   -1.2540    1.7392 C   0  0  0  0  0  0  0  0  0  0  0  0
    4.1664   -1.1701    1.5277 C   0  0  0  0  0  0  0  0  0  0  0  0
    4.8551   -1.5113    2.7956 N   0  3  0  0  0  0  0  0  0  0  0  0
   -0.6336    1.4811   -0.2948 H   0  0  0  0  0  0  0  0  0  0  0  0
   -0.0508   -1.1889   -1.4199 H   0  0  0  0  0  0  0  0  0  0  0  0
    0.1179   -0.2441    1.4777 H   0  0  0  0  0  0  0  0  0  0  0  0
    0.1207   -1.9473    1.0325 H   0  0  0  0  0  0  0  0  0  0  0  0
    2.1976   -1.5741   -0.3408 H   0  0  0  0  0  0  0  0  0  0  0  0
    2.2009    0.1229    0.1456 H   0  0  0  0  0  0  0  0  0  0  0  0
    2.3863   -2.2699    2.0485 H   0  0  0  0  0  0  0  0  0  0  0  0
    2.3626   -0.5789    2.5505 H   0  0  0  0  0  0  0  0  0  0  0  0
    4.5151   -1.8836    0.7751 H   0  0  0  0  0  0  0  0  0  0  0  0
    4.4864   -0.1603    1.2544 H   0  0  0  0  0  0  0  0  0  0  0  0
    5.8179   -1.1572    2.7981 H   0  0  0  0  0  0  0  0  0  0  0  0
    4.8927   -2.5277    2.9311 H   0  0  0  0  0  0  0  0  0  0  0  0
    4.3669   -1.1036    3.6006 H   0  0  0  0  0  0  0  0  0  0  0  0
   -2.4885   -1.3811   -1.5937 N   0  0  0  0  0  0  0  0  0  0  0  0
   -3.8848   -1.7351   -1.6873 C   0  0  2  0  0  0  0  0  0  0  0  0
   -4.0961   -2.4715   -3.0036 C   0  0  0  0  0  0  0  0  0  0  0  0
   -3.3385   -2.3579   -3.9649 O   0  0  0  0  0  0  0  0  0  0  0  0
   -4.7744   -0.5044   -1.6042 C   0  0  0  0  0  0  0  0  0  0  0  0
   -1.9056   -1.4599   -2.4217 H   0  0  0  0  0  0  0  0  0  0  0  0
   -4.0964   -2.4112   -0.8518 H   0  0  0  0  0  0  0  0  0  0  0  0
   -4.5768    0.1849   -2.4332 H   0  0  0  0  0  0  0  0  0  0  0  0
   -5.8340   -0.7772   -1.6466 H   0  0  0  0  0  0  0  0  0  0  0  0
   -4.5996    0.0404   -0.6702 H   0  0  0  0  0  0  0  0  0  0  0  0
   -5.2537   -3.2370   -2.9933 N   0  0  0  0  0  0  0  0  0  0  0  0
   -5.6808   -4.0199   -4.1294 C   0  0  0  0  0  0  0  0  0  0  0  0
   -5.8119   -3.2875   -2.1462 H   0  0  0  0  0  0  0  0  0  0  0  0
   -6.3651   -3.4231   -4.7502 H   0  0  0  0  0  0  0  0  0  0  0  0
   -4.8030   -4.3095   -4.7258 H   0  0  0  0  0  0  0  0  0  0  0  0
   -6.1993   -4.9240   -3.7774 H   0  0  0  0  0  0  0  0  0  0  0  0
  1  3  1  0  0  0  0
  1  7  1  0  0  0  0
  1  2  2  0  0  0  0
 40 41  1  0  0  0  0
 41 49  1  0  0  0  0
 41 42  2  0  0  0  0
  8  9  1  0  0  0  0
  9 17  1  0  0  0  0
  9 10  2  0  0  0  0
 18 19  1  0  0  0  0
 19 39  1  0  0  0  0
 19 20  2  0  0  0  0
 40 43  1  0  0  0  0
  8 11  1  0  0  0  0
 49 50  1  0  0  0  0
 22 23  1  0  0  0  0
 21 22  1  0  0  0  0
 23 24  1  0  0  0  0
 18 21  1  0  0  0  0
 24 25  1  0  0  0  0
 39 40  1  0  0  0  0
  7  8  1  0  0  0  0
 17 18  1  0  0  0  0
  3  4  1  0  0  0  0
  3  5  1  0  0  0  0
  3  6  1  0  0  0  0
 43 46  1  0  0  0  0
 43 47  1  0  0  0  0
 43 48  1  0  0  0  0
 11 14  1  0  0  0  0
 11 15  1  0  0  0  0
 11 16  1  0  0  0  0
 50 52  1  0  0  0  0
 50 53  1  0  0  0  0
 50 54  1  0  0  0  0
 22 30  1  0  0  0  0
 22 31  1  0  0  0  0
 23 32  1  0  0  0  0
 23 33  1  0  0  0  0
 21 28  1  0  0  0  0
 21 29  1  0  0  0  0
 24 34  1  0  0  0  0
 24 35  1  0  0  0  0
 40 45  1  0  0  0  0
  8 13  1  0  0  0  0
 18 27  1  0  0  0  0
 49 51  1  0  0  0  0
  7 12  1  0  0  0  0
 39 44  1  0  0  0  0
 17 26  1  0  0  0  0
 25 36  1  0  0  0  0
 25 37  1  0  0  0  0
 25 38  1  0  0  0  0
M  CHG  1  25   1
M  END
$$$$

  -OEChem-05262214473D

 54 53  0     1  0  0  0  0  0999 V2000
    2.6714    2.8829   -3.0005 C   0  0  0  0  0  0  0  0  0  0  0  0
    3.1741    2.4398   -1.9745 O   0  0  0  0  0  0  0  0  0  0  0  0
    3.5527    3.3077   -4.1279 C   0  0  0  0  0  0  0  0  0  0  0  0
    3.8407    4.3691   -4.0597 H   0  0  0  0  0  0  0  0  0  0  0  0
    4.5024    2.7495   -4.1526 H   0  0  0  0  0  0  0  0  0  0  0  0
    3.1208    3.1887   -5.1345 H   0  0  0  0  0  0  0  0  0  0  0  0
    1.3174    3.0407   -3.2467 N   0  0  0  0  0  0  0  0  0  0  0  0
    0.2944    2.6927   -2.2960 C   0  0  2  0  0  0  0  0  0  0  0  0
    0.2976    1.1783   -2.1349 C   0  0  0  0  0  0  0  0  0  0  0  0
    0.7500    0.4142   -2.9850 O   0  0  0  0  0  0  0  0  0  0  0  0
   -1.0710    3.1886   -2.7460 C   0  0  0  0  0  0  0  0  0  0  0  0
    1.0312    3.4224   -4.1464 H   0  0  0  0  0  0  0  0  0  0  0  0
    0.5725    3.1622   -1.3461 H   0  0  0  0  0  0  0  0  0  0  0  0
   -1.3666    2.7292   -3.6963 H   0  0  0  0  0  0  0  0  0  0  0  0
   -1.8434    2.9482   -2.0082 H   0  0  0  0  0  0  0  0  0  0  0  0
   -1.0632    4.2744   -2.8901 H   0  0  0  0  0  0  0  0  0  0  0  0
   -0.3037    0.7742   -0.9484 N   0  0  0  0  0  0  0  0  0  0  0  0
   -0.4352   -0.6095   -0.5718 C   0  0  2  0  0  0  0  0  0  0  0  0
   -1.9161   -0.9369   -0.4105 C   0  0  0  0  0  0  0  0  0  0  0  0
   -2.5880   -0.5503    0.5437 O   0  0  0  0  0  0  0  0  0  0  0  0
    0.3886   -0.9446    0.6771 C   0  0  0  0  0  0  0  0  0  0  0  0
    1.9064   -0.8850    0.4605 C   0  0  0  0  0  0  0  0  0  0  0  0
    2.6620   -1.2540    1.7392 C   0  0  0  0  0  0  0  0  0  0  0  0
    4.1664   -1.1701    1.5277 C   0  0  0  0  0  0  0  0  0  0  0  0
    4.8551   -1.5113    2.7956 N   0  3  0  0  0  0  0  0  0  0  0  0
   -0.6336    1.4811   -0.2948 H   0  0  0  0  0  0  0  0  0  0  0  0
   -0.0508   -1.1889   -1.4199 H   0  0  0  0  0  0  0  0  0  0  0  0
    0.1179   -0.2441    1.4777 H   0  0  0  0  0  0  0  0  0  0  0  0
    0.1207   -1.9473    1.0325 H   0  0  0  0  0  0  0  0  0  0  0  0
    2.1976   -1.5741   -0.3408 H   0  0  0  0  0  0  0  0  0  0  0  0
    2.2009    0.1229    0.1456 H   0  0  0  0  0  0  0  0  0  0  0  0
    2.3863   -2.2699    2.0485 H   0  0  0  0  0  0  0  0  0  0  0  0
    2.3626   -0.5789    2.5505 H   0  0  0  0  0  0  0  0  0  0  0  0
    4.5151   -1.8836    0.7751 H   0  0  0  0  0  0  0  0  0  0  0  0
    4.4864   -0.1603    1.2544 H   0  0  0  0  0  0  0  0  0  0  0  0
    5.8179   -1.1572    2.7981 H   0  0  0  0  0  0  0  0  0  0  0  0
    4.8927   -2.5277    2.9311 H   0  0  0  0  0  0  0  0  0  0  0  0
    4.3669   -1.1036    3.6006 H   0  0  0  0  0  0  0  0  0  0  0  0
   -2.4085   -1.6828   -1.4717 N   0  0  0  0  0  0  0  0  0  0  0  0
   -3.7894   -2.0969   -1.5456 C   0  0  2  0  0  0  0  0  0  0  0  0
   -3.9076   -3.1464   -2.6429 C   0  0  0  0  0  0  0  0  0  0  0  0
   -3.0970   -3.2512   -3.5610 O   0  0  0  0  0  0  0  0  0  0  0  0
   -4.7071   -0.9161   -1.8218 C   0  0  0  0  0  0  0  0  0  0  0  0
   -1.7763   -1.9464   -2.2216 H   0  0  0  0  0  0  0  0  0  0  0  0
   -4.0362   -2.5490   -0.5788 H   0  0  0  0  0  0  0  0  0  0  0  0
   -4.4748   -0.4501   -2.7864 H   0  0  0  0  0  0  0  0  0  0  0  0
   -5.7566   -1.2271   -1.8493 H   0  0  0  0  0  0  0  0  0  0  0  0
   -4.5989   -0.1489   -1.0475 H   0  0  0  0  0  0  0  0  0  0  0  0
   -5.0480   -3.9244   -2.5003 N   0  0  0  0  0  0  0  0  0  0  0  0
   -5.3913   -4.9812   -3.4230 C   0  0  0  0  0  0  0  0  0  0  0  0
   -5.6542   -3.7802   -1.6980 H   0  0  0  0  0  0  0  0  0  0  0  0
   -6.0497   -4.5829   -4.2090 H   0  0  0  0  0  0  0  0  0  0  0  0
   -4.4741   -5.3805   -3.8806 H   0  0  0  0  0  0  0  0  0  0  0  0
   -5.9113   -5.7855   -2.8820 H   0  0  0  0  0  0  0  0  0  0  0  0
  1  3  1  0  0  0  0
  1  7  1  0  0  0  0
  1  2  2  0  0  0  0
 40 41  1  0  0  0  0
 41 49  1  0  0  0  0
 41 42  2  0  0  0  0
  8  9  1  0  0  0  0
  9 17  1  0  0  0  0
  9 10  2  0  0  0  0
 18 19  1  0  0  0  0
 19 39  1  0  0  0  0
 19 20  2  0  0  0  0
 40 43  1  0  0  0  0
  8 11  1  0  0  0  0
 49 50  1  0  0  0  0
 22 23  1  0  0  0  0
 21 22  1  0  0  0  0
 23 24  1  0  0  0  0
 18 21  1  0  0  0  0
 24 25  1  0  0  0  0
 39 40  1  0  0  0  0
  7  8  1  0  0  0  0
 17 18  1  0  0  0  0
  3  4  1  0  0  0  0
  3  5  1  0  0  0  0
  3  6  1  0  0  0  0
 43 46  1  0  0  0  0
 43 47  1  0  0  0  0
 43 48  1  0  0  0  0
 11 14  1  0  0  0  0
 11 15  1  0  0  0  0
 11 16  1  0  0  0  0
 50 52  1  0  0  0  0
 50 53  1  0  0  0  0
 50 54  1  0  0  0  0
 22 30  1  0  0  0  0
 22 31  1  0  0  0  0
 23 32  1  0  0  0  0
 23 33  1  0  0  0  0
 21 28  1  0  0  0  0
 21 29  1  0  0  0  0
 24 34  1  0  0  0  0
 24 35  1  0  0  0  0
 40 45  1  0  0  0  0
  8 13  1  0  0  0  0
 18 27  1  0  0  0  0
 49 51  1  0  0  0  0
  7 12  1  0  0  0  0
 39 44  1  0  0  0  0
 17 26  1  0  0  0  0
 25 36  1  0  0  0  0
 25 37  1  0  0  0  0
 25 38  1  0  0  0  0
M  CHG  1  25   1
M  END
$$$$

  -OEChem-05262214473D

 54 53  0     1  0  0  0  0  0999 V2000
    2.6714    2.8829   -3.0005 C   0  0  0  0  0  0  0  0  0  0  0  0
    3.1741    2.4398   -1.9745 O   0  0  0  0  0  0  0  0  0  0  0  0
    3.5527    3.3077   -4.1279 C   0  0  0  0  0  0  0  0  0  0  0  0
    3.8407    4.3691   -4.0597 H   0  0  0  0  0  0  0  0  0  0  0  0
    4.5024    2.7495   -4.1526 H   0  0  0  0  0  0  0  0  0  0  0  0
    3.1208    3.1887   -5.1345 H   0  0  0  0  0  0  0  0  0  0  0  0
    1.3174    3.0407   -3.2467 N   0  0  0  0  0  0  0  0  0  0  0  0
    0.2944    2.6927   -2.2960 C   0  0  2  0  0  0  0  0  0  0  0  0
    0.2976    1.1783   -2.1349 C   0  0  0  0  0  0  0  0  0  0  0  0
    0.7500    0.4142   -2.9850 O   0  0  0  0  0  0  0  0  0  0  0  0
   -1.0710    3.1886   -2.7460 C   0  0  0  0  0  0  0  0  0  0  0  0
    1.0312    3.4224   -4.1464 H   0  0  0  0  0  0  0  0  0  0  0  0
    0.5725    3.1622   -1.3461 H   0  0  0  0  0  0  0  0  0  0  0  0
   -1.3666    2.7292   -3.6963 H   0  0  0  0  0  0  0  0  0  0  0  0
   -1.8434    2.9482   -2.0082 H   0  0  0  0  0  0  0  0  0  0  0  0
   -1.0632    4.2744   -2.8901 H   0  0  0  0  0  0  0  0  0  0  0  0
   -0.3037    0.7742   -0.9484 N   0  0  0  0  0  0  0  0  0  0  0  0
   -0.4352   -0.6095   -0.5718 C   0  0  2  0  0  0  0  0  0  0  0  0
   -1.9161   -0.9369   -0.4105 C   0  0  0  0  0  0  0  0  0  0  0  0
   -2.6508   -0.3470    0.3791 O   0  0  0  0  0  0  0  0  0  0  0  0
    0.3886   -0.9446    0.6771 C   0  0  0  0  0  0  0  0  0  0  0  0
    1.9064   -0.8850    0.4605 C   0  0  0  0  0  0  0  0  0  0  0  0
    2.6620   -1.2540    1.7392 C   0  0  0  0  0  0  0  0  0  0  0  0
    4.1664   -1.1701    1.5277 C   0  0  0  0  0  0  0  0  0  0  0  0
    4.8551   -1.5113    2.7956 N   0  3  0  0  0  0  0  0  0  0  0  0
   -0.6336    1.4811   -0.2948 H   0  0  0  0  0  0  0  0  0  0  0  0
   -0.0508   -1.1889   -1.4199 H   0  0  0  0  0  0  0  0  0  0  0  0
    0.1179   -0.2441    1.4777 H   0  0  0  0  0  0  0  0  0  0  0  0
    0.1207   -1.9473    1.0325 H   0  0  0  0  0  0  0  0  0  0  0  0
    2.1976   -1.5741   -0.3408 H   0  0  0  0  0  0  0  0  0  0  0  0
    2.2009    0.1229    0.1456 H   0  0  0  0  0  0  0  0  0  0  0  0
    2.3863   -2.2699    2.0485 H   0  0  0  0  0  0  0  0  0  0  0  0
    2.3626   -0.5789    2.5505 H   0  0  0  0  0  0  0  0  0  0  0  0
    4.5151   -1.8836    0.7751 H   0  0  0  0  0  0  0  0  0  0  0  0
    4.4864   -0.1603    1.2544 H   0  0  0  0  0  0  0  0  0  0  0  0
    5.8179   -1.1572    2.7981 H   0  0  0  0  0  0  0  0  0  0  0  0
    4.8927   -2.5277    2.9311 H   0  0  0  0  0  0  0  0  0  0  0  0
    4.3669   -1.1036    3.6006 H   0  0  0  0  0  0  0  0  0  0  0  0
   -2.3298   -1.9414   -1.2736 N   0  0  0  0  0  0  0  0  0  0  0  0
   -3.6952   -2.4081   -1.3126 C   0  0  2  0  0  0  0  0  0  0  0  0
   -3.7271   -3.7025   -2.1144 C   0  0  0  0  0  0  0  0  0  0  0  0
   -2.8617   -4.0060   -2.9330 O   0  0  0  0  0  0  0  0  0  0  0  0
   -4.6187   -1.3665   -1.9249 C   0  0  0  0  0  0  0  0  0  0  0  0
   -1.6491   -2.3625   -1.8989 H   0  0  0  0  0  0  0  0  0  0  0  0
   -3.9895   -2.6119   -0.2772 H   0  0  0  0  0  0  0  0  0  0  0  0
   -4.3394   -1.1493   -2.9623 H   0  0  0  0  0  0  0  0  0  0  0  0
   -5.6582   -1.7105   -1.9276 H   0  0  0  0  0  0  0  0  0  0  0  0
   -4.5720   -0.4266   -1.3644 H   0  0  0  0  0  0  0  0  0  0  0  0
   -4.8579   -4.4588   -1.8399 N   0  0  0  0  0  0  0  0  0  0  0  0
   -5.1246   -5.7242   -2.4830 C   0  0  0  0  0  0  0  0  0  0  0  0
   -5.5132   -4.1392   -1.1326 H   0  0  0  0  0  0  0  0  0  0  0  0
   -5.7434   -5.5585   -3.3772 H   0  0  0  0  0  0  0  0  0  0  0  0
   -4.1741   -6.1935   -2.7768 H   0  0  0  0  0  0  0  0  0  0  0  0
   -5.6592   -6.3848   -1.7846 H   0  0  0  0  0  0  0  0  0  0  0  0
  1  3  1  0  0  0  0
  1  7  1  0  0  0  0
  1  2  2  0  0  0  0
 40 41  1  0  0  0  0
 41 49  1  0  0  0  0
 41 42  2  0  0  0  0
  8  9  1  0  0  0  0
  9 17  1  0  0  0  0
  9 10  2  0  0  0  0
 18 19  1  0  0  0  0
 19 39  1  0  0  0  0
 19 20  2  0  0  0  0
 40 43  1  0  0  0  0
  8 11  1  0  0  0  0
 49 50  1  0  0  0  0
 22 23  1  0  0  0  0
 21 22  1  0  0  0  0
 23 24  1  0  0  0  0
 18 21  1  0  0  0  0
 24 25  1  0  0  0  0
 39 40  1  0  0  0  0
  7  8  1  0  0  0  0
 17 18  1  0  0  0  0
  3  4  1  0  0  0  0
  3  5  1  0  0  0  0
  3  6  1  0  0  0  0
 43 46  1  0  0  0  0
 43 47  1  0  0  0  0
 43 48  1  0  0  0  0
 11 14  1  0  0  0  0
 11 15  1  0  0  0  0
 11 16  1  0  0  0  0
 50 52  1  0  0  0  0
 50 53  1  0  0  0  0
 50 54  1  0  0  0  0
 22 30  1  0  0  0  0
 22 31  1  0  0  0  0
 23 32  1  0  0  0  0
 23 33  1  0  0  0  0
 21 28  1  0  0  0  0
 21 29  1  0  0  0  0
 24 34  1  0  0  0  0
 24 35  1  0  0  0  0
 40 45  1  0  0  0  0
  8 13  1  0  0  0  0
 18 27  1  0  0  0  0
 49 51  1  0  0  0  0
  7 12  1  0  0  0  0
 39 44  1  0  0  0  0
 17 26  1  0  0  0  0
 25 36  1  0  0  0  0
 25 37  1  0  0  0  0
 25 38  1  0  0  0  0
M  CHG  1  25   1
M  END
$$$$

  -OEChem-05262214473D

 54 53  0     1  0  0  0  0  0999 V2000
    2.6714    2.8829   -3.0005 C   0  0  0  0  0  0  0  0  0  0  0  0
    3.1741    2.4398   -1.9745 O   0  0  0  0  0  0  0  0  0  0  0  0
    3.5527    3.3077   -4.1279 C   0  0  0  0  0  0  0  0  0  0  0  0
    3.8407    4.3691   -4.0597 H   0  0  0  0  0  0  0  0  0  0  0  0
    4.5024    2.7495   -4.1526 H   0  0  0  0  0  0  0  0  0  0  0  0
    3.1208    3.1887   -5.1345 H   0  0  0  0  0  0  0  0  0  0  0  0
    1.3174    3.0407   -3.2467 N   0  0  0  0  0  0  0  0  0  0  0  0
    0.2944    2.6927   -2.2960 C   0  0  2  0  0  0  0  0  0  0  0  0
    0.2976    1.1783   -2.1349 C   0  0  0  0  0  0  0  0  0  0  0  0
    0.7500    0.4142   -2.9850 O   0  0  0  0  0  0  0  0  0  0  0  0
   -1.0710    3.1886   -2.7460 C   0  0  0  0  0  0  0  0  0  0  0  0
    1.0312    3.4224   -4.1464 H   0  0  0  0  0  0  0  0  0  0  0  0
    0.5725    3.1622   -1.3461 H   0  0  0  0  0  0  0  0  0  0  0  0
   -1.3666    2.7292   -3.6963 H   0  0  0  0  0  0  0  0  0  0  0  0
   -1.8434    2.9482   -2.0082 H   0  0  0  0  0  0  0  0  0  0  0  0
   -1.0632    4.2744   -2.8901 H   0  0  0  0  0  0  0  0  0  0  0  0
   -0.3037    0.7742   -0.9484 N   0  0  0  0  0  0  0  0  0  0  0  0
   -0.4352   -0.6095   -0.5718 C   0  0  2  0  0  0  0  0  0  0  0  0
   -1.9161   -0.9369   -0.4105 C   0  0  0  0  0  0  0  0  0  0  0  0
   -2.7080   -0.1936    0.1655 O   0  0  0  0  0  0  0  0  0  0  0  0
    0.3886   -0.9446    0.6771 C   0  0  0  0  0  0  0  0  0  0  0  0
    1.9064   -0.8850    0.4605 C   0  0  0  0  0  0  0  0  0  0  0  0
    2.6620   -1.2540    1.7392 C   0  0  0  0  0  0  0  0  0  0  0  0
    4.1664   -1.1701    1.5277 C   0  0  0  0  0  0  0  0  0  0  0  0
    4.8551   -1.5113    2.7956 N   0  3  0  0  0  0  0  0  0  0  0  0
   -0.6336    1.4811   -0.2948 H   0  0  0  0  0  0  0  0  0  0  0  0
   -0.0508   -1.1889   -1.4199 H   0  0  0  0  0  0  0  0  0  0  0  0
    0.1179   -0.2441    1.4777 H   0  0  0  0  0  0  0  0  0  0  0  0
    0.1207   -1.9473    1.0325 H   0  0  0  0  0  0  0  0  0  0  0  0
    2.1976   -1.5741   -0.3408 H   0  0  0  0  0  0  0  0  0  0  0  0
    2.2009    0.1229    0.1456 H   0  0  0  0  0  0  0  0  0  0  0  0
    2.3863   -2.2699    2.0485 H   0  0  0  0  0  0  0  0  0  0  0  0
    2.3626   -0.5789    2.5505 H   0  0  0  0  0  0  0  0  0  0  0  0
    4.5151   -1.8836    0.7751 H   0  0  0  0  0  0  0  0  0  0  0  0
    4.4864   -0.1603    1.2544 H   0  0  0  0  0  0  0  0  0  0  0  0
    5.8179   -1.1572    2.7981 H   0  0  0  0  0  0  0  0  0  0  0  0
    4.8927   -2.5277    2.9311 H   0  0  0  0  0  0  0  0  0  0  0  0
    4.3669   -1.1036    3.6006 H   0  0  0  0  0  0  0  0  0  0  0  0
   -2.2576   -2.1392   -1.0128 N   0  0  0  0  0  0  0  0  0  0  0  0
   -3.6086   -2.6476   -1.0040 C   0  0  2  0  0  0  0  0  0  0  0  0
   -3.5668   -4.1019   -1.4542 C   0  0  0  0  0  0  0  0  0  0  0  0
   -2.6486   -4.5708   -2.1236 O   0  0  0  0  0  0  0  0  0  0  0  0
   -4.5153   -1.8251   -1.9063 C   0  0  0  0  0  0  0  0  0  0  0  0
   -1.5328   -2.6798   -1.4755 H   0  0  0  0  0  0  0  0  0  0  0  0
   -3.9593   -2.5955    0.0325 H   0  0  0  0  0  0  0  0  0  0  0  0
   -4.1796   -1.8652   -2.9490 H   0  0  0  0  0  0  0  0  0  0  0  0
   -5.5456   -2.1945   -1.8763 H   0  0  0  0  0  0  0  0  0  0  0  0
   -4.5208   -0.7737   -1.5992 H   0  0  0  0  0  0  0  0  0  0  0  0
   -4.6964   -4.8038   -1.0571 N   0  0  0  0  0  0  0  0  0  0  0  0
   -4.8989   -6.1984   -1.3735 C   0  0  0  0  0  0  0  0  0  0  0  0
   -5.3986   -4.3400   -0.4884 H   0  0  0  0  0  0  0  0  0  0  0  0
   -5.4670   -6.2834   -2.3116 H   0  0  0  0  0  0  0  0  0  0  0  0
   -3.9234   -6.6933   -1.4896 H   0  0  0  0  0  0  0  0  0  0  0  0
   -5.4603   -6.6810   -0.5599 H   0  0  0  0  0  0  0  0  0  0  0  0
  1  3  1  0  0  0  0
  1  7  1  0  0  0  0
  1  2  2  0  0  0  0
 40 41  1  0  0  0  0
 41 49  1  0  0  0  0
 41 42  2  0  0  0  0
  8  9  1  0  0  0  0
  9 17  1  0  0  0  0
  9 10  2  0  0  0  0
 18 19  1  0  0  0  0
 19 39  1  0  0  0  0
 19 20  2  0  0  0  0
 40 43  1  0  0  0  0
  8 11  1  0  0  0  0
 49 50  1  0  0  0  0
 22 23  1  0  0  0  0
 21 22  1  0  0  0  0
 23 24  1  0  0  0  0
 18 21  1  0  0  0  0
 24 25  1  0  0  0  0
 39 40  1  0  0  0  0
  7  8  1  0  0  0  0
 17 18  1  0  0  0  0
  3  4  1  0  0  0  0
  3  5  1  0  0  0  0
  3  6  1  0  0  0  0
 43 46  1  0  0  0  0
 43 47  1  0  0  0  0
 43 48  1  0  0  0  0
 11 14  1  0  0  0  0
 11 15  1  0  0  0  0
 11 16  1  0  0  0  0
 50 52  1  0  0  0  0
 50 53  1  0  0  0  0
 50 54  1  0  0  0  0
 22 30  1  0  0  0  0
 22 31  1  0  0  0  0
 23 32  1  0  0  0  0
 23 33  1  0  0  0  0
 21 28  1  0  0  0  0
 21 29  1  0  0  0  0
 24 34  1  0  0  0  0
 24 35  1  0  0  0  0
 40 45  1  0  0  0  0
  8 13  1  0  0  0  0
 18 27  1  0  0  0  0
 49 51  1  0  0  0  0
  7 12  1  0  0  0  0
 39 44  1  0  0  0  0
 17 26  1  0  0  0  0
 25 36  1  0  0  0  0
 25 37  1  0  0  0  0
 25 38  1  0  0  0  0
M  CHG  1  25   1
M  END
$$$$

  -OEChem-05262214473D

 54 53  0     1  0  0  0  0  0999 V2000
    2.6714    2.8829   -3.0005 C   0  0  0  0  0  0  0  0  0  0  0  0
    3.1741    2.4398   -1.9745 O   0  0  0  0  0  0  0  0  0  0  0  0
    3.5527    3.3077   -4.1279 C   0  0  0  0  0  0  0  0  0  0  0  0
    3.8407    4.3691   -4.0597 H   0  0  0  0  0  0  0  0  0  0  0  0
    4.5024    2.7495   -4.1526 H   0  0  0  0  0  0  0  0  0  0  0  0
    3.1208    3.1887   -5.1345 H   0  0  0  0  0  0  0  0  0  0  0  0
    1.3174    3.0407   -3.2467 N   0  0  0  0  0  0  0  0  0  0  0  0
    0.2944    2.6927   -2.2960 C   0  0  2  0  0  0  0  0  0  0  0  0
    0.2976    1.1783   -2.1349 C   0  0  0  0  0  0  0  0  0  0  0  0
    0.7500    0.4142   -2.9850 O   0  0  0  0  0  0  0  0  0  0  0  0
   -1.0710    3.1886   -2.7460 C   0  0  0  0  0  0  0  0  0  0  0  0
    1.0312    3.4224   -4.1464 H   0  0  0  0  0  0  0  0  0  0  0  0
    0.5725    3.1622   -1.3461 H   0  0  0  0  0  0  0  0  0  0  0  0
   -1.3666    2.7292   -3.6963 H   0  0  0  0  0  0  0  0  0  0  0  0
   -1.8434    2.9482   -2.0082 H   0  0  0  0  0  0  0  0  0  0  0  0
   -1.0632    4.2744   -2.8901 H   0  0  0  0  0  0  0  0  0  0  0  0
   -0.3037    0.7742   -0.9484 N   0  0  0  0  0  0  0  0  0  0  0  0
   -0.4352   -0.6095   -0.5718 C   0  0  2  0  0  0  0  0  0  0  0  0
   -1.9161   -0.9369   -0.4105 C   0  0  0  0  0  0  0  0  0  0  0  0
   -2.7556   -0.1008   -0.0825 O   0  0  0  0  0  0  0  0  0  0  0  0
    0.3886   -0.9446    0.6771 C   0  0  0  0  0  0  0  0  0  0  0  0
    1.9064   -0.8850    0.4605 C   0  0  0  0  0  0  0  0  0  0  0  0
    2.6620   -1.2540    1.7392 C   0  0  0  0  0  0  0  0  0  0  0  0
    4.1664   -1.1701    1.5277 C   0  0  0  0  0  0  0  0  0  0  0  0
    4.8551   -1.5113    2.7956 N   0  3  0  0  0  0  0  0  0  0  0  0
   -0.6336    1.4811   -0.2948 H   0  0  0  0  0  0  0  0  0  0  0  0
   -0.0508   -1.1889   -1.4199 H   0  0  0  0  0  0  0  0  0  0  0  0
    0.1179   -0.2441    1.4777 H   0  0  0  0  0  0  0  0  0  0  0  0
    0.1207   -1.9473    1.0325 H   0  0  0  0  0  0  0  0  0  0  0  0
    2.1976   -1.5741   -0.3408 H   0  0  0  0  0  0  0  0  0  0  0  0
    2.2009    0.1229    0.1456 H   0  0  0  0  0  0  0  0  0  0  0  0
    2.3863   -2.2699    2.0485 H   0  0  0  0  0  0  0  0  0  0  0  0
    2.3626   -0.5789    2.5505 H   0  0  0  0  0  0  0  0  0  0  0  0
    4.5151   -1.8836    0.7751 H   0  0  0  0  0  0  0  0  0  0  0  0
    4.4864   -0.1603    1.2544 H   0  0  0  0  0  0  0  0  0  0  0  0
    5.8179   -1.1572    2.7981 H   0  0  0  0  0  0  0  0  0  0  0  0
    4.8927   -2.5277    2.9311 H   0  0  0  0  0  0  0  0  0  0  0  0
    4.3669   -1.1036    3.6006 H   0  0  0  0  0  0  0  0  0  0  0  0
   -2.1970   -2.2628   -0.7073 N   0  0  0  0  0  0  0  0  0  0  0  0
   -3.5356   -2.7990   -0.6409 C   0  0  2  0  0  0  0  0  0  0  0  0
   -3.4378   -4.3174   -0.7072 C   0  0  0  0  0  0  0  0  0  0  0  0
   -2.4723   -4.9071   -1.1881 O   0  0  0  0  0  0  0  0  0  0  0  0
   -4.4038   -2.2606   -1.7673 C   0  0  0  0  0  0  0  0  0  0  0  0
   -1.4353   -2.8767   -0.9803 H   0  0  0  0  0  0  0  0  0  0  0  0
   -3.9479   -2.5010    0.3293 H   0  0  0  0  0  0  0  0  0  0  0  0
   -4.0064   -2.5491   -2.7473 H   0  0  0  0  0  0  0  0  0  0  0  0
   -5.4265   -2.6460   -1.6990 H   0  0  0  0  0  0  0  0  0  0  0  0
   -4.4488   -1.1666   -1.7359 H   0  0  0  0  0  0  0  0  0  0  0  0
   -4.5744   -4.9360   -0.2054 N   0  0  0  0  0  0  0  0  0  0  0  0
   -4.7295   -6.3715   -0.1701 C   0  0  0  0  0  0  0  0  0  0  0  0
   -5.3182   -4.3690    0.1907 H   0  0  0  0  0  0  0  0  0  0  0  0
   -5.2394   -6.7083   -1.0847 H   0  0  0  0  0  0  0  0  0  0  0  0
   -3.7390   -6.8458   -0.1067 H   0  0  0  0  0  0  0  0  0  0  0  0
   -5.3281   -6.6540    0.7085 H   0  0  0  0  0  0  0  0  0  0  0  0
  1  3  1  0  0  0  0
  1  7  1  0  0  0  0
  1  2  2  0  0  0  0
 40 41  1  0  0  0  0
 41 49  1  0  0  0  0
 41 42  2  0  0  0  0
  8  9  1  0  0  0  0
  9 17  1  0  0  0  0
  9 10  2  0  0  0  0
 18 19  1  0  0  0  0
 19 39  1  0  0  0  0
 19 20  2  0  0  0  0
 40 43  1  0  0  0  0
  8 11  1  0  0  0  0
 49 50  1  0  0  0  0
 22 23  1  0  0  0  0
 21 22  1  0  0  0  0
 23 24  1  0  0  0  0
 18 21  1  0  0  0  0
 24 25  1  0  0  0  0
 39 40  1  0  0  0  0
  7  8  1  0  0  0  0
 17 18  1  0  0  0  0
  3  4  1  0  0  0  0
  3  5  1  0  0  0  0
  3  6  1  0  0  0  0
 43 46  1  0  0  0  0
 43 47  1  0  0  0  0
 43 48  1  0  0  0  0
 11 14  1  0  0  0  0
 11 15  1  0  0  0  0
 11 16  1  0  0  0  0
 50 52  1  0  0  0  0
 50 53  1  0  0  0  0
 50 54  1  0  0  0  0
 22 30  1  0  0  0  0
 22 31  1  0  0  0  0
 23 32  1  0  0  0  0
 23 33  1  0  0  0  0
 21 28  1  0  0  0  0
 21 29  1  0  0  0  0
 24 34  1  0  0  0  0
 24 35  1  0  0  0  0
 40 45  1  0  0  0  0
  8 13  1  0  0  0  0
 18 27  1  0  0  0  0
 49 51  1  0  0  0  0
  7 12  1  0  0  0  0
 39 44  1  0  0  0  0
 17 26  1  0  0  0  0
 25 36  1  0  0  0  0
 25 37  1  0  0  0  0
 25 38  1  0  0  0  0
M  CHG  1  25   1
M  END
$$$$

  -OEChem-05262214473D

 54 53  0     1  0  0  0  0  0999 V2000
    2.6714    2.8829   -3.0005 C   0  0  0  0  0  0  0  0  0  0  0  0
    3.1741    2.4398   -1.9745 O   0  0  0  0  0  0  0  0  0  0  0  0
    3.5527    3.3077   -4.1279 C   0  0  0  0  0  0  0  0  0  0  0  0
    3.8407    4.3691   -4.0597 H   0  0  0  0  0  0  0  0  0  0  0  0
    4.5024    2.7495   -4.1526 H   0  0  0  0  0  0  0  0  0  0  0  0
    3.1208    3.1887   -5.1345 H   0  0  0  0  0  0  0  0  0  0  0  0
    1.3174    3.0407   -3.2467 N   0  0  0  0  0  0  0  0  0  0  0  0
    0.2944    2.6927   -2.2960 C   0  0  2  0  0  0  0  0  0  0  0  0
    0.2976    1.1783   -2.1349 C   0  0  0  0  0  0  0  0  0  0  0  0
    0.7500    0.4142   -2.9850 O   0  0  0  0  0  0  0  0  0  0  0  0
   -1.0710    3.1886   -2.7460 C   0  0  0  0  0  0  0  0  0  0  0  0
    1.0312    3.4224   -4.1464 H   0  0  0  0  0  0  0  0  0  0  0  0
    0.5725    3.1622   -1.3461 H   0  0  0  0  0  0  0  0  0  0  0  0
   -1.3666    2.7292   -3.6963 H   0  0  0  0  0  0  0  0  0  0  0  0
   -1.8434    2.9482   -2.0082 H   0  0  0  0  0  0  0  0  0  0  0  0
   -1.0632    4.2744   -2.8901 H   0  0  0  0  0  0  0  0  0  0  0  0
   -0.3037    0.7742   -0.9484 N   0  0  0  0  0  0  0  0  0  0  0  0
   -0.4352   -0.6095   -0.5718 C   0  0  2  0  0  0  0  0  0  0  0  0
   -1.9161   -0.9369   -0.4105 C   0  0  0  0  0  0  0  0  0  0  0  0
   -2.7903   -0.0747   -0.3480 O   0  0  0  0  0  0  0  0  0  0  0  0
    0.3886   -0.9446    0.6771 C   0  0  0  0  0  0  0  0  0  0  0  0
    1.9064   -0.8850    0.4605 C   0  0  0  0  0  0  0  0  0  0  0  0
    2.6620   -1.2540    1.7392 C   0  0  0  0  0  0  0  0  0  0  0  0
    4.1664   -1.1701    1.5277 C   0  0  0  0  0  0  0  0  0  0  0  0
    4.8551   -1.5113    2.7956 N   0  3  0  0  0  0  0  0  0  0  0  0
   -0.6336    1.4811   -0.2948 H   0  0  0  0  0  0  0  0  0  0  0  0
   -0.0508   -1.1889   -1.4199 H   0  0  0  0  0  0  0  0  0  0  0  0
    0.1179   -0.2441    1.4777 H   0  0  0  0  0  0  0  0  0  0  0  0
    0.1207   -1.9473    1.0325 H   0  0  0  0  0  0  0  0  0  0  0  0
    2.1976   -1.5741   -0.3408 H   0  0  0  0  0  0  0  0  0  0  0  0
    2.2009    0.1229    0.1456 H   0  0  0  0  0  0  0  0  0  0  0  0
    2.3863   -2.2699    2.0485 H   0  0  0  0  0  0  0  0  0  0  0  0
    2.3626   -0.5789    2.5505 H   0  0  0  0  0  0  0  0  0  0  0  0
    4.5151   -1.8836    0.7751 H   0  0  0  0  0  0  0  0  0  0  0  0
    4.4864   -0.1603    1.2544 H   0  0  0  0  0  0  0  0  0  0  0  0
    5.8179   -1.1572    2.7981 H   0  0  0  0  0  0  0  0  0  0  0  0
    4.8927   -2.5277    2.9311 H   0  0  0  0  0  0  0  0  0  0  0  0
    4.3669   -1.1036    3.6006 H   0  0  0  0  0  0  0  0  0  0  0  0
   -2.1521   -2.3038   -0.3777 N   0  0  0  0  0  0  0  0  0  0  0  0
   -3.4811   -2.8521   -0.2481 C   0  0  2  0  0  0  0  0  0  0  0  0
   -3.3488   -4.3343    0.0757 C   0  0  0  0  0  0  0  0  0  0  0  0
   -2.3448   -4.9920   -0.1901 O   0  0  0  0  0  0  0  0  0  0  0  0
   -4.2920   -2.6432   -1.5175 C   0  0  0  0  0  0  0  0  0  0  0  0
   -1.3633   -2.9398   -0.4471 H   0  0  0  0  0  0  0  0  0  0  0  0
   -3.9559   -2.3349    0.5928 H   0  0  0  0  0  0  0  0  0  0  0  0
   -3.8316   -3.1541   -2.3711 H   0  0  0  0  0  0  0  0  0  0  0  0
   -5.3089   -3.0342   -1.4075 H   0  0  0  0  0  0  0  0  0  0  0  0
   -4.3609   -1.5785   -1.7652 H   0  0  0  0  0  0  0  0  0  0  0  0
   -4.5002   -4.8463    0.6573 N   0  0  0  0  0  0  0  0  0  0  0  0
   -4.6281   -6.2316    1.0452 C   0  0  0  0  0  0  0  0  0  0  0  0
   -5.2775   -4.2241    0.8585 H   0  0  0  0  0  0  0  0  0  0  0  0
   -5.0761   -6.8042    0.2198 H   0  0  0  0  0  0  0  0  0  0  0  0
   -3.6337   -6.6405    1.2775 H   0  0  0  0  0  0  0  0  0  0  0  0
   -5.2717   -6.3054    1.9342 H   0  0  0  0  0  0  0  0  0  0  0  0
  1  3  1  0  0  0  0
  1  7  1  0  0  0  0
  1  2  2  0  0  0  0
 40 41  1  0  0  0  0
 41 49  1  0  0  0  0
 41 42  2  0  0  0  0
  8  9  1  0  0  0  0
  9 17  1  0  0  0  0
  9 10  2  0  0  0  0
 18 19  1  0  0  0  0
 19 39  1  0  0  0  0
 19 20  2  0  0  0  0
 40 43  1  0  0  0  0
  8 11  1  0  0  0  0
 49 50  1  0  0  0  0
 22 23  1  0  0  0  0
 21 22  1  0  0  0  0
 23 24  1  0  0  0  0
 18 21  1  0  0  0  0
 24 25  1  0  0  0  0
 39 40  1  0  0  0  0
  7  8  1  0  0  0  0
 17 18  1  0  0  0  0
  3  4  1  0  0  0  0
  3  5  1  0  0  0  0
  3  6  1  0  0  0  0
 43 46  1  0  0  0  0
 43 47  1  0  0  0  0
 43 48  1  0  0  0  0
 11 14  1  0  0  0  0
 11 15  1  0  0  0  0
 11 16  1  0  0  0  0
 50 52  1  0  0  0  0
 50 53  1  0  0  0  0
 50 54  1  0  0  0  0
 22 30  1  0  0  0  0
 22 31  1  0  0  0  0
 23 32  1  0  0  0  0
 23 33  1  0  0  0  0
 21 28  1  0  0  0  0
 21 29  1  0  0  0  0
 24 34  1  0  0  0  0
 24 35  1  0  0  0  0
 40 45  1  0  0  0  0
  8 13  1  0  0  0  0
 18 27  1  0  0  0  0
 49 51  1  0  0  0  0
  7 12  1  0  0  0  0
 39 44  1  0  0  0  0
 17 26  1  0  0  0  0
 25 36  1  0  0  0  0
 25 37  1  0  0  0  0
 25 38  1  0  0  0  0
M  CHG  1  25   1
M  END
$$$$

  -OEChem-05262214473D

 54 53  0     1  0  0  0  0  0999 V2000
    2.6714    2.8829   -3.0005 C   0  0  0  0  0  0  0  0  0  0  0  0
    3.1741    2.4398   -1.9745 O   0  0  0  0  0  0  0  0  0  0  0  0
    3.5527    3.3077   -4.1279 C   0  0  0  0  0  0  0  0  0  0  0  0
    3.8407    4.3691   -4.0597 H   0  0  0  0  0  0  0  0  0  0  0  0
    4.5024    2.7495   -4.1526 H   0  0  0  0  0  0  0  0  0  0  0  0
    3.1208    3.1887   -5.1345 H   0  0  0  0  0  0  0  0  0  0  0  0
    1.3174    3.0407   -3.2467 N   0  0  0  0  0  0  0  0  0  0  0  0
    0.2944    2.6927   -2.2960 C   0  0  2  0  0  0  0  0  0  0  0  0
    0.2976    1.1783   -2.1349 C   0  0  0  0  0  0  0  0  0  0  0  0
    0.7500    0.4142   -2.9850 O   0  0  0  0  0  0  0  0  0  0  0  0
   -1.0710    3.1886   -2.7460 C   0  0  0  0  0  0  0  0  0  0  0  0
    1.0312    3.4224   -4.1464 H   0  0  0  0  0  0  0  0  0  0  0  0
    0.5725    3.1622   -1.3461 H   0  0  0  0  0  0  0  0  0  0  0  0
   -1.3666    2.7292   -3.6963 H   0  0  0  0  0  0  0  0  0  0  0  0
   -1.8434    2.9482   -2.0082 H   0  0  0  0  0  0  0  0  0  0  0  0
   -1.0632    4.2744   -2.8901 H   0  0  0  0  0  0  0  0  0  0  0  0
   -0.3037    0.7742   -0.9484 N   0  0  0  0  0  0  0  0  0  0  0  0
   -0.4352   -0.6095   -0.5718 C   0  0  2  0  0  0  0  0  0  0  0  0
   -1.8851   -1.0383   -0.7722 C   0  0  0  0  0  0  0  0  0  0  0  0
   -2.7511   -0.2869   -1.2161 O   0  0  0  0  0  0  0  0  0  0  0  0
    0.0709   -0.8667    0.8525 C   0  0  0  0  0  0  0  0  0  0  0  0
    1.5875   -0.7033    1.0170 C   0  0  0  0  0  0  0  0  0  0  0  0
    2.0224   -0.9986    2.4544 C   0  0  0  0  0  0  0  0  0  0  0  0
    3.5234   -0.8118    2.6198 C   0  0  0  0  0  0  0  0  0  0  0  0
    3.8945   -1.0843    4.0291 N   0  3  0  0  0  0  0  0  0  0  0  0
   -0.6336    1.4811   -0.2948 H   0  0  0  0  0  0  0  0  0  0  0  0
    0.1853   -1.1730   -1.2791 H   0  0  0  0  0  0  0  0  0  0  0  0
   -0.4358   -0.1751    1.5380 H   0  0  0  0  0  0  0  0  0  0  0  0
   -0.2118   -1.8803    1.1625 H   0  0  0  0  0  0  0  0  0  0  0  0
    2.1134   -1.3820    0.3355 H   0  0  0  0  0  0  0  0  0  0  0  0
    1.8854    0.3181    0.7526 H   0  0  0  0  0  0  0  0  0  0  0  0
    1.7446   -2.0267    2.7182 H   0  0  0  0  0  0  0  0  0  0  0  0
    1.4870   -0.3342    3.1439 H   0  0  0  0  0  0  0  0  0  0  0  0
    4.0942   -1.5101    2.0005 H   0  0  0  0  0  0  0  0  0  0  0  0
    3.8354    0.2139    2.4020 H   0  0  0  0  0  0  0  0  0  0  0  0
    4.8012   -0.6630    4.2588 H   0  0  0  0  0  0  0  0  0  0  0  0
    3.9627   -2.0934    4.2023 H   0  0  0  0  0  0  0  0  0  0  0  0
    3.1955   -0.7000    4.6744 H   0  0  0  0  0  0  0  0  0  0  0  0
   -2.0931   -2.3665   -0.4291 N   0  0  0  0  0  0  0  0  0  0  0  0
   -3.3846   -2.9994   -0.5515 C   0  0  2  0  0  0  0  0  0  0  0  0
   -3.3323   -4.3238    0.1988 C   0  0  0  0  0  0  0  0  0  0  0  0
   -2.2832   -4.9180    0.4383 O   0  0  0  0  0  0  0  0  0  0  0  0
   -3.7592   -3.2151   -2.0095 C   0  0  0  0  0  0  0  0  0  0  0  0
   -1.3103   -2.9116   -0.0803 H   0  0  0  0  0  0  0  0  0  0  0  0
   -4.1096   -2.3344   -0.0696 H   0  0  0  0  0  0  0  0  0  0  0  0
   -3.0441   -3.8790   -2.5090 H   0  0  0  0  0  0  0  0  0  0  0  0
   -4.7514   -3.6692   -2.1013 H   0  0  0  0  0  0  0  0  0  0  0  0
   -3.7673   -2.2650   -2.5545 H   0  0  0  0  0  0  0  0  0  0  0  0
   -4.5981   -4.7854    0.5316 N   0  0  0  0  0  0  0  0  0  0  0  0
   -4.8147   -6.0275    1.2360 C   0  0  0  0  0  0  0  0  0  0  0  0
   -5.4110   -4.2181    0.3102 H   0  0  0  0  0  0  0  0  0  0  0  0
   -4.9694   -6.8393    0.5100 H   0  0  0  0  0  0  0  0  0  0  0  0
   -3.9360   -6.2543    1.8577 H   0  0  0  0  0  0  0  0  0  0  0  0
   -5.7036   -5.9350    1.8773 H   0  0  0  0  0  0  0  0  0  0  0  0
  1  3  1  0  0  0  0
  1  7  1  0  0  0  0
  1  2  2  0  0  0  0
 40 41  1  0  0  0  0
 41 49  1  0  0  0  0
 41 42  2  0  0  0  0
  8  9  1  0  0  0  0
  9 17  1  0  0  0  0
  9 10  2  0  0  0  0
 18 19  1  0  0  0  0
 19 39  1  0  0  0  0
 19 20  2  0  0  0  0
 40 43  1  0  0  0  0
  8 11  1  0  0  0  0
 49 50  1  0  0  0  0
 22 23  1  0  0  0  0
 21 22  1  0  0  0  0
 23 24  1  0  0  0  0
 18 21  1  0  0  0  0
 24 25  1  0  0  0  0
 39 40  1  0  0  0  0
  7  8  1  0  0  0  0
 17 18  1  0  0  0  0
  3  4  1  0  0  0  0
  3  5  1  0  0  0  0
  3  6  1  0  0  0  0
 43 46  1  0  0  0  0
 43 47  1  0  0  0  0
 43 48  1  0  0  0  0
 11 14  1  0  0  0  0
 11 15  1  0  0  0  0
 11 16  1  0  0  0  0
 50 52  1  0  0  0  0
 50 53  1  0  0  0  0
 50 54  1  0  0  0  0
 22 30  1  0  0  0  0
 22 31  1  0  0  0  0
 23 32  1  0  0  0  0
 23 33  1  0  0  0  0
 21 28  1  0  0  0  0
 21 29  1  0  0  0  0
 24 34  1  0  0  0  0
 24 35  1  0  0  0  0
 40 45  1  0  0  0  0
  8 13  1  0  0  0  0
 18 27  1  0  0  0  0
 49 51  1  0  0  0  0
  7 12  1  0  0  0  0
 39 44  1  0  0  0  0
 17 26  1  0  0  0  0
 25 36  1  0  0  0  0
 25 37  1  0  0  0  0
 25 38  1  0  0  0  0
M  CHG  1  25   1
M  END
$$$$

  -OEChem-05262214473D

 54 53  0     1  0  0  0  0  0999 V2000
    2.6714    2.8829   -3.0005 C   0  0  0  0  0  0  0  0  0  0  0  0
    3.1741    2.4398   -1.9745 O   0  0  0  0  0  0  0  0  0  0  0  0
    3.5527    3.3077   -4.1279 C   0  0  0  0  0  0  0  0  0  0  0  0
    3.8407    4.3691   -4.0597 H   0  0  0  0  0  0  0  0  0  0  0  0
    4.5024    2.7495   -4.1526 H   0  0  0  0  0  0  0  0  0  0  0  0
    3.1208    3.1887   -5.1345 H   0  0  0  0  0  0  0  0  0  0  0  0
    1.3174    3.0407   -3.2467 N   0  0  0  0  0  0  0  0  0  0  0  0
    0.2944    2.6927   -2.2960 C   0  0  2  0  0  0  0  0  0  0  0  0
    0.2976    1.1783   -2.1349 C   0  0  0  0  0  0  0  0  0  0  0  0
    0.7500    0.4142   -2.9850 O   0  0  0  0  0  0  0  0  0  0  0  0
   -1.0710    3.1886   -2.7460 C   0  0  0  0  0  0  0  0  0  0  0  0
    1.0312    3.4224   -4.1464 H   0  0  0  0  0  0  0  0  0  0  0  0
    0.5725    3.1622   -1.3461 H   0  0  0  0  0  0  0  0  0  0  0  0
   -1.3666    2.7292   -3.6963 H   0  0  0  0  0  0  0  0  0  0  0  0
   -1.8434    2.9482   -2.0082 H   0  0  0  0  0  0  0  0  0  0  0  0
   -1.0632    4.2744   -2.8901 H   0  0  0  0  0  0  0  0  0  0  0  0
   -0.3037    0.7742   -0.9484 N   0  0  0  0  0  0  0  0  0  0  0  0
   -0.4352   -0.6095   -0.5718 C   0  0  2  0  0  0  0  0  0  0  0  0
   -1.8851   -1.0383   -0.7722 C   0  0  0  0  0  0  0  0  0  0  0  0
   -2.6854   -0.3987   -1.4519 O   0  0  0  0  0  0  0  0  0  0  0  0
    0.0709   -0.8667    0.8525 C   0  0  0  0  0  0  0  0  0  0  0  0
    1.5875   -0.7033    1.0170 C   0  0  0  0  0  0  0  0  0  0  0  0
    2.0224   -0.9986    2.4544 C   0  0  0  0  0  0  0  0  0  0  0  0
    3.5234   -0.8118    2.6198 C   0  0  0  0  0  0  0  0  0  0  0  0
    3.8945   -1.0843    4.0291 N   0  3  0  0  0  0  0  0  0  0  0  0
   -0.6336    1.4811   -0.2948 H   0  0  0  0  0  0  0  0  0  0  0  0
    0.1853   -1.1730   -1.2791 H   0  0  0  0  0  0  0  0  0  0  0  0
   -0.4358   -0.1751    1.5380 H   0  0  0  0  0  0  0  0  0  0  0  0
   -0.2118   -1.8803    1.1625 H   0  0  0  0  0  0  0  0  0  0  0  0
    2.1134   -1.3820    0.3355 H   0  0  0  0  0  0  0  0  0  0  0  0
    1.8854    0.3181    0.7526 H   0  0  0  0  0  0  0  0  0  0  0  0
    1.7446   -2.0267    2.7182 H   0  0  0  0  0  0  0  0  0  0  0  0
    1.4870   -0.3342    3.1439 H   0  0  0  0  0  0  0  0  0  0  0  0
    4.0942   -1.5101    2.0005 H   0  0  0  0  0  0  0  0  0  0  0  0
    3.8354    0.2139    2.4020 H   0  0  0  0  0  0  0  0  0  0  0  0
    4.8012   -0.6630    4.2588 H   0  0  0  0  0  0  0  0  0  0  0  0
    3.9627   -2.0934    4.2023 H   0  0  0  0  0  0  0  0  0  0  0  0
    3.1955   -0.7000    4.6744 H   0  0  0  0  0  0  0  0  0  0  0  0
   -2.1731   -2.2348   -0.1315 N   0  0  0  0  0  0  0  0  0  0  0  0
   -3.4793   -2.8460   -0.1943 C   0  0  2  0  0  0  0  0  0  0  0  0
   -3.5357   -3.9445    0.8590 C   0  0  0  0  0  0  0  0  0  0  0  0
   -2.5321   -4.4870    1.3168 O   0  0  0  0  0  0  0  0  0  0  0  0
   -3.7621   -3.4062   -1.5796 C   0  0  0  0  0  0  0  0  0  0  0  0
   -1.4404   -2.6960    0.3994 H   0  0  0  0  0  0  0  0  0  0  0  0
   -4.2063   -2.0647    0.0528 H   0  0  0  0  0  0  0  0  0  0  0  0
   -3.0437   -4.1905   -1.8447 H   0  0  0  0  0  0  0  0  0  0  0  0
   -4.7643   -3.8440   -1.6335 H   0  0  0  0  0  0  0  0  0  0  0  0
   -3.6919   -2.6204   -2.3395 H   0  0  0  0  0  0  0  0  0  0  0  0
   -4.8400   -4.2779    1.1962 N   0  0  0  0  0  0  0  0  0  0  0  0
   -5.1577   -5.3014    2.1644 C   0  0  0  0  0  0  0  0  0  0  0  0
   -5.6107   -3.7629    0.7807 H   0  0  0  0  0  0  0  0  0  0  0  0
   -5.2971   -6.2634    1.6494 H   0  0  0  0  0  0  0  0  0  0  0  0
   -4.3343   -5.3892    2.8885 H   0  0  0  0  0  0  0  0  0  0  0  0
   -6.0837   -5.0311    2.6931 H   0  0  0  0  0  0  0  0  0  0  0  0
  1  3  1  0  0  0  0
  1  7  1  0  0  0  0
  1  2  2  0  0  0  0
 40 41  1  0  0  0  0
 41 49  1  0  0  0  0
 41 42  2  0  0  0  0
  8  9  1  0  0  0  0
  9 17  1  0  0  0  0
  9 10  2  0  0  0  0
 18 19  1  0  0  0  0
 19 39  1  0  0  0  0
 19 20  2  0  0  0  0
 40 43  1  0  0  0  0
  8 11  1  0  0  0  0
 49 50  1  0  0  0  0
 22 23  1  0  0  0  0
 21 22  1  0  0  0  0
 23 24  1  0  0  0  0
 18 21  1  0  0  0  0
 24 25  1  0  0  0  0
 39 40  1  0  0  0  0
  7  8  1  0  0  0  0
 17 18  1  0  0  0  0
  3  4  1  0  0  0  0
  3  5  1  0  0  0  0
  3  6  1  0  0  0  0
 43 46  1  0  0  0  0
 43 47  1  0  0  0  0
 43 48  1  0  0  0  0
 11 14  1  0  0  0  0
 11 15  1  0  0  0  0
 11 16  1  0  0  0  0
 50 52  1  0  0  0  0
 50 53  1  0  0  0  0
 50 54  1  0  0  0  0
 22 30  1  0  0  0  0
 22 31  1  0  0  0  0
 23 32  1  0  0  0  0
 23 33  1  0  0  0  0
 21 28  1  0  0  0  0
 21 29  1  0  0  0  0
 24 34  1  0  0  0  0
 24 35  1  0  0  0  0
 40 45  1  0  0  0  0
  8 13  1  0  0  0  0
 18 27  1  0  0  0  0
 49 51  1  0  0  0  0
  7 12  1  0  0  0  0
 39 44  1  0  0  0  0
 17 26  1  0  0  0  0
 25 36  1  0  0  0  0
 25 37  1  0  0  0  0
 25 38  1  0  0  0  0
M  CHG  1  25   1
M  END
$$$$

  -OEChem-05262214473D

 54 53  0     1  0  0  0  0  0999 V2000
    2.6714    2.8829   -3.0005 C   0  0  0  0  0  0  0  0  0  0  0  0
    3.1741    2.4398   -1.9745 O   0  0  0  0  0  0  0  0  0  0  0  0
    3.5527    3.3077   -4.1279 C   0  0  0  0  0  0  0  0  0  0  0  0
    3.8407    4.3691   -4.0597 H   0  0  0  0  0  0  0  0  0  0  0  0
    4.5024    2.7495   -4.1526 H   0  0  0  0  0  0  0  0  0  0  0  0
    3.1208    3.1887   -5.1345 H   0  0  0  0  0  0  0  0  0  0  0  0
    1.3174    3.0407   -3.2467 N   0  0  0  0  0  0  0  0  0  0  0  0
    0.2944    2.6927   -2.2960 C   0  0  2  0  0  0  0  0  0  0  0  0
    0.2976    1.1783   -2.1349 C   0  0  0  0  0  0  0  0  0  0  0  0
    0.7500    0.4142   -2.9850 O   0  0  0  0  0  0  0  0  0  0  0  0
   -1.0710    3.1886   -2.7460 C   0  0  0  0  0  0  0  0  0  0  0  0
    1.0312    3.4224   -4.1464 H   0  0  0  0  0  0  0  0  0  0  0  0
    0.5725    3.1622   -1.3461 H   0  0  0  0  0  0  0  0  0  0  0  0
   -1.3666    2.7292   -3.6963 H   0  0  0  0  0  0  0  0  0  0  0  0
   -1.8434    2.9482   -2.0082 H   0  0  0  0  0  0  0  0  0  0  0  0
   -1.0632    4.2744   -2.8901 H   0  0  0  0  0  0  0  0  0  0  0  0
   -0.3037    0.7742   -0.9484 N   0  0  0  0  0  0  0  0  0  0  0  0
   -0.4352   -0.6095   -0.5718 C   0  0  2  0  0  0  0  0  0  0  0  0
   -1.8851   -1.0383   -0.7722 C   0  0  0  0  0  0  0  0  0  0  0  0
   -2.6087   -0.5670   -1.6473 O   0  0  0  0  0  0  0  0  0  0  0  0
    0.0709   -0.8667    0.8525 C   0  0  0  0  0  0  0  0  0  0  0  0
    1.5875   -0.7033    1.0170 C   0  0  0  0  0  0  0  0  0  0  0  0
    2.0224   -0.9986    2.4544 C   0  0  0  0  0  0  0  0  0  0  0  0
    3.5234   -0.8118    2.6198 C   0  0  0  0  0  0  0  0  0  0  0  0
    3.8945   -1.0843    4.0291 N   0  3  0  0  0  0  0  0  0  0  0  0
   -0.6336    1.4811   -0.2948 H   0  0  0  0  0  0  0  0  0  0  0  0
    0.1853   -1.1730   -1.2791 H   0  0  0  0  0  0  0  0  0  0  0  0
   -0.4358   -0.1751    1.5380 H   0  0  0  0  0  0  0  0  0  0  0  0
   -0.2118   -1.8803    1.1625 H   0  0  0  0  0  0  0  0  0  0  0  0
    2.1134   -1.3820    0.3355 H   0  0  0  0  0  0  0  0  0  0  0  0
    1.8854    0.3181    0.7526 H   0  0  0  0  0  0  0  0  0  0  0  0
    1.7446   -2.0267    2.7182 H   0  0  0  0  0  0  0  0  0  0  0  0
    1.4870   -0.3342    3.1439 H   0  0  0  0  0  0  0  0  0  0  0  0
    4.0942   -1.5101    2.0005 H   0  0  0  0  0  0  0  0  0  0  0  0
    3.8354    0.2139    2.4020 H   0  0  0  0  0  0  0  0  0  0  0  0
    4.8012   -0.6630    4.2588 H   0  0  0  0  0  0  0  0  0  0  0  0
    3.9627   -2.0934    4.2023 H   0  0  0  0  0  0  0  0  0  0  0  0
    3.1955   -0.7000    4.6744 H   0  0  0  0  0  0  0  0  0  0  0  0
   -2.2677   -2.0316    0.1177 N   0  0  0  0  0  0  0  0  0  0  0  0
   -3.5916   -2.6067    0.1060 C   0  0  2  0  0  0  0  0  0  0  0  0
   -3.7673   -3.4089    1.3887 C   0  0  0  0  0  0  0  0  0  0  0  0
   -2.8217   -3.8461    2.0412 O   0  0  0  0  0  0  0  0  0  0  0  0
   -3.8027   -3.4848   -1.1175 C   0  0  0  0  0  0  0  0  0  0  0  0
   -1.5936   -2.3654    0.8002 H   0  0  0  0  0  0  0  0  0  0  0  0
   -4.2995   -1.7707    0.0976 H   0  0  0  0  0  0  0  0  0  0  0  0
   -3.1023   -4.3280   -1.1265 H   0  0  0  0  0  0  0  0  0  0  0  0
   -4.8168   -3.8973   -1.1397 H   0  0  0  0  0  0  0  0  0  0  0  0
   -3.6468   -2.9134   -2.0389 H   0  0  0  0  0  0  0  0  0  0  0  0
   -5.1048   -3.6159    1.6957 N   0  0  0  0  0  0  0  0  0  0  0  0
   -5.5319   -4.3600    2.8575 C   0  0  0  0  0  0  0  0  0  0  0  0
   -5.8223   -3.2006    1.1087 H   0  0  0  0  0  0  0  0  0  0  0  0
   -5.6771   -5.4156    2.5846 H   0  0  0  0  0  0  0  0  0  0  0  0
   -4.7646   -4.2865    3.6423 H   0  0  0  0  0  0  0  0  0  0  0  0
   -6.4794   -3.9443    3.2310 H   0  0  0  0  0  0  0  0  0  0  0  0
  1  3  1  0  0  0  0
  1  7  1  0  0  0  0
  1  2  2  0  0  0  0
 40 41  1  0  0  0  0
 41 49  1  0  0  0  0
 41 42  2  0  0  0  0
  8  9  1  0  0  0  0
  9 17  1  0  0  0  0
  9 10  2  0  0  0  0
 18 19  1  0  0  0  0
 19 39  1  0  0  0  0
 19 20  2  0  0  0  0
 40 43  1  0  0  0  0
  8 11  1  0  0  0  0
 49 50  1  0  0  0  0
 22 23  1  0  0  0  0
 21 22  1  0  0  0  0
 23 24  1  0  0  0  0
 18 21  1  0  0  0  0
 24 25  1  0  0  0  0
 39 40  1  0  0  0  0
  7  8  1  0  0  0  0
 17 18  1  0  0  0  0
  3  4  1  0  0  0  0
  3  5  1  0  0  0  0
  3  6  1  0  0  0  0
 43 46  1  0  0  0  0
 43 47  1  0  0  0  0
 43 48  1  0  0  0  0
 11 14  1  0  0  0  0
 11 15  1  0  0  0  0
 11 16  1  0  0  0  0
 50 52  1  0  0  0  0
 50 53  1  0  0  0  0
 50 54  1  0  0  0  0
 22 30  1  0  0  0  0
 22 31  1  0  0  0  0
 23 32  1  0  0  0  0
 23 33  1  0  0  0  0
 21 28  1  0  0  0  0
 21 29  1  0  0  0  0
 24 34  1  0  0  0  0
 24 35  1  0  0  0  0
 40 45  1  0  0  0  0
  8 13  1  0  0  0  0
 18 27  1  0  0  0  0
 49 51  1  0  0  0  0
  7 12  1  0  0  0  0
 39 44  1  0  0  0  0
 17 26  1  0  0  0  0
 25 36  1  0  0  0  0
 25 37  1  0  0  0  0
 25 38  1  0  0  0  0
M  CHG  1  25   1
M  END
$$$$

  -OEChem-05262214473D

 54 53  0     1  0  0  0  0  0999 V2000
    2.6714    2.8829   -3.0005 C   0  0  0  0  0  0  0  0  0  0  0  0
    3.1741    2.4398   -1.9745 O   0  0  0  0  0  0  0  0  0  0  0  0
    3.5527    3.3077   -4.1279 C   0  0  0  0  0  0  0  0  0  0  0  0
    3.8407    4.3691   -4.0597 H   0  0  0  0  0  0  0  0  0  0  0  0
    4.5024    2.7495   -4.1526 H   0  0  0  0  0  0  0  0  0  0  0  0
    3.1208    3.1887   -5.1345 H   0  0  0  0  0  0  0  0  0  0  0  0
    1.3174    3.0407   -3.2467 N   0  0  0  0  0  0  0  0  0  0  0  0
    0.2944    2.6927   -2.2960 C   0  0  2  0  0  0  0  0  0  0  0  0
    0.2976    1.1783   -2.1349 C   0  0  0  0  0  0  0  0  0  0  0  0
    0.7500    0.4142   -2.9850 O   0  0  0  0  0  0  0  0  0  0  0  0
   -1.0710    3.1886   -2.7460 C   0  0  0  0  0  0  0  0  0  0  0  0
    1.0312    3.4224   -4.1464 H   0  0  0  0  0  0  0  0  0  0  0  0
    0.5725    3.1622   -1.3461 H   0  0  0  0  0  0  0  0  0  0  0  0
   -1.3666    2.7292   -3.6963 H   0  0  0  0  0  0  0  0  0  0  0  0
   -1.8434    2.9482   -2.0082 H   0  0  0  0  0  0  0  0  0  0  0  0
   -1.0632    4.2744   -2.8901 H   0  0  0  0  0  0  0  0  0  0  0  0
   -0.3037    0.7742   -0.9484 N   0  0  0  0  0  0  0  0  0  0  0  0
   -0.4352   -0.6095   -0.5718 C   0  0  2  0  0  0  0  0  0  0  0  0
   -1.8851   -1.0383   -0.7722 C   0  0  0  0  0  0  0  0  0  0  0  0
   -2.5260   -0.7802   -1.7891 O   0  0  0  0  0  0  0  0  0  0  0  0
    0.0709   -0.8667    0.8525 C   0  0  0  0  0  0  0  0  0  0  0  0
    1.5875   -0.7033    1.0170 C   0  0  0  0  0  0  0  0  0  0  0  0
    2.0224   -0.9986    2.4544 C   0  0  0  0  0  0  0  0  0  0  0  0
    3.5234   -0.8118    2.6198 C   0  0  0  0  0  0  0  0  0  0  0  0
    3.8945   -1.0843    4.0291 N   0  3  0  0  0  0  0  0  0  0  0  0
   -0.6336    1.4811   -0.2948 H   0  0  0  0  0  0  0  0  0  0  0  0
    0.1853   -1.1730   -1.2791 H   0  0  0  0  0  0  0  0  0  0  0  0
   -0.4358   -0.1751    1.5380 H   0  0  0  0  0  0  0  0  0  0  0  0
   -0.2118   -1.8803    1.1625 H   0  0  0  0  0  0  0  0  0  0  0  0
    2.1134   -1.3820    0.3355 H   0  0  0  0  0  0  0  0  0  0  0  0
    1.8854    0.3181    0.7526 H   0  0  0  0  0  0  0  0  0  0  0  0
    1.7446   -2.0267    2.7182 H   0  0  0  0  0  0  0  0  0  0  0  0
    1.4870   -0.3342    3.1439 H   0  0  0  0  0  0  0  0  0  0  0  0
    4.0942   -1.5101    2.0005 H   0  0  0  0  0  0  0  0  0  0  0  0
    3.8354    0.2139    2.4020 H   0  0  0  0  0  0  0  0  0  0  0  0
    4.8012   -0.6630    4.2588 H   0  0  0  0  0  0  0  0  0  0  0  0
    3.9627   -2.0934    4.2023 H   0  0  0  0  0  0  0  0  0  0  0  0
    3.1955   -0.7000    4.6744 H   0  0  0  0  0  0  0  0  0  0  0  0
   -2.3702   -1.7709    0.3016 N   0  0  0  0  0  0  0  0  0  0  0  0
   -3.7138   -2.2978    0.3291 C   0  0  2  0  0  0  0  0  0  0  0  0
   -4.0113   -2.7532    1.7516 C   0  0  0  0  0  0  0  0  0  0  0  0
   -3.1324   -3.0389    2.5621 O   0  0  0  0  0  0  0  0  0  0  0  0
   -3.8782   -3.4457   -0.6548 C   0  0  0  0  0  0  0  0  0  0  0  0
   -1.7595   -1.9421    1.0949 H   0  0  0  0  0  0  0  0  0  0  0  0
   -4.3827   -1.4725    0.0618 H   0  0  0  0  0  0  0  0  0  0  0  0
   -3.2159   -4.2820   -0.4031 H   0  0  0  0  0  0  0  0  0  0  0  0
   -4.9052   -3.8255   -0.6533 H   0  0  0  0  0  0  0  0  0  0  0  0
   -3.6350   -3.1240   -1.6732 H   0  0  0  0  0  0  0  0  0  0  0  0
   -5.3745   -2.8446    1.9960 N   0  0  0  0  0  0  0  0  0  0  0  0
   -5.9118   -3.2673    3.2682 C   0  0  0  0  0  0  0  0  0  0  0  0
   -6.0315   -2.5696    1.2718 H   0  0  0  0  0  0  0  0  0  0  0  0
   -6.0833   -4.3538    3.2516 H   0  0  0  0  0  0  0  0  0  0  0  0
   -5.1976   -3.0212    4.0678 H   0  0  0  0  0  0  0  0  0  0  0  0
   -6.8639   -2.7488    3.4545 H   0  0  0  0  0  0  0  0  0  0  0  0
  1  3  1  0  0  0  0
  1  7  1  0  0  0  0
  1  2  2  0  0  0  0
 40 41  1  0  0  0  0
 41 49  1  0  0  0  0
 41 42  2  0  0  0  0
  8  9  1  0  0  0  0
  9 17  1  0  0  0  0
  9 10  2  0  0  0  0
 18 19  1  0  0  0  0
 19 39  1  0  0  0  0
 19 20  2  0  0  0  0
 40 43  1  0  0  0  0
  8 11  1  0  0  0  0
 49 50  1  0  0  0  0
 22 23  1  0  0  0  0
 21 22  1  0  0  0  0
 23 24  1  0  0  0  0
 18 21  1  0  0  0  0
 24 25  1  0  0  0  0
 39 40  1  0  0  0  0
  7  8  1  0  0  0  0
 17 18  1  0  0  0  0
  3  4  1  0  0  0  0
  3  5  1  0  0  0  0
  3  6  1  0  0  0  0
 43 46  1  0  0  0  0
 43 47  1  0  0  0  0
 43 48  1  0  0  0  0
 11 14  1  0  0  0  0
 11 15  1  0  0  0  0
 11 16  1  0  0  0  0
 50 52  1  0  0  0  0
 50 53  1  0  0  0  0
 50 54  1  0  0  0  0
 22 30  1  0  0  0  0
 22 31  1  0  0  0  0
 23 32  1  0  0  0  0
 23 33  1  0  0  0  0
 21 28  1  0  0  0  0
 21 29  1  0  0  0  0
 24 34  1  0  0  0  0
 24 35  1  0  0  0  0
 40 45  1  0  0  0  0
  8 13  1  0  0  0  0
 18 27  1  0  0  0  0
 49 51  1  0  0  0  0
  7 12  1  0  0  0  0
 39 44  1  0  0  0  0
 17 26  1  0  0  0  0
 25 36  1  0  0  0  0
 25 37  1  0  0  0  0
 25 38  1  0  0  0  0
M  CHG  1  25   1
M  END
$$$$

  -OEChem-05262214473D

 54 53  0     1  0  0  0  0  0999 V2000
    2.6714    2.8829   -3.0005 C   0  0  0  0  0  0  0  0  0  0  0  0
    3.1741    2.4398   -1.9745 O   0  0  0  0  0  0  0  0  0  0  0  0
    3.5527    3.3077   -4.1279 C   0  0  0  0  0  0  0  0  0  0  0  0
    3.8407    4.3691   -4.0597 H   0  0  0  0  0  0  0  0  0  0  0  0
    4.5024    2.7495   -4.1526 H   0  0  0  0  0  0  0  0  0  0  0  0
    3.1208    3.1887   -5.1345 H   0  0  0  0  0  0  0  0  0  0  0  0
    1.3174    3.0407   -3.2467 N   0  0  0  0  0  0  0  0  0  0  0  0
    0.2944    2.6927   -2.2960 C   0  0  2  0  0  0  0  0  0  0  0  0
    0.2976    1.1783   -2.1349 C   0  0  0  0  0  0  0  0  0  0  0  0
    0.7500    0.4142   -2.9850 O   0  0  0  0  0  0  0  0  0  0  0  0
   -1.0710    3.1886   -2.7460 C   0  0  0  0  0  0  0  0  0  0  0  0
    1.0312    3.4224   -4.1464 H   0  0  0  0  0  0  0  0  0  0  0  0
    0.5725    3.1622   -1.3461 H   0  0  0  0  0  0  0  0  0  0  0  0
   -1.3666    2.7292   -3.6963 H   0  0  0  0  0  0  0  0  0  0  0  0
   -1.8434    2.9482   -2.0082 H   0  0  0  0  0  0  0  0  0  0  0  0
   -1.0632    4.2744   -2.8901 H   0  0  0  0  0  0  0  0  0  0  0  0
   -0.3037    0.7742   -0.9484 N   0  0  0  0  0  0  0  0  0  0  0  0
   -0.4352   -0.6095   -0.5718 C   0  0  2  0  0  0  0  0  0  0  0  0
   -1.8851   -1.0383   -0.7722 C   0  0  0  0  0  0  0  0  0  0  0  0
   -2.4431   -1.0238   -1.8676 O   0  0  0  0  0  0  0  0  0  0  0  0
    0.0709   -0.8667    0.8525 C   0  0  0  0  0  0  0  0  0  0  0  0
    1.5875   -0.7033    1.0170 C   0  0  0  0  0  0  0  0  0  0  0  0
    2.0224   -0.9986    2.4544 C   0  0  0  0  0  0  0  0  0  0  0  0
    3.5234   -0.8118    2.6198 C   0  0  0  0  0  0  0  0  0  0  0  0
    3.8945   -1.0843    4.0291 N   0  3  0  0  0  0  0  0  0  0  0  0
   -0.6336    1.4811   -0.2948 H   0  0  0  0  0  0  0  0  0  0  0  0
    0.1853   -1.1730   -1.2791 H   0  0  0  0  0  0  0  0  0  0  0  0
   -0.4358   -0.1751    1.5380 H   0  0  0  0  0  0  0  0  0  0  0  0
   -0.2118   -1.8803    1.1625 H   0  0  0  0  0  0  0  0  0  0  0  0
    2.1134   -1.3820    0.3355 H   0  0  0  0  0  0  0  0  0  0  0  0
    1.8854    0.3181    0.7526 H   0  0  0  0  0  0  0  0  0  0  0  0
    1.7446   -2.0267    2.7182 H   0  0  0  0  0  0  0  0  0  0  0  0
    1.4870   -0.3342    3.1439 H   0  0  0  0  0  0  0  0  0  0  0  0
    4.0942   -1.5101    2.0005 H   0  0  0  0  0  0  0  0  0  0  0  0
    3.8354    0.2139    2.4020 H   0  0  0  0  0  0  0  0  0  0  0  0
    4.8012   -0.6630    4.2588 H   0  0  0  0  0  0  0  0  0  0  0  0
    3.9627   -2.0934    4.2023 H   0  0  0  0  0  0  0  0  0  0  0  0
    3.1955   -0.7000    4.6744 H   0  0  0  0  0  0  0  0  0  0  0  0
   -2.4737   -1.4703    0.4076 N   0  0  0  0  0  0  0  0  0  0  0  0
   -3.8375   -1.9404    0.4597 C   0  0  2  0  0  0  0  0  0  0  0  0
   -4.2512   -2.0224    1.9231 C   0  0  0  0  0  0  0  0  0  0  0  0
   -3.4430   -2.1205    2.8441 O   0  0  0  0  0  0  0  0  0  0  0  0
   -3.9835   -3.2915   -0.2229 C   0  0  0  0  0  0  0  0  0  0  0  0
   -1.9268   -1.4552    1.2633 H   0  0  0  0  0  0  0  0  0  0  0  0
   -4.4504   -1.1905   -0.0522 H   0  0  0  0  0  0  0  0  0  0  0  0
   -3.3766   -4.0558    0.2761 H   0  0  0  0  0  0  0  0  0  0  0  0
   -5.0236   -3.6335   -0.2077 H   0  0  0  0  0  0  0  0  0  0  0  0
   -3.6574   -3.2378   -1.2672 H   0  0  0  0  0  0  0  0  0  0  0  0
   -5.6305   -2.0165    2.0767 N   0  0  0  0  0  0  0  0  0  0  0  0
   -6.2715   -2.0980    3.3684 C   0  0  0  0  0  0  0  0  0  0  0  0
   -6.2239   -1.9129    1.2588 H   0  0  0  0  0  0  0  0  0  0  0  0
   -6.4881   -3.1502    3.6051 H   0  0  0  0  0  0  0  0  0  0  0  0
   -5.6038   -1.6796    4.1359 H   0  0  0  0  0  0  0  0  0  0  0  0
   -7.2109   -1.5260    3.3482 H   0  0  0  0  0  0  0  0  0  0  0  0
  1  3  1  0  0  0  0
  1  7  1  0  0  0  0
  1  2  2  0  0  0  0
 40 41  1  0  0  0  0
 41 49  1  0  0  0  0
 41 42  2  0  0  0  0
  8  9  1  0  0  0  0
  9 17  1  0  0  0  0
  9 10  2  0  0  0  0
 18 19  1  0  0  0  0
 19 39  1  0  0  0  0
 19 20  2  0  0  0  0
 40 43  1  0  0  0  0
  8 11  1  0  0  0  0
 49 50  1  0  0  0  0
 22 23  1  0  0  0  0
 21 22  1  0  0  0  0
 23 24  1  0  0  0  0
 18 21  1  0  0  0  0
 24 25  1  0  0  0  0
 39 40  1  0  0  0  0
  7  8  1  0  0  0  0
 17 18  1  0  0  0  0
  3  4  1  0  0  0  0
  3  5  1  0  0  0  0
  3  6  1  0  0  0  0
 43 46  1  0  0  0  0
 43 47  1  0  0  0  0
 43 48  1  0  0  0  0
 11 14  1  0  0  0  0
 11 15  1  0  0  0  0
 11 16  1  0  0  0  0
 50 52  1  0  0  0  0
 50 53  1  0  0  0  0
 50 54  1  0  0  0  0
 22 30  1  0  0  0  0
 22 31  1  0  0  0  0
 23 32  1  0  0  0  0
 23 33  1  0  0  0  0
 21 28  1  0  0  0  0
 21 29  1  0  0  0  0
 24 34  1  0  0  0  0
 24 35  1  0  0  0  0
 40 45  1  0  0  0  0
  8 13  1  0  0  0  0
 18 27  1  0  0  0  0
 49 51  1  0  0  0  0
  7 12  1  0  0  0  0
 39 44  1  0  0  0  0
 17 26  1  0  0  0  0
 25 36  1  0  0  0  0
 25 37  1  0  0  0  0
 25 38  1  0  0  0  0
M  CHG  1  25   1
M  END
$$$$

  -OEChem-05262214473D

 54 53  0     1  0  0  0  0  0999 V2000
    2.6714    2.8829   -3.0005 C   0  0  0  0  0  0  0  0  0  0  0  0
    3.1741    2.4398   -1.9745 O   0  0  0  0  0  0  0  0  0  0  0  0
    3.5527    3.3077   -4.1279 C   0  0  0  0  0  0  0  0  0  0  0  0
    3.8407    4.3691   -4.0597 H   0  0  0  0  0  0  0  0  0  0  0  0
    4.5024    2.7495   -4.1526 H   0  0  0  0  0  0  0  0  0  0  0  0
    3.1208    3.1887   -5.1345 H   0  0  0  0  0  0  0  0  0  0  0  0
    1.3174    3.0407   -3.2467 N   0  0  0  0  0  0  0  0  0  0  0  0
    0.2944    2.6927   -2.2960 C   0  0  2  0  0  0  0  0  0  0  0  0
    0.2976    1.1783   -2.1349 C   0  0  0  0  0  0  0  0  0  0  0  0
    0.7500    0.4142   -2.9850 O   0  0  0  0  0  0  0  0  0  0  0  0
   -1.0710    3.1886   -2.7460 C   0  0  0  0  0  0  0  0  0  0  0  0
    1.0312    3.4224   -4.1464 H   0  0  0  0  0  0  0  0  0  0  0  0
    0.5725    3.1622   -1.3461 H   0  0  0  0  0  0  0  0  0  0  0  0
   -1.3666    2.7292   -3.6963 H   0  0  0  0  0  0  0  0  0  0  0  0
   -1.8434    2.9482   -2.0082 H   0  0  0  0  0  0  0  0  0  0  0  0
   -1.0632    4.2744   -2.8901 H   0  0  0  0  0  0  0  0  0  0  0  0
   -0.3037    0.7742   -0.9484 N   0  0  0  0  0  0  0  0  0  0  0  0
   -0.4352   -0.6095   -0.5718 C   0  0  2  0  0  0  0  0  0  0  0  0
   -1.8851   -1.0383   -0.7722 C   0  0  0  0  0  0  0  0  0  0  0  0
   -2.3656   -1.2813   -1.8774 O   0  0  0  0  0  0  0  0  0  0  0  0
    0.0709   -0.8667    0.8525 C   0  0  0  0  0  0  0  0  0  0  0  0
    1.5875   -0.7033    1.0170 C   0  0  0  0  0  0  0  0  0  0  0  0
    2.0224   -0.9986    2.4544 C   0  0  0  0  0  0  0  0  0  0  0  0
    3.5234   -0.8118    2.6198 C   0  0  0  0  0  0  0  0  0  0  0  0
    3.8945   -1.0843    4.0291 N   0  3  0  0  0  0  0  0  0  0  0  0
   -0.6336    1.4811   -0.2948 H   0  0  0  0  0  0  0  0  0  0  0  0
    0.1853   -1.1730   -1.2791 H   0  0  0  0  0  0  0  0  0  0  0  0
   -0.4358   -0.1751    1.5380 H   0  0  0  0  0  0  0  0  0  0  0  0
   -0.2118   -1.8803    1.1625 H   0  0  0  0  0  0  0  0  0  0  0  0
    2.1134   -1.3820    0.3355 H   0  0  0  0  0  0  0  0  0  0  0  0
    1.8854    0.3181    0.7526 H   0  0  0  0  0  0  0  0  0  0  0  0
    1.7446   -2.0267    2.7182 H   0  0  0  0  0  0  0  0  0  0  0  0
    1.4870   -0.3342    3.1439 H   0  0  0  0  0  0  0  0  0  0  0  0
    4.0942   -1.5101    2.0005 H   0  0  0  0  0  0  0  0  0  0  0  0
    3.8354    0.2139    2.4020 H   0  0  0  0  0  0  0  0  0  0  0  0
    4.8012   -0.6630    4.2588 H   0  0  0  0  0  0  0  0  0  0  0  0
    3.9627   -2.0934    4.2023 H   0  0  0  0  0  0  0  0  0  0  0  0
    3.1955   -0.7000    4.6744 H   0  0  0  0  0  0  0  0  0  0  0  0
   -2.5713   -1.1503    0.4285 N   0  0  0  0  0  0  0  0  0  0  0  0
   -3.9544   -1.5589    0.4889 C   0  0  2  0  0  0  0  0  0  0  0  0
   -4.4705   -1.2661    1.8915 C   0  0  0  0  0  0  0  0  0  0  0  0
   -3.7323   -1.1535    2.8680 O   0  0  0  0  0  0  0  0  0  0  0  0
   -4.1114   -3.0327    0.1486 C   0  0  0  0  0  0  0  0  0  0  0  0
   -2.0840   -0.9377    1.2939 H   0  0  0  0  0  0  0  0  0  0  0  0
   -4.4978   -0.9438   -0.2367 H   0  0  0  0  0  0  0  0  0  0  0  0
   -3.5736   -3.6648    0.8647 H   0  0  0  0  0  0  0  0  0  0  0  0
   -5.1639   -3.3343    0.1670 H   0  0  0  0  0  0  0  0  0  0  0  0
   -3.7125   -3.2471   -0.8488 H   0  0  0  0  0  0  0  0  0  0  0  0
   -5.8556   -1.1880    1.9322 N   0  0  0  0  0  0  0  0  0  0  0  0
   -6.5865   -0.9316    3.1513 C   0  0  0  0  0  0  0  0  0  0  0  0
   -6.3865   -1.2752    1.0707 H   0  0  0  0  0  0  0  0  0  0  0  0
   -6.8639   -1.8868    3.6209 H   0  0  0  0  0  0  0  0  0  0  0  0
   -5.9556   -0.3531    3.8421 H   0  0  0  0  0  0  0  0  0  0  0  0
   -7.4967   -0.3591    2.9194 H   0  0  0  0  0  0  0  0  0  0  0  0
  1  3  1  0  0  0  0
  1  7  1  0  0  0  0
  1  2  2  0  0  0  0
 40 41  1  0  0  0  0
 41 49  1  0  0  0  0
 41 42  2  0  0  0  0
  8  9  1  0  0  0  0
  9 17  1  0  0  0  0
  9 10  2  0  0  0  0
 18 19  1  0  0  0  0
 19 39  1  0  0  0  0
 19 20  2  0  0  0  0
 40 43  1  0  0  0  0
  8 11  1  0  0  0  0
 49 50  1  0  0  0  0
 22 23  1  0  0  0  0
 21 22  1  0  0  0  0
 23 24  1  0  0  0  0
 18 21  1  0  0  0  0
 24 25  1  0  0  0  0
 39 40  1  0  0  0  0
  7  8  1  0  0  0  0
 17 18  1  0  0  0  0
  3  4  1  0  0  0  0
  3  5  1  0  0  0  0
  3  6  1  0  0  0  0
 43 46  1  0  0  0  0
 43 47  1  0  0  0  0
 43 48  1  0  0  0  0
 11 14  1  0  0  0  0
 11 15  1  0  0  0  0
 11 16  1  0  0  0  0
 50 52  1  0  0  0  0
 50 53  1  0  0  0  0
 50 54  1  0  0  0  0
 22 30  1  0  0  0  0
 22 31  1  0  0  0  0
 23 32  1  0  0  0  0
 23 33  1  0  0  0  0
 21 28  1  0  0  0  0
 21 29  1  0  0  0  0
 24 34  1  0  0  0  0
 24 35  1  0  0  0  0
 40 45  1  0  0  0  0
  8 13  1  0  0  0  0
 18 27  1  0  0  0  0
 49 51  1  0  0  0  0
  7 12  1  0  0  0  0
 39 44  1  0  0  0  0
 17 26  1  0  0  0  0
 25 36  1  0  0  0  0
 25 37  1  0  0  0  0
 25 38  1  0  0  0  0
M  CHG  1  25   1
M  END
$$$$

  -OEChem-05262214473D

 54 53  0     1  0  0  0  0  0999 V2000
    2.6714    2.8829   -3.0005 C   0  0  0  0  0  0  0  0  0  0  0  0
    3.1741    2.4398   -1.9745 O   0  0  0  0  0  0  0  0  0  0  0  0
    3.5527    3.3077   -4.1279 C   0  0  0  0  0  0  0  0  0  0  0  0
    3.8407    4.3691   -4.0597 H   0  0  0  0  0  0  0  0  0  0  0  0
    4.5024    2.7495   -4.1526 H   0  0  0  0  0  0  0  0  0  0  0  0
    3.1208    3.1887   -5.1345 H   0  0  0  0  0  0  0  0  0  0  0  0
    1.3174    3.0407   -3.2467 N   0  0  0  0  0  0  0  0  0  0  0  0
    0.2944    2.6927   -2.2960 C   0  0  2  0  0  0  0  0  0  0  0  0
    0.2976    1.1783   -2.1349 C   0  0  0  0  0  0  0  0  0  0  0  0
    0.7500    0.4142   -2.9850 O   0  0  0  0  0  0  0  0  0  0  0  0
   -1.0710    3.1886   -2.7460 C   0  0  0  0  0  0  0  0  0  0  0  0
    1.0312    3.4224   -4.1464 H   0  0  0  0  0  0  0  0  0  0  0  0
    0.5725    3.1622   -1.3461 H   0  0  0  0  0  0  0  0  0  0  0  0
   -1.3666    2.7292   -3.6963 H   0  0  0  0  0  0  0  0  0  0  0  0
   -1.8434    2.9482   -2.0082 H   0  0  0  0  0  0  0  0  0  0  0  0
   -1.0632    4.2744   -2.8901 H   0  0  0  0  0  0  0  0  0  0  0  0
   -0.3037    0.7742   -0.9484 N   0  0  0  0  0  0  0  0  0  0  0  0
   -0.4352   -0.6095   -0.5718 C   0  0  2  0  0  0  0  0  0  0  0  0
   -1.8851   -1.0383   -0.7722 C   0  0  0  0  0  0  0  0  0  0  0  0
   -2.2988   -1.5350   -1.8180 O   0  0  0  0  0  0  0  0  0  0  0  0
    0.0709   -0.8667    0.8525 C   0  0  0  0  0  0  0  0  0  0  0  0
    1.5875   -0.7033    1.0170 C   0  0  0  0  0  0  0  0  0  0  0  0
    2.0224   -0.9986    2.4544 C   0  0  0  0  0  0  0  0  0  0  0  0
    3.5234   -0.8118    2.6198 C   0  0  0  0  0  0  0  0  0  0  0  0
    3.8945   -1.0843    4.0291 N   0  3  0  0  0  0  0  0  0  0  0  0
   -0.6336    1.4811   -0.2948 H   0  0  0  0  0  0  0  0  0  0  0  0
    0.1853   -1.1730   -1.2791 H   0  0  0  0  0  0  0  0  0  0  0  0
   -0.4358   -0.1751    1.5380 H   0  0  0  0  0  0  0  0  0  0  0  0
   -0.2118   -1.8803    1.1625 H   0  0  0  0  0  0  0  0  0  0  0  0
    2.1134   -1.3820    0.3355 H   0  0  0  0  0  0  0  0  0  0  0  0
    1.8854    0.3181    0.7526 H   0  0  0  0  0  0  0  0  0  0  0  0
    1.7446   -2.0267    2.7182 H   0  0  0  0  0  0  0  0  0  0  0  0
    1.4870   -0.3342    3.1439 H   0  0  0  0  0  0  0  0  0  0  0  0
    4.0942   -1.5101    2.0005 H   0  0  0  0  0  0  0  0  0  0  0  0
    3.8354    0.2139    2.4020 H   0  0  0  0  0  0  0  0  0  0  0  0
    4.8012   -0.6630    4.2588 H   0  0  0  0  0  0  0  0  0  0  0  0
    3.9627   -2.0934    4.2023 H   0  0  0  0  0  0  0  0  0  0  0  0
    3.1955   -0.7000    4.6744 H   0  0  0  0  0  0  0  0  0  0  0  0
   -2.6561   -0.8328    0.3629 N   0  0  0  0  0  0  0  0  0  0  0  0
   -4.0565   -1.1792    0.4147 C   0  0  2  0  0  0  0  0  0  0  0  0
   -4.6543   -0.5358    1.6589 C   0  0  0  0  0  0  0  0  0  0  0  0
   -3.9806   -0.2037    2.6320 O   0  0  0  0  0  0  0  0  0  0  0  0
   -4.2531   -2.6870    0.4345 C   0  0  0  0  0  0  0  0  0  0  0  0
   -2.2206   -0.4249    1.1848 H   0  0  0  0  0  0  0  0  0  0  0  0
   -4.5219   -0.7493   -0.4790 H   0  0  0  0  0  0  0  0  0  0  0  0
   -3.7934   -3.1355    1.3228 H   0  0  0  0  0  0  0  0  0  0  0  0
   -5.3164   -2.9484    0.4450 H   0  0  0  0  0  0  0  0  0  0  0  0
   -3.7965   -3.1512   -0.4463 H   0  0  0  0  0  0  0  0  0  0  0  0
   -6.0343   -0.4157    1.5725 N   0  0  0  0  0  0  0  0  0  0  0  0
   -6.8353    0.1523    2.6317 C   0  0  0  0  0  0  0  0  0  0  0  0
   -6.5082   -0.7000    0.7203 H   0  0  0  0  0  0  0  0  0  0  0  0
   -7.1852   -0.6499    3.2980 H   0  0  0  0  0  0  0  0  0  0  0  0
   -6.2288    0.8678    3.2064 H   0  0  0  0  0  0  0  0  0  0  0  0
   -7.7019    0.6721    2.1973 H   0  0  0  0  0  0  0  0  0  0  0  0
  1  3  1  0  0  0  0
  1  7  1  0  0  0  0
  1  2  2  0  0  0  0
 40 41  1  0  0  0  0
 41 49  1  0  0  0  0
 41 42  2  0  0  0  0
  8  9  1  0  0  0  0
  9 17  1  0  0  0  0
  9 10  2  0  0  0  0
 18 19  1  0  0  0  0
 19 39  1  0  0  0  0
 19 20  2  0  0  0  0
 40 43  1  0  0  0  0
  8 11  1  0  0  0  0
 49 50  1  0  0  0  0
 22 23  1  0  0  0  0
 21 22  1  0  0  0  0
 23 24  1  0  0  0  0
 18 21  1  0  0  0  0
 24 25  1  0  0  0  0
 39 40  1  0  0  0  0
  7  8  1  0  0  0  0
 17 18  1  0  0  0  0
  3  4  1  0  0  0  0
  3  5  1  0  0  0  0
  3  6  1  0  0  0  0
 43 46  1  0  0  0  0
 43 47  1  0  0  0  0
 43 48  1  0  0  0  0
 11 14  1  0  0  0  0
 11 15  1  0  0  0  0
 11 16  1  0  0  0  0
 50 52  1  0  0  0  0
 50 53  1  0  0  0  0
 50 54  1  0  0  0  0
 22 30  1  0  0  0  0
 22 31  1  0  0  0  0
 23 32  1  0  0  0  0
 23 33  1  0  0  0  0
 21 28  1  0  0  0  0
 21 29  1  0  0  0  0
 24 34  1  0  0  0  0
 24 35  1  0  0  0  0
 40 45  1  0  0  0  0
  8 13  1  0  0  0  0
 18 27  1  0  0  0  0
 49 51  1  0  0  0  0
  7 12  1  0  0  0  0
 39 44  1  0  0  0  0
 17 26  1  0  0  0  0
 25 36  1  0  0  0  0
 25 37  1  0  0  0  0
 25 38  1  0  0  0  0
M  CHG  1  25   1
M  END
$$$$

  -OEChem-05262214473D

 54 53  0     1  0  0  0  0  0999 V2000
    2.6714    2.8829   -3.0005 C   0  0  0  0  0  0  0  0  0  0  0  0
    3.1741    2.4398   -1.9745 O   0  0  0  0  0  0  0  0  0  0  0  0
    3.5527    3.3077   -4.1279 C   0  0  0  0  0  0  0  0  0  0  0  0
    3.8407    4.3691   -4.0597 H   0  0  0  0  0  0  0  0  0  0  0  0
    4.5024    2.7495   -4.1526 H   0  0  0  0  0  0  0  0  0  0  0  0
    3.1208    3.1887   -5.1345 H   0  0  0  0  0  0  0  0  0  0  0  0
    1.3174    3.0407   -3.2467 N   0  0  0  0  0  0  0  0  0  0  0  0
    0.2944    2.6927   -2.2960 C   0  0  2  0  0  0  0  0  0  0  0  0
    0.2976    1.1783   -2.1349 C   0  0  0  0  0  0  0  0  0  0  0  0
    0.7500    0.4142   -2.9850 O   0  0  0  0  0  0  0  0  0  0  0  0
   -1.0710    3.1886   -2.7460 C   0  0  0  0  0  0  0  0  0  0  0  0
    1.0312    3.4224   -4.1464 H   0  0  0  0  0  0  0  0  0  0  0  0
    0.5725    3.1622   -1.3461 H   0  0  0  0  0  0  0  0  0  0  0  0
   -1.3666    2.7292   -3.6963 H   0  0  0  0  0  0  0  0  0  0  0  0
   -1.8434    2.9482   -2.0082 H   0  0  0  0  0  0  0  0  0  0  0  0
   -1.0632    4.2744   -2.8901 H   0  0  0  0  0  0  0  0  0  0  0  0
   -0.3037    0.7742   -0.9484 N   0  0  0  0  0  0  0  0  0  0  0  0
   -0.4352   -0.6095   -0.5718 C   0  0  2  0  0  0  0  0  0  0  0  0
   -1.8851   -1.0383   -0.7722 C   0  0  0  0  0  0  0  0  0  0  0  0
   -2.2472   -1.7677   -1.6932 O   0  0  0  0  0  0  0  0  0  0  0  0
    0.0709   -0.8667    0.8525 C   0  0  0  0  0  0  0  0  0  0  0  0
    1.5875   -0.7033    1.0170 C   0  0  0  0  0  0  0  0  0  0  0  0
    2.0224   -0.9986    2.4544 C   0  0  0  0  0  0  0  0  0  0  0  0
    3.5234   -0.8118    2.6198 C   0  0  0  0  0  0  0  0  0  0  0  0
    3.8945   -1.0843    4.0291 N   0  3  0  0  0  0  0  0  0  0  0  0
   -0.6336    1.4811   -0.2948 H   0  0  0  0  0  0  0  0  0  0  0  0
    0.1853   -1.1730   -1.2791 H   0  0  0  0  0  0  0  0  0  0  0  0
   -0.4358   -0.1751    1.5380 H   0  0  0  0  0  0  0  0  0  0  0  0
   -0.2118   -1.8803    1.1625 H   0  0  0  0  0  0  0  0  0  0  0  0
    2.1134   -1.3820    0.3355 H   0  0  0  0  0  0  0  0  0  0  0  0
    1.8854    0.3181    0.7526 H   0  0  0  0  0  0  0  0  0  0  0  0
    1.7446   -2.0267    2.7182 H   0  0  0  0  0  0  0  0  0  0  0  0
    1.4870   -0.3342    3.1439 H   0  0  0  0  0  0  0  0  0  0  0  0
    4.0942   -1.5101    2.0005 H   0  0  0  0  0  0  0  0  0  0  0  0
    3.8354    0.2139    2.4020 H   0  0  0  0  0  0  0  0  0  0  0  0
    4.8012   -0.6630    4.2588 H   0  0  0  0  0  0  0  0  0  0  0  0
    3.9627   -2.0934    4.2023 H   0  0  0  0  0  0  0  0  0  0  0  0
    3.1955   -0.7000    4.6744 H   0  0  0  0  0  0  0  0  0  0  0  0
   -2.7225   -0.5393    0.2152 N   0  0  0  0  0  0  0  0  0  0  0  0
   -4.1367   -0.8272    0.2422 C   0  0  2  0  0  0  0  0  0  0  0  0
   -4.7902    0.1185    1.2412 C   0  0  0  0  0  0  0  0  0  0  0  0
   -4.1710    0.6641    2.1523 O   0  0  0  0  0  0  0  0  0  0  0  0
   -4.3991   -2.2779    0.6153 C   0  0  0  0  0  0  0  0  0  0  0  0
   -2.3271    0.0481    0.9433 H   0  0  0  0  0  0  0  0  0  0  0  0
   -4.5209   -0.6202   -0.7626 H   0  0  0  0  0  0  0  0  0  0  0  0
   -4.0211   -2.5042    1.6190 H   0  0  0  0  0  0  0  0  0  0  0  0
   -5.4709   -2.5020    0.6075 H   0  0  0  0  0  0  0  0  0  0  0  0
   -3.9036   -2.9568   -0.0872 H   0  0  0  0  0  0  0  0  0  0  0  0
   -6.1545    0.2479    1.0220 N   0  0  0  0  0  0  0  0  0  0  0  0
   -7.0009    1.0799    1.8449 C   0  0  0  0  0  0  0  0  0  0  0  0
   -6.5807   -0.2265    0.2314 H   0  0  0  0  0  0  0  0  0  0  0  0
   -7.4299    0.4764    2.6584 H   0  0  0  0  0  0  0  0  0  0  0  0
   -6.4050    1.9000    2.2720 H   0  0  0  0  0  0  0  0  0  0  0  0
   -7.8126    1.4976    1.2311 H   0  0  0  0  0  0  0  0  0  0  0  0
  1  3  1  0  0  0  0
  1  7  1  0  0  0  0
  1  2  2  0  0  0  0
 40 41  1  0  0  0  0
 41 49  1  0  0  0  0
 41 42  2  0  0  0  0
  8  9  1  0  0  0  0
  9 17  1  0  0  0  0
  9 10  2  0  0  0  0
 18 19  1  0  0  0  0
 19 39  1  0  0  0  0
 19 20  2  0  0  0  0
 40 43  1  0  0  0  0
  8 11  1  0  0  0  0
 49 50  1  0  0  0  0
 22 23  1  0  0  0  0
 21 22  1  0  0  0  0
 23 24  1  0  0  0  0
 18 21  1  0  0  0  0
 24 25  1  0  0  0  0
 39 40  1  0  0  0  0
  7  8  1  0  0  0  0
 17 18  1  0  0  0  0
  3  4  1  0  0  0  0
  3  5  1  0  0  0  0
  3  6  1  0  0  0  0
 43 46  1  0  0  0  0
 43 47  1  0  0  0  0
 43 48  1  0  0  0  0
 11 14  1  0  0  0  0
 11 15  1  0  0  0  0
 11 16  1  0  0  0  0
 50 52  1  0  0  0  0
 50 53  1  0  0  0  0
 50 54  1  0  0  0  0
 22 30  1  0  0  0  0
 22 31  1  0  0  0  0
 23 32  1  0  0  0  0
 23 33  1  0  0  0  0
 21 28  1  0  0  0  0
 21 29  1  0  0  0  0
 24 34  1  0  0  0  0
 24 35  1  0  0  0  0
 40 45  1  0  0  0  0
  8 13  1  0  0  0  0
 18 27  1  0  0  0  0
 49 51  1  0  0  0  0
  7 12  1  0  0  0  0
 39 44  1  0  0  0  0
 17 26  1  0  0  0  0
 25 36  1  0  0  0  0
 25 37  1  0  0  0  0
 25 38  1  0  0  0  0
M  CHG  1  25   1
M  END
$$$$

  -OEChem-05262214473D

 54 53  0     1  0  0  0  0  0999 V2000
    2.6714    2.8829   -3.0005 C   0  0  0  0  0  0  0  0  0  0  0  0
    3.1741    2.4398   -1.9745 O   0  0  0  0  0  0  0  0  0  0  0  0
    3.5527    3.3077   -4.1279 C   0  0  0  0  0  0  0  0  0  0  0  0
    3.8407    4.3691   -4.0597 H   0  0  0  0  0  0  0  0  0  0  0  0
    4.5024    2.7495   -4.1526 H   0  0  0  0  0  0  0  0  0  0  0  0
    3.1208    3.1887   -5.1345 H   0  0  0  0  0  0  0  0  0  0  0  0
    1.3174    3.0407   -3.2467 N   0  0  0  0  0  0  0  0  0  0  0  0
    0.2944    2.6927   -2.2960 C   0  0  2  0  0  0  0  0  0  0  0  0
    0.2976    1.1783   -2.1349 C   0  0  0  0  0  0  0  0  0  0  0  0
    0.7500    0.4142   -2.9850 O   0  0  0  0  0  0  0  0  0  0  0  0
   -1.0710    3.1886   -2.7460 C   0  0  0  0  0  0  0  0  0  0  0  0
    1.0312    3.4224   -4.1464 H   0  0  0  0  0  0  0  0  0  0  0  0
    0.5725    3.1622   -1.3461 H   0  0  0  0  0  0  0  0  0  0  0  0
   -1.3666    2.7292   -3.6963 H   0  0  0  0  0  0  0  0  0  0  0  0
   -1.8434    2.9482   -2.0082 H   0  0  0  0  0  0  0  0  0  0  0  0
   -1.0632    4.2744   -2.8901 H   0  0  0  0  0  0  0  0  0  0  0  0
   -0.3037    0.7742   -0.9484 N   0  0  0  0  0  0  0  0  0  0  0  0
   -0.4352   -0.6095   -0.5718 C   0  0  2  0  0  0  0  0  0  0  0  0
   -1.8851   -1.0383   -0.7722 C   0  0  0  0  0  0  0  0  0  0  0  0
   -2.2143   -1.9636   -1.5117 O   0  0  0  0  0  0  0  0  0  0  0  0
    0.0709   -0.8667    0.8525 C   0  0  0  0  0  0  0  0  0  0  0  0
    1.5875   -0.7033    1.0170 C   0  0  0  0  0  0  0  0  0  0  0  0
    2.0224   -0.9986    2.4544 C   0  0  0  0  0  0  0  0  0  0  0  0
    3.5234   -0.8118    2.6198 C   0  0  0  0  0  0  0  0  0  0  0  0
    3.8945   -1.0843    4.0291 N   0  3  0  0  0  0  0  0  0  0  0  0
   -0.6336    1.4811   -0.2948 H   0  0  0  0  0  0  0  0  0  0  0  0
    0.1853   -1.1730   -1.2791 H   0  0  0  0  0  0  0  0  0  0  0  0
   -0.4358   -0.1751    1.5380 H   0  0  0  0  0  0  0  0  0  0  0  0
   -0.2118   -1.8803    1.1625 H   0  0  0  0  0  0  0  0  0  0  0  0
    2.1134   -1.3820    0.3355 H   0  0  0  0  0  0  0  0  0  0  0  0
    1.8854    0.3181    0.7526 H   0  0  0  0  0  0  0  0  0  0  0  0
    1.7446   -2.0267    2.7182 H   0  0  0  0  0  0  0  0  0  0  0  0
    1.4870   -0.3342    3.1439 H   0  0  0  0  0  0  0  0  0  0  0  0
    4.0942   -1.5101    2.0005 H   0  0  0  0  0  0  0  0  0  0  0  0
    3.8354    0.2139    2.4020 H   0  0  0  0  0  0  0  0  0  0  0  0
    4.8012   -0.6630    4.2588 H   0  0  0  0  0  0  0  0  0  0  0  0
    3.9627   -2.0934    4.2023 H   0  0  0  0  0  0  0  0  0  0  0  0
    3.1955   -0.7000    4.6744 H   0  0  0  0  0  0  0  0  0  0  0  0
   -2.7659   -0.2900   -0.0045 N   0  0  0  0  0  0  0  0  0  0  0  0
   -4.1897   -0.5269   -0.0169 C   0  0  2  0  0  0  0  0  0  0  0  0
   -4.8687    0.6525    0.6669 C   0  0  0  0  0  0  0  0  0  0  0  0
   -4.2905    1.3908    1.4616 O   0  0  0  0  0  0  0  0  0  0  0  0
   -4.5393   -1.8333    0.6787 C   0  0  0  0  0  0  0  0  0  0  0  0
   -2.3964    0.4493    0.5859 H   0  0  0  0  0  0  0  0  0  0  0  0
   -4.4948   -0.5654   -1.0683 H   0  0  0  0  0  0  0  0  0  0  0  0
   -4.2411   -1.8136    1.7332 H   0  0  0  0  0  0  0  0  0  0  0  0
   -5.6167   -2.0257    0.6434 H   0  0  0  0  0  0  0  0  0  0  0  0
   -4.0266   -2.6769    0.2040 H   0  0  0  0  0  0  0  0  0  0  0  0
   -6.2080    0.7575    0.3183 N   0  0  0  0  0  0  0  0  0  0  0  0
   -7.0721    1.7880    0.8448 C   0  0  0  0  0  0  0  0  0  0  0  0
   -6.5991    0.1131   -0.3626 H   0  0  0  0  0  0  0  0  0  0  0  0
   -7.5814    1.4153    1.7457 H   0  0  0  0  0  0  0  0  0  0  0  0
   -6.4721    2.6731    1.1027 H   0  0  0  0  0  0  0  0  0  0  0  0
   -7.8211    2.0610    0.0867 H   0  0  0  0  0  0  0  0  0  0  0  0
  1  3  1  0  0  0  0
  1  7  1  0  0  0  0
  1  2  2  0  0  0  0
 40 41  1  0  0  0  0
 41 49  1  0  0  0  0
 41 42  2  0  0  0  0
  8  9  1  0  0  0  0
  9 17  1  0  0  0  0
  9 10  2  0  0  0  0
 18 19  1  0  0  0  0
 19 39  1  0  0  0  0
 19 20  2  0  0  0  0
 40 43  1  0  0  0  0
  8 11  1  0  0  0  0
 49 50  1  0  0  0  0
 22 23  1  0  0  0  0
 21 22  1  0  0  0  0
 23 24  1  0  0  0  0
 18 21  1  0  0  0  0
 24 25  1  0  0  0  0
 39 40  1  0  0  0  0
  7  8  1  0  0  0  0
 17 18  1  0  0  0  0
  3  4  1  0  0  0  0
  3  5  1  0  0  0  0
  3  6  1  0  0  0  0
 43 46  1  0  0  0  0
 43 47  1  0  0  0  0
 43 48  1  0  0  0  0
 11 14  1  0  0  0  0
 11 15  1  0  0  0  0
 11 16  1  0  0  0  0
 50 52  1  0  0  0  0
 50 53  1  0  0  0  0
 50 54  1  0  0  0  0
 22 30  1  0  0  0  0
 22 31  1  0  0  0  0
 23 32  1  0  0  0  0
 23 33  1  0  0  0  0
 21 28  1  0  0  0  0
 21 29  1  0  0  0  0
 24 34  1  0  0  0  0
 24 35  1  0  0  0  0
 40 45  1  0  0  0  0
  8 13  1  0  0  0  0
 18 27  1  0  0  0  0
 49 51  1  0  0  0  0
  7 12  1  0  0  0  0
 39 44  1  0  0  0  0
 17 26  1  0  0  0  0
 25 36  1  0  0  0  0
 25 37  1  0  0  0  0
 25 38  1  0  0  0  0
M  CHG  1  25   1
M  END
$$$$

  -OEChem-05262214473D

 54 53  0     1  0  0  0  0  0999 V2000
    2.6714    2.8829   -3.0005 C   0  0  0  0  0  0  0  0  0  0  0  0
    3.1741    2.4398   -1.9745 O   0  0  0  0  0  0  0  0  0  0  0  0
    3.5527    3.3077   -4.1279 C   0  0  0  0  0  0  0  0  0  0  0  0
    3.8407    4.3691   -4.0597 H   0  0  0  0  0  0  0  0  0  0  0  0
    4.5024    2.7495   -4.1526 H   0  0  0  0  0  0  0  0  0  0  0  0
    3.1208    3.1887   -5.1345 H   0  0  0  0  0  0  0  0  0  0  0  0
    1.3174    3.0407   -3.2467 N   0  0  0  0  0  0  0  0  0  0  0  0
    0.2944    2.6927   -2.2960 C   0  0  2  0  0  0  0  0  0  0  0  0
    0.2976    1.1783   -2.1349 C   0  0  0  0  0  0  0  0  0  0  0  0
    0.7500    0.4142   -2.9850 O   0  0  0  0  0  0  0  0  0  0  0  0
   -1.0710    3.1886   -2.7460 C   0  0  0  0  0  0  0  0  0  0  0  0
    1.0312    3.4224   -4.1464 H   0  0  0  0  0  0  0  0  0  0  0  0
    0.5725    3.1622   -1.3461 H   0  0  0  0  0  0  0  0  0  0  0  0
   -1.3666    2.7292   -3.6963 H   0  0  0  0  0  0  0  0  0  0  0  0
   -1.8434    2.9482   -2.0082 H   0  0  0  0  0  0  0  0  0  0  0  0
   -1.0632    4.2744   -2.8901 H   0  0  0  0  0  0  0  0  0  0  0  0
   -0.3037    0.7742   -0.9484 N   0  0  0  0  0  0  0  0  0  0  0  0
   -0.4352   -0.6095   -0.5718 C   0  0  2  0  0  0  0  0  0  0  0  0
   -1.8851   -1.0383   -0.7722 C   0  0  0  0  0  0  0  0  0  0  0  0
   -2.2025   -2.1093   -1.2858 O   0  0  0  0  0  0  0  0  0  0  0  0
    0.0709   -0.8667    0.8525 C   0  0  0  0  0  0  0  0  0  0  0  0
    1.5875   -0.7033    1.0170 C   0  0  0  0  0  0  0  0  0  0  0  0
    2.0224   -0.9986    2.4544 C   0  0  0  0  0  0  0  0  0  0  0  0
    3.5234   -0.8118    2.6198 C   0  0  0  0  0  0  0  0  0  0  0  0
    3.8945   -1.0843    4.0291 N   0  3  0  0  0  0  0  0  0  0  0  0
   -0.6336    1.4811   -0.2948 H   0  0  0  0  0  0  0  0  0  0  0  0
    0.1853   -1.1730   -1.2791 H   0  0  0  0  0  0  0  0  0  0  0  0
   -0.4358   -0.1751    1.5380 H   0  0  0  0  0  0  0  0  0  0  0  0
   -0.2118   -1.8803    1.1625 H   0  0  0  0  0  0  0  0  0  0  0  0
    2.1134   -1.3820    0.3355 H   0  0  0  0  0  0  0  0  0  0  0  0
    1.8854    0.3181    0.7526 H   0  0  0  0  0  0  0  0  0  0  0  0
    1.7446   -2.0267    2.7182 H   0  0  0  0  0  0  0  0  0  0  0  0
    1.4870   -0.3342    3.1439 H   0  0  0  0  0  0  0  0  0  0  0  0
    4.0942   -1.5101    2.0005 H   0  0  0  0  0  0  0  0  0  0  0  0
    3.8354    0.2139    2.4020 H   0  0  0  0  0  0  0  0  0  0  0  0
    4.8012   -0.6630    4.2588 H   0  0  0  0  0  0  0  0  0  0  0  0
    3.9627   -2.0934    4.2023 H   0  0  0  0  0  0  0  0  0  0  0  0
    3.1955   -0.7000    4.6744 H   0  0  0  0  0  0  0  0  0  0  0  0
   -2.7833   -0.1017   -0.2813 N   0  0  0  0  0  0  0  0  0  0  0  0
   -4.2119   -0.2988   -0.3449 C   0  0  2  0  0  0  0  0  0  0  0  0
   -4.8846    1.0295   -0.0250 C   0  0  0  0  0  0  0  0  0  0  0  0
   -4.3309    1.9269    0.6069 O   0  0  0  0  0  0  0  0  0  0  0  0
   -4.6643   -1.3835    0.6202 C   0  0  0  0  0  0  0  0  0  0  0  0
   -2.4236    0.7512    0.1369 H   0  0  0  0  0  0  0  0  0  0  0  0
   -4.4456   -0.5885   -1.3752 H   0  0  0  0  0  0  0  0  0  0  0  0
   -4.4384   -1.1111    1.6577 H   0  0  0  0  0  0  0  0  0  0  0  0
   -5.7440   -1.5517    0.5503 H   0  0  0  0  0  0  0  0  0  0  0  0
   -4.1571   -2.3308    0.4075 H   0  0  0  0  0  0  0  0  0  0  0  0
   -6.1911    1.0784   -0.4908 N   0  0  0  0  0  0  0  0  0  0  0  0
   -7.0441    2.2283   -0.3007 C   0  0  0  0  0  0  0  0  0  0  0  0
   -6.5620    0.2956   -1.0213 H   0  0  0  0  0  0  0  0  0  0  0  0
   -7.6295    2.1027    0.6220 H   0  0  0  0  0  0  0  0  0  0  0  0
   -6.4255    3.1345   -0.2219 H   0  0  0  0  0  0  0  0  0  0  0  0
   -7.7268    2.3239   -1.1579 H   0  0  0  0  0  0  0  0  0  0  0  0
  1  3  1  0  0  0  0
  1  7  1  0  0  0  0
  1  2  2  0  0  0  0
 40 41  1  0  0  0  0
 41 49  1  0  0  0  0
 41 42  2  0  0  0  0
  8  9  1  0  0  0  0
  9 17  1  0  0  0  0
  9 10  2  0  0  0  0
 18 19  1  0  0  0  0
 19 39  1  0  0  0  0
 19 20  2  0  0  0  0
 40 43  1  0  0  0  0
  8 11  1  0  0  0  0
 49 50  1  0  0  0  0
 22 23  1  0  0  0  0
 21 22  1  0  0  0  0
 23 24  1  0  0  0  0
 18 21  1  0  0  0  0
 24 25  1  0  0  0  0
 39 40  1  0  0  0  0
  7  8  1  0  0  0  0
 17 18  1  0  0  0  0
  3  4  1  0  0  0  0
  3  5  1  0  0  0  0
  3  6  1  0  0  0  0
 43 46  1  0  0  0  0
 43 47  1  0  0  0  0
 43 48  1  0  0  0  0
 11 14  1  0  0  0  0
 11 15  1  0  0  0  0
 11 16  1  0  0  0  0
 50 52  1  0  0  0  0
 50 53  1  0  0  0  0
 50 54  1  0  0  0  0
 22 30  1  0  0  0  0
 22 31  1  0  0  0  0
 23 32  1  0  0  0  0
 23 33  1  0  0  0  0
 21 28  1  0  0  0  0
 21 29  1  0  0  0  0
 24 34  1  0  0  0  0
 24 35  1  0  0  0  0
 40 45  1  0  0  0  0
  8 13  1  0  0  0  0
 18 27  1  0  0  0  0
 49 51  1  0  0  0  0
  7 12  1  0  0  0  0
 39 44  1  0  0  0  0
 17 26  1  0  0  0  0
 25 36  1  0  0  0  0
 25 37  1  0  0  0  0
 25 38  1  0  0  0  0
M  CHG  1  25   1
M  END
$$$$

  -OEChem-05262214473D

 54 53  0     1  0  0  0  0  0999 V2000
    2.6714    2.8829   -3.0005 C   0  0  0  0  0  0  0  0  0  0  0  0
    3.1741    2.4398   -1.9745 O   0  0  0  0  0  0  0  0  0  0  0  0
    3.5527    3.3077   -4.1279 C   0  0  0  0  0  0  0  0  0  0  0  0
    3.8407    4.3691   -4.0597 H   0  0  0  0  0  0  0  0  0  0  0  0
    4.5024    2.7495   -4.1526 H   0  0  0  0  0  0  0  0  0  0  0  0
    3.1208    3.1887   -5.1345 H   0  0  0  0  0  0  0  0  0  0  0  0
    1.3174    3.0407   -3.2467 N   0  0  0  0  0  0  0  0  0  0  0  0
    0.2944    2.6927   -2.2960 C   0  0  2  0  0  0  0  0  0  0  0  0
    0.2976    1.1783   -2.1349 C   0  0  0  0  0  0  0  0  0  0  0  0
    0.7500    0.4142   -2.9850 O   0  0  0  0  0  0  0  0  0  0  0  0
   -1.0710    3.1886   -2.7460 C   0  0  0  0  0  0  0  0  0  0  0  0
    1.0312    3.4224   -4.1464 H   0  0  0  0  0  0  0  0  0  0  0  0
    0.5725    3.1622   -1.3461 H   0  0  0  0  0  0  0  0  0  0  0  0
   -1.3666    2.7292   -3.6963 H   0  0  0  0  0  0  0  0  0  0  0  0
   -1.8434    2.9482   -2.0082 H   0  0  0  0  0  0  0  0  0  0  0  0
   -1.0632    4.2744   -2.8901 H   0  0  0  0  0  0  0  0  0  0  0  0
   -0.3037    0.7742   -0.9484 N   0  0  0  0  0  0  0  0  0  0  0  0
   -0.4352   -0.6095   -0.5718 C   0  0  2  0  0  0  0  0  0  0  0  0
   -1.8851   -1.0383   -0.7722 C   0  0  0  0  0  0  0  0  0  0  0  0
   -2.2124   -2.1948   -1.0309 O   0  0  0  0  0  0  0  0  0  0  0  0
    0.0709   -0.8667    0.8525 C   0  0  0  0  0  0  0  0  0  0  0  0
    1.5875   -0.7033    1.0170 C   0  0  0  0  0  0  0  0  0  0  0  0
    2.0224   -0.9986    2.4544 C   0  0  0  0  0  0  0  0  0  0  0  0
    3.5234   -0.8118    2.6198 C   0  0  0  0  0  0  0  0  0  0  0  0
    3.8945   -1.0843    4.0291 N   0  3  0  0  0  0  0  0  0  0  0  0
   -0.6336    1.4811   -0.2948 H   0  0  0  0  0  0  0  0  0  0  0  0
    0.1853   -1.1730   -1.2791 H   0  0  0  0  0  0  0  0  0  0  0  0
   -0.4358   -0.1751    1.5380 H   0  0  0  0  0  0  0  0  0  0  0  0
   -0.2118   -1.8803    1.1625 H   0  0  0  0  0  0  0  0  0  0  0  0
    2.1134   -1.3820    0.3355 H   0  0  0  0  0  0  0  0  0  0  0  0
    1.8854    0.3181    0.7526 H   0  0  0  0  0  0  0  0  0  0  0  0
    1.7446   -2.0267    2.7182 H   0  0  0  0  0  0  0  0  0  0  0  0
    1.4870   -0.3342    3.1439 H   0  0  0  0  0  0  0  0  0  0  0  0
    4.0942   -1.5101    2.0005 H   0  0  0  0  0  0  0  0  0  0  0  0
    3.8354    0.2139    2.4020 H   0  0  0  0  0  0  0  0  0  0  0  0
    4.8012   -0.6630    4.2588 H   0  0  0  0  0  0  0  0  0  0  0  0
    3.9627   -2.0934    4.2023 H   0  0  0  0  0  0  0  0  0  0  0  0
    3.1955   -0.7000    4.6744 H   0  0  0  0  0  0  0  0  0  0  0  0
   -2.7736    0.0127   -0.5961 N   0  0  0  0  0  0  0  0  0  0  0  0
   -4.2016   -0.1585   -0.7194 C   0  0  2  0  0  0  0  0  0  0  0  0
   -4.8368    1.2241   -0.7872 C   0  0  0  0  0  0  0  0  0  0  0  0
   -4.2896    2.2357   -0.3535 O   0  0  0  0  0  0  0  0  0  0  0  0
   -4.7654   -0.9592    0.4441 C   0  0  0  0  0  0  0  0  0  0  0  0
   -2.4070    0.9332   -0.3731 H   0  0  0  0  0  0  0  0  0  0  0  0
   -4.3765   -0.6880   -1.6623 H   0  0  0  0  0  0  0  0  0  0  0  0
   -4.5997   -0.4443    1.3975 H   0  0  0  0  0  0  0  0  0  0  0  0
   -5.8441   -1.1125    0.3345 H   0  0  0  0  0  0  0  0  0  0  0  0
   -4.2862   -1.9420    0.5094 H   0  0  0  0  0  0  0  0  0  0  0  0
   -6.1050    1.1887   -1.3500 N   0  0  0  0  0  0  0  0  0  0  0  0
   -6.9186    2.3708   -1.5135 C   0  0  0  0  0  0  0  0  0  0  0  0
   -6.4721    0.3086   -1.6997 H   0  0  0  0  0  0  0  0  0  0  0  0
   -7.5708    2.4919   -0.6360 H   0  0  0  0  0  0  0  0  0  0  0  0
   -6.2684    3.2526   -1.6115 H   0  0  0  0  0  0  0  0  0  0  0  0
   -7.5363    2.2684   -2.4179 H   0  0  0  0  0  0  0  0  0  0  0  0
  1  3  1  0  0  0  0
  1  7  1  0  0  0  0
  1  2  2  0  0  0  0
 40 41  1  0  0  0  0
 41 49  1  0  0  0  0
 41 42  2  0  0  0  0
  8  9  1  0  0  0  0
  9 17  1  0  0  0  0
  9 10  2  0  0  0  0
 18 19  1  0  0  0  0
 19 39  1  0  0  0  0
 19 20  2  0  0  0  0
 40 43  1  0  0  0  0
  8 11  1  0  0  0  0
 49 50  1  0  0  0  0
 22 23  1  0  0  0  0
 21 22  1  0  0  0  0
 23 24  1  0  0  0  0
 18 21  1  0  0  0  0
 24 25  1  0  0  0  0
 39 40  1  0  0  0  0
  7  8  1  0  0  0  0
 17 18  1  0  0  0  0
  3  4  1  0  0  0  0
  3  5  1  0  0  0  0
  3  6  1  0  0  0  0
 43 46  1  0  0  0  0
 43 47  1  0  0  0  0
 43 48  1  0  0  0  0
 11 14  1  0  0  0  0
 11 15  1  0  0  0  0
 11 16  1  0  0  0  0
 50 52  1  0  0  0  0
 50 53  1  0  0  0  0
 50 54  1  0  0  0  0
 22 30  1  0  0  0  0
 22 31  1  0  0  0  0
 23 32  1  0  0  0  0
 23 33  1  0  0  0  0
 21 28  1  0  0  0  0
 21 29  1  0  0  0  0
 24 34  1  0  0  0  0
 24 35  1  0  0  0  0
 40 45  1  0  0  0  0
  8 13  1  0  0  0  0
 18 27  1  0  0  0  0
 49 51  1  0  0  0  0
  7 12  1  0  0  0  0
 39 44  1  0  0  0  0
 17 26  1  0  0  0  0
 25 36  1  0  0  0  0
 25 37  1  0  0  0  0
 25 38  1  0  0  0  0
M  CHG  1  25   1
M  END
$$$$

  -OEChem-05262214473D

 54 53  0     1  0  0  0  0  0999 V2000
    2.6714    2.8829   -3.0005 C   0  0  0  0  0  0  0  0  0  0  0  0
    3.1741    2.4398   -1.9745 O   0  0  0  0  0  0  0  0  0  0  0  0
    3.5527    3.3077   -4.1279 C   0  0  0  0  0  0  0  0  0  0  0  0
    3.8407    4.3691   -4.0597 H   0  0  0  0  0  0  0  0  0  0  0  0
    4.5024    2.7495   -4.1526 H   0  0  0  0  0  0  0  0  0  0  0  0
    3.1208    3.1887   -5.1345 H   0  0  0  0  0  0  0  0  0  0  0  0
    1.3174    3.0407   -3.2467 N   0  0  0  0  0  0  0  0  0  0  0  0
    0.2944    2.6927   -2.2960 C   0  0  2  0  0  0  0  0  0  0  0  0
    0.2976    1.1783   -2.1349 C   0  0  0  0  0  0  0  0  0  0  0  0
    0.7500    0.4142   -2.9850 O   0  0  0  0  0  0  0  0  0  0  0  0
   -1.0710    3.1886   -2.7460 C   0  0  0  0  0  0  0  0  0  0  0  0
    1.0312    3.4224   -4.1464 H   0  0  0  0  0  0  0  0  0  0  0  0
    0.5725    3.1622   -1.3461 H   0  0  0  0  0  0  0  0  0  0  0  0
   -1.3666    2.7292   -3.6963 H   0  0  0  0  0  0  0  0  0  0  0  0
   -1.8434    2.9482   -2.0082 H   0  0  0  0  0  0  0  0  0  0  0  0
   -1.0632    4.2744   -2.8901 H   0  0  0  0  0  0  0  0  0  0  0  0
   -0.3037    0.7742   -0.9484 N   0  0  0  0  0  0  0  0  0  0  0  0
   -0.4352   -0.6095   -0.5718 C   0  0  2  0  0  0  0  0  0  0  0  0
   -1.8851   -1.0383   -0.7722 C   0  0  0  0  0  0  0  0  0  0  0  0
   -2.2434   -2.2143   -0.7643 O   0  0  0  0  0  0  0  0  0  0  0  0
    0.0709   -0.8667    0.8525 C   0  0  0  0  0  0  0  0  0  0  0  0
    1.5875   -0.7033    1.0170 C   0  0  0  0  0  0  0  0  0  0  0  0
    2.0224   -0.9986    2.4544 C   0  0  0  0  0  0  0  0  0  0  0  0
    3.5234   -0.8118    2.6198 C   0  0  0  0  0  0  0  0  0  0  0  0
    3.8945   -1.0843    4.0291 N   0  3  0  0  0  0  0  0  0  0  0  0
   -0.6336    1.4811   -0.2948 H   0  0  0  0  0  0  0  0  0  0  0  0
    0.1853   -1.1730   -1.2791 H   0  0  0  0  0  0  0  0  0  0  0  0
   -0.4358   -0.1751    1.5380 H   0  0  0  0  0  0  0  0  0  0  0  0
   -0.2118   -1.8803    1.1625 H   0  0  0  0  0  0  0  0  0  0  0  0
    2.1134   -1.3820    0.3355 H   0  0  0  0  0  0  0  0  0  0  0  0
    1.8854    0.3181    0.7526 H   0  0  0  0  0  0  0  0  0  0  0  0
    1.7446   -2.0267    2.7182 H   0  0  0  0  0  0  0  0  0  0  0  0
    1.4870   -0.3342    3.1439 H   0  0  0  0  0  0  0  0  0  0  0  0
    4.0942   -1.5101    2.0005 H   0  0  0  0  0  0  0  0  0  0  0  0
    3.8354    0.2139    2.4020 H   0  0  0  0  0  0  0  0  0  0  0  0
    4.8012   -0.6630    4.2588 H   0  0  0  0  0  0  0  0  0  0  0  0
    3.9627   -2.0934    4.2023 H   0  0  0  0  0  0  0  0  0  0  0  0
    3.1955   -0.7000    4.6744 H   0  0  0  0  0  0  0  0  0  0  0  0
   -2.7375    0.0453   -0.9277 N   0  0  0  0  0  0  0  0  0  0  0  0
   -4.1597   -0.1153   -1.1150 C   0  0  2  0  0  0  0  0  0  0  0  0
   -4.7286    1.2228   -1.5679 C   0  0  0  0  0  0  0  0  0  0  0  0
   -4.1692    2.2964   -1.3541 O   0  0  0  0  0  0  0  0  0  0  0  0
   -4.8359   -0.5892    0.1621 C   0  0  0  0  0  0  0  0  0  0  0  0
   -2.3477    0.9830   -0.9092 H   0  0  0  0  0  0  0  0  0  0  0  0
   -4.2922   -0.8571   -1.9101 H   0  0  0  0  0  0  0  0  0  0  0  0
   -4.7138    0.1411    0.9703 H   0  0  0  0  0  0  0  0  0  0  0  0
   -5.9101   -0.7380    0.0106 H   0  0  0  0  0  0  0  0  0  0  0  0
   -4.4051   -1.5369    0.5027 H   0  0  0  0  0  0  0  0  0  0  0  0
   -5.9556    1.0810   -2.2008 N   0  0  0  0  0  0  0  0  0  0  0  0
   -6.7044    2.2058   -2.7108 C   0  0  0  0  0  0  0  0  0  0  0  0
   -6.3355    0.1511   -2.3516 H   0  0  0  0  0  0  0  0  0  0  0  0
   -7.4093    2.5563   -1.9426 H   0  0  0  0  0  0  0  0  0  0  0  0
   -6.0116    3.0195   -2.9713 H   0  0  0  0  0  0  0  0  0  0  0  0
   -7.2625    1.8983   -3.6075 H   0  0  0  0  0  0  0  0  0  0  0  0
  1  3  1  0  0  0  0
  1  7  1  0  0  0  0
  1  2  2  0  0  0  0
 40 41  1  0  0  0  0
 41 49  1  0  0  0  0
 41 42  2  0  0  0  0
  8  9  1  0  0  0  0
  9 17  1  0  0  0  0
  9 10  2  0  0  0  0
 18 19  1  0  0  0  0
 19 39  1  0  0  0  0
 19 20  2  0  0  0  0
 40 43  1  0  0  0  0
  8 11  1  0  0  0  0
 49 50  1  0  0  0  0
 22 23  1  0  0  0  0
 21 22  1  0  0  0  0
 23 24  1  0  0  0  0
 18 21  1  0  0  0  0
 24 25  1  0  0  0  0
 39 40  1  0  0  0  0
  7  8  1  0  0  0  0
 17 18  1  0  0  0  0
  3  4  1  0  0  0  0
  3  5  1  0  0  0  0
  3  6  1  0  0  0  0
 43 46  1  0  0  0  0
 43 47  1  0  0  0  0
 43 48  1  0  0  0  0
 11 14  1  0  0  0  0
 11 15  1  0  0  0  0
 11 16  1  0  0  0  0
 50 52  1  0  0  0  0
 50 53  1  0  0  0  0
 50 54  1  0  0  0  0
 22 30  1  0  0  0  0
 22 31  1  0  0  0  0
 23 32  1  0  0  0  0
 23 33  1  0  0  0  0
 21 28  1  0  0  0  0
 21 29  1  0  0  0  0
 24 34  1  0  0  0  0
 24 35  1  0  0  0  0
 40 45  1  0  0  0  0
  8 13  1  0  0  0  0
 18 27  1  0  0  0  0
 49 51  1  0  0  0  0
  7 12  1  0  0  0  0
 39 44  1  0  0  0  0
 17 26  1  0  0  0  0
 25 36  1  0  0  0  0
 25 37  1  0  0  0  0
 25 38  1  0  0  0  0
M  CHG  1  25   1
M  END
$$$$

  -OEChem-05262214473D

 54 53  0     1  0  0  0  0  0999 V2000
    2.6714    2.8829   -3.0005 C   0  0  0  0  0  0  0  0  0  0  0  0
    3.1741    2.4398   -1.9745 O   0  0  0  0  0  0  0  0  0  0  0  0
    3.5527    3.3077   -4.1279 C   0  0  0  0  0  0  0  0  0  0  0  0
    3.8407    4.3691   -4.0597 H   0  0  0  0  0  0  0  0  0  0  0  0
    4.5024    2.7495   -4.1526 H   0  0  0  0  0  0  0  0  0  0  0  0
    3.1208    3.1887   -5.1345 H   0  0  0  0  0  0  0  0  0  0  0  0
    1.3174    3.0407   -3.2467 N   0  0  0  0  0  0  0  0  0  0  0  0
    0.2944    2.6927   -2.2960 C   0  0  2  0  0  0  0  0  0  0  0  0
    0.2976    1.1783   -2.1349 C   0  0  0  0  0  0  0  0  0  0  0  0
    0.7500    0.4142   -2.9850 O   0  0  0  0  0  0  0  0  0  0  0  0
   -1.0710    3.1886   -2.7460 C   0  0  0  0  0  0  0  0  0  0  0  0
    1.0312    3.4224   -4.1464 H   0  0  0  0  0  0  0  0  0  0  0  0
    0.5725    3.1622   -1.3461 H   0  0  0  0  0  0  0  0  0  0  0  0
   -1.3666    2.7292   -3.6963 H   0  0  0  0  0  0  0  0  0  0  0  0
   -1.8434    2.9482   -2.0082 H   0  0  0  0  0  0  0  0  0  0  0  0
   -1.0632    4.2744   -2.8901 H   0  0  0  0  0  0  0  0  0  0  0  0
   -0.3037    0.7742   -0.9484 N   0  0  0  0  0  0  0  0  0  0  0  0
   -0.4352   -0.6095   -0.5718 C   0  0  2  0  0  0  0  0  0  0  0  0
   -1.8851   -1.0383   -0.7722 C   0  0  0  0  0  0  0  0  0  0  0  0
   -2.2935   -2.1666   -0.5043 O   0  0  0  0  0  0  0  0  0  0  0  0
    0.0709   -0.8667    0.8525 C   0  0  0  0  0  0  0  0  0  0  0  0
    1.5875   -0.7033    1.0170 C   0  0  0  0  0  0  0  0  0  0  0  0
    2.0224   -0.9986    2.4544 C   0  0  0  0  0  0  0  0  0  0  0  0
    3.5234   -0.8118    2.6198 C   0  0  0  0  0  0  0  0  0  0  0  0
    3.8945   -1.0843    4.0291 N   0  3  0  0  0  0  0  0  0  0  0  0
   -0.6336    1.4811   -0.2948 H   0  0  0  0  0  0  0  0  0  0  0  0
    0.1853   -1.1730   -1.2791 H   0  0  0  0  0  0  0  0  0  0  0  0
   -0.4358   -0.1751    1.5380 H   0  0  0  0  0  0  0  0  0  0  0  0
   -0.2118   -1.8803    1.1625 H   0  0  0  0  0  0  0  0  0  0  0  0
    2.1134   -1.3820    0.3355 H   0  0  0  0  0  0  0  0  0  0  0  0
    1.8854    0.3181    0.7526 H   0  0  0  0  0  0  0  0  0  0  0  0
    1.7446   -2.0267    2.7182 H   0  0  0  0  0  0  0  0  0  0  0  0
    1.4870   -0.3342    3.1439 H   0  0  0  0  0  0  0  0  0  0  0  0
    4.0942   -1.5101    2.0005 H   0  0  0  0  0  0  0  0  0  0  0  0
    3.8354    0.2139    2.4020 H   0  0  0  0  0  0  0  0  0  0  0  0
    4.8012   -0.6630    4.2588 H   0  0  0  0  0  0  0  0  0  0  0  0
    3.9627   -2.0934    4.2023 H   0  0  0  0  0  0  0  0  0  0  0  0
    3.1955   -0.7000    4.6744 H   0  0  0  0  0  0  0  0  0  0  0  0
   -2.6773   -0.0059   -1.2534 N   0  0  0  0  0  0  0  0  0  0  0  0
   -4.0890   -0.1725   -1.5046 C   0  0  2  0  0  0  0  0  0  0  0  0
   -4.5673    1.0259   -2.3137 C   0  0  0  0  0  0  0  0  0  0  0  0
   -3.9781    2.1047   -2.3269 O   0  0  0  0  0  0  0  0  0  0  0  0
   -4.8709   -0.2988   -0.2064 C   0  0  0  0  0  0  0  0  0  0  0  0
   -2.2496    0.8972   -1.4351 H   0  0  0  0  0  0  0  0  0  0  0  0
   -4.1986   -1.0843   -2.1018 H   0  0  0  0  0  0  0  0  0  0  0  0
   -4.7731    0.6054    0.4054 H   0  0  0  0  0  0  0  0  0  0  0  0
   -5.9376   -0.4536   -0.3991 H   0  0  0  0  0  0  0  0  0  0  0  0
   -4.5056   -1.1433    0.3880 H   0  0  0  0  0  0  0  0  0  0  0  0
   -5.7530    0.7625   -2.9852 N   0  0  0  0  0  0  0  0  0  0  0  0
   -6.4159    1.7445   -3.8112 C   0  0  0  0  0  0  0  0  0  0  0  0
   -6.1614   -0.1660   -2.9326 H   0  0  0  0  0  0  0  0  0  0  0  0
   -7.1560    2.2916   -3.2088 H   0  0  0  0  0  0  0  0  0  0  0  0
   -5.6725    2.4511   -4.2088 H   0  0  0  0  0  0  0  0  0  0  0  0
   -6.9240    1.2388   -4.6455 H   0  0  0  0  0  0  0  0  0  0  0  0
  1  3  1  0  0  0  0
  1  7  1  0  0  0  0
  1  2  2  0  0  0  0
 40 41  1  0  0  0  0
 41 49  1  0  0  0  0
 41 42  2  0  0  0  0
  8  9  1  0  0  0  0
  9 17  1  0  0  0  0
  9 10  2  0  0  0  0
 18 19  1  0  0  0  0
 19 39  1  0  0  0  0
 19 20  2  0  0  0  0
 40 43  1  0  0  0  0
  8 11  1  0  0  0  0
 49 50  1  0  0  0  0
 22 23  1  0  0  0  0
 21 22  1  0  0  0  0
 23 24  1  0  0  0  0
 18 21  1  0  0  0  0
 24 25  1  0  0  0  0
 39 40  1  0  0  0  0
  7  8  1  0  0  0  0
 17 18  1  0  0  0  0
  3  4  1  0  0  0  0
  3  5  1  0  0  0  0
  3  6  1  0  0  0  0
 43 46  1  0  0  0  0
 43 47  1  0  0  0  0
 43 48  1  0  0  0  0
 11 14  1  0  0  0  0
 11 15  1  0  0  0  0
 11 16  1  0  0  0  0
 50 52  1  0  0  0  0
 50 53  1  0  0  0  0
 50 54  1  0  0  0  0
 22 30  1  0  0  0  0
 22 31  1  0  0  0  0
 23 32  1  0  0  0  0
 23 33  1  0  0  0  0
 21 28  1  0  0  0  0
 21 29  1  0  0  0  0
 24 34  1  0  0  0  0
 24 35  1  0  0  0  0
 40 45  1  0  0  0  0
  8 13  1  0  0  0  0
 18 27  1  0  0  0  0
 49 51  1  0  0  0  0
  7 12  1  0  0  0  0
 39 44  1  0  0  0  0
 17 26  1  0  0  0  0
 25 36  1  0  0  0  0
 25 37  1  0  0  0  0
 25 38  1  0  0  0  0
M  CHG  1  25   1
M  END
$$$$

  -OEChem-05262214473D

 54 53  0     1  0  0  0  0  0999 V2000
    2.6714    2.8829   -3.0005 C   0  0  0  0  0  0  0  0  0  0  0  0
    3.1741    2.4398   -1.9745 O   0  0  0  0  0  0  0  0  0  0  0  0
    3.5527    3.3077   -4.1279 C   0  0  0  0  0  0  0  0  0  0  0  0
    3.8407    4.3691   -4.0597 H   0  0  0  0  0  0  0  0  0  0  0  0
    4.5024    2.7495   -4.1526 H   0  0  0  0  0  0  0  0  0  0  0  0
    3.1208    3.1887   -5.1345 H   0  0  0  0  0  0  0  0  0  0  0  0
    1.3174    3.0407   -3.2467 N   0  0  0  0  0  0  0  0  0  0  0  0
    0.2944    2.6927   -2.2960 C   0  0  2  0  0  0  0  0  0  0  0  0
    0.2976    1.1783   -2.1349 C   0  0  0  0  0  0  0  0  0  0  0  0
    0.7500    0.4142   -2.9850 O   0  0  0  0  0  0  0  0  0  0  0  0
   -1.0710    3.1886   -2.7460 C   0  0  0  0  0  0  0  0  0  0  0  0
    1.0312    3.4224   -4.1464 H   0  0  0  0  0  0  0  0  0  0  0  0
    0.5725    3.1622   -1.3461 H   0  0  0  0  0  0  0  0  0  0  0  0
   -1.3666    2.7292   -3.6963 H   0  0  0  0  0  0  0  0  0  0  0  0
   -1.8434    2.9482   -2.0082 H   0  0  0  0  0  0  0  0  0  0  0  0
   -1.0632    4.2744   -2.8901 H   0  0  0  0  0  0  0  0  0  0  0  0
   -0.3037    0.7742   -0.9484 N   0  0  0  0  0  0  0  0  0  0  0  0
   -0.4352   -0.6095   -0.5718 C   0  0  2  0  0  0  0  0  0  0  0  0
   -1.8851   -1.0383   -0.7722 C   0  0  0  0  0  0  0  0  0  0  0  0
   -2.3591   -2.0547   -0.2686 O   0  0  0  0  0  0  0  0  0  0  0  0
    0.0709   -0.8667    0.8525 C   0  0  0  0  0  0  0  0  0  0  0  0
    1.5875   -0.7033    1.0170 C   0  0  0  0  0  0  0  0  0  0  0  0
    2.0224   -0.9986    2.4544 C   0  0  0  0  0  0  0  0  0  0  0  0
    3.5234   -0.8118    2.6198 C   0  0  0  0  0  0  0  0  0  0  0  0
    3.8945   -1.0843    4.0291 N   0  3  0  0  0  0  0  0  0  0  0  0
   -0.6336    1.4811   -0.2948 H   0  0  0  0  0  0  0  0  0  0  0  0
    0.1853   -1.1730   -1.2791 H   0  0  0  0  0  0  0  0  0  0  0  0
   -0.4358   -0.1751    1.5380 H   0  0  0  0  0  0  0  0  0  0  0  0
   -0.2118   -1.8803    1.1625 H   0  0  0  0  0  0  0  0  0  0  0  0
    2.1134   -1.3820    0.3355 H   0  0  0  0  0  0  0  0  0  0  0  0
    1.8854    0.3181    0.7526 H   0  0  0  0  0  0  0  0  0  0  0  0
    1.7446   -2.0267    2.7182 H   0  0  0  0  0  0  0  0  0  0  0  0
    1.4870   -0.3342    3.1439 H   0  0  0  0  0  0  0  0  0  0  0  0
    4.0942   -1.5101    2.0005 H   0  0  0  0  0  0  0  0  0  0  0  0
    3.8354    0.2139    2.4020 H   0  0  0  0  0  0  0  0  0  0  0  0
    4.8012   -0.6630    4.2588 H   0  0  0  0  0  0  0  0  0  0  0  0
    3.9627   -2.0934    4.2023 H   0  0  0  0  0  0  0  0  0  0  0  0
    3.1955   -0.7000    4.6744 H   0  0  0  0  0  0  0  0  0  0  0  0
   -2.5972   -0.1376   -1.5510 N   0  0  0  0  0  0  0  0  0  0  0  0
   -3.9943   -0.3259   -1.8618 C   0  0  2  0  0  0  0  0  0  0  0  0
   -4.3639    0.6467   -2.9740 C   0  0  0  0  0  0  0  0  0  0  0  0
   -3.7293    1.6737   -3.2053 O   0  0  0  0  0  0  0  0  0  0  0  0
   -4.8680   -0.1078   -0.6363 C   0  0  0  0  0  0  0  0  0  0  0  0
   -2.1196    0.6816   -1.9147 H   0  0  0  0  0  0  0  0  0  0  0  0
   -4.1019   -1.3541   -2.2242 H   0  0  0  0  0  0  0  0  0  0  0  0
   -4.7734    0.9170   -0.2588 H   0  0  0  0  0  0  0  0  0  0  0  0
   -5.9247   -0.2789   -0.8669 H   0  0  0  0  0  0  0  0  0  0  0  0
   -4.5810   -0.7878    0.1730 H   0  0  0  0  0  0  0  0  0  0  0  0
   -5.5110    0.2550   -3.6499 N   0  0  0  0  0  0  0  0  0  0  0  0
   -6.0729    1.0184   -4.7396 C   0  0  0  0  0  0  0  0  0  0  0  0
   -5.9617   -0.6213   -3.4032 H   0  0  0  0  0  0  0  0  0  0  0  0
   -6.8283    1.7157   -4.3483 H   0  0  0  0  0  0  0  0  0  0  0  0
   -5.2742    1.5860   -5.2396 H   0  0  0  0  0  0  0  0  0  0  0  0
   -6.5439    0.3349   -5.4613 H   0  0  0  0  0  0  0  0  0  0  0  0
  1  3  1  0  0  0  0
  1  7  1  0  0  0  0
  1  2  2  0  0  0  0
 40 41  1  0  0  0  0
 41 49  1  0  0  0  0
 41 42  2  0  0  0  0
  8  9  1  0  0  0  0
  9 17  1  0  0  0  0
  9 10  2  0  0  0  0
 18 19  1  0  0  0  0
 19 39  1  0  0  0  0
 19 20  2  0  0  0  0
 40 43  1  0  0  0  0
  8 11  1  0  0  0  0
 49 50  1  0  0  0  0
 22 23  1  0  0  0  0
 21 22  1  0  0  0  0
 23 24  1  0  0  0  0
 18 21  1  0  0  0  0
 24 25  1  0  0  0  0
 39 40  1  0  0  0  0
  7  8  1  0  0  0  0
 17 18  1  0  0  0  0
  3  4  1  0  0  0  0
  3  5  1  0  0  0  0
  3  6  1  0  0  0  0
 43 46  1  0  0  0  0
 43 47  1  0  0  0  0
 43 48  1  0  0  0  0
 11 14  1  0  0  0  0
 11 15  1  0  0  0  0
 11 16  1  0  0  0  0
 50 52  1  0  0  0  0
 50 53  1  0  0  0  0
 50 54  1  0  0  0  0
 22 30  1  0  0  0  0
 22 31  1  0  0  0  0
 23 32  1  0  0  0  0
 23 33  1  0  0  0  0
 21 28  1  0  0  0  0
 21 29  1  0  0  0  0
 24 34  1  0  0  0  0
 24 35  1  0  0  0  0
 40 45  1  0  0  0  0
  8 13  1  0  0  0  0
 18 27  1  0  0  0  0
 49 51  1  0  0  0  0
  7 12  1  0  0  0  0
 39 44  1  0  0  0  0
 17 26  1  0  0  0  0
 25 36  1  0  0  0  0
 25 37  1  0  0  0  0
 25 38  1  0  0  0  0
M  CHG  1  25   1
M  END
$$$$

  -OEChem-05262214473D

 54 53  0     1  0  0  0  0  0999 V2000
    2.6714    2.8829   -3.0005 C   0  0  0  0  0  0  0  0  0  0  0  0
    3.1741    2.4398   -1.9745 O   0  0  0  0  0  0  0  0  0  0  0  0
    3.5527    3.3077   -4.1279 C   0  0  0  0  0  0  0  0  0  0  0  0
    3.8407    4.3691   -4.0597 H   0  0  0  0  0  0  0  0  0  0  0  0
    4.5024    2.7495   -4.1526 H   0  0  0  0  0  0  0  0  0  0  0  0
    3.1208    3.1887   -5.1345 H   0  0  0  0  0  0  0  0  0  0  0  0
    1.3174    3.0407   -3.2467 N   0  0  0  0  0  0  0  0  0  0  0  0
    0.2944    2.6927   -2.2960 C   0  0  2  0  0  0  0  0  0  0  0  0
    0.2976    1.1783   -2.1349 C   0  0  0  0  0  0  0  0  0  0  0  0
    0.7500    0.4142   -2.9850 O   0  0  0  0  0  0  0  0  0  0  0  0
   -1.0710    3.1886   -2.7460 C   0  0  0  0  0  0  0  0  0  0  0  0
    1.0312    3.4224   -4.1464 H   0  0  0  0  0  0  0  0  0  0  0  0
    0.5725    3.1622   -1.3461 H   0  0  0  0  0  0  0  0  0  0  0  0
   -1.3666    2.7292   -3.6963 H   0  0  0  0  0  0  0  0  0  0  0  0
   -1.8434    2.9482   -2.0082 H   0  0  0  0  0  0  0  0  0  0  0  0
   -1.0632    4.2744   -2.8901 H   0  0  0  0  0  0  0  0  0  0  0  0
   -0.3037    0.7742   -0.9484 N   0  0  0  0  0  0  0  0  0  0  0  0
   -0.4352   -0.6095   -0.5718 C   0  0  2  0  0  0  0  0  0  0  0  0
   -1.8851   -1.0383   -0.7722 C   0  0  0  0  0  0  0  0  0  0  0  0
   -2.4359   -1.8865   -0.0731 O   0  0  0  0  0  0  0  0  0  0  0  0
    0.0709   -0.8667    0.8525 C   0  0  0  0  0  0  0  0  0  0  0  0
    1.5875   -0.7033    1.0170 C   0  0  0  0  0  0  0  0  0  0  0  0
    2.0224   -0.9986    2.4544 C   0  0  0  0  0  0  0  0  0  0  0  0
    3.5234   -0.8118    2.6198 C   0  0  0  0  0  0  0  0  0  0  0  0
    3.8945   -1.0843    4.0291 N   0  3  0  0  0  0  0  0  0  0  0  0
   -0.6336    1.4811   -0.2948 H   0  0  0  0  0  0  0  0  0  0  0  0
    0.1853   -1.1730   -1.2791 H   0  0  0  0  0  0  0  0  0  0  0  0
   -0.4358   -0.1751    1.5380 H   0  0  0  0  0  0  0  0  0  0  0  0
   -0.2118   -1.8803    1.1625 H   0  0  0  0  0  0  0  0  0  0  0  0
    2.1134   -1.3820    0.3355 H   0  0  0  0  0  0  0  0  0  0  0  0
    1.8854    0.3181    0.7526 H   0  0  0  0  0  0  0  0  0  0  0  0
    1.7446   -2.0267    2.7182 H   0  0  0  0  0  0  0  0  0  0  0  0
    1.4870   -0.3342    3.1439 H   0  0  0  0  0  0  0  0  0  0  0  0
    4.0942   -1.5101    2.0005 H   0  0  0  0  0  0  0  0  0  0  0  0
    3.8354    0.2139    2.4020 H   0  0  0  0  0  0  0  0  0  0  0  0
    4.8012   -0.6630    4.2588 H   0  0  0  0  0  0  0  0  0  0  0  0
    3.9627   -2.0934    4.2023 H   0  0  0  0  0  0  0  0  0  0  0  0
    3.1955   -0.7000    4.6744 H   0  0  0  0  0  0  0  0  0  0  0  0
   -2.5027   -0.3408   -1.8003 N   0  0  0  0  0  0  0  0  0  0  0  0
   -3.8820   -0.5652   -2.1621 C   0  0  2  0  0  0  0  0  0  0  0  0
   -4.1323    0.1110   -3.5036 C   0  0  0  0  0  0  0  0  0  0  0  0
   -3.4396    1.0327   -3.9298 O   0  0  0  0  0  0  0  0  0  0  0  0
   -4.8274   -0.0291   -1.0984 C   0  0  0  0  0  0  0  0  0  0  0  0
   -1.9664    0.3510   -2.3155 H   0  0  0  0  0  0  0  0  0  0  0  0
   -4.0087   -1.6481   -2.2690 H   0  0  0  0  0  0  0  0  0  0  0  0
   -4.7149    1.0544   -0.9771 H   0  0  0  0  0  0  0  0  0  0  0  0
   -5.8722   -0.2256   -1.3607 H   0  0  0  0  0  0  0  0  0  0  0  0
   -4.6262   -0.4949   -0.1276 H   0  0  0  0  0  0  0  0  0  0  0  0
   -5.2462   -0.4070   -4.1493 N   0  0  0  0  0  0  0  0  0  0  0  0
   -5.6986    0.0769   -5.4327 C   0  0  0  0  0  0  0  0  0  0  0  0
   -5.7501   -1.1835   -3.7312 H   0  0  0  0  0  0  0  0  0  0  0  0
   -6.4483    0.8680   -5.2834 H   0  0  0  0  0  0  0  0  0  0  0  0
   -4.8439    0.4832   -5.9934 H   0  0  0  0  0  0  0  0  0  0  0  0
   -6.1482   -0.7519   -5.9993 H   0  0  0  0  0  0  0  0  0  0  0  0
  1  3  1  0  0  0  0
  1  7  1  0  0  0  0
  1  2  2  0  0  0  0
 40 41  1  0  0  0  0
 41 49  1  0  0  0  0
 41 42  2  0  0  0  0
  8  9  1  0  0  0  0
  9 17  1  0  0  0  0
  9 10  2  0  0  0  0
 18 19  1  0  0  0  0
 19 39  1  0  0  0  0
 19 20  2  0  0  0  0
 40 43  1  0  0  0  0
  8 11  1  0  0  0  0
 49 50  1  0  0  0  0
 22 23  1  0  0  0  0
 21 22  1  0  0  0  0
 23 24  1  0  0  0  0
 18 21  1  0  0  0  0
 24 25  1  0  0  0  0
 39 40  1  0  0  0  0
  7  8  1  0  0  0  0
 17 18  1  0  0  0  0
  3  4  1  0  0  0  0
  3  5  1  0  0  0  0
  3  6  1  0  0  0  0
 43 46  1  0  0  0  0
 43 47  1  0  0  0  0
 43 48  1  0  0  0  0
 11 14  1  0  0  0  0
 11 15  1  0  0  0  0
 11 16  1  0  0  0  0
 50 52  1  0  0  0  0
 50 53  1  0  0  0  0
 50 54  1  0  0  0  0
 22 30  1  0  0  0  0
 22 31  1  0  0  0  0
 23 32  1  0  0  0  0
 23 33  1  0  0  0  0
 21 28  1  0  0  0  0
 21 29  1  0  0  0  0
 24 34  1  0  0  0  0
 24 35  1  0  0  0  0
 40 45  1  0  0  0  0
  8 13  1  0  0  0  0
 18 27  1  0  0  0  0
 49 51  1  0  0  0  0
  7 12  1  0  0  0  0
 39 44  1  0  0  0  0
 17 26  1  0  0  0  0
 25 36  1  0  0  0  0
 25 37  1  0  0  0  0
 25 38  1  0  0  0  0
M  CHG  1  25   1
M  END
$$$$

  -OEChem-05262214473D

 54 53  0     1  0  0  0  0  0999 V2000
    2.6714    2.8829   -3.0005 C   0  0  0  0  0  0  0  0  0  0  0  0
    3.1741    2.4398   -1.9745 O   0  0  0  0  0  0  0  0  0  0  0  0
    3.5527    3.3077   -4.1279 C   0  0  0  0  0  0  0  0  0  0  0  0
    3.8407    4.3691   -4.0597 H   0  0  0  0  0  0  0  0  0  0  0  0
    4.5024    2.7495   -4.1526 H   0  0  0  0  0  0  0  0  0  0  0  0
    3.1208    3.1887   -5.1345 H   0  0  0  0  0  0  0  0  0  0  0  0
    1.3174    3.0407   -3.2467 N   0  0  0  0  0  0  0  0  0  0  0  0
    0.2944    2.6927   -2.2960 C   0  0  2  0  0  0  0  0  0  0  0  0
    0.2976    1.1783   -2.1349 C   0  0  0  0  0  0  0  0  0  0  0  0
    0.7500    0.4142   -2.9850 O   0  0  0  0  0  0  0  0  0  0  0  0
   -1.0710    3.1886   -2.7460 C   0  0  0  0  0  0  0  0  0  0  0  0
    1.0312    3.4224   -4.1464 H   0  0  0  0  0  0  0  0  0  0  0  0
    0.5725    3.1622   -1.3461 H   0  0  0  0  0  0  0  0  0  0  0  0
   -1.3666    2.7292   -3.6963 H   0  0  0  0  0  0  0  0  0  0  0  0
   -1.8434    2.9482   -2.0082 H   0  0  0  0  0  0  0  0  0  0  0  0
   -1.0632    4.2744   -2.8901 H   0  0  0  0  0  0  0  0  0  0  0  0
   -0.3037    0.7742   -0.9484 N   0  0  0  0  0  0  0  0  0  0  0  0
   -0.4352   -0.6095   -0.5718 C   0  0  2  0  0  0  0  0  0  0  0  0
   -1.8851   -1.0383   -0.7722 C   0  0  0  0  0  0  0  0  0  0  0  0
   -2.5186   -1.6733    0.0687 O   0  0  0  0  0  0  0  0  0  0  0  0
    0.0709   -0.8667    0.8525 C   0  0  0  0  0  0  0  0  0  0  0  0
    1.5875   -0.7033    1.0170 C   0  0  0  0  0  0  0  0  0  0  0  0
    2.0224   -0.9986    2.4544 C   0  0  0  0  0  0  0  0  0  0  0  0
    3.5234   -0.8118    2.6198 C   0  0  0  0  0  0  0  0  0  0  0  0
    3.8945   -1.0843    4.0291 N   0  3  0  0  0  0  0  0  0  0  0  0
   -0.6336    1.4811   -0.2948 H   0  0  0  0  0  0  0  0  0  0  0  0
    0.1853   -1.1730   -1.2791 H   0  0  0  0  0  0  0  0  0  0  0  0
   -0.4358   -0.1751    1.5380 H   0  0  0  0  0  0  0  0  0  0  0  0
   -0.2118   -1.8803    1.1625 H   0  0  0  0  0  0  0  0  0  0  0  0
    2.1134   -1.3820    0.3355 H   0  0  0  0  0  0  0  0  0  0  0  0
    1.8854    0.3181    0.7526 H   0  0  0  0  0  0  0  0  0  0  0  0
    1.7446   -2.0267    2.7182 H   0  0  0  0  0  0  0  0  0  0  0  0
    1.4870   -0.3342    3.1439 H   0  0  0  0  0  0  0  0  0  0  0  0
    4.0942   -1.5101    2.0005 H   0  0  0  0  0  0  0  0  0  0  0  0
    3.8354    0.2139    2.4020 H   0  0  0  0  0  0  0  0  0  0  0  0
    4.8012   -0.6630    4.2588 H   0  0  0  0  0  0  0  0  0  0  0  0
    3.9627   -2.0934    4.2023 H   0  0  0  0  0  0  0  0  0  0  0  0
    3.1955   -0.7000    4.6744 H   0  0  0  0  0  0  0  0  0  0  0  0
   -2.4002   -0.6015   -1.9842 N   0  0  0  0  0  0  0  0  0  0  0  0
   -3.7598   -0.8741   -2.3852 C   0  0  2  0  0  0  0  0  0  0  0  0
   -3.8882   -0.5446   -3.8665 C   0  0  0  0  0  0  0  0  0  0  0  0
   -3.1289    0.2256   -4.4507 O   0  0  0  0  0  0  0  0  0  0  0  0
   -4.7519   -0.0682   -1.5611 C   0  0  0  0  0  0  0  0  0  0  0  0
   -1.8005   -0.0723   -2.6102 H   0  0  0  0  0  0  0  0  0  0  0  0
   -3.9255   -1.9462   -2.2332 H   0  0  0  0  0  0  0  0  0  0  0  0
   -4.6013    1.0085   -1.7005 H   0  0  0  0  0  0  0  0  0  0  0  0
   -5.7838   -0.2974   -1.8471 H   0  0  0  0  0  0  0  0  0  0  0  0
   -4.6379   -0.2843   -0.4934 H   0  0  0  0  0  0  0  0  0  0  0  0
   -4.9766   -1.1783   -4.4497 N   0  0  0  0  0  0  0  0  0  0  0  0
   -5.3188   -1.0157   -5.8434 C   0  0  0  0  0  0  0  0  0  0  0  0
   -5.5410   -1.8145   -3.8942 H   0  0  0  0  0  0  0  0  0  0  0  0
   -6.0421   -0.1939   -5.9504 H   0  0  0  0  0  0  0  0  0  0  0  0
   -4.4108   -0.7821   -6.4189 H   0  0  0  0  0  0  0  0  0  0  0  0
   -5.7637   -1.9474   -6.2227 H   0  0  0  0  0  0  0  0  0  0  0  0
  1  3  1  0  0  0  0
  1  7  1  0  0  0  0
  1  2  2  0  0  0  0
 40 41  1  0  0  0  0
 41 49  1  0  0  0  0
 41 42  2  0  0  0  0
  8  9  1  0  0  0  0
  9 17  1  0  0  0  0
  9 10  2  0  0  0  0
 18 19  1  0  0  0  0
 19 39  1  0  0  0  0
 19 20  2  0  0  0  0
 40 43  1  0  0  0  0
  8 11  1  0  0  0  0
 49 50  1  0  0  0  0
 22 23  1  0  0  0  0
 21 22  1  0  0  0  0
 23 24  1  0  0  0  0
 18 21  1  0  0  0  0
 24 25  1  0  0  0  0
 39 40  1  0  0  0  0
  7  8  1  0  0  0  0
 17 18  1  0  0  0  0
  3  4  1  0  0  0  0
  3  5  1  0  0  0  0
  3  6  1  0  0  0  0
 43 46  1  0  0  0  0
 43 47  1  0  0  0  0
 43 48  1  0  0  0  0
 11 14  1  0  0  0  0
 11 15  1  0  0  0  0
 11 16  1  0  0  0  0
 50 52  1  0  0  0  0
 50 53  1  0  0  0  0
 50 54  1  0  0  0  0
 22 30  1  0  0  0  0
 22 31  1  0  0  0  0
 23 32  1  0  0  0  0
 23 33  1  0  0  0  0
 21 28  1  0  0  0  0
 21 29  1  0  0  0  0
 24 34  1  0  0  0  0
 24 35  1  0  0  0  0
 40 45  1  0  0  0  0
  8 13  1  0  0  0  0
 18 27  1  0  0  0  0
 49 51  1  0  0  0  0
  7 12  1  0  0  0  0
 39 44  1  0  0  0  0
 17 26  1  0  0  0  0
 25 36  1  0  0  0  0
 25 37  1  0  0  0  0
 25 38  1  0  0  0  0
M  CHG  1  25   1
M  END
$$$$

  -OEChem-05262214473D

 54 53  0     1  0  0  0  0  0999 V2000
    2.6714    2.8829   -3.0005 C   0  0  0  0  0  0  0  0  0  0  0  0
    3.1741    2.4398   -1.9745 O   0  0  0  0  0  0  0  0  0  0  0  0
    3.5527    3.3077   -4.1279 C   0  0  0  0  0  0  0  0  0  0  0  0
    3.8407    4.3691   -4.0597 H   0  0  0  0  0  0  0  0  0  0  0  0
    4.5024    2.7495   -4.1526 H   0  0  0  0  0  0  0  0  0  0  0  0
    3.1208    3.1887   -5.1345 H   0  0  0  0  0  0  0  0  0  0  0  0
    1.3174    3.0407   -3.2467 N   0  0  0  0  0  0  0  0  0  0  0  0
    0.2944    2.6927   -2.2960 C   0  0  2  0  0  0  0  0  0  0  0  0
    0.2976    1.1783   -2.1349 C   0  0  0  0  0  0  0  0  0  0  0  0
    0.7500    0.4142   -2.9850 O   0  0  0  0  0  0  0  0  0  0  0  0
   -1.0710    3.1886   -2.7460 C   0  0  0  0  0  0  0  0  0  0  0  0
    1.0312    3.4224   -4.1464 H   0  0  0  0  0  0  0  0  0  0  0  0
    0.5725    3.1622   -1.3461 H   0  0  0  0  0  0  0  0  0  0  0  0
   -1.3666    2.7292   -3.6963 H   0  0  0  0  0  0  0  0  0  0  0  0
   -1.8434    2.9482   -2.0082 H   0  0  0  0  0  0  0  0  0  0  0  0
   -1.0632    4.2744   -2.8901 H   0  0  0  0  0  0  0  0  0  0  0  0
   -0.3037    0.7742   -0.9484 N   0  0  0  0  0  0  0  0  0  0  0  0
   -0.4352   -0.6095   -0.5718 C   0  0  2  0  0  0  0  0  0  0  0  0
   -1.8851   -1.0383   -0.7722 C   0  0  0  0  0  0  0  0  0  0  0  0
   -2.6015   -1.4297    0.1472 O   0  0  0  0  0  0  0  0  0  0  0  0
    0.0709   -0.8667    0.8525 C   0  0  0  0  0  0  0  0  0  0  0  0
    1.5875   -0.7033    1.0170 C   0  0  0  0  0  0  0  0  0  0  0  0
    2.0224   -0.9986    2.4544 C   0  0  0  0  0  0  0  0  0  0  0  0
    3.5234   -0.8118    2.6198 C   0  0  0  0  0  0  0  0  0  0  0  0
    3.8945   -1.0843    4.0291 N   0  3  0  0  0  0  0  0  0  0  0  0
   -0.6336    1.4811   -0.2948 H   0  0  0  0  0  0  0  0  0  0  0  0
    0.1853   -1.1730   -1.2791 H   0  0  0  0  0  0  0  0  0  0  0  0
   -0.4358   -0.1751    1.5380 H   0  0  0  0  0  0  0  0  0  0  0  0
   -0.2118   -1.8803    1.1625 H   0  0  0  0  0  0  0  0  0  0  0  0
    2.1134   -1.3820    0.3355 H   0  0  0  0  0  0  0  0  0  0  0  0
    1.8854    0.3181    0.7526 H   0  0  0  0  0  0  0  0  0  0  0  0
    1.7446   -2.0267    2.7182 H   0  0  0  0  0  0  0  0  0  0  0  0
    1.4870   -0.3342    3.1439 H   0  0  0  0  0  0  0  0  0  0  0  0
    4.0942   -1.5101    2.0005 H   0  0  0  0  0  0  0  0  0  0  0  0
    3.8354    0.2139    2.4020 H   0  0  0  0  0  0  0  0  0  0  0  0
    4.8012   -0.6630    4.2588 H   0  0  0  0  0  0  0  0  0  0  0  0
    3.9627   -2.0934    4.2023 H   0  0  0  0  0  0  0  0  0  0  0  0
    3.1955   -0.7000    4.6744 H   0  0  0  0  0  0  0  0  0  0  0  0
   -2.2966   -0.9021   -2.0902 N   0  0  0  0  0  0  0  0  0  0  0  0
   -3.6361   -1.2315   -2.5158 C   0  0  2  0  0  0  0  0  0  0  0  0
   -3.6484   -1.2755   -4.0381 C   0  0  0  0  0  0  0  0  0  0  0  0
   -2.8183   -0.6928   -4.7327 O   0  0  0  0  0  0  0  0  0  0  0  0
   -4.6466   -0.2224   -1.9930 C   0  0  0  0  0  0  0  0  0  0  0  0
   -1.6332   -0.5592   -2.7786 H   0  0  0  0  0  0  0  0  0  0  0  0
   -3.8578   -2.2283   -2.1192 H   0  0  0  0  0  0  0  0  0  0  0  0
   -4.4406    0.7823   -2.3796 H   0  0  0  0  0  0  0  0  0  0  0  0
   -5.6654   -0.4894   -2.2927 H   0  0  0  0  0  0  0  0  0  0  0  0
   -4.6155   -0.1705   -0.8993 H   0  0  0  0  0  0  0  0  0  0  0  0
   -4.7205   -2.0064   -4.5304 N   0  0  0  0  0  0  0  0  0  0  0  0
   -4.9591   -2.1850   -5.9436 C   0  0  0  0  0  0  0  0  0  0  0  0
   -5.3485   -2.4712   -3.8813 H   0  0  0  0  0  0  0  0  0  0  0  0
   -5.6373   -1.3975   -6.3039 H   0  0  0  0  0  0  0  0  0  0  0  0
   -4.0046   -2.1237   -6.4870 H   0  0  0  0  0  0  0  0  0  0  0  0
   -5.4168   -3.1703   -6.1164 H   0  0  0  0  0  0  0  0  0  0  0  0
  1  3  1  0  0  0  0
  1  7  1  0  0  0  0
  1  2  2  0  0  0  0
 40 41  1  0  0  0  0
 41 49  1  0  0  0  0
 41 42  2  0  0  0  0
  8  9  1  0  0  0  0
  9 17  1  0  0  0  0
  9 10  2  0  0  0  0
 18 19  1  0  0  0  0
 19 39  1  0  0  0  0
 19 20  2  0  0  0  0
 40 43  1  0  0  0  0
  8 11  1  0  0  0  0
 49 50  1  0  0  0  0
 22 23  1  0  0  0  0
 21 22  1  0  0  0  0
 23 24  1  0  0  0  0
 18 21  1  0  0  0  0
 24 25  1  0  0  0  0
 39 40  1  0  0  0  0
  7  8  1  0  0  0  0
 17 18  1  0  0  0  0
  3  4  1  0  0  0  0
  3  5  1  0  0  0  0
  3  6  1  0  0  0  0
 43 46  1  0  0  0  0
 43 47  1  0  0  0  0
 43 48  1  0  0  0  0
 11 14  1  0  0  0  0
 11 15  1  0  0  0  0
 11 16  1  0  0  0  0
 50 52  1  0  0  0  0
 50 53  1  0  0  0  0
 50 54  1  0  0  0  0
 22 30  1  0  0  0  0
 22 31  1  0  0  0  0
 23 32  1  0  0  0  0
 23 33  1  0  0  0  0
 21 28  1  0  0  0  0
 21 29  1  0  0  0  0
 24 34  1  0  0  0  0
 24 35  1  0  0  0  0
 40 45  1  0  0  0  0
  8 13  1  0  0  0  0
 18 27  1  0  0  0  0
 49 51  1  0  0  0  0
  7 12  1  0  0  0  0
 39 44  1  0  0  0  0
 17 26  1  0  0  0  0
 25 36  1  0  0  0  0
 25 37  1  0  0  0  0
 25 38  1  0  0  0  0
M  CHG  1  25   1
M  END
$$$$

  -OEChem-05262214473D

 54 53  0     1  0  0  0  0  0999 V2000
    2.6714    2.8829   -3.0005 C   0  0  0  0  0  0  0  0  0  0  0  0
    3.1741    2.4398   -1.9745 O   0  0  0  0  0  0  0  0  0  0  0  0
    3.5527    3.3077   -4.1279 C   0  0  0  0  0  0  0  0  0  0  0  0
    3.8407    4.3691   -4.0597 H   0  0  0  0  0  0  0  0  0  0  0  0
    4.5024    2.7495   -4.1526 H   0  0  0  0  0  0  0  0  0  0  0  0
    3.1208    3.1887   -5.1345 H   0  0  0  0  0  0  0  0  0  0  0  0
    1.3174    3.0407   -3.2467 N   0  0  0  0  0  0  0  0  0  0  0  0
    0.2944    2.6927   -2.2960 C   0  0  2  0  0  0  0  0  0  0  0  0
    0.2976    1.1783   -2.1349 C   0  0  0  0  0  0  0  0  0  0  0  0
    0.7500    0.4142   -2.9850 O   0  0  0  0  0  0  0  0  0  0  0  0
   -1.0710    3.1886   -2.7460 C   0  0  0  0  0  0  0  0  0  0  0  0
    1.0312    3.4224   -4.1464 H   0  0  0  0  0  0  0  0  0  0  0  0
    0.5725    3.1622   -1.3461 H   0  0  0  0  0  0  0  0  0  0  0  0
   -1.3666    2.7292   -3.6963 H   0  0  0  0  0  0  0  0  0  0  0  0
   -1.8434    2.9482   -2.0082 H   0  0  0  0  0  0  0  0  0  0  0  0
   -1.0632    4.2744   -2.8901 H   0  0  0  0  0  0  0  0  0  0  0  0
   -0.3037    0.7742   -0.9484 N   0  0  0  0  0  0  0  0  0  0  0  0
   -0.4352   -0.6095   -0.5718 C   0  0  2  0  0  0  0  0  0  0  0  0
   -1.8851   -1.0383   -0.7722 C   0  0  0  0  0  0  0  0  0  0  0  0
   -2.6790   -1.1722    0.1570 O   0  0  0  0  0  0  0  0  0  0  0  0
    0.0709   -0.8667    0.8525 C   0  0  0  0  0  0  0  0  0  0  0  0
    1.5875   -0.7033    1.0170 C   0  0  0  0  0  0  0  0  0  0  0  0
    2.0224   -0.9986    2.4544 C   0  0  0  0  0  0  0  0  0  0  0  0
    3.5234   -0.8118    2.6198 C   0  0  0  0  0  0  0  0  0  0  0  0
    3.8945   -1.0843    4.0291 N   0  3  0  0  0  0  0  0  0  0  0  0
   -0.6336    1.4811   -0.2948 H   0  0  0  0  0  0  0  0  0  0  0  0
    0.1853   -1.1730   -1.2791 H   0  0  0  0  0  0  0  0  0  0  0  0
   -0.4358   -0.1751    1.5380 H   0  0  0  0  0  0  0  0  0  0  0  0
   -0.2118   -1.8803    1.1625 H   0  0  0  0  0  0  0  0  0  0  0  0
    2.1134   -1.3820    0.3355 H   0  0  0  0  0  0  0  0  0  0  0  0
    1.8854    0.3181    0.7526 H   0  0  0  0  0  0  0  0  0  0  0  0
    1.7446   -2.0267    2.7182 H   0  0  0  0  0  0  0  0  0  0  0  0
    1.4870   -0.3342    3.1439 H   0  0  0  0  0  0  0  0  0  0  0  0
    4.0942   -1.5101    2.0005 H   0  0  0  0  0  0  0  0  0  0  0  0
    3.8354    0.2139    2.4020 H   0  0  0  0  0  0  0  0  0  0  0  0
    4.8012   -0.6630    4.2588 H   0  0  0  0  0  0  0  0  0  0  0  0
    3.9627   -2.0934    4.2023 H   0  0  0  0  0  0  0  0  0  0  0  0
    3.1955   -0.7000    4.6744 H   0  0  0  0  0  0  0  0  0  0  0  0
   -2.1991   -1.2221   -2.1111 N   0  0  0  0  0  0  0  0  0  0  0  0
   -3.5192   -1.6130   -2.5449 C   0  0  2  0  0  0  0  0  0  0  0  0
   -3.4291   -2.0318   -4.0064 C   0  0  0  0  0  0  0  0  0  0  0  0
   -2.5290   -1.6599   -4.7565 O   0  0  0  0  0  0  0  0  0  0  0  0
   -4.5187   -0.4812   -2.3645 C   0  0  0  0  0  0  0  0  0  0  0  0
   -1.4759   -1.0767   -2.8093 H   0  0  0  0  0  0  0  0  0  0  0  0
   -3.8104   -2.4749   -1.9347 H   0  0  0  0  0  0  0  0  0  0  0  0
   -4.2436    0.3913   -2.9683 H   0  0  0  0  0  0  0  0  0  0  0  0
   -5.5251   -0.7886   -2.6673 H   0  0  0  0  0  0  0  0  0  0  0  0
   -4.5604   -0.1612   -1.3178 H   0  0  0  0  0  0  0  0  0  0  0  0
   -4.4955   -2.8349   -4.3859 N   0  0  0  0  0  0  0  0  0  0  0  0
   -4.6441   -3.3514   -5.7265 C   0  0  0  0  0  0  0  0  0  0  0  0
   -5.1859   -3.1089   -3.6931 H   0  0  0  0  0  0  0  0  0  0  0  0
   -5.2615   -2.6609   -6.3197 H   0  0  0  0  0  0  0  0  0  0  0  0
   -3.6529   -3.4502   -6.1932 H   0  0  0  0  0  0  0  0  0  0  0  0
   -5.1309   -4.3371   -5.6876 H   0  0  0  0  0  0  0  0  0  0  0  0
  1  3  1  0  0  0  0
  1  7  1  0  0  0  0
  1  2  2  0  0  0  0
 40 41  1  0  0  0  0
 41 49  1  0  0  0  0
 41 42  2  0  0  0  0
  8  9  1  0  0  0  0
  9 17  1  0  0  0  0
  9 10  2  0  0  0  0
 18 19  1  0  0  0  0
 19 39  1  0  0  0  0
 19 20  2  0  0  0  0
 40 43  1  0  0  0  0
  8 11  1  0  0  0  0
 49 50  1  0  0  0  0
 22 23  1  0  0  0  0
 21 22  1  0  0  0  0
 23 24  1  0  0  0  0
 18 21  1  0  0  0  0
 24 25  1  0  0  0  0
 39 40  1  0  0  0  0
  7  8  1  0  0  0  0
 17 18  1  0  0  0  0
  3  4  1  0  0  0  0
  3  5  1  0  0  0  0
  3  6  1  0  0  0  0
 43 46  1  0  0  0  0
 43 47  1  0  0  0  0
 43 48  1  0  0  0  0
 11 14  1  0  0  0  0
 11 15  1  0  0  0  0
 11 16  1  0  0  0  0
 50 52  1  0  0  0  0
 50 53  1  0  0  0  0
 50 54  1  0  0  0  0
 22 30  1  0  0  0  0
 22 31  1  0  0  0  0
 23 32  1  0  0  0  0
 23 33  1  0  0  0  0
 21 28  1  0  0  0  0
 21 29  1  0  0  0  0
 24 34  1  0  0  0  0
 24 35  1  0  0  0  0
 40 45  1  0  0  0  0
  8 13  1  0  0  0  0
 18 27  1  0  0  0  0
 49 51  1  0  0  0  0
  7 12  1  0  0  0  0
 39 44  1  0  0  0  0
 17 26  1  0  0  0  0
 25 36  1  0  0  0  0
 25 37  1  0  0  0  0
 25 38  1  0  0  0  0
M  CHG  1  25   1
M  END
$$$$

  -OEChem-05262214473D

 54 53  0     1  0  0  0  0  0999 V2000
    2.6714    2.8829   -3.0005 C   0  0  0  0  0  0  0  0  0  0  0  0
    3.1741    2.4398   -1.9745 O   0  0  0  0  0  0  0  0  0  0  0  0
    3.5527    3.3077   -4.1279 C   0  0  0  0  0  0  0  0  0  0  0  0
    3.8407    4.3691   -4.0597 H   0  0  0  0  0  0  0  0  0  0  0  0
    4.5024    2.7495   -4.1526 H   0  0  0  0  0  0  0  0  0  0  0  0
    3.1208    3.1887   -5.1345 H   0  0  0  0  0  0  0  0  0  0  0  0
    1.3174    3.0407   -3.2467 N   0  0  0  0  0  0  0  0  0  0  0  0
    0.2944    2.6927   -2.2960 C   0  0  2  0  0  0  0  0  0  0  0  0
    0.2976    1.1783   -2.1349 C   0  0  0  0  0  0  0  0  0  0  0  0
    0.7500    0.4142   -2.9850 O   0  0  0  0  0  0  0  0  0  0  0  0
   -1.0710    3.1886   -2.7460 C   0  0  0  0  0  0  0  0  0  0  0  0
    1.0312    3.4224   -4.1464 H   0  0  0  0  0  0  0  0  0  0  0  0
    0.5725    3.1622   -1.3461 H   0  0  0  0  0  0  0  0  0  0  0  0
   -1.3666    2.7292   -3.6963 H   0  0  0  0  0  0  0  0  0  0  0  0
   -1.8434    2.9482   -2.0082 H   0  0  0  0  0  0  0  0  0  0  0  0
   -1.0632    4.2744   -2.8901 H   0  0  0  0  0  0  0  0  0  0  0  0
   -0.3037    0.7742   -0.9484 N   0  0  0  0  0  0  0  0  0  0  0  0
   -0.4352   -0.6095   -0.5718 C   0  0  2  0  0  0  0  0  0  0  0  0
   -1.8851   -1.0383   -0.7722 C   0  0  0  0  0  0  0  0  0  0  0  0
   -2.7458   -0.9185    0.0975 O   0  0  0  0  0  0  0  0  0  0  0  0
    0.0709   -0.8667    0.8525 C   0  0  0  0  0  0  0  0  0  0  0  0
    1.5875   -0.7033    1.0170 C   0  0  0  0  0  0  0  0  0  0  0  0
    2.0224   -0.9986    2.4544 C   0  0  0  0  0  0  0  0  0  0  0  0
    3.5234   -0.8118    2.6198 C   0  0  0  0  0  0  0  0  0  0  0  0
    3.8945   -1.0843    4.0291 N   0  3  0  0  0  0  0  0  0  0  0  0
   -0.6336    1.4811   -0.2948 H   0  0  0  0  0  0  0  0  0  0  0  0
    0.1853   -1.1730   -1.2791 H   0  0  0  0  0  0  0  0  0  0  0  0
   -0.4358   -0.1751    1.5380 H   0  0  0  0  0  0  0  0  0  0  0  0
   -0.2118   -1.8803    1.1625 H   0  0  0  0  0  0  0  0  0  0  0  0
    2.1134   -1.3820    0.3355 H   0  0  0  0  0  0  0  0  0  0  0  0
    1.8854    0.3181    0.7526 H   0  0  0  0  0  0  0  0  0  0  0  0
    1.7446   -2.0267    2.7182 H   0  0  0  0  0  0  0  0  0  0  0  0
    1.4870   -0.3342    3.1439 H   0  0  0  0  0  0  0  0  0  0  0  0
    4.0942   -1.5101    2.0005 H   0  0  0  0  0  0  0  0  0  0  0  0
    3.8354    0.2139    2.4020 H   0  0  0  0  0  0  0  0  0  0  0  0
    4.8012   -0.6630    4.2588 H   0  0  0  0  0  0  0  0  0  0  0  0
    3.9627   -2.0934    4.2023 H   0  0  0  0  0  0  0  0  0  0  0  0
    3.1955   -0.7000    4.6744 H   0  0  0  0  0  0  0  0  0  0  0  0
   -2.1143   -1.5396   -2.0454 N   0  0  0  0  0  0  0  0  0  0  0  0
   -3.4171   -1.9927   -2.4708 C   0  0  2  0  0  0  0  0  0  0  0  0
   -3.2452   -2.7620   -3.7739 C   0  0  0  0  0  0  0  0  0  0  0  0
   -2.2807   -2.6097   -4.5205 O   0  0  0  0  0  0  0  0  0  0  0  0
   -4.3770   -0.8269   -2.6504 C   0  0  0  0  0  0  0  0  0  0  0  0
   -1.3394   -1.5895   -2.7001 H   0  0  0  0  0  0  0  0  0  0  0  0
   -3.7863   -2.6694   -1.6924 H   0  0  0  0  0  0  0  0  0  0  0  0
   -4.0238   -0.1380   -3.4263 H   0  0  0  0  0  0  0  0  0  0  0  0
   -5.3726   -1.1745   -2.9454 H   0  0  0  0  0  0  0  0  0  0  0  0
   -4.4764   -0.2570   -1.7202 H   0  0  0  0  0  0  0  0  0  0  0  0
   -4.3168   -3.6072   -4.0262 N   0  0  0  0  0  0  0  0  0  0  0  0
   -4.3953   -4.4354   -5.2069 C   0  0  0  0  0  0  0  0  0  0  0  0
   -5.0642   -3.6842   -3.3427 H   0  0  0  0  0  0  0  0  0  0  0  0
   -4.9402   -3.8978   -5.9969 H   0  0  0  0  0  0  0  0  0  0  0  0
   -3.3797   -4.6711   -5.5574 H   0  0  0  0  0  0  0  0  0  0  0  0
   -4.9257   -5.3684   -4.9655 H   0  0  0  0  0  0  0  0  0  0  0  0
  1  3  1  0  0  0  0
  1  7  1  0  0  0  0
  1  2  2  0  0  0  0
 40 41  1  0  0  0  0
 41 49  1  0  0  0  0
 41 42  2  0  0  0  0
  8  9  1  0  0  0  0
  9 17  1  0  0  0  0
  9 10  2  0  0  0  0
 18 19  1  0  0  0  0
 19 39  1  0  0  0  0
 19 20  2  0  0  0  0
 40 43  1  0  0  0  0
  8 11  1  0  0  0  0
 49 50  1  0  0  0  0
 22 23  1  0  0  0  0
 21 22  1  0  0  0  0
 23 24  1  0  0  0  0
 18 21  1  0  0  0  0
 24 25  1  0  0  0  0
 39 40  1  0  0  0  0
  7  8  1  0  0  0  0
 17 18  1  0  0  0  0
  3  4  1  0  0  0  0
  3  5  1  0  0  0  0
  3  6  1  0  0  0  0
 43 46  1  0  0  0  0
 43 47  1  0  0  0  0
 43 48  1  0  0  0  0
 11 14  1  0  0  0  0
 11 15  1  0  0  0  0
 11 16  1  0  0  0  0
 50 52  1  0  0  0  0
 50 53  1  0  0  0  0
 50 54  1  0  0  0  0
 22 30  1  0  0  0  0
 22 31  1  0  0  0  0
 23 32  1  0  0  0  0
 23 33  1  0  0  0  0
 21 28  1  0  0  0  0
 21 29  1  0  0  0  0
 24 34  1  0  0  0  0
 24 35  1  0  0  0  0
 40 45  1  0  0  0  0
  8 13  1  0  0  0  0
 18 27  1  0  0  0  0
 49 51  1  0  0  0  0
  7 12  1  0  0  0  0
 39 44  1  0  0  0  0
 17 26  1  0  0  0  0
 25 36  1  0  0  0  0
 25 37  1  0  0  0  0
 25 38  1  0  0  0  0
M  CHG  1  25   1
M  END
$$$$

  -OEChem-05262214473D

 54 53  0     1  0  0  0  0  0999 V2000
    2.6714    2.8829   -3.0005 C   0  0  0  0  0  0  0  0  0  0  0  0
    3.1741    2.4398   -1.9745 O   0  0  0  0  0  0  0  0  0  0  0  0
    3.5527    3.3077   -4.1279 C   0  0  0  0  0  0  0  0  0  0  0  0
    3.8407    4.3691   -4.0597 H   0  0  0  0  0  0  0  0  0  0  0  0
    4.5024    2.7495   -4.1526 H   0  0  0  0  0  0  0  0  0  0  0  0
    3.1208    3.1887   -5.1345 H   0  0  0  0  0  0  0  0  0  0  0  0
    1.3174    3.0407   -3.2467 N   0  0  0  0  0  0  0  0  0  0  0  0
    0.2944    2.6927   -2.2960 C   0  0  2  0  0  0  0  0  0  0  0  0
    0.2976    1.1783   -2.1349 C   0  0  0  0  0  0  0  0  0  0  0  0
    0.7500    0.4142   -2.9850 O   0  0  0  0  0  0  0  0  0  0  0  0
   -1.0710    3.1886   -2.7460 C   0  0  0  0  0  0  0  0  0  0  0  0
    1.0312    3.4224   -4.1464 H   0  0  0  0  0  0  0  0  0  0  0  0
    0.5725    3.1622   -1.3461 H   0  0  0  0  0  0  0  0  0  0  0  0
   -1.3666    2.7292   -3.6963 H   0  0  0  0  0  0  0  0  0  0  0  0
   -1.8434    2.9482   -2.0082 H   0  0  0  0  0  0  0  0  0  0  0  0
   -1.0632    4.2744   -2.8901 H   0  0  0  0  0  0  0  0  0  0  0  0
   -0.3037    0.7742   -0.9484 N   0  0  0  0  0  0  0  0  0  0  0  0
   -0.4352   -0.6095   -0.5718 C   0  0  2  0  0  0  0  0  0  0  0  0
   -1.8851   -1.0383   -0.7722 C   0  0  0  0  0  0  0  0  0  0  0  0
   -2.7974   -0.6857   -0.0272 O   0  0  0  0  0  0  0  0  0  0  0  0
    0.0709   -0.8667    0.8525 C   0  0  0  0  0  0  0  0  0  0  0  0
    1.5875   -0.7033    1.0170 C   0  0  0  0  0  0  0  0  0  0  0  0
    2.0224   -0.9986    2.4544 C   0  0  0  0  0  0  0  0  0  0  0  0
    3.5234   -0.8118    2.6198 C   0  0  0  0  0  0  0  0  0  0  0  0
    3.8945   -1.0843    4.0291 N   0  3  0  0  0  0  0  0  0  0  0  0
   -0.6336    1.4811   -0.2948 H   0  0  0  0  0  0  0  0  0  0  0  0
    0.1853   -1.1730   -1.2791 H   0  0  0  0  0  0  0  0  0  0  0  0
   -0.4358   -0.1751    1.5380 H   0  0  0  0  0  0  0  0  0  0  0  0
   -0.2118   -1.8803    1.1625 H   0  0  0  0  0  0  0  0  0  0  0  0
    2.1134   -1.3820    0.3355 H   0  0  0  0  0  0  0  0  0  0  0  0
    1.8854    0.3181    0.7526 H   0  0  0  0  0  0  0  0  0  0  0  0
    1.7446   -2.0267    2.7182 H   0  0  0  0  0  0  0  0  0  0  0  0
    1.4870   -0.3342    3.1439 H   0  0  0  0  0  0  0  0  0  0  0  0
    4.0942   -1.5101    2.0005 H   0  0  0  0  0  0  0  0  0  0  0  0
    3.8354    0.2139    2.4020 H   0  0  0  0  0  0  0  0  0  0  0  0
    4.8012   -0.6630    4.2588 H   0  0  0  0  0  0  0  0  0  0  0  0
    3.9627   -2.0934    4.2023 H   0  0  0  0  0  0  0  0  0  0  0  0
    3.1955   -0.7000    4.6744 H   0  0  0  0  0  0  0  0  0  0  0  0
   -2.0479   -1.8331   -1.8977 N   0  0  0  0  0  0  0  0  0  0  0  0
   -3.3369   -2.3447   -2.2983 C   0  0  2  0  0  0  0  0  0  0  0  0
   -3.1094   -3.4164   -3.3562 C   0  0  0  0  0  0  0  0  0  0  0  0
   -2.0903   -3.4775   -4.0409 O   0  0  0  0  0  0  0  0  0  0  0  0
   -4.2310   -1.2360   -2.8312 C   0  0  0  0  0  0  0  0  0  0  0  0
   -1.2328   -2.0625   -2.4586 H   0  0  0  0  0  0  0  0  0  0  0  0
   -3.7873   -2.7985   -1.4088 H   0  0  0  0  0  0  0  0  0  0  0  0
   -3.7961   -0.7694   -3.7226 H   0  0  0  0  0  0  0  0  0  0  0  0
   -5.2181   -1.6208   -3.1079 H   0  0  0  0  0  0  0  0  0  0  0  0
   -4.3693   -0.4515   -2.0793 H   0  0  0  0  0  0  0  0  0  0  0  0
   -4.1966   -4.2708   -3.4757 N   0  0  0  0  0  0  0  0  0  0  0  0
   -4.2297   -5.3630   -4.4202 C   0  0  0  0  0  0  0  0  0  0  0  0
   -4.9917   -4.1577   -2.8538 H   0  0  0  0  0  0  0  0  0  0  0  0
   -4.6955   -5.0241   -5.3573 H   0  0  0  0  0  0  0  0  0  0  0  0
   -3.2035   -5.7033   -4.6231 H   0  0  0  0  0  0  0  0  0  0  0  0
   -4.8150   -6.1938   -3.9994 H   0  0  0  0  0  0  0  0  0  0  0  0
  1  3  1  0  0  0  0
  1  7  1  0  0  0  0
  1  2  2  0  0  0  0
 40 41  1  0  0  0  0
 41 49  1  0  0  0  0
 41 42  2  0  0  0  0
  8  9  1  0  0  0  0
  9 17  1  0  0  0  0
  9 10  2  0  0  0  0
 18 19  1  0  0  0  0
 19 39  1  0  0  0  0
 19 20  2  0  0  0  0
 40 43  1  0  0  0  0
  8 11  1  0  0  0  0
 49 50  1  0  0  0  0
 22 23  1  0  0  0  0
 21 22  1  0  0  0  0
 23 24  1  0  0  0  0
 18 21  1  0  0  0  0
 24 25  1  0  0  0  0
 39 40  1  0  0  0  0
  7  8  1  0  0  0  0
 17 18  1  0  0  0  0
  3  4  1  0  0  0  0
  3  5  1  0  0  0  0
  3  6  1  0  0  0  0
 43 46  1  0  0  0  0
 43 47  1  0  0  0  0
 43 48  1  0  0  0  0
 11 14  1  0  0  0  0
 11 15  1  0  0  0  0
 11 16  1  0  0  0  0
 50 52  1  0  0  0  0
 50 53  1  0  0  0  0
 50 54  1  0  0  0  0
 22 30  1  0  0  0  0
 22 31  1  0  0  0  0
 23 32  1  0  0  0  0
 23 33  1  0  0  0  0
 21 28  1  0  0  0  0
 21 29  1  0  0  0  0
 24 34  1  0  0  0  0
 24 35  1  0  0  0  0
 40 45  1  0  0  0  0
  8 13  1  0  0  0  0
 18 27  1  0  0  0  0
 49 51  1  0  0  0  0
  7 12  1  0  0  0  0
 39 44  1  0  0  0  0
 17 26  1  0  0  0  0
 25 36  1  0  0  0  0
 25 37  1  0  0  0  0
 25 38  1  0  0  0  0
M  CHG  1  25   1
M  END
$$$$

  -OEChem-05262214473D

 54 53  0     1  0  0  0  0  0999 V2000
    2.6714    2.8829   -3.0005 C   0  0  0  0  0  0  0  0  0  0  0  0
    3.1741    2.4398   -1.9745 O   0  0  0  0  0  0  0  0  0  0  0  0
    3.5527    3.3077   -4.1279 C   0  0  0  0  0  0  0  0  0  0  0  0
    3.8407    4.3691   -4.0597 H   0  0  0  0  0  0  0  0  0  0  0  0
    4.5024    2.7495   -4.1526 H   0  0  0  0  0  0  0  0  0  0  0  0
    3.1208    3.1887   -5.1345 H   0  0  0  0  0  0  0  0  0  0  0  0
    1.3174    3.0407   -3.2467 N   0  0  0  0  0  0  0  0  0  0  0  0
    0.2944    2.6927   -2.2960 C   0  0  2  0  0  0  0  0  0  0  0  0
    0.2976    1.1783   -2.1349 C   0  0  0  0  0  0  0  0  0  0  0  0
    0.7500    0.4142   -2.9850 O   0  0  0  0  0  0  0  0  0  0  0  0
   -1.0710    3.1886   -2.7460 C   0  0  0  0  0  0  0  0  0  0  0  0
    1.0312    3.4224   -4.1464 H   0  0  0  0  0  0  0  0  0  0  0  0
    0.5725    3.1622   -1.3461 H   0  0  0  0  0  0  0  0  0  0  0  0
   -1.3666    2.7292   -3.6963 H   0  0  0  0  0  0  0  0  0  0  0  0
   -1.8434    2.9482   -2.0082 H   0  0  0  0  0  0  0  0  0  0  0  0
   -1.0632    4.2744   -2.8901 H   0  0  0  0  0  0  0  0  0  0  0  0
   -0.3037    0.7742   -0.9484 N   0  0  0  0  0  0  0  0  0  0  0  0
   -0.4352   -0.6095   -0.5718 C   0  0  2  0  0  0  0  0  0  0  0  0
   -1.8851   -1.0383   -0.7722 C   0  0  0  0  0  0  0  0  0  0  0  0
   -2.8302   -0.4899   -0.2087 O   0  0  0  0  0  0  0  0  0  0  0  0
    0.0709   -0.8667    0.8525 C   0  0  0  0  0  0  0  0  0  0  0  0
    1.5875   -0.7033    1.0170 C   0  0  0  0  0  0  0  0  0  0  0  0
    2.0224   -0.9986    2.4544 C   0  0  0  0  0  0  0  0  0  0  0  0
    3.5234   -0.8118    2.6198 C   0  0  0  0  0  0  0  0  0  0  0  0
    3.8945   -1.0843    4.0291 N   0  3  0  0  0  0  0  0  0  0  0  0
   -0.6336    1.4811   -0.2948 H   0  0  0  0  0  0  0  0  0  0  0  0
    0.1853   -1.1730   -1.2791 H   0  0  0  0  0  0  0  0  0  0  0  0
   -0.4358   -0.1751    1.5380 H   0  0  0  0  0  0  0  0  0  0  0  0
   -0.2118   -1.8803    1.1625 H   0  0  0  0  0  0  0  0  0  0  0  0
    2.1134   -1.3820    0.3355 H   0  0  0  0  0  0  0  0  0  0  0  0
    1.8854    0.3181    0.7526 H   0  0  0  0  0  0  0  0  0  0  0  0
    1.7446   -2.0267    2.7182 H   0  0  0  0  0  0  0  0  0  0  0  0
    1.4870   -0.3342    3.1439 H   0  0  0  0  0  0  0  0  0  0  0  0
    4.0942   -1.5101    2.0005 H   0  0  0  0  0  0  0  0  0  0  0  0
    3.8354    0.2139    2.4020 H   0  0  0  0  0  0  0  0  0  0  0  0
    4.8012   -0.6630    4.2588 H   0  0  0  0  0  0  0  0  0  0  0  0
    3.9627   -2.0934    4.2023 H   0  0  0  0  0  0  0  0  0  0  0  0
    3.1955   -0.7000    4.6744 H   0  0  0  0  0  0  0  0  0  0  0  0
   -2.0045   -2.0824   -1.6780 N   0  0  0  0  0  0  0  0  0  0  0  0
   -3.2839   -2.6450   -2.0392 C   0  0  2  0  0  0  0  0  0  0  0  0
   -3.0309   -3.9503   -2.7818 C   0  0  0  0  0  0  0  0  0  0  0  0
   -1.9708   -4.2042   -3.3501 O   0  0  0  0  0  0  0  0  0  0  0  0
   -4.0908   -1.6806   -2.8945 C   0  0  0  0  0  0  0  0  0  0  0  0
   -1.1636   -2.4637   -2.1012 H   0  0  0  0  0  0  0  0  0  0  0  0
   -3.8133   -2.8533   -1.1031 H   0  0  0  0  0  0  0  0  0  0  0  0
   -3.5761   -1.4599   -3.8368 H   0  0  0  0  0  0  0  0  0  0  0  0
   -5.0723   -2.0972   -3.1438 H   0  0  0  0  0  0  0  0  0  0  0  0
   -4.2463   -0.7314   -2.3705 H   0  0  0  0  0  0  0  0  0  0  0  0
   -4.1431   -4.7804   -2.7720 N   0  0  0  0  0  0  0  0  0  0  0  0
   -4.1585   -6.0711   -3.4200 C   0  0  0  0  0  0  0  0  0  0  0  0
   -4.9734   -4.4973   -2.2598 H   0  0  0  0  0  0  0  0  0  0  0  0
   -4.5439   -5.9630   -4.4445 H   0  0  0  0  0  0  0  0  0  0  0  0
   -3.1364   -6.4764   -3.4538 H   0  0  0  0  0  0  0  0  0  0  0  0
   -4.8066   -6.7572   -2.8550 H   0  0  0  0  0  0  0  0  0  0  0  0
  1  3  1  0  0  0  0
  1  7  1  0  0  0  0
  1  2  2  0  0  0  0
 40 41  1  0  0  0  0
 41 49  1  0  0  0  0
 41 42  2  0  0  0  0
  8  9  1  0  0  0  0
  9 17  1  0  0  0  0
  9 10  2  0  0  0  0
 18 19  1  0  0  0  0
 19 39  1  0  0  0  0
 19 20  2  0  0  0  0
 40 43  1  0  0  0  0
  8 11  1  0  0  0  0
 49 50  1  0  0  0  0
 22 23  1  0  0  0  0
 21 22  1  0  0  0  0
 23 24  1  0  0  0  0
 18 21  1  0  0  0  0
 24 25  1  0  0  0  0
 39 40  1  0  0  0  0
  7  8  1  0  0  0  0
 17 18  1  0  0  0  0
  3  4  1  0  0  0  0
  3  5  1  0  0  0  0
  3  6  1  0  0  0  0
 43 46  1  0  0  0  0
 43 47  1  0  0  0  0
 43 48  1  0  0  0  0
 11 14  1  0  0  0  0
 11 15  1  0  0  0  0
 11 16  1  0  0  0  0
 50 52  1  0  0  0  0
 50 53  1  0  0  0  0
 50 54  1  0  0  0  0
 22 30  1  0  0  0  0
 22 31  1  0  0  0  0
 23 32  1  0  0  0  0
 23 33  1  0  0  0  0
 21 28  1  0  0  0  0
 21 29  1  0  0  0  0
 24 34  1  0  0  0  0
 24 35  1  0  0  0  0
 40 45  1  0  0  0  0
  8 13  1  0  0  0  0
 18 27  1  0  0  0  0
 49 51  1  0  0  0  0
  7 12  1  0  0  0  0
 39 44  1  0  0  0  0
 17 26  1  0  0  0  0
 25 36  1  0  0  0  0
 25 37  1  0  0  0  0
 25 38  1  0  0  0  0
M  CHG  1  25   1
M  END
$$$$

  -OEChem-05262214473D

 54 53  0     1  0  0  0  0  0999 V2000
    2.6714    2.8829   -3.0005 C   0  0  0  0  0  0  0  0  0  0  0  0
    3.1741    2.4398   -1.9745 O   0  0  0  0  0  0  0  0  0  0  0  0
    3.5527    3.3077   -4.1279 C   0  0  0  0  0  0  0  0  0  0  0  0
    3.8407    4.3691   -4.0597 H   0  0  0  0  0  0  0  0  0  0  0  0
    4.5024    2.7495   -4.1526 H   0  0  0  0  0  0  0  0  0  0  0  0
    3.1208    3.1887   -5.1345 H   0  0  0  0  0  0  0  0  0  0  0  0
    1.3174    3.0407   -3.2467 N   0  0  0  0  0  0  0  0  0  0  0  0
    0.2944    2.6927   -2.2960 C   0  0  2  0  0  0  0  0  0  0  0  0
    0.2976    1.1783   -2.1349 C   0  0  0  0  0  0  0  0  0  0  0  0
    0.7500    0.4142   -2.9850 O   0  0  0  0  0  0  0  0  0  0  0  0
   -1.0710    3.1886   -2.7460 C   0  0  0  0  0  0  0  0  0  0  0  0
    1.0312    3.4224   -4.1464 H   0  0  0  0  0  0  0  0  0  0  0  0
    0.5725    3.1622   -1.3461 H   0  0  0  0  0  0  0  0  0  0  0  0
   -1.3666    2.7292   -3.6963 H   0  0  0  0  0  0  0  0  0  0  0  0
   -1.8434    2.9482   -2.0082 H   0  0  0  0  0  0  0  0  0  0  0  0
   -1.0632    4.2744   -2.8901 H   0  0  0  0  0  0  0  0  0  0  0  0
   -0.3037    0.7742   -0.9484 N   0  0  0  0  0  0  0  0  0  0  0  0
   -0.4352   -0.6095   -0.5718 C   0  0  2  0  0  0  0  0  0  0  0  0
   -1.8851   -1.0383   -0.7722 C   0  0  0  0  0  0  0  0  0  0  0  0
   -2.8421   -0.3442   -0.4347 O   0  0  0  0  0  0  0  0  0  0  0  0
    0.0709   -0.8667    0.8525 C   0  0  0  0  0  0  0  0  0  0  0  0
    1.5875   -0.7033    1.0170 C   0  0  0  0  0  0  0  0  0  0  0  0
    2.0224   -0.9986    2.4544 C   0  0  0  0  0  0  0  0  0  0  0  0
    3.5234   -0.8118    2.6198 C   0  0  0  0  0  0  0  0  0  0  0  0
    3.8945   -1.0843    4.0291 N   0  3  0  0  0  0  0  0  0  0  0  0
   -0.6336    1.4811   -0.2948 H   0  0  0  0  0  0  0  0  0  0  0  0
    0.1853   -1.1730   -1.2791 H   0  0  0  0  0  0  0  0  0  0  0  0
   -0.4358   -0.1751    1.5380 H   0  0  0  0  0  0  0  0  0  0  0  0
   -0.2118   -1.8803    1.1625 H   0  0  0  0  0  0  0  0  0  0  0  0
    2.1134   -1.3820    0.3355 H   0  0  0  0  0  0  0  0  0  0  0  0
    1.8854    0.3181    0.7526 H   0  0  0  0  0  0  0  0  0  0  0  0
    1.7446   -2.0267    2.7182 H   0  0  0  0  0  0  0  0  0  0  0  0
    1.4870   -0.3342    3.1439 H   0  0  0  0  0  0  0  0  0  0  0  0
    4.0942   -1.5101    2.0005 H   0  0  0  0  0  0  0  0  0  0  0  0
    3.8354    0.2139    2.4020 H   0  0  0  0  0  0  0  0  0  0  0  0
    4.8012   -0.6630    4.2588 H   0  0  0  0  0  0  0  0  0  0  0  0
    3.9627   -2.0934    4.2023 H   0  0  0  0  0  0  0  0  0  0  0  0
    3.1955   -0.7000    4.6744 H   0  0  0  0  0  0  0  0  0  0  0  0
   -1.9871   -2.2707   -1.4013 N   0  0  0  0  0  0  0  0  0  0  0  0
   -3.2617   -2.8731   -1.7112 C   0  0  2  0  0  0  0  0  0  0  0  0
   -3.0150   -4.3274   -2.0900 C   0  0  0  0  0  0  0  0  0  0  0  0
   -1.9304   -4.7402   -2.4955 O   0  0  0  0  0  0  0  0  0  0  0  0
   -3.9658   -2.1304   -2.8361 C   0  0  0  0  0  0  0  0  0  0  0  0
   -1.1363   -2.7656   -1.6522 H   0  0  0  0  0  0  0  0  0  0  0  0
   -3.8626   -2.8302   -0.7962 H   0  0  0  0  0  0  0  0  0  0  0  0
   -3.3787   -2.1624   -3.7612 H   0  0  0  0  0  0  0  0  0  0  0  0
   -4.9450   -2.5711   -3.0507 H   0  0  0  0  0  0  0  0  0  0  0  0
   -4.1158   -1.0775   -2.5740 H   0  0  0  0  0  0  0  0  0  0  0  0
   -4.1600   -5.1013   -1.9629 N   0  0  0  0  0  0  0  0  0  0  0  0
   -4.1865   -6.5113   -2.2745 C   0  0  0  0  0  0  0  0  0  0  0  0
   -5.0104   -4.6798   -1.6012 H   0  0  0  0  0  0  0  0  0  0  0  0
   -4.4959   -6.6504   -3.3209 H   0  0  0  0  0  0  0  0  0  0  0  0
   -3.1830   -6.9378   -2.1292 H   0  0  0  0  0  0  0  0  0  0  0  0
   -4.9008   -7.0201   -1.6104 H   0  0  0  0  0  0  0  0  0  0  0  0
  1  3  1  0  0  0  0
  1  7  1  0  0  0  0
  1  2  2  0  0  0  0
 40 41  1  0  0  0  0
 41 49  1  0  0  0  0
 41 42  2  0  0  0  0
  8  9  1  0  0  0  0
  9 17  1  0  0  0  0
  9 10  2  0  0  0  0
 18 19  1  0  0  0  0
 19 39  1  0  0  0  0
 19 20  2  0  0  0  0
 40 43  1  0  0  0  0
  8 11  1  0  0  0  0
 49 50  1  0  0  0  0
 22 23  1  0  0  0  0
 21 22  1  0  0  0  0
 23 24  1  0  0  0  0
 18 21  1  0  0  0  0
 24 25  1  0  0  0  0
 39 40  1  0  0  0  0
  7  8  1  0  0  0  0
 17 18  1  0  0  0  0
  3  4  1  0  0  0  0
  3  5  1  0  0  0  0
  3  6  1  0  0  0  0
 43 46  1  0  0  0  0
 43 47  1  0  0  0  0
 43 48  1  0  0  0  0
 11 14  1  0  0  0  0
 11 15  1  0  0  0  0
 11 16  1  0  0  0  0
 50 52  1  0  0  0  0
 50 53  1  0  0  0  0
 50 54  1  0  0  0  0
 22 30  1  0  0  0  0
 22 31  1  0  0  0  0
 23 32  1  0  0  0  0
 23 33  1  0  0  0  0
 21 28  1  0  0  0  0
 21 29  1  0  0  0  0
 24 34  1  0  0  0  0
 24 35  1  0  0  0  0
 40 45  1  0  0  0  0
  8 13  1  0  0  0  0
 18 27  1  0  0  0  0
 49 51  1  0  0  0  0
  7 12  1  0  0  0  0
 39 44  1  0  0  0  0
 17 26  1  0  0  0  0
 25 36  1  0  0  0  0
 25 37  1  0  0  0  0
 25 38  1  0  0  0  0
M  CHG  1  25   1
M  END
$$$$

  -OEChem-05262214473D

 54 53  0     1  0  0  0  0  0999 V2000
    2.6714    2.8829   -3.0005 C   0  0  0  0  0  0  0  0  0  0  0  0
    3.1741    2.4398   -1.9745 O   0  0  0  0  0  0  0  0  0  0  0  0
    3.5527    3.3077   -4.1279 C   0  0  0  0  0  0  0  0  0  0  0  0
    3.8407    4.3691   -4.0597 H   0  0  0  0  0  0  0  0  0  0  0  0
    4.5024    2.7495   -4.1526 H   0  0  0  0  0  0  0  0  0  0  0  0
    3.1208    3.1887   -5.1345 H   0  0  0  0  0  0  0  0  0  0  0  0
    1.3174    3.0407   -3.2467 N   0  0  0  0  0  0  0  0  0  0  0  0
    0.2944    2.6927   -2.2960 C   0  0  2  0  0  0  0  0  0  0  0  0
    0.2976    1.1783   -2.1349 C   0  0  0  0  0  0  0  0  0  0  0  0
    0.7500    0.4142   -2.9850 O   0  0  0  0  0  0  0  0  0  0  0  0
   -1.0710    3.1886   -2.7460 C   0  0  0  0  0  0  0  0  0  0  0  0
    1.0312    3.4224   -4.1464 H   0  0  0  0  0  0  0  0  0  0  0  0
    0.5725    3.1622   -1.3461 H   0  0  0  0  0  0  0  0  0  0  0  0
   -1.3666    2.7292   -3.6963 H   0  0  0  0  0  0  0  0  0  0  0  0
   -1.8434    2.9482   -2.0082 H   0  0  0  0  0  0  0  0  0  0  0  0
   -1.0632    4.2744   -2.8901 H   0  0  0  0  0  0  0  0  0  0  0  0
   -0.3037    0.7742   -0.9484 N   0  0  0  0  0  0  0  0  0  0  0  0
   -0.4352   -0.6095   -0.5718 C   0  0  2  0  0  0  0  0  0  0  0  0
   -1.8851   -1.0383   -0.7722 C   0  0  0  0  0  0  0  0  0  0  0  0
   -2.8322   -0.2587   -0.6896 O   0  0  0  0  0  0  0  0  0  0  0  0
    0.0709   -0.8667    0.8525 C   0  0  0  0  0  0  0  0  0  0  0  0
    1.5875   -0.7033    1.0170 C   0  0  0  0  0  0  0  0  0  0  0  0
    2.0224   -0.9986    2.4544 C   0  0  0  0  0  0  0  0  0  0  0  0
    3.5234   -0.8118    2.6198 C   0  0  0  0  0  0  0  0  0  0  0  0
    3.8945   -1.0843    4.0291 N   0  3  0  0  0  0  0  0  0  0  0  0
   -0.6336    1.4811   -0.2948 H   0  0  0  0  0  0  0  0  0  0  0  0
    0.1853   -1.1730   -1.2791 H   0  0  0  0  0  0  0  0  0  0  0  0
   -0.4358   -0.1751    1.5380 H   0  0  0  0  0  0  0  0  0  0  0  0
   -0.2118   -1.8803    1.1625 H   0  0  0  0  0  0  0  0  0  0  0  0
    2.1134   -1.3820    0.3355 H   0  0  0  0  0  0  0  0  0  0  0  0
    1.8854    0.3181    0.7526 H   0  0  0  0  0  0  0  0  0  0  0  0
    1.7446   -2.0267    2.7182 H   0  0  0  0  0  0  0  0  0  0  0  0
    1.4870   -0.3342    3.1439 H   0  0  0  0  0  0  0  0  0  0  0  0
    4.0942   -1.5101    2.0005 H   0  0  0  0  0  0  0  0  0  0  0  0
    3.8354    0.2139    2.4020 H   0  0  0  0  0  0  0  0  0  0  0  0
    4.8012   -0.6630    4.2588 H   0  0  0  0  0  0  0  0  0  0  0  0
    3.9627   -2.0934    4.2023 H   0  0  0  0  0  0  0  0  0  0  0  0
    3.1955   -0.7000    4.6744 H   0  0  0  0  0  0  0  0  0  0  0  0
   -1.9967   -2.3851   -1.0864 N   0  0  0  0  0  0  0  0  0  0  0  0
   -3.2720   -3.0134   -1.3367 C   0  0  2  0  0  0  0  0  0  0  0  0
   -3.0627   -4.5220   -1.3277 C   0  0  0  0  0  0  0  0  0  0  0  0
   -1.9718   -5.0491   -1.5351 O   0  0  0  0  0  0  0  0  0  0  0  0
   -3.8646   -2.5547   -2.6600 C   0  0  0  0  0  0  0  0  0  0  0  0
   -1.1530   -2.9476   -1.1422 H   0  0  0  0  0  0  0  0  0  0  0  0
   -3.9317   -2.7307   -0.5091 H   0  0  0  0  0  0  0  0  0  0  0  0
   -3.2175   -2.8292   -3.5010 H   0  0  0  0  0  0  0  0  0  0  0  0
   -4.8449   -3.0103   -2.8348 H   0  0  0  0  0  0  0  0  0  0  0  0
   -3.9867   -1.4663   -2.6759 H   0  0  0  0  0  0  0  0  0  0  0  0
   -4.2461   -5.2116   -1.1037 N   0  0  0  0  0  0  0  0  0  0  0  0
   -4.3120   -6.6538   -1.0617 C   0  0  0  0  0  0  0  0  0  0  0  0
   -5.1003   -4.6927   -0.9228 H   0  0  0  0  0  0  0  0  0  0  0  0
   -4.5546   -7.0396   -2.0629 H   0  0  0  0  0  0  0  0  0  0  0  0
   -3.3401   -7.0559   -0.7396 H   0  0  0  0  0  0  0  0  0  0  0  0
   -5.0913   -6.9646   -0.3504 H   0  0  0  0  0  0  0  0  0  0  0  0
  1  3  1  0  0  0  0
  1  7  1  0  0  0  0
  1  2  2  0  0  0  0
 40 41  1  0  0  0  0
 41 49  1  0  0  0  0
 41 42  2  0  0  0  0
  8  9  1  0  0  0  0
  9 17  1  0  0  0  0
  9 10  2  0  0  0  0
 18 19  1  0  0  0  0
 19 39  1  0  0  0  0
 19 20  2  0  0  0  0
 40 43  1  0  0  0  0
  8 11  1  0  0  0  0
 49 50  1  0  0  0  0
 22 23  1  0  0  0  0
 21 22  1  0  0  0  0
 23 24  1  0  0  0  0
 18 21  1  0  0  0  0
 24 25  1  0  0  0  0
 39 40  1  0  0  0  0
  7  8  1  0  0  0  0
 17 18  1  0  0  0  0
  3  4  1  0  0  0  0
  3  5  1  0  0  0  0
  3  6  1  0  0  0  0
 43 46  1  0  0  0  0
 43 47  1  0  0  0  0
 43 48  1  0  0  0  0
 11 14  1  0  0  0  0
 11 15  1  0  0  0  0
 11 16  1  0  0  0  0
 50 52  1  0  0  0  0
 50 53  1  0  0  0  0
 50 54  1  0  0  0  0
 22 30  1  0  0  0  0
 22 31  1  0  0  0  0
 23 32  1  0  0  0  0
 23 33  1  0  0  0  0
 21 28  1  0  0  0  0
 21 29  1  0  0  0  0
 24 34  1  0  0  0  0
 24 35  1  0  0  0  0
 40 45  1  0  0  0  0
  8 13  1  0  0  0  0
 18 27  1  0  0  0  0
 49 51  1  0  0  0  0
  7 12  1  0  0  0  0
 39 44  1  0  0  0  0
 17 26  1  0  0  0  0
 25 36  1  0  0  0  0
 25 37  1  0  0  0  0
 25 38  1  0  0  0  0
M  CHG  1  25   1
M  END
$$$$

  -OEChem-05262214473D

 54 53  0     1  0  0  0  0  0999 V2000
    2.6714    2.8829   -3.0005 C   0  0  0  0  0  0  0  0  0  0  0  0
    3.1741    2.4398   -1.9745 O   0  0  0  0  0  0  0  0  0  0  0  0
    3.5527    3.3077   -4.1279 C   0  0  0  0  0  0  0  0  0  0  0  0
    3.8407    4.3691   -4.0597 H   0  0  0  0  0  0  0  0  0  0  0  0
    4.5024    2.7495   -4.1526 H   0  0  0  0  0  0  0  0  0  0  0  0
    3.1208    3.1887   -5.1345 H   0  0  0  0  0  0  0  0  0  0  0  0
    1.3174    3.0407   -3.2467 N   0  0  0  0  0  0  0  0  0  0  0  0
    0.2944    2.6927   -2.2960 C   0  0  2  0  0  0  0  0  0  0  0  0
    0.2976    1.1783   -2.1349 C   0  0  0  0  0  0  0  0  0  0  0  0
    0.7500    0.4142   -2.9850 O   0  0  0  0  0  0  0  0  0  0  0  0
   -1.0710    3.1886   -2.7460 C   0  0  0  0  0  0  0  0  0  0  0  0
    1.0312    3.4224   -4.1464 H   0  0  0  0  0  0  0  0  0  0  0  0
    0.5725    3.1622   -1.3461 H   0  0  0  0  0  0  0  0  0  0  0  0
   -1.3666    2.7292   -3.6963 H   0  0  0  0  0  0  0  0  0  0  0  0
   -1.8434    2.9482   -2.0082 H   0  0  0  0  0  0  0  0  0  0  0  0
   -1.0632    4.2744   -2.8901 H   0  0  0  0  0  0  0  0  0  0  0  0
   -0.3037    0.7742   -0.9484 N   0  0  0  0  0  0  0  0  0  0  0  0
   -0.4352   -0.6095   -0.5718 C   0  0  2  0  0  0  0  0  0  0  0  0
   -1.8851   -1.0383   -0.7722 C   0  0  0  0  0  0  0  0  0  0  0  0
   -2.8011   -0.2392   -0.9561 O   0  0  0  0  0  0  0  0  0  0  0  0
    0.0709   -0.8667    0.8525 C   0  0  0  0  0  0  0  0  0  0  0  0
    1.5875   -0.7033    1.0170 C   0  0  0  0  0  0  0  0  0  0  0  0
    2.0224   -0.9986    2.4544 C   0  0  0  0  0  0  0  0  0  0  0  0
    3.5234   -0.8118    2.6198 C   0  0  0  0  0  0  0  0  0  0  0  0
    3.8945   -1.0843    4.0291 N   0  3  0  0  0  0  0  0  0  0  0  0
   -0.6336    1.4811   -0.2948 H   0  0  0  0  0  0  0  0  0  0  0  0
    0.1853   -1.1730   -1.2791 H   0  0  0  0  0  0  0  0  0  0  0  0
   -0.4358   -0.1751    1.5380 H   0  0  0  0  0  0  0  0  0  0  0  0
   -0.2118   -1.8803    1.1625 H   0  0  0  0  0  0  0  0  0  0  0  0
    2.1134   -1.3820    0.3355 H   0  0  0  0  0  0  0  0  0  0  0  0
    1.8854    0.3181    0.7526 H   0  0  0  0  0  0  0  0  0  0  0  0
    1.7446   -2.0267    2.7182 H   0  0  0  0  0  0  0  0  0  0  0  0
    1.4870   -0.3342    3.1439 H   0  0  0  0  0  0  0  0  0  0  0  0
    4.0942   -1.5101    2.0005 H   0  0  0  0  0  0  0  0  0  0  0  0
    3.8354    0.2139    2.4020 H   0  0  0  0  0  0  0  0  0  0  0  0
    4.8012   -0.6630    4.2588 H   0  0  0  0  0  0  0  0  0  0  0  0
    3.9627   -2.0934    4.2023 H   0  0  0  0  0  0  0  0  0  0  0  0
    3.1955   -0.7000    4.6744 H   0  0  0  0  0  0  0  0  0  0  0  0
   -2.0329   -2.4177   -0.7548 N   0  0  0  0  0  0  0  0  0  0  0  0
   -3.3139   -3.0565   -0.9411 C   0  0  2  0  0  0  0  0  0  0  0  0
   -3.1710   -4.5207   -0.5471 C   0  0  0  0  0  0  0  0  0  0  0  0
   -2.0921   -5.1097   -0.5344 O   0  0  0  0  0  0  0  0  0  0  0  0
   -3.7942   -2.9247   -2.3780 C   0  0  0  0  0  0  0  0  0  0  0  0
   -1.2123   -2.9975   -0.6061 H   0  0  0  0  0  0  0  0  0  0  0  0
   -4.0159   -2.5616   -0.2613 H   0  0  0  0  0  0  0  0  0  0  0  0
   -3.1034   -3.4146   -3.0739 H   0  0  0  0  0  0  0  0  0  0  0  0
   -4.7789   -3.3849   -2.5110 H   0  0  0  0  0  0  0  0  0  0  0  0
   -3.8678   -1.8714   -2.6692 H   0  0  0  0  0  0  0  0  0  0  0  0
   -4.3955   -5.1039   -0.2529 N   0  0  0  0  0  0  0  0  0  0  0  0
   -4.5262   -6.4888    0.1356 C   0  0  0  0  0  0  0  0  0  0  0  0
   -5.2370   -4.5353   -0.2708 H   0  0  0  0  0  0  0  0  0  0  0  0
   -4.7161   -7.1040   -0.7562 H   0  0  0  0  0  0  0  0  0  0  0  0
   -3.5969   -6.8228    0.6202 H   0  0  0  0  0  0  0  0  0  0  0  0
   -5.3651   -6.5945    0.8392 H   0  0  0  0  0  0  0  0  0  0  0  0
  1  3  1  0  0  0  0
  1  7  1  0  0  0  0
  1  2  2  0  0  0  0
 40 41  1  0  0  0  0
 41 49  1  0  0  0  0
 41 42  2  0  0  0  0
  8  9  1  0  0  0  0
  9 17  1  0  0  0  0
  9 10  2  0  0  0  0
 18 19  1  0  0  0  0
 19 39  1  0  0  0  0
 19 20  2  0  0  0  0
 40 43  1  0  0  0  0
  8 11  1  0  0  0  0
 49 50  1  0  0  0  0
 22 23  1  0  0  0  0
 21 22  1  0  0  0  0
 23 24  1  0  0  0  0
 18 21  1  0  0  0  0
 24 25  1  0  0  0  0
 39 40  1  0  0  0  0
  7  8  1  0  0  0  0
 17 18  1  0  0  0  0
  3  4  1  0  0  0  0
  3  5  1  0  0  0  0
  3  6  1  0  0  0  0
 43 46  1  0  0  0  0
 43 47  1  0  0  0  0
 43 48  1  0  0  0  0
 11 14  1  0  0  0  0
 11 15  1  0  0  0  0
 11 16  1  0  0  0  0
 50 52  1  0  0  0  0
 50 53  1  0  0  0  0
 50 54  1  0  0  0  0
 22 30  1  0  0  0  0
 22 31  1  0  0  0  0
 23 32  1  0  0  0  0
 23 33  1  0  0  0  0
 21 28  1  0  0  0  0
 21 29  1  0  0  0  0
 24 34  1  0  0  0  0
 24 35  1  0  0  0  0
 40 45  1  0  0  0  0
  8 13  1  0  0  0  0
 18 27  1  0  0  0  0
 49 51  1  0  0  0  0
  7 12  1  0  0  0  0
 39 44  1  0  0  0  0
 17 26  1  0  0  0  0
 25 36  1  0  0  0  0
 25 37  1  0  0  0  0
 25 38  1  0  0  0  0
M  CHG  1  25   1
M  END
$$$$

  -OEChem-05262214473D

 54 53  0     1  0  0  0  0  0999 V2000
    2.6714    2.8829   -3.0005 C   0  0  0  0  0  0  0  0  0  0  0  0
    3.1741    2.4398   -1.9745 O   0  0  0  0  0  0  0  0  0  0  0  0
    3.5527    3.3077   -4.1279 C   0  0  0  0  0  0  0  0  0  0  0  0
    3.8407    4.3691   -4.0597 H   0  0  0  0  0  0  0  0  0  0  0  0
    4.5024    2.7495   -4.1526 H   0  0  0  0  0  0  0  0  0  0  0  0
    3.1208    3.1887   -5.1345 H   0  0  0  0  0  0  0  0  0  0  0  0
    1.3174    3.0407   -3.2467 N   0  0  0  0  0  0  0  0  0  0  0  0
    0.2944    2.6927   -2.2960 C   0  0  2  0  0  0  0  0  0  0  0  0
    0.2976    1.1783   -2.1349 C   0  0  0  0  0  0  0  0  0  0  0  0
    0.7500    0.4142   -2.9850 O   0  0  0  0  0  0  0  0  0  0  0  0
   -1.0710    3.1886   -2.7460 C   0  0  0  0  0  0  0  0  0  0  0  0
    1.0312    3.4224   -4.1464 H   0  0  0  0  0  0  0  0  0  0  0  0
    0.5725    3.1622   -1.3461 H   0  0  0  0  0  0  0  0  0  0  0  0
   -1.3666    2.7292   -3.6963 H   0  0  0  0  0  0  0  0  0  0  0  0
   -1.8434    2.9482   -2.0082 H   0  0  0  0  0  0  0  0  0  0  0  0
   -1.0632    4.2744   -2.8901 H   0  0  0  0  0  0  0  0  0  0  0  0
   -0.3037    0.7742   -0.9484 N   0  0  0  0  0  0  0  0  0  0  0  0
   -0.4352   -0.6095   -0.5718 C   0  0  2  0  0  0  0  0  0  0  0  0
   -1.7584   -1.1427   -1.1114 C   0  0  0  0  0  0  0  0  0  0  0  0
   -2.5329   -0.4611   -1.7801 O   0  0  0  0  0  0  0  0  0  0  0  0
   -0.2850   -0.8088    0.9410 C   0  0  0  0  0  0  0  0  0  0  0  0
    1.1288   -0.5361    1.4710 C   0  0  0  0  0  0  0  0  0  0  0  0
    1.2095   -0.7783    2.9800 C   0  0  0  0  0  0  0  0  0  0  0  0
    2.6064   -0.4834    3.5062 C   0  0  0  0  0  0  0  0  0  0  0  0
    2.6309   -0.7077    4.9716 N   0  3  0  0  0  0  0  0  0  0  0  0
   -0.6336    1.4811   -0.2948 H   0  0  0  0  0  0  0  0  0  0  0  0
    0.3772   -1.1384   -1.0847 H   0  0  0  0  0  0  0  0  0  0  0  0
   -0.9903   -0.1444    1.4569 H   0  0  0  0  0  0  0  0  0  0  0  0
   -0.5699   -1.8351    1.2037 H   0  0  0  0  0  0  0  0  0  0  0  0
    1.8508   -1.1862    0.9634 H   0  0  0  0  0  0  0  0  0  0  0  0
    1.4165    0.4997    1.2560 H   0  0  0  0  0  0  0  0  0  0  0  0
    0.9417   -1.8193    3.1997 H   0  0  0  0  0  0  0  0  0  0  0  0
    0.4771   -0.1430    3.4936 H   0  0  0  0  0  0  0  0  0  0  0  0
    3.3576   -1.1489    3.0706 H   0  0  0  0  0  0  0  0  0  0  0  0
    2.8959    0.5584    3.3396 H   0  0  0  0  0  0  0  0  0  0  0  0
    3.4225   -0.2200    5.4052 H   0  0  0  0  0  0  0  0  0  0  0  0
    2.7189   -1.7067    5.1887 H   0  0  0  0  0  0  0  0  0  0  0  0
    1.7697   -0.3641    5.4108 H   0  0  0  0  0  0  0  0  0  0  0  0
   -1.9590   -2.4769   -0.7880 N   0  0  0  0  0  0  0  0  0  0  0  0
   -3.1354   -3.2013   -1.2063 C   0  0  2  0  0  0  0  0  0  0  0  0
   -3.1864   -4.5071   -0.4242 C   0  0  0  0  0  0  0  0  0  0  0  0
   -2.1941   -5.0221    0.0869 O   0  0  0  0  0  0  0  0  0  0  0  0
   -3.1196   -3.4649   -2.7039 C   0  0  0  0  0  0  0  0  0  0  0  0
   -1.2545   -2.9601   -0.2386 H   0  0  0  0  0  0  0  0  0  0  0  0
   -3.9992   -2.5820   -0.9408 H   0  0  0  0  0  0  0  0  0  0  0  0
   -2.2611   -4.0840   -2.9889 H   0  0  0  0  0  0  0  0  0  0  0  0
   -4.0260   -3.9893   -3.0241 H   0  0  0  0  0  0  0  0  0  0  0  0
   -3.0529   -2.5261   -3.2642 H   0  0  0  0  0  0  0  0  0  0  0  0
   -4.4626   -5.0520   -0.4009 N   0  0  0  0  0  0  0  0  0  0  0  0
   -4.7673   -6.2956    0.2675 C   0  0  0  0  0  0  0  0  0  0  0  0
   -5.2296   -4.5470   -0.8350 H   0  0  0  0  0  0  0  0  0  0  0  0
   -4.6831   -7.1271   -0.4477 H   0  0  0  0  0  0  0  0  0  0  0  0
   -4.0588   -6.4503    1.0946 H   0  0  0  0  0  0  0  0  0  0  0  0
   -5.7922   -6.2565    0.6651 H   0  0  0  0  0  0  0  0  0  0  0  0
  1  3  1  0  0  0  0
  1  7  1  0  0  0  0
  1  2  2  0  0  0  0
 40 41  1  0  0  0  0
 41 49  1  0  0  0  0
 41 42  2  0  0  0  0
  8  9  1  0  0  0  0
  9 17  1  0  0  0  0
  9 10  2  0  0  0  0
 18 19  1  0  0  0  0
 19 39  1  0  0  0  0
 19 20  2  0  0  0  0
 40 43  1  0  0  0  0
  8 11  1  0  0  0  0
 49 50  1  0  0  0  0
 22 23  1  0  0  0  0
 21 22  1  0  0  0  0
 23 24  1  0  0  0  0
 18 21  1  0  0  0  0
 24 25  1  0  0  0  0
 39 40  1  0  0  0  0
  7  8  1  0  0  0  0
 17 18  1  0  0  0  0
  3  4  1  0  0  0  0
  3  5  1  0  0  0  0
  3  6  1  0  0  0  0
 43 46  1  0  0  0  0
 43 47  1  0  0  0  0
 43 48  1  0  0  0  0
 11 14  1  0  0  0  0
 11 15  1  0  0  0  0
 11 16  1  0  0  0  0
 50 52  1  0  0  0  0
 50 53  1  0  0  0  0
 50 54  1  0  0  0  0
 22 30  1  0  0  0  0
 22 31  1  0  0  0  0
 23 32  1  0  0  0  0
 23 33  1  0  0  0  0
 21 28  1  0  0  0  0
 21 29  1  0  0  0  0
 24 34  1  0  0  0  0
 24 35  1  0  0  0  0
 40 45  1  0  0  0  0
  8 13  1  0  0  0  0
 18 27  1  0  0  0  0
 49 51  1  0  0  0  0
  7 12  1  0  0  0  0
 39 44  1  0  0  0  0
 17 26  1  0  0  0  0
 25 36  1  0  0  0  0
 25 37  1  0  0  0  0
 25 38  1  0  0  0  0
M  CHG  1  25   1
M  END
$$$$

  -OEChem-05262214473D

 54 53  0     1  0  0  0  0  0999 V2000
    2.6714    2.8829   -3.0005 C   0  0  0  0  0  0  0  0  0  0  0  0
    3.1741    2.4398   -1.9745 O   0  0  0  0  0  0  0  0  0  0  0  0
    3.5527    3.3077   -4.1279 C   0  0  0  0  0  0  0  0  0  0  0  0
    3.8407    4.3691   -4.0597 H   0  0  0  0  0  0  0  0  0  0  0  0
    4.5024    2.7495   -4.1526 H   0  0  0  0  0  0  0  0  0  0  0  0
    3.1208    3.1887   -5.1345 H   0  0  0  0  0  0  0  0  0  0  0  0
    1.3174    3.0407   -3.2467 N   0  0  0  0  0  0  0  0  0  0  0  0
    0.2944    2.6927   -2.2960 C   0  0  2  0  0  0  0  0  0  0  0  0
    0.2976    1.1783   -2.1349 C   0  0  0  0  0  0  0  0  0  0  0  0
    0.7500    0.4142   -2.9850 O   0  0  0  0  0  0  0  0  0  0  0  0
   -1.0710    3.1886   -2.7460 C   0  0  0  0  0  0  0  0  0  0  0  0
    1.0312    3.4224   -4.1464 H   0  0  0  0  0  0  0  0  0  0  0  0
    0.5725    3.1622   -1.3461 H   0  0  0  0  0  0  0  0  0  0  0  0
   -1.3666    2.7292   -3.6963 H   0  0  0  0  0  0  0  0  0  0  0  0
   -1.8434    2.9482   -2.0082 H   0  0  0  0  0  0  0  0  0  0  0  0
   -1.0632    4.2744   -2.8901 H   0  0  0  0  0  0  0  0  0  0  0  0
   -0.3037    0.7742   -0.9484 N   0  0  0  0  0  0  0  0  0  0  0  0
   -0.4352   -0.6095   -0.5718 C   0  0  2  0  0  0  0  0  0  0  0  0
   -1.7584   -1.1427   -1.1114 C   0  0  0  0  0  0  0  0  0  0  0  0
   -2.4034   -0.5716   -1.9885 O   0  0  0  0  0  0  0  0  0  0  0  0
   -0.2850   -0.8088    0.9410 C   0  0  0  0  0  0  0  0  0  0  0  0
    1.1288   -0.5361    1.4710 C   0  0  0  0  0  0  0  0  0  0  0  0
    1.2095   -0.7783    2.9800 C   0  0  0  0  0  0  0  0  0  0  0  0
    2.6064   -0.4834    3.5062 C   0  0  0  0  0  0  0  0  0  0  0  0
    2.6309   -0.7077    4.9716 N   0  3  0  0  0  0  0  0  0  0  0  0
   -0.6336    1.4811   -0.2948 H   0  0  0  0  0  0  0  0  0  0  0  0
    0.3772   -1.1384   -1.0847 H   0  0  0  0  0  0  0  0  0  0  0  0
   -0.9903   -0.1444    1.4569 H   0  0  0  0  0  0  0  0  0  0  0  0
   -0.5699   -1.8351    1.2037 H   0  0  0  0  0  0  0  0  0  0  0  0
    1.8508   -1.1862    0.9634 H   0  0  0  0  0  0  0  0  0  0  0  0
    1.4165    0.4997    1.2560 H   0  0  0  0  0  0  0  0  0  0  0  0
    0.9417   -1.8193    3.1997 H   0  0  0  0  0  0  0  0  0  0  0  0
    0.4771   -0.1430    3.4936 H   0  0  0  0  0  0  0  0  0  0  0  0
    3.3576   -1.1489    3.0706 H   0  0  0  0  0  0  0  0  0  0  0  0
    2.8959    0.5584    3.3396 H   0  0  0  0  0  0  0  0  0  0  0  0
    3.4225   -0.2200    5.4052 H   0  0  0  0  0  0  0  0  0  0  0  0
    2.7189   -1.7067    5.1887 H   0  0  0  0  0  0  0  0  0  0  0  0
    1.7697   -0.3641    5.4108 H   0  0  0  0  0  0  0  0  0  0  0  0
   -2.1191   -2.3467   -0.5240 N   0  0  0  0  0  0  0  0  0  0  0  0
   -3.3260   -3.0496   -0.8888 C   0  0  2  0  0  0  0  0  0  0  0  0
   -3.5722   -4.1333    0.1525 C   0  0  0  0  0  0  0  0  0  0  0  0
   -2.6816   -4.5966    0.8619 O   0  0  0  0  0  0  0  0  0  0  0  0
   -3.2174   -3.6492   -2.2822 C   0  0  0  0  0  0  0  0  0  0  0  0
   -1.5138   -2.7470    0.1866 H   0  0  0  0  0  0  0  0  0  0  0  0
   -4.1406   -2.3179   -0.8550 H   0  0  0  0  0  0  0  0  0  0  0  0
   -2.4064   -4.3846   -2.3356 H   0  0  0  0  0  0  0  0  0  0  0  0
   -4.1439   -4.1575   -2.5687 H   0  0  0  0  0  0  0  0  0  0  0  0
   -3.0107   -2.8720   -3.0259 H   0  0  0  0  0  0  0  0  0  0  0  0
   -4.8950   -4.5529    0.1663 N   0  0  0  0  0  0  0  0  0  0  0  0
   -5.3774   -5.5816    1.0580 C   0  0  0  0  0  0  0  0  0  0  0  0
   -5.5693   -4.1000   -0.4435 H   0  0  0  0  0  0  0  0  0  0  0  0
   -5.3214   -6.5587    0.5558 H   0  0  0  0  0  0  0  0  0  0  0  0
   -4.7568   -5.6001    1.9661 H   0  0  0  0  0  0  0  0  0  0  0  0
   -6.4214   -5.3695    1.3317 H   0  0  0  0  0  0  0  0  0  0  0  0
  1  3  1  0  0  0  0
  1  7  1  0  0  0  0
  1  2  2  0  0  0  0
 40 41  1  0  0  0  0
 41 49  1  0  0  0  0
 41 42  2  0  0  0  0
  8  9  1  0  0  0  0
  9 17  1  0  0  0  0
  9 10  2  0  0  0  0
 18 19  1  0  0  0  0
 19 39  1  0  0  0  0
 19 20  2  0  0  0  0
 40 43  1  0  0  0  0
  8 11  1  0  0  0  0
 49 50  1  0  0  0  0
 22 23  1  0  0  0  0
 21 22  1  0  0  0  0
 23 24  1  0  0  0  0
 18 21  1  0  0  0  0
 24 25  1  0  0  0  0
 39 40  1  0  0  0  0
  7  8  1  0  0  0  0
 17 18  1  0  0  0  0
  3  4  1  0  0  0  0
  3  5  1  0  0  0  0
  3  6  1  0  0  0  0
 43 46  1  0  0  0  0
 43 47  1  0  0  0  0
 43 48  1  0  0  0  0
 11 14  1  0  0  0  0
 11 15  1  0  0  0  0
 11 16  1  0  0  0  0
 50 52  1  0  0  0  0
 50 53  1  0  0  0  0
 50 54  1  0  0  0  0
 22 30  1  0  0  0  0
 22 31  1  0  0  0  0
 23 32  1  0  0  0  0
 23 33  1  0  0  0  0
 21 28  1  0  0  0  0
 21 29  1  0  0  0  0
 24 34  1  0  0  0  0
 24 35  1  0  0  0  0
 40 45  1  0  0  0  0
  8 13  1  0  0  0  0
 18 27  1  0  0  0  0
 49 51  1  0  0  0  0
  7 12  1  0  0  0  0
 39 44  1  0  0  0  0
 17 26  1  0  0  0  0
 25 36  1  0  0  0  0
 25 37  1  0  0  0  0
 25 38  1  0  0  0  0
M  CHG  1  25   1
M  END
$$$$

  -OEChem-05262214473D

 54 53  0     1  0  0  0  0  0999 V2000
    2.6714    2.8829   -3.0005 C   0  0  0  0  0  0  0  0  0  0  0  0
    3.1741    2.4398   -1.9745 O   0  0  0  0  0  0  0  0  0  0  0  0
    3.5527    3.3077   -4.1279 C   0  0  0  0  0  0  0  0  0  0  0  0
    3.8407    4.3691   -4.0597 H   0  0  0  0  0  0  0  0  0  0  0  0
    4.5024    2.7495   -4.1526 H   0  0  0  0  0  0  0  0  0  0  0  0
    3.1208    3.1887   -5.1345 H   0  0  0  0  0  0  0  0  0  0  0  0
    1.3174    3.0407   -3.2467 N   0  0  0  0  0  0  0  0  0  0  0  0
    0.2944    2.6927   -2.2960 C   0  0  2  0  0  0  0  0  0  0  0  0
    0.2976    1.1783   -2.1349 C   0  0  0  0  0  0  0  0  0  0  0  0
    0.7500    0.4142   -2.9850 O   0  0  0  0  0  0  0  0  0  0  0  0
   -1.0710    3.1886   -2.7460 C   0  0  0  0  0  0  0  0  0  0  0  0
    1.0312    3.4224   -4.1464 H   0  0  0  0  0  0  0  0  0  0  0  0
    0.5725    3.1622   -1.3461 H   0  0  0  0  0  0  0  0  0  0  0  0
   -1.3666    2.7292   -3.6963 H   0  0  0  0  0  0  0  0  0  0  0  0
   -1.8434    2.9482   -2.0082 H   0  0  0  0  0  0  0  0  0  0  0  0
   -1.0632    4.2744   -2.8901 H   0  0  0  0  0  0  0  0  0  0  0  0
   -0.3037    0.7742   -0.9484 N   0  0  0  0  0  0  0  0  0  0  0  0
   -0.4352   -0.6095   -0.5718 C   0  0  2  0  0  0  0  0  0  0  0  0
   -1.7584   -1.1427   -1.1114 C   0  0  0  0  0  0  0  0  0  0  0  0
   -2.2696   -0.7369   -2.1533 O   0  0  0  0  0  0  0  0  0  0  0  0
   -0.2850   -0.8088    0.9410 C   0  0  0  0  0  0  0  0  0  0  0  0
    1.1288   -0.5361    1.4710 C   0  0  0  0  0  0  0  0  0  0  0  0
    1.2095   -0.7783    2.9800 C   0  0  0  0  0  0  0  0  0  0  0  0
    2.6064   -0.4834    3.5062 C   0  0  0  0  0  0  0  0  0  0  0  0
    2.6309   -0.7077    4.9716 N   0  3  0  0  0  0  0  0  0  0  0  0
   -0.6336    1.4811   -0.2948 H   0  0  0  0  0  0  0  0  0  0  0  0
    0.3772   -1.1384   -1.0847 H   0  0  0  0  0  0  0  0  0  0  0  0
   -0.9903   -0.1444    1.4569 H   0  0  0  0  0  0  0  0  0  0  0  0
   -0.5699   -1.8351    1.2037 H   0  0  0  0  0  0  0  0  0  0  0  0
    1.8508   -1.1862    0.9634 H   0  0  0  0  0  0  0  0  0  0  0  0
    1.4165    0.4997    1.2560 H   0  0  0  0  0  0  0  0  0  0  0  0
    0.9417   -1.8193    3.1997 H   0  0  0  0  0  0  0  0  0  0  0  0
    0.4771   -0.1430    3.4936 H   0  0  0  0  0  0  0  0  0  0  0  0
    3.3576   -1.1489    3.0706 H   0  0  0  0  0  0  0  0  0  0  0  0
    2.8959    0.5584    3.3396 H   0  0  0  0  0  0  0  0  0  0  0  0
    3.4225   -0.2200    5.4052 H   0  0  0  0  0  0  0  0  0  0  0  0
    2.7189   -1.7067    5.1887 H   0  0  0  0  0  0  0  0  0  0  0  0
    1.7697   -0.3641    5.4108 H   0  0  0  0  0  0  0  0  0  0  0  0
   -2.2858   -2.1470   -0.3126 N   0  0  0  0  0  0  0  0  0  0  0  0
   -3.5249   -2.8143   -0.6336 C   0  0  2  0  0  0  0  0  0  0  0  0
   -3.9628   -3.6074    0.5906 C   0  0  0  0  0  0  0  0  0  0  0  0
   -3.1837   -3.9669    1.4709 O   0  0  0  0  0  0  0  0  0  0  0  0
   -3.3668   -3.7235   -1.8423 C   0  0  0  0  0  0  0  0  0  0  0  0
   -1.7832   -2.4219    0.5261 H   0  0  0  0  0  0  0  0  0  0  0  0
   -4.2608   -2.0306   -0.8441 H   0  0  0  0  0  0  0  0  0  0  0  0
   -2.6333   -4.5151   -1.6502 H   0  0  0  0  0  0  0  0  0  0  0  0
   -4.3144   -4.2069   -2.1018 H   0  0  0  0  0  0  0  0  0  0  0  0
   -3.0232   -3.1565   -2.7142 H   0  0  0  0  0  0  0  0  0  0  0  0
   -5.3183   -3.9038    0.5630 N   0  0  0  0  0  0  0  0  0  0  0  0
   -5.9728   -4.6586    1.6061 C   0  0  0  0  0  0  0  0  0  0  0  0
   -5.8920   -3.5492   -0.1965 H   0  0  0  0  0  0  0  0  0  0  0  0
   -5.9766   -5.7259    1.3398 H   0  0  0  0  0  0  0  0  0  0  0  0
   -5.4320   -4.5192    2.5538 H   0  0  0  0  0  0  0  0  0  0  0  0
   -7.0083   -4.3054    1.7195 H   0  0  0  0  0  0  0  0  0  0  0  0
  1  3  1  0  0  0  0
  1  7  1  0  0  0  0
  1  2  2  0  0  0  0
 40 41  1  0  0  0  0
 41 49  1  0  0  0  0
 41 42  2  0  0  0  0
  8  9  1  0  0  0  0
  9 17  1  0  0  0  0
  9 10  2  0  0  0  0
 18 19  1  0  0  0  0
 19 39  1  0  0  0  0
 19 20  2  0  0  0  0
 40 43  1  0  0  0  0
  8 11  1  0  0  0  0
 49 50  1  0  0  0  0
 22 23  1  0  0  0  0
 21 22  1  0  0  0  0
 23 24  1  0  0  0  0
 18 21  1  0  0  0  0
 24 25  1  0  0  0  0
 39 40  1  0  0  0  0
  7  8  1  0  0  0  0
 17 18  1  0  0  0  0
  3  4  1  0  0  0  0
  3  5  1  0  0  0  0
  3  6  1  0  0  0  0
 43 46  1  0  0  0  0
 43 47  1  0  0  0  0
 43 48  1  0  0  0  0
 11 14  1  0  0  0  0
 11 15  1  0  0  0  0
 11 16  1  0  0  0  0
 50 52  1  0  0  0  0
 50 53  1  0  0  0  0
 50 54  1  0  0  0  0
 22 30  1  0  0  0  0
 22 31  1  0  0  0  0
 23 32  1  0  0  0  0
 23 33  1  0  0  0  0
 21 28  1  0  0  0  0
 21 29  1  0  0  0  0
 24 34  1  0  0  0  0
 24 35  1  0  0  0  0
 40 45  1  0  0  0  0
  8 13  1  0  0  0  0
 18 27  1  0  0  0  0
 49 51  1  0  0  0  0
  7 12  1  0  0  0  0
 39 44  1  0  0  0  0
 17 26  1  0  0  0  0
 25 36  1  0  0  0  0
 25 37  1  0  0  0  0
 25 38  1  0  0  0  0
M  CHG  1  25   1
M  END
$$$$

  -OEChem-05262214473D

 54 53  0     1  0  0  0  0  0999 V2000
    2.6714    2.8829   -3.0005 C   0  0  0  0  0  0  0  0  0  0  0  0
    3.1741    2.4398   -1.9745 O   0  0  0  0  0  0  0  0  0  0  0  0
    3.5527    3.3077   -4.1279 C   0  0  0  0  0  0  0  0  0  0  0  0
    3.8407    4.3691   -4.0597 H   0  0  0  0  0  0  0  0  0  0  0  0
    4.5024    2.7495   -4.1526 H   0  0  0  0  0  0  0  0  0  0  0  0
    3.1208    3.1887   -5.1345 H   0  0  0  0  0  0  0  0  0  0  0  0
    1.3174    3.0407   -3.2467 N   0  0  0  0  0  0  0  0  0  0  0  0
    0.2944    2.6927   -2.2960 C   0  0  2  0  0  0  0  0  0  0  0  0
    0.2976    1.1783   -2.1349 C   0  0  0  0  0  0  0  0  0  0  0  0
    0.7500    0.4142   -2.9850 O   0  0  0  0  0  0  0  0  0  0  0  0
   -1.0710    3.1886   -2.7460 C   0  0  0  0  0  0  0  0  0  0  0  0
    1.0312    3.4224   -4.1464 H   0  0  0  0  0  0  0  0  0  0  0  0
    0.5725    3.1622   -1.3461 H   0  0  0  0  0  0  0  0  0  0  0  0
   -1.3666    2.7292   -3.6963 H   0  0  0  0  0  0  0  0  0  0  0  0
   -1.8434    2.9482   -2.0082 H   0  0  0  0  0  0  0  0  0  0  0  0
   -1.0632    4.2744   -2.8901 H   0  0  0  0  0  0  0  0  0  0  0  0
   -0.3037    0.7742   -0.9484 N   0  0  0  0  0  0  0  0  0  0  0  0
   -0.4352   -0.6095   -0.5718 C   0  0  2  0  0  0  0  0  0  0  0  0
   -1.7584   -1.1427   -1.1114 C   0  0  0  0  0  0  0  0  0  0  0  0
   -2.1406   -0.9458   -2.2632 O   0  0  0  0  0  0  0  0  0  0  0  0
   -0.2850   -0.8088    0.9410 C   0  0  0  0  0  0  0  0  0  0  0  0
    1.1288   -0.5361    1.4710 C   0  0  0  0  0  0  0  0  0  0  0  0
    1.2095   -0.7783    2.9800 C   0  0  0  0  0  0  0  0  0  0  0  0
    2.6064   -0.4834    3.5062 C   0  0  0  0  0  0  0  0  0  0  0  0
    2.6309   -0.7077    4.9716 N   0  3  0  0  0  0  0  0  0  0  0  0
   -0.6336    1.4811   -0.2948 H   0  0  0  0  0  0  0  0  0  0  0  0
    0.3772   -1.1384   -1.0847 H   0  0  0  0  0  0  0  0  0  0  0  0
   -0.9903   -0.1444    1.4569 H   0  0  0  0  0  0  0  0  0  0  0  0
   -0.5699   -1.8351    1.2037 H   0  0  0  0  0  0  0  0  0  0  0  0
    1.8508   -1.1862    0.9634 H   0  0  0  0  0  0  0  0  0  0  0  0
    1.4165    0.4997    1.2560 H   0  0  0  0  0  0  0  0  0  0  0  0
    0.9417   -1.8193    3.1997 H   0  0  0  0  0  0  0  0  0  0  0  0
    0.4771   -0.1430    3.4936 H   0  0  0  0  0  0  0  0  0  0  0  0
    3.3576   -1.1489    3.0706 H   0  0  0  0  0  0  0  0  0  0  0  0
    2.8959    0.5584    3.3396 H   0  0  0  0  0  0  0  0  0  0  0  0
    3.4225   -0.2200    5.4052 H   0  0  0  0  0  0  0  0  0  0  0  0
    2.7189   -1.7067    5.1887 H   0  0  0  0  0  0  0  0  0  0  0  0
    1.7697   -0.3641    5.4108 H   0  0  0  0  0  0  0  0  0  0  0  0
   -2.4476   -1.8914   -0.1684 N   0  0  0  0  0  0  0  0  0  0  0  0
   -3.7186   -2.5115   -0.4578 C   0  0  2  0  0  0  0  0  0  0  0  0
   -4.3316   -2.9653    0.8604 C   0  0  0  0  0  0  0  0  0  0  0  0
   -3.6661   -3.1759    1.8723 O   0  0  0  0  0  0  0  0  0  0  0  0
   -3.5577   -3.6828   -1.4142 C   0  0  0  0  0  0  0  0  0  0  0  0
   -2.0444   -2.0071    0.7566 H   0  0  0  0  0  0  0  0  0  0  0  0
   -4.3516   -1.7396   -0.9090 H   0  0  0  0  0  0  0  0  0  0  0  0
   -2.9265   -4.4664   -0.9794 H   0  0  0  0  0  0  0  0  0  0  0  0
   -4.5258   -4.1342   -1.6552 H   0  0  0  0  0  0  0  0  0  0  0  0
   -3.0895   -3.3601   -2.3504 H   0  0  0  0  0  0  0  0  0  0  0  0
   -5.7037   -3.1490    0.7621 N   0  0  0  0  0  0  0  0  0  0  0  0
   -6.5130   -3.5895    1.8743 C   0  0  0  0  0  0  0  0  0  0  0  0
   -6.1756   -2.9322   -0.1108 H   0  0  0  0  0  0  0  0  0  0  0  0
   -6.6042   -4.6854    1.8508 H   0  0  0  0  0  0  0  0  0  0  0  0
   -6.0383   -3.2814    2.8177 H   0  0  0  0  0  0  0  0  0  0  0  0
   -7.5129   -3.1368    1.8020 H   0  0  0  0  0  0  0  0  0  0  0  0
  1  3  1  0  0  0  0
  1  7  1  0  0  0  0
  1  2  2  0  0  0  0
 40 41  1  0  0  0  0
 41 49  1  0  0  0  0
 41 42  2  0  0  0  0
  8  9  1  0  0  0  0
  9 17  1  0  0  0  0
  9 10  2  0  0  0  0
 18 19  1  0  0  0  0
 19 39  1  0  0  0  0
 19 20  2  0  0  0  0
 40 43  1  0  0  0  0
  8 11  1  0  0  0  0
 49 50  1  0  0  0  0
 22 23  1  0  0  0  0
 21 22  1  0  0  0  0
 23 24  1  0  0  0  0
 18 21  1  0  0  0  0
 24 25  1  0  0  0  0
 39 40  1  0  0  0  0
  7  8  1  0  0  0  0
 17 18  1  0  0  0  0
  3  4  1  0  0  0  0
  3  5  1  0  0  0  0
  3  6  1  0  0  0  0
 43 46  1  0  0  0  0
 43 47  1  0  0  0  0
 43 48  1  0  0  0  0
 11 14  1  0  0  0  0
 11 15  1  0  0  0  0
 11 16  1  0  0  0  0
 50 52  1  0  0  0  0
 50 53  1  0  0  0  0
 50 54  1  0  0  0  0
 22 30  1  0  0  0  0
 22 31  1  0  0  0  0
 23 32  1  0  0  0  0
 23 33  1  0  0  0  0
 21 28  1  0  0  0  0
 21 29  1  0  0  0  0
 24 34  1  0  0  0  0
 24 35  1  0  0  0  0
 40 45  1  0  0  0  0
  8 13  1  0  0  0  0
 18 27  1  0  0  0  0
 49 51  1  0  0  0  0
  7 12  1  0  0  0  0
 39 44  1  0  0  0  0
 17 26  1  0  0  0  0
 25 36  1  0  0  0  0
 25 37  1  0  0  0  0
 25 38  1  0  0  0  0
M  CHG  1  25   1
M  END
$$$$

  -OEChem-05262214473D

 54 53  0     1  0  0  0  0  0999 V2000
    2.6714    2.8829   -3.0005 C   0  0  0  0  0  0  0  0  0  0  0  0
    3.1741    2.4398   -1.9745 O   0  0  0  0  0  0  0  0  0  0  0  0
    3.5527    3.3077   -4.1279 C   0  0  0  0  0  0  0  0  0  0  0  0
    3.8407    4.3691   -4.0597 H   0  0  0  0  0  0  0  0  0  0  0  0
    4.5024    2.7495   -4.1526 H   0  0  0  0  0  0  0  0  0  0  0  0
    3.1208    3.1887   -5.1345 H   0  0  0  0  0  0  0  0  0  0  0  0
    1.3174    3.0407   -3.2467 N   0  0  0  0  0  0  0  0  0  0  0  0
    0.2944    2.6927   -2.2960 C   0  0  2  0  0  0  0  0  0  0  0  0
    0.2976    1.1783   -2.1349 C   0  0  0  0  0  0  0  0  0  0  0  0
    0.7500    0.4142   -2.9850 O   0  0  0  0  0  0  0  0  0  0  0  0
   -1.0710    3.1886   -2.7460 C   0  0  0  0  0  0  0  0  0  0  0  0
    1.0312    3.4224   -4.1464 H   0  0  0  0  0  0  0  0  0  0  0  0
    0.5725    3.1622   -1.3461 H   0  0  0  0  0  0  0  0  0  0  0  0
   -1.3666    2.7292   -3.6963 H   0  0  0  0  0  0  0  0  0  0  0  0
   -1.8434    2.9482   -2.0082 H   0  0  0  0  0  0  0  0  0  0  0  0
   -1.0632    4.2744   -2.8901 H   0  0  0  0  0  0  0  0  0  0  0  0
   -0.3037    0.7742   -0.9484 N   0  0  0  0  0  0  0  0  0  0  0  0
   -0.4352   -0.6095   -0.5718 C   0  0  2  0  0  0  0  0  0  0  0  0
   -1.7584   -1.1427   -1.1114 C   0  0  0  0  0  0  0  0  0  0  0  0
   -2.0252   -1.1842   -2.3108 O   0  0  0  0  0  0  0  0  0  0  0  0
   -0.2850   -0.8088    0.9410 C   0  0  0  0  0  0  0  0  0  0  0  0
    1.1288   -0.5361    1.4710 C   0  0  0  0  0  0  0  0  0  0  0  0
    1.2095   -0.7783    2.9800 C   0  0  0  0  0  0  0  0  0  0  0  0
    2.6064   -0.4834    3.5062 C   0  0  0  0  0  0  0  0  0  0  0  0
    2.6309   -0.7077    4.9716 N   0  3  0  0  0  0  0  0  0  0  0  0
   -0.6336    1.4811   -0.2948 H   0  0  0  0  0  0  0  0  0  0  0  0
    0.3772   -1.1384   -1.0847 H   0  0  0  0  0  0  0  0  0  0  0  0
   -0.9903   -0.1444    1.4569 H   0  0  0  0  0  0  0  0  0  0  0  0
   -0.5699   -1.8351    1.2037 H   0  0  0  0  0  0  0  0  0  0  0  0
    1.8508   -1.1862    0.9634 H   0  0  0  0  0  0  0  0  0  0  0  0
    1.4165    0.4997    1.2560 H   0  0  0  0  0  0  0  0  0  0  0  0
    0.9417   -1.8193    3.1997 H   0  0  0  0  0  0  0  0  0  0  0  0
    0.4771   -0.1430    3.4936 H   0  0  0  0  0  0  0  0  0  0  0  0
    3.3576   -1.1489    3.0706 H   0  0  0  0  0  0  0  0  0  0  0  0
    2.8959    0.5584    3.3396 H   0  0  0  0  0  0  0  0  0  0  0  0
    3.4225   -0.2200    5.4052 H   0  0  0  0  0  0  0  0  0  0  0  0
    2.7189   -1.7067    5.1887 H   0  0  0  0  0  0  0  0  0  0  0  0
    1.7697   -0.3641    5.4108 H   0  0  0  0  0  0  0  0  0  0  0  0
   -2.5936   -1.5973   -0.1011 N   0  0  0  0  0  0  0  0  0  0  0  0
   -3.8939   -2.1618   -0.3736 C   0  0  2  0  0  0  0  0  0  0  0  0
   -4.6534   -2.2507    0.9435 C   0  0  0  0  0  0  0  0  0  0  0  0
   -4.0959   -2.2776    2.0388 O   0  0  0  0  0  0  0  0  0  0  0  0
   -3.7772   -3.5300   -1.0272 C   0  0  0  0  0  0  0  0  0  0  0  0
   -2.2795   -1.5307    0.8625 H   0  0  0  0  0  0  0  0  0  0  0  0
   -4.4068   -1.4648   -1.0453 H   0  0  0  0  0  0  0  0  0  0  0  0
   -3.2659   -4.2419   -0.3690 H   0  0  0  0  0  0  0  0  0  0  0  0
   -4.7638   -3.9443   -1.2592 H   0  0  0  0  0  0  0  0  0  0  0  0
   -3.2050   -3.4691   -1.9592 H   0  0  0  0  0  0  0  0  0  0  0  0
   -6.0248   -2.3400    0.7501 N   0  0  0  0  0  0  0  0  0  0  0  0
   -6.9611   -2.4471    1.8445 C   0  0  0  0  0  0  0  0  0  0  0  0
   -6.4008   -2.2909   -0.1922 H   0  0  0  0  0  0  0  0  0  0  0  0
   -7.1614   -3.5082    2.0539 H   0  0  0  0  0  0  0  0  0  0  0  0
   -6.5346   -1.9710    2.7398 H   0  0  0  0  0  0  0  0  0  0  0  0
   -7.9007   -1.9432    1.5737 H   0  0  0  0  0  0  0  0  0  0  0  0
  1  3  1  0  0  0  0
  1  7  1  0  0  0  0
  1  2  2  0  0  0  0
 40 41  1  0  0  0  0
 41 49  1  0  0  0  0
 41 42  2  0  0  0  0
  8  9  1  0  0  0  0
  9 17  1  0  0  0  0
  9 10  2  0  0  0  0
 18 19  1  0  0  0  0
 19 39  1  0  0  0  0
 19 20  2  0  0  0  0
 40 43  1  0  0  0  0
  8 11  1  0  0  0  0
 49 50  1  0  0  0  0
 22 23  1  0  0  0  0
 21 22  1  0  0  0  0
 23 24  1  0  0  0  0
 18 21  1  0  0  0  0
 24 25  1  0  0  0  0
 39 40  1  0  0  0  0
  7  8  1  0  0  0  0
 17 18  1  0  0  0  0
  3  4  1  0  0  0  0
  3  5  1  0  0  0  0
  3  6  1  0  0  0  0
 43 46  1  0  0  0  0
 43 47  1  0  0  0  0
 43 48  1  0  0  0  0
 11 14  1  0  0  0  0
 11 15  1  0  0  0  0
 11 16  1  0  0  0  0
 50 52  1  0  0  0  0
 50 53  1  0  0  0  0
 50 54  1  0  0  0  0
 22 30  1  0  0  0  0
 22 31  1  0  0  0  0
 23 32  1  0  0  0  0
 23 33  1  0  0  0  0
 21 28  1  0  0  0  0
 21 29  1  0  0  0  0
 24 34  1  0  0  0  0
 24 35  1  0  0  0  0
 40 45  1  0  0  0  0
  8 13  1  0  0  0  0
 18 27  1  0  0  0  0
 49 51  1  0  0  0  0
  7 12  1  0  0  0  0
 39 44  1  0  0  0  0
 17 26  1  0  0  0  0
 25 36  1  0  0  0  0
 25 37  1  0  0  0  0
 25 38  1  0  0  0  0
M  CHG  1  25   1
M  END
$$$$

  -OEChem-05262214473D

 54 53  0     1  0  0  0  0  0999 V2000
    2.6714    2.8829   -3.0005 C   0  0  0  0  0  0  0  0  0  0  0  0
    3.1741    2.4398   -1.9745 O   0  0  0  0  0  0  0  0  0  0  0  0
    3.5527    3.3077   -4.1279 C   0  0  0  0  0  0  0  0  0  0  0  0
    3.8407    4.3691   -4.0597 H   0  0  0  0  0  0  0  0  0  0  0  0
    4.5024    2.7495   -4.1526 H   0  0  0  0  0  0  0  0  0  0  0  0
    3.1208    3.1887   -5.1345 H   0  0  0  0  0  0  0  0  0  0  0  0
    1.3174    3.0407   -3.2467 N   0  0  0  0  0  0  0  0  0  0  0  0
    0.2944    2.6927   -2.2960 C   0  0  2  0  0  0  0  0  0  0  0  0
    0.2976    1.1783   -2.1349 C   0  0  0  0  0  0  0  0  0  0  0  0
    0.7500    0.4142   -2.9850 O   0  0  0  0  0  0  0  0  0  0  0  0
   -1.0710    3.1886   -2.7460 C   0  0  0  0  0  0  0  0  0  0  0  0
    1.0312    3.4224   -4.1464 H   0  0  0  0  0  0  0  0  0  0  0  0
    0.5725    3.1622   -1.3461 H   0  0  0  0  0  0  0  0  0  0  0  0
   -1.3666    2.7292   -3.6963 H   0  0  0  0  0  0  0  0  0  0  0  0
   -1.8434    2.9482   -2.0082 H   0  0  0  0  0  0  0  0  0  0  0  0
   -1.0632    4.2744   -2.8901 H   0  0  0  0  0  0  0  0  0  0  0  0
   -0.3037    0.7742   -0.9484 N   0  0  0  0  0  0  0  0  0  0  0  0
   -0.4352   -0.6095   -0.5718 C   0  0  2  0  0  0  0  0  0  0  0  0
   -1.7584   -1.1427   -1.1114 C   0  0  0  0  0  0  0  0  0  0  0  0
   -1.9312   -1.4356   -2.2929 O   0  0  0  0  0  0  0  0  0  0  0  0
   -0.2850   -0.8088    0.9410 C   0  0  0  0  0  0  0  0  0  0  0  0
    1.1288   -0.5361    1.4710 C   0  0  0  0  0  0  0  0  0  0  0  0
    1.2095   -0.7783    2.9800 C   0  0  0  0  0  0  0  0  0  0  0  0
    2.6064   -0.4834    3.5062 C   0  0  0  0  0  0  0  0  0  0  0  0
    2.6309   -0.7077    4.9716 N   0  3  0  0  0  0  0  0  0  0  0  0
   -0.6336    1.4811   -0.2948 H   0  0  0  0  0  0  0  0  0  0  0  0
    0.3772   -1.1384   -1.0847 H   0  0  0  0  0  0  0  0  0  0  0  0
   -0.9903   -0.1444    1.4569 H   0  0  0  0  0  0  0  0  0  0  0  0
   -0.5699   -1.8351    1.2037 H   0  0  0  0  0  0  0  0  0  0  0  0
    1.8508   -1.1862    0.9634 H   0  0  0  0  0  0  0  0  0  0  0  0
    1.4165    0.4997    1.2560 H   0  0  0  0  0  0  0  0  0  0  0  0
    0.9417   -1.8193    3.1997 H   0  0  0  0  0  0  0  0  0  0  0  0
    0.4771   -0.1430    3.4936 H   0  0  0  0  0  0  0  0  0  0  0  0
    3.3576   -1.1489    3.0706 H   0  0  0  0  0  0  0  0  0  0  0  0
    2.8959    0.5584    3.3396 H   0  0  0  0  0  0  0  0  0  0  0  0
    3.4225   -0.2200    5.4052 H   0  0  0  0  0  0  0  0  0  0  0  0
    2.7189   -1.7067    5.1887 H   0  0  0  0  0  0  0  0  0  0  0  0
    1.7697   -0.3641    5.4108 H   0  0  0  0  0  0  0  0  0  0  0  0
   -2.7137   -1.2847   -0.1153 N   0  0  0  0  0  0  0  0  0  0  0  0
   -4.0387   -1.7891   -0.3866 C   0  0  2  0  0  0  0  0  0  0  0  0
   -4.9063   -1.5123    0.8342 C   0  0  0  0  0  0  0  0  0  0  0  0
   -4.4440   -1.3332    1.9590 O   0  0  0  0  0  0  0  0  0  0  0  0
   -4.0101   -3.2753   -0.7074 C   0  0  0  0  0  0  0  0  0  0  0  0
   -2.4726   -1.0252    0.8366 H   0  0  0  0  0  0  0  0  0  0  0  0
   -4.4226   -1.2249   -1.2436 H   0  0  0  0  0  0  0  0  0  0  0  0
   -3.6284   -3.8569    0.1396 H   0  0  0  0  0  0  0  0  0  0  0  0
   -5.0122   -3.6502   -0.9409 H   0  0  0  0  0  0  0  0  0  0  0  0
   -3.3621   -3.4760   -1.5674 H   0  0  0  0  0  0  0  0  0  0  0  0
   -6.2598   -1.5318    0.5278 N   0  0  0  0  0  0  0  0  0  0  0  0
   -7.2867   -1.3093    1.5187 C   0  0  0  0  0  0  0  0  0  0  0  0
   -6.5522   -1.6692   -0.4352 H   0  0  0  0  0  0  0  0  0  0  0  0
   -7.6102   -2.2745    1.9354 H   0  0  0  0  0  0  0  0  0  0  0  0
   -6.8869   -0.6773    2.3254 H   0  0  0  0  0  0  0  0  0  0  0  0
   -8.1454   -0.8061    1.0501 H   0  0  0  0  0  0  0  0  0  0  0  0
  1  3  1  0  0  0  0
  1  7  1  0  0  0  0
  1  2  2  0  0  0  0
 40 41  1  0  0  0  0
 41 49  1  0  0  0  0
 41 42  2  0  0  0  0
  8  9  1  0  0  0  0
  9 17  1  0  0  0  0
  9 10  2  0  0  0  0
 18 19  1  0  0  0  0
 19 39  1  0  0  0  0
 19 20  2  0  0  0  0
 40 43  1  0  0  0  0
  8 11  1  0  0  0  0
 49 50  1  0  0  0  0
 22 23  1  0  0  0  0
 21 22  1  0  0  0  0
 23 24  1  0  0  0  0
 18 21  1  0  0  0  0
 24 25  1  0  0  0  0
 39 40  1  0  0  0  0
  7  8  1  0  0  0  0
 17 18  1  0  0  0  0
  3  4  1  0  0  0  0
  3  5  1  0  0  0  0
  3  6  1  0  0  0  0
 43 46  1  0  0  0  0
 43 47  1  0  0  0  0
 43 48  1  0  0  0  0
 11 14  1  0  0  0  0
 11 15  1  0  0  0  0
 11 16  1  0  0  0  0
 50 52  1  0  0  0  0
 50 53  1  0  0  0  0
 50 54  1  0  0  0  0
 22 30  1  0  0  0  0
 22 31  1  0  0  0  0
 23 32  1  0  0  0  0
 23 33  1  0  0  0  0
 21 28  1  0  0  0  0
 21 29  1  0  0  0  0
 24 34  1  0  0  0  0
 24 35  1  0  0  0  0
 40 45  1  0  0  0  0
  8 13  1  0  0  0  0
 18 27  1  0  0  0  0
 49 51  1  0  0  0  0
  7 12  1  0  0  0  0
 39 44  1  0  0  0  0
 17 26  1  0  0  0  0
 25 36  1  0  0  0  0
 25 37  1  0  0  0  0
 25 38  1  0  0  0  0
M  CHG  1  25   1
M  END
$$$$

  -OEChem-05262214473D

 54 53  0     1  0  0  0  0  0999 V2000
    2.6714    2.8829   -3.0005 C   0  0  0  0  0  0  0  0  0  0  0  0
    3.1741    2.4398   -1.9745 O   0  0  0  0  0  0  0  0  0  0  0  0
    3.5527    3.3077   -4.1279 C   0  0  0  0  0  0  0  0  0  0  0  0
    3.8407    4.3691   -4.0597 H   0  0  0  0  0  0  0  0  0  0  0  0
    4.5024    2.7495   -4.1526 H   0  0  0  0  0  0  0  0  0  0  0  0
    3.1208    3.1887   -5.1345 H   0  0  0  0  0  0  0  0  0  0  0  0
    1.3174    3.0407   -3.2467 N   0  0  0  0  0  0  0  0  0  0  0  0
    0.2944    2.6927   -2.2960 C   0  0  2  0  0  0  0  0  0  0  0  0
    0.2976    1.1783   -2.1349 C   0  0  0  0  0  0  0  0  0  0  0  0
    0.7500    0.4142   -2.9850 O   0  0  0  0  0  0  0  0  0  0  0  0
   -1.0710    3.1886   -2.7460 C   0  0  0  0  0  0  0  0  0  0  0  0
    1.0312    3.4224   -4.1464 H   0  0  0  0  0  0  0  0  0  0  0  0
    0.5725    3.1622   -1.3461 H   0  0  0  0  0  0  0  0  0  0  0  0
   -1.3666    2.7292   -3.6963 H   0  0  0  0  0  0  0  0  0  0  0  0
   -1.8434    2.9482   -2.0082 H   0  0  0  0  0  0  0  0  0  0  0  0
   -1.0632    4.2744   -2.8901 H   0  0  0  0  0  0  0  0  0  0  0  0
   -0.3037    0.7742   -0.9484 N   0  0  0  0  0  0  0  0  0  0  0  0
   -0.4352   -0.6095   -0.5718 C   0  0  2  0  0  0  0  0  0  0  0  0
   -1.7584   -1.1427   -1.1114 C   0  0  0  0  0  0  0  0  0  0  0  0
   -1.8650   -1.6831   -2.2105 O   0  0  0  0  0  0  0  0  0  0  0  0
   -0.2850   -0.8088    0.9410 C   0  0  0  0  0  0  0  0  0  0  0  0
    1.1288   -0.5361    1.4710 C   0  0  0  0  0  0  0  0  0  0  0  0
    1.2095   -0.7783    2.9800 C   0  0  0  0  0  0  0  0  0  0  0  0
    2.6064   -0.4834    3.5062 C   0  0  0  0  0  0  0  0  0  0  0  0
    2.6309   -0.7077    4.9716 N   0  3  0  0  0  0  0  0  0  0  0  0
   -0.6336    1.4811   -0.2948 H   0  0  0  0  0  0  0  0  0  0  0  0
    0.3772   -1.1384   -1.0847 H   0  0  0  0  0  0  0  0  0  0  0  0
   -0.9903   -0.1444    1.4569 H   0  0  0  0  0  0  0  0  0  0  0  0
   -0.5699   -1.8351    1.2037 H   0  0  0  0  0  0  0  0  0  0  0  0
    1.8508   -1.1862    0.9634 H   0  0  0  0  0  0  0  0  0  0  0  0
    1.4165    0.4997    1.2560 H   0  0  0  0  0  0  0  0  0  0  0  0
    0.9417   -1.8193    3.1997 H   0  0  0  0  0  0  0  0  0  0  0  0
    0.4771   -0.1430    3.4936 H   0  0  0  0  0  0  0  0  0  0  0  0
    3.3576   -1.1489    3.0706 H   0  0  0  0  0  0  0  0  0  0  0  0
    2.8959    0.5584    3.3396 H   0  0  0  0  0  0  0  0  0  0  0  0
    3.4225   -0.2200    5.4052 H   0  0  0  0  0  0  0  0  0  0  0  0
    2.7189   -1.7067    5.1887 H   0  0  0  0  0  0  0  0  0  0  0  0
    1.7697   -0.3641    5.4108 H   0  0  0  0  0  0  0  0  0  0  0  0
   -2.7998   -0.9750   -0.2101 N   0  0  0  0  0  0  0  0  0  0  0  0
   -4.1434   -1.4187   -0.4959 C   0  0  2  0  0  0  0  0  0  0  0  0
   -5.0731   -0.8005    0.5399 C   0  0  0  0  0  0  0  0  0  0  0  0
   -4.6864   -0.4069    1.6384 O   0  0  0  0  0  0  0  0  0  0  0  0
   -4.2408   -2.9362   -0.4769 C   0  0  0  0  0  0  0  0  0  0  0  0
   -2.6105   -0.5251    0.6805 H   0  0  0  0  0  0  0  0  0  0  0  0
   -4.3979   -1.0363   -1.4904 H   0  0  0  0  0  0  0  0  0  0  0  0
   -3.9893   -3.3377    0.5116 H   0  0  0  0  0  0  0  0  0  0  0  0
   -5.2539   -3.2719   -0.7219 H   0  0  0  0  0  0  0  0  0  0  0  0
   -3.5498   -3.3802   -1.2016 H   0  0  0  0  0  0  0  0  0  0  0  0
   -6.3927   -0.7795    0.1103 N   0  0  0  0  0  0  0  0  0  0  0  0
   -7.4676   -0.2536    0.9190 C   0  0  0  0  0  0  0  0  0  0  0  0
   -6.6196   -1.1094   -0.8232 H   0  0  0  0  0  0  0  0  0  0  0  0
   -7.9200   -1.0684    1.5033 H   0  0  0  0  0  0  0  0  0  0  0  0
   -7.0713    0.5115    1.6027 H   0  0  0  0  0  0  0  0  0  0  0  0
   -8.2302    0.1971    0.2668 H   0  0  0  0  0  0  0  0  0  0  0  0
  1  3  1  0  0  0  0
  1  7  1  0  0  0  0
  1  2  2  0  0  0  0
 40 41  1  0  0  0  0
 41 49  1  0  0  0  0
 41 42  2  0  0  0  0
  8  9  1  0  0  0  0
  9 17  1  0  0  0  0
  9 10  2  0  0  0  0
 18 19  1  0  0  0  0
 19 39  1  0  0  0  0
 19 20  2  0  0  0  0
 40 43  1  0  0  0  0
  8 11  1  0  0  0  0
 49 50  1  0  0  0  0
 22 23  1  0  0  0  0
 21 22  1  0  0  0  0
 23 24  1  0  0  0  0
 18 21  1  0  0  0  0
 24 25  1  0  0  0  0
 39 40  1  0  0  0  0
  7  8  1  0  0  0  0
 17 18  1  0  0  0  0
  3  4  1  0  0  0  0
  3  5  1  0  0  0  0
  3  6  1  0  0  0  0
 43 46  1  0  0  0  0
 43 47  1  0  0  0  0
 43 48  1  0  0  0  0
 11 14  1  0  0  0  0
 11 15  1  0  0  0  0
 11 16  1  0  0  0  0
 50 52  1  0  0  0  0
 50 53  1  0  0  0  0
 50 54  1  0  0  0  0
 22 30  1  0  0  0  0
 22 31  1  0  0  0  0
 23 32  1  0  0  0  0
 23 33  1  0  0  0  0
 21 28  1  0  0  0  0
 21 29  1  0  0  0  0
 24 34  1  0  0  0  0
 24 35  1  0  0  0  0
 40 45  1  0  0  0  0
  8 13  1  0  0  0  0
 18 27  1  0  0  0  0
 49 51  1  0  0  0  0
  7 12  1  0  0  0  0
 39 44  1  0  0  0  0
 17 26  1  0  0  0  0
 25 36  1  0  0  0  0
 25 37  1  0  0  0  0
 25 38  1  0  0  0  0
M  CHG  1  25   1
M  END
$$$$

  -OEChem-05262214473D

 54 53  0     1  0  0  0  0  0999 V2000
    2.6714    2.8829   -3.0005 C   0  0  0  0  0  0  0  0  0  0  0  0
    3.1741    2.4398   -1.9745 O   0  0  0  0  0  0  0  0  0  0  0  0
    3.5527    3.3077   -4.1279 C   0  0  0  0  0  0  0  0  0  0  0  0
    3.8407    4.3691   -4.0597 H   0  0  0  0  0  0  0  0  0  0  0  0
    4.5024    2.7495   -4.1526 H   0  0  0  0  0  0  0  0  0  0  0  0
    3.1208    3.1887   -5.1345 H   0  0  0  0  0  0  0  0  0  0  0  0
    1.3174    3.0407   -3.2467 N   0  0  0  0  0  0  0  0  0  0  0  0
    0.2944    2.6927   -2.2960 C   0  0  2  0  0  0  0  0  0  0  0  0
    0.2976    1.1783   -2.1349 C   0  0  0  0  0  0  0  0  0  0  0  0
    0.7500    0.4142   -2.9850 O   0  0  0  0  0  0  0  0  0  0  0  0
   -1.0710    3.1886   -2.7460 C   0  0  0  0  0  0  0  0  0  0  0  0
    1.0312    3.4224   -4.1464 H   0  0  0  0  0  0  0  0  0  0  0  0
    0.5725    3.1622   -1.3461 H   0  0  0  0  0  0  0  0  0  0  0  0
   -1.3666    2.7292   -3.6963 H   0  0  0  0  0  0  0  0  0  0  0  0
   -1.8434    2.9482   -2.0082 H   0  0  0  0  0  0  0  0  0  0  0  0
   -1.0632    4.2744   -2.8901 H   0  0  0  0  0  0  0  0  0  0  0  0
   -0.3037    0.7742   -0.9484 N   0  0  0  0  0  0  0  0  0  0  0  0
   -0.4352   -0.6095   -0.5718 C   0  0  2  0  0  0  0  0  0  0  0  0
   -1.7584   -1.1427   -1.1114 C   0  0  0  0  0  0  0  0  0  0  0  0
   -1.8312   -1.9097   -2.0695 O   0  0  0  0  0  0  0  0  0  0  0  0
   -0.2850   -0.8088    0.9410 C   0  0  0  0  0  0  0  0  0  0  0  0
    1.1288   -0.5361    1.4710 C   0  0  0  0  0  0  0  0  0  0  0  0
    1.2095   -0.7783    2.9800 C   0  0  0  0  0  0  0  0  0  0  0  0
    2.6064   -0.4834    3.5062 C   0  0  0  0  0  0  0  0  0  0  0  0
    2.6309   -0.7077    4.9716 N   0  3  0  0  0  0  0  0  0  0  0  0
   -0.6336    1.4811   -0.2948 H   0  0  0  0  0  0  0  0  0  0  0  0
    0.3772   -1.1384   -1.0847 H   0  0  0  0  0  0  0  0  0  0  0  0
   -0.9903   -0.1444    1.4569 H   0  0  0  0  0  0  0  0  0  0  0  0
   -0.5699   -1.8351    1.2037 H   0  0  0  0  0  0  0  0  0  0  0  0
    1.8508   -1.1862    0.9634 H   0  0  0  0  0  0  0  0  0  0  0  0
    1.4165    0.4997    1.2560 H   0  0  0  0  0  0  0  0  0  0  0  0
    0.9417   -1.8193    3.1997 H   0  0  0  0  0  0  0  0  0  0  0  0
    0.4771   -0.1430    3.4936 H   0  0  0  0  0  0  0  0  0  0  0  0
    3.3576   -1.1489    3.0706 H   0  0  0  0  0  0  0  0  0  0  0  0
    2.8959    0.5584    3.3396 H   0  0  0  0  0  0  0  0  0  0  0  0
    3.4225   -0.2200    5.4052 H   0  0  0  0  0  0  0  0  0  0  0  0
    2.7189   -1.7067    5.1887 H   0  0  0  0  0  0  0  0  0  0  0  0
    1.7697   -0.3641    5.4108 H   0  0  0  0  0  0  0  0  0  0  0  0
   -2.8461   -0.6893   -0.3791 N   0  0  0  0  0  0  0  0  0  0  0  0
   -4.2007   -1.0759   -0.6942 C   0  0  2  0  0  0  0  0  0  0  0  0
   -5.1425   -0.1638    0.0807 C   0  0  0  0  0  0  0  0  0  0  0  0
   -4.8068    0.4379    1.0988 O   0  0  0  0  0  0  0  0  0  0  0  0
   -4.4534   -2.5358   -0.3512 C   0  0  0  0  0  0  0  0  0  0  0  0
   -2.6838   -0.0644    0.4050 H   0  0  0  0  0  0  0  0  0  0  0  0
   -4.3345   -0.9118   -1.7690 H   0  0  0  0  0  0  0  0  0  0  0  0
   -4.3240   -2.7195    0.7216 H   0  0  0  0  0  0  0  0  0  0  0  0
   -5.4726   -2.8352   -0.6172 H   0  0  0  0  0  0  0  0  0  0  0  0
   -3.7555   -3.1884   -0.8867 H   0  0  0  0  0  0  0  0  0  0  0  0
   -6.4144   -0.1345   -0.4739 N   0  0  0  0  0  0  0  0  0  0  0  0
   -7.4913    0.6480    0.0863 C   0  0  0  0  0  0  0  0  0  0  0  0
   -6.5983   -0.6496   -1.3298 H   0  0  0  0  0  0  0  0  0  0  0  0
   -8.0698    0.0280    0.7871 H   0  0  0  0  0  0  0  0  0  0  0  0
   -7.0751    1.5145    0.6211 H   0  0  0  0  0  0  0  0  0  0  0  0
   -8.1494    0.9980   -0.7227 H   0  0  0  0  0  0  0  0  0  0  0  0
  1  3  1  0  0  0  0
  1  7  1  0  0  0  0
  1  2  2  0  0  0  0
 40 41  1  0  0  0  0
 41 49  1  0  0  0  0
 41 42  2  0  0  0  0
  8  9  1  0  0  0  0
  9 17  1  0  0  0  0
  9 10  2  0  0  0  0
 18 19  1  0  0  0  0
 19 39  1  0  0  0  0
 19 20  2  0  0  0  0
 40 43  1  0  0  0  0
  8 11  1  0  0  0  0
 49 50  1  0  0  0  0
 22 23  1  0  0  0  0
 21 22  1  0  0  0  0
 23 24  1  0  0  0  0
 18 21  1  0  0  0  0
 24 25  1  0  0  0  0
 39 40  1  0  0  0  0
  7  8  1  0  0  0  0
 17 18  1  0  0  0  0
  3  4  1  0  0  0  0
  3  5  1  0  0  0  0
  3  6  1  0  0  0  0
 43 46  1  0  0  0  0
 43 47  1  0  0  0  0
 43 48  1  0  0  0  0
 11 14  1  0  0  0  0
 11 15  1  0  0  0  0
 11 16  1  0  0  0  0
 50 52  1  0  0  0  0
 50 53  1  0  0  0  0
 50 54  1  0  0  0  0
 22 30  1  0  0  0  0
 22 31  1  0  0  0  0
 23 32  1  0  0  0  0
 23 33  1  0  0  0  0
 21 28  1  0  0  0  0
 21 29  1  0  0  0  0
 24 34  1  0  0  0  0
 24 35  1  0  0  0  0
 40 45  1  0  0  0  0
  8 13  1  0  0  0  0
 18 27  1  0  0  0  0
 49 51  1  0  0  0  0
  7 12  1  0  0  0  0
 39 44  1  0  0  0  0
 17 26  1  0  0  0  0
 25 36  1  0  0  0  0
 25 37  1  0  0  0  0
 25 38  1  0  0  0  0
M  CHG  1  25   1
M  END
$$$$

  -OEChem-05262214473D

 54 53  0     1  0  0  0  0  0999 V2000
    2.6714    2.8829   -3.0005 C   0  0  0  0  0  0  0  0  0  0  0  0
    3.1741    2.4398   -1.9745 O   0  0  0  0  0  0  0  0  0  0  0  0
    3.5527    3.3077   -4.1279 C   0  0  0  0  0  0  0  0  0  0  0  0
    3.8407    4.3691   -4.0597 H   0  0  0  0  0  0  0  0  0  0  0  0
    4.5024    2.7495   -4.1526 H   0  0  0  0  0  0  0  0  0  0  0  0
    3.1208    3.1887   -5.1345 H   0  0  0  0  0  0  0  0  0  0  0  0
    1.3174    3.0407   -3.2467 N   0  0  0  0  0  0  0  0  0  0  0  0
    0.2944    2.6927   -2.2960 C   0  0  2  0  0  0  0  0  0  0  0  0
    0.2976    1.1783   -2.1349 C   0  0  0  0  0  0  0  0  0  0  0  0
    0.7500    0.4142   -2.9850 O   0  0  0  0  0  0  0  0  0  0  0  0
   -1.0710    3.1886   -2.7460 C   0  0  0  0  0  0  0  0  0  0  0  0
    1.0312    3.4224   -4.1464 H   0  0  0  0  0  0  0  0  0  0  0  0
    0.5725    3.1622   -1.3461 H   0  0  0  0  0  0  0  0  0  0  0  0
   -1.3666    2.7292   -3.6963 H   0  0  0  0  0  0  0  0  0  0  0  0
   -1.8434    2.9482   -2.0082 H   0  0  0  0  0  0  0  0  0  0  0  0
   -1.0632    4.2744   -2.8901 H   0  0  0  0  0  0  0  0  0  0  0  0
   -0.3037    0.7742   -0.9484 N   0  0  0  0  0  0  0  0  0  0  0  0
   -0.4352   -0.6095   -0.5718 C   0  0  2  0  0  0  0  0  0  0  0  0
   -1.7584   -1.1427   -1.1114 C   0  0  0  0  0  0  0  0  0  0  0  0
   -1.8321   -2.1000   -1.8793 O   0  0  0  0  0  0  0  0  0  0  0  0
   -0.2850   -0.8088    0.9410 C   0  0  0  0  0  0  0  0  0  0  0  0
    1.1288   -0.5361    1.4710 C   0  0  0  0  0  0  0  0  0  0  0  0
    1.2095   -0.7783    2.9800 C   0  0  0  0  0  0  0  0  0  0  0  0
    2.6064   -0.4834    3.5062 C   0  0  0  0  0  0  0  0  0  0  0  0
    2.6309   -0.7077    4.9716 N   0  3  0  0  0  0  0  0  0  0  0  0
   -0.6336    1.4811   -0.2948 H   0  0  0  0  0  0  0  0  0  0  0  0
    0.3772   -1.1384   -1.0847 H   0  0  0  0  0  0  0  0  0  0  0  0
   -0.9903   -0.1444    1.4569 H   0  0  0  0  0  0  0  0  0  0  0  0
   -0.5699   -1.8351    1.2037 H   0  0  0  0  0  0  0  0  0  0  0  0
    1.8508   -1.1862    0.9634 H   0  0  0  0  0  0  0  0  0  0  0  0
    1.4165    0.4997    1.2560 H   0  0  0  0  0  0  0  0  0  0  0  0
    0.9417   -1.8193    3.1997 H   0  0  0  0  0  0  0  0  0  0  0  0
    0.4771   -0.1430    3.4936 H   0  0  0  0  0  0  0  0  0  0  0  0
    3.3576   -1.1489    3.0706 H   0  0  0  0  0  0  0  0  0  0  0  0
    2.8959    0.5584    3.3396 H   0  0  0  0  0  0  0  0  0  0  0  0
    3.4225   -0.2200    5.4052 H   0  0  0  0  0  0  0  0  0  0  0  0
    2.7189   -1.7067    5.1887 H   0  0  0  0  0  0  0  0  0  0  0  0
    1.7697   -0.3641    5.4108 H   0  0  0  0  0  0  0  0  0  0  0  0
   -2.8493   -0.4470   -0.6106 N   0  0  0  0  0  0  0  0  0  0  0  0
   -4.2067   -0.7841   -0.9678 C   0  0  2  0  0  0  0  0  0  0  0  0
   -5.1096    0.3545   -0.5121 C   0  0  0  0  0  0  0  0  0  0  0  0
   -4.7969    1.1438    0.3770 O   0  0  0  0  0  0  0  0  0  0  0  0
   -4.6335   -2.1013   -0.3389 C   0  0  0  0  0  0  0  0  0  0  0  0
   -2.6875    0.3254    0.0289 H   0  0  0  0  0  0  0  0  0  0  0  0
   -4.2366   -0.8599   -2.0603 H   0  0  0  0  0  0  0  0  0  0  0  0
   -4.6097   -2.0447    0.7554 H   0  0  0  0  0  0  0  0  0  0  0  0
   -5.6533   -2.3698   -0.6339 H   0  0  0  0  0  0  0  0  0  0  0  0
   -3.9651   -2.9136   -0.6443 H   0  0  0  0  0  0  0  0  0  0  0  0
   -6.3234    0.3594   -1.1849 N   0  0  0  0  0  0  0  0  0  0  0  0
   -7.3564    1.3341   -0.9226 C   0  0  0  0  0  0  0  0  0  0  0  0
   -6.4897   -0.3212   -1.9204 H   0  0  0  0  0  0  0  0  0  0  0  0
   -8.0492    0.9400   -0.1645 H   0  0  0  0  0  0  0  0  0  0  0  0
   -6.8982    2.2632   -0.5526 H   0  0  0  0  0  0  0  0  0  0  0  0
   -7.9085    1.5420   -1.8510 H   0  0  0  0  0  0  0  0  0  0  0  0
  1  3  1  0  0  0  0
  1  7  1  0  0  0  0
  1  2  2  0  0  0  0
 40 41  1  0  0  0  0
 41 49  1  0  0  0  0
 41 42  2  0  0  0  0
  8  9  1  0  0  0  0
  9 17  1  0  0  0  0
  9 10  2  0  0  0  0
 18 19  1  0  0  0  0
 19 39  1  0  0  0  0
 19 20  2  0  0  0  0
 40 43  1  0  0  0  0
  8 11  1  0  0  0  0
 49 50  1  0  0  0  0
 22 23  1  0  0  0  0
 21 22  1  0  0  0  0
 23 24  1  0  0  0  0
 18 21  1  0  0  0  0
 24 25  1  0  0  0  0
 39 40  1  0  0  0  0
  7  8  1  0  0  0  0
 17 18  1  0  0  0  0
  3  4  1  0  0  0  0
  3  5  1  0  0  0  0
  3  6  1  0  0  0  0
 43 46  1  0  0  0  0
 43 47  1  0  0  0  0
 43 48  1  0  0  0  0
 11 14  1  0  0  0  0
 11 15  1  0  0  0  0
 11 16  1  0  0  0  0
 50 52  1  0  0  0  0
 50 53  1  0  0  0  0
 50 54  1  0  0  0  0
 22 30  1  0  0  0  0
 22 31  1  0  0  0  0
 23 32  1  0  0  0  0
 23 33  1  0  0  0  0
 21 28  1  0  0  0  0
 21 29  1  0  0  0  0
 24 34  1  0  0  0  0
 24 35  1  0  0  0  0
 40 45  1  0  0  0  0
  8 13  1  0  0  0  0
 18 27  1  0  0  0  0
 49 51  1  0  0  0  0
  7 12  1  0  0  0  0
 39 44  1  0  0  0  0
 17 26  1  0  0  0  0
 25 36  1  0  0  0  0
 25 37  1  0  0  0  0
 25 38  1  0  0  0  0
M  CHG  1  25   1
M  END
$$$$

  -OEChem-05262214473D

 54 53  0     1  0  0  0  0  0999 V2000
    2.6714    2.8829   -3.0005 C   0  0  0  0  0  0  0  0  0  0  0  0
    3.1741    2.4398   -1.9745 O   0  0  0  0  0  0  0  0  0  0  0  0
    3.5527    3.3077   -4.1279 C   0  0  0  0  0  0  0  0  0  0  0  0
    3.8407    4.3691   -4.0597 H   0  0  0  0  0  0  0  0  0  0  0  0
    4.5024    2.7495   -4.1526 H   0  0  0  0  0  0  0  0  0  0  0  0
    3.1208    3.1887   -5.1345 H   0  0  0  0  0  0  0  0  0  0  0  0
    1.3174    3.0407   -3.2467 N   0  0  0  0  0  0  0  0  0  0  0  0
    0.2944    2.6927   -2.2960 C   0  0  2  0  0  0  0  0  0  0  0  0
    0.2976    1.1783   -2.1349 C   0  0  0  0  0  0  0  0  0  0  0  0
    0.7500    0.4142   -2.9850 O   0  0  0  0  0  0  0  0  0  0  0  0
   -1.0710    3.1886   -2.7460 C   0  0  0  0  0  0  0  0  0  0  0  0
    1.0312    3.4224   -4.1464 H   0  0  0  0  0  0  0  0  0  0  0  0
    0.5725    3.1622   -1.3461 H   0  0  0  0  0  0  0  0  0  0  0  0
   -1.3666    2.7292   -3.6963 H   0  0  0  0  0  0  0  0  0  0  0  0
   -1.8434    2.9482   -2.0082 H   0  0  0  0  0  0  0  0  0  0  0  0
   -1.0632    4.2744   -2.8901 H   0  0  0  0  0  0  0  0  0  0  0  0
   -0.3037    0.7742   -0.9484 N   0  0  0  0  0  0  0  0  0  0  0  0
   -0.4352   -0.6095   -0.5718 C   0  0  2  0  0  0  0  0  0  0  0  0
   -1.7584   -1.1427   -1.1114 C   0  0  0  0  0  0  0  0  0  0  0  0
   -1.8676   -2.2410   -1.6529 O   0  0  0  0  0  0  0  0  0  0  0  0
   -0.2850   -0.8088    0.9410 C   0  0  0  0  0  0  0  0  0  0  0  0
    1.1288   -0.5361    1.4710 C   0  0  0  0  0  0  0  0  0  0  0  0
    1.2095   -0.7783    2.9800 C   0  0  0  0  0  0  0  0  0  0  0  0
    2.6064   -0.4834    3.5062 C   0  0  0  0  0  0  0  0  0  0  0  0
    2.6309   -0.7077    4.9716 N   0  3  0  0  0  0  0  0  0  0  0  0
   -0.6336    1.4811   -0.2948 H   0  0  0  0  0  0  0  0  0  0  0  0
    0.3772   -1.1384   -1.0847 H   0  0  0  0  0  0  0  0  0  0  0  0
   -0.9903   -0.1444    1.4569 H   0  0  0  0  0  0  0  0  0  0  0  0
   -0.5699   -1.8351    1.2037 H   0  0  0  0  0  0  0  0  0  0  0  0
    1.8508   -1.1862    0.9634 H   0  0  0  0  0  0  0  0  0  0  0  0
    1.4165    0.4997    1.2560 H   0  0  0  0  0  0  0  0  0  0  0  0
    0.9417   -1.8193    3.1997 H   0  0  0  0  0  0  0  0  0  0  0  0
    0.4771   -0.1430    3.4936 H   0  0  0  0  0  0  0  0  0  0  0  0
    3.3576   -1.1489    3.0706 H   0  0  0  0  0  0  0  0  0  0  0  0
    2.8959    0.5584    3.3396 H   0  0  0  0  0  0  0  0  0  0  0  0
    3.4225   -0.2200    5.4052 H   0  0  0  0  0  0  0  0  0  0  0  0
    2.7189   -1.7067    5.1887 H   0  0  0  0  0  0  0  0  0  0  0  0
    1.7697   -0.3641    5.4108 H   0  0  0  0  0  0  0  0  0  0  0  0
   -2.8093   -0.2646   -0.8889 N   0  0  0  0  0  0  0  0  0  0  0  0
   -4.1610   -0.5631   -1.2982 C   0  0  2  0  0  0  0  0  0  0  0  0
   -4.9767    0.7191   -1.1981 C   0  0  0  0  0  0  0  0  0  0  0  0
   -4.6574    1.6627   -0.4779 O   0  0  0  0  0  0  0  0  0  0  0  0
   -4.7688   -1.6624   -0.4410 C   0  0  0  0  0  0  0  0  0  0  0  0
   -2.6213    0.6178   -0.4223 H   0  0  0  0  0  0  0  0  0  0  0  0
   -4.1110   -0.8841   -2.3444 H   0  0  0  0  0  0  0  0  0  0  0  0
   -4.8270   -1.3590    0.6107 H   0  0  0  0  0  0  0  0  0  0  0  0
   -5.7837   -1.9075   -0.7709 H   0  0  0  0  0  0  0  0  0  0  0  0
   -4.1643   -2.5745   -0.4908 H   0  0  0  0  0  0  0  0  0  0  0  0
   -6.1260    0.6685   -1.9745 N   0  0  0  0  0  0  0  0  0  0  0  0
   -7.0719    1.7580   -2.0389 C   0  0  0  0  0  0  0  0  0  0  0  0
   -6.3014   -0.1465   -2.5548 H   0  0  0  0  0  0  0  0  0  0  0  0
   -7.8597    1.6053   -1.2865 H   0  0  0  0  0  0  0  0  0  0  0  0
   -6.5526    2.7067   -1.8384 H   0  0  0  0  0  0  0  0  0  0  0  0
   -7.5240    1.7921   -3.0412 H   0  0  0  0  0  0  0  0  0  0  0  0
  1  3  1  0  0  0  0
  1  7  1  0  0  0  0
  1  2  2  0  0  0  0
 40 41  1  0  0  0  0
 41 49  1  0  0  0  0
 41 42  2  0  0  0  0
  8  9  1  0  0  0  0
  9 17  1  0  0  0  0
  9 10  2  0  0  0  0
 18 19  1  0  0  0  0
 19 39  1  0  0  0  0
 19 20  2  0  0  0  0
 40 43  1  0  0  0  0
  8 11  1  0  0  0  0
 49 50  1  0  0  0  0
 22 23  1  0  0  0  0
 21 22  1  0  0  0  0
 23 24  1  0  0  0  0
 18 21  1  0  0  0  0
 24 25  1  0  0  0  0
 39 40  1  0  0  0  0
  7  8  1  0  0  0  0
 17 18  1  0  0  0  0
  3  4  1  0  0  0  0
  3  5  1  0  0  0  0
  3  6  1  0  0  0  0
 43 46  1  0  0  0  0
 43 47  1  0  0  0  0
 43 48  1  0  0  0  0
 11 14  1  0  0  0  0
 11 15  1  0  0  0  0
 11 16  1  0  0  0  0
 50 52  1  0  0  0  0
 50 53  1  0  0  0  0
 50 54  1  0  0  0  0
 22 30  1  0  0  0  0
 22 31  1  0  0  0  0
 23 32  1  0  0  0  0
 23 33  1  0  0  0  0
 21 28  1  0  0  0  0
 21 29  1  0  0  0  0
 24 34  1  0  0  0  0
 24 35  1  0  0  0  0
 40 45  1  0  0  0  0
  8 13  1  0  0  0  0
 18 27  1  0  0  0  0
 49 51  1  0  0  0  0
  7 12  1  0  0  0  0
 39 44  1  0  0  0  0
 17 26  1  0  0  0  0
 25 36  1  0  0  0  0
 25 37  1  0  0  0  0
 25 38  1  0  0  0  0
M  CHG  1  25   1
M  END
$$$$

  -OEChem-05262214473D

 54 53  0     1  0  0  0  0  0999 V2000
    2.6714    2.8829   -3.0005 C   0  0  0  0  0  0  0  0  0  0  0  0
    3.1741    2.4398   -1.9745 O   0  0  0  0  0  0  0  0  0  0  0  0
    3.5527    3.3077   -4.1279 C   0  0  0  0  0  0  0  0  0  0  0  0
    3.8407    4.3691   -4.0597 H   0  0  0  0  0  0  0  0  0  0  0  0
    4.5024    2.7495   -4.1526 H   0  0  0  0  0  0  0  0  0  0  0  0
    3.1208    3.1887   -5.1345 H   0  0  0  0  0  0  0  0  0  0  0  0
    1.3174    3.0407   -3.2467 N   0  0  0  0  0  0  0  0  0  0  0  0
    0.2944    2.6927   -2.2960 C   0  0  2  0  0  0  0  0  0  0  0  0
    0.2976    1.1783   -2.1349 C   0  0  0  0  0  0  0  0  0  0  0  0
    0.7500    0.4142   -2.9850 O   0  0  0  0  0  0  0  0  0  0  0  0
   -1.0710    3.1886   -2.7460 C   0  0  0  0  0  0  0  0  0  0  0  0
    1.0312    3.4224   -4.1464 H   0  0  0  0  0  0  0  0  0  0  0  0
    0.5725    3.1622   -1.3461 H   0  0  0  0  0  0  0  0  0  0  0  0
   -1.3666    2.7292   -3.6963 H   0  0  0  0  0  0  0  0  0  0  0  0
   -1.8434    2.9482   -2.0082 H   0  0  0  0  0  0  0  0  0  0  0  0
   -1.0632    4.2744   -2.8901 H   0  0  0  0  0  0  0  0  0  0  0  0
   -0.3037    0.7742   -0.9484 N   0  0  0  0  0  0  0  0  0  0  0  0
   -0.4352   -0.6095   -0.5718 C   0  0  2  0  0  0  0  0  0  0  0  0
   -1.7584   -1.1427   -1.1114 C   0  0  0  0  0  0  0  0  0  0  0  0
   -1.9353   -2.3231   -1.4058 O   0  0  0  0  0  0  0  0  0  0  0  0
   -0.2850   -0.8088    0.9410 C   0  0  0  0  0  0  0  0  0  0  0  0
    1.1288   -0.5361    1.4710 C   0  0  0  0  0  0  0  0  0  0  0  0
    1.2095   -0.7783    2.9800 C   0  0  0  0  0  0  0  0  0  0  0  0
    2.6064   -0.4834    3.5062 C   0  0  0  0  0  0  0  0  0  0  0  0
    2.6309   -0.7077    4.9716 N   0  3  0  0  0  0  0  0  0  0  0  0
   -0.6336    1.4811   -0.2948 H   0  0  0  0  0  0  0  0  0  0  0  0
    0.3772   -1.1384   -1.0847 H   0  0  0  0  0  0  0  0  0  0  0  0
   -0.9903   -0.1444    1.4569 H   0  0  0  0  0  0  0  0  0  0  0  0
   -0.5699   -1.8351    1.2037 H   0  0  0  0  0  0  0  0  0  0  0  0
    1.8508   -1.1862    0.9634 H   0  0  0  0  0  0  0  0  0  0  0  0
    1.4165    0.4997    1.2560 H   0  0  0  0  0  0  0  0  0  0  0  0
    0.9417   -1.8193    3.1997 H   0  0  0  0  0  0  0  0  0  0  0  0
    0.4771   -0.1430    3.4936 H   0  0  0  0  0  0  0  0  0  0  0  0
    3.3576   -1.1489    3.0706 H   0  0  0  0  0  0  0  0  0  0  0  0
    2.8959    0.5584    3.3396 H   0  0  0  0  0  0  0  0  0  0  0  0
    3.4225   -0.2200    5.4052 H   0  0  0  0  0  0  0  0  0  0  0  0
    2.7189   -1.7067    5.1887 H   0  0  0  0  0  0  0  0  0  0  0  0
    1.7697   -0.3641    5.4108 H   0  0  0  0  0  0  0  0  0  0  0  0
   -2.7288   -0.1546   -1.1950 N   0  0  0  0  0  0  0  0  0  0  0  0
   -4.0667   -0.4280   -1.6629 C   0  0  2  0  0  0  0  0  0  0  0  0
   -4.7530    0.9050   -1.9305 C   0  0  0  0  0  0  0  0  0  0  0  0
   -4.3978    1.9592   -1.4075 O   0  0  0  0  0  0  0  0  0  0  0  0
   -4.8500   -1.2489   -0.6503 C   0  0  0  0  0  0  0  0  0  0  0  0
   -2.4898    0.7929   -0.9178 H   0  0  0  0  0  0  0  0  0  0  0  0
   -3.9662   -0.9827   -2.6021 H   0  0  0  0  0  0  0  0  0  0  0  0
   -4.9610   -0.7094    0.2973 H   0  0  0  0  0  0  0  0  0  0  0  0
   -5.8549   -1.4798   -1.0189 H   0  0  0  0  0  0  0  0  0  0  0  0
   -4.3396   -2.1943   -0.4366 H   0  0  0  0  0  0  0  0  0  0  0  0
   -5.8356    0.7716   -2.7886 N   0  0  0  0  0  0  0  0  0  0  0  0
   -6.6574    1.8907   -3.1867 C   0  0  0  0  0  0  0  0  0  0  0  0
   -6.0461   -0.1374   -3.1899 H   0  0  0  0  0  0  0  0  0  0  0  0
   -7.5143    1.9786   -2.5026 H   0  0  0  0  0  0  0  0  0  0  0  0
   -6.0617    2.8147   -3.1488 H   0  0  0  0  0  0  0  0  0  0  0  0
   -7.0219    1.7312   -4.2122 H   0  0  0  0  0  0  0  0  0  0  0  0
  1  3  1  0  0  0  0
  1  7  1  0  0  0  0
  1  2  2  0  0  0  0
 40 41  1  0  0  0  0
 41 49  1  0  0  0  0
 41 42  2  0  0  0  0
  8  9  1  0  0  0  0
  9 17  1  0  0  0  0
  9 10  2  0  0  0  0
 18 19  1  0  0  0  0
 19 39  1  0  0  0  0
 19 20  2  0  0  0  0
 40 43  1  0  0  0  0
  8 11  1  0  0  0  0
 49 50  1  0  0  0  0
 22 23  1  0  0  0  0
 21 22  1  0  0  0  0
 23 24  1  0  0  0  0
 18 21  1  0  0  0  0
 24 25  1  0  0  0  0
 39 40  1  0  0  0  0
  7  8  1  0  0  0  0
 17 18  1  0  0  0  0
  3  4  1  0  0  0  0
  3  5  1  0  0  0  0
  3  6  1  0  0  0  0
 43 46  1  0  0  0  0
 43 47  1  0  0  0  0
 43 48  1  0  0  0  0
 11 14  1  0  0  0  0
 11 15  1  0  0  0  0
 11 16  1  0  0  0  0
 50 52  1  0  0  0  0
 50 53  1  0  0  0  0
 50 54  1  0  0  0  0
 22 30  1  0  0  0  0
 22 31  1  0  0  0  0
 23 32  1  0  0  0  0
 23 33  1  0  0  0  0
 21 28  1  0  0  0  0
 21 29  1  0  0  0  0
 24 34  1  0  0  0  0
 24 35  1  0  0  0  0
 40 45  1  0  0  0  0
  8 13  1  0  0  0  0
 18 27  1  0  0  0  0
 49 51  1  0  0  0  0
  7 12  1  0  0  0  0
 39 44  1  0  0  0  0
 17 26  1  0  0  0  0
 25 36  1  0  0  0  0
 25 37  1  0  0  0  0
 25 38  1  0  0  0  0
M  CHG  1  25   1
M  END
$$$$

  -OEChem-05262214473D

 54 53  0     1  0  0  0  0  0999 V2000
    2.6714    2.8829   -3.0005 C   0  0  0  0  0  0  0  0  0  0  0  0
    3.1741    2.4398   -1.9745 O   0  0  0  0  0  0  0  0  0  0  0  0
    3.5527    3.3077   -4.1279 C   0  0  0  0  0  0  0  0  0  0  0  0
    3.8407    4.3691   -4.0597 H   0  0  0  0  0  0  0  0  0  0  0  0
    4.5024    2.7495   -4.1526 H   0  0  0  0  0  0  0  0  0  0  0  0
    3.1208    3.1887   -5.1345 H   0  0  0  0  0  0  0  0  0  0  0  0
    1.3174    3.0407   -3.2467 N   0  0  0  0  0  0  0  0  0  0  0  0
    0.2944    2.6927   -2.2960 C   0  0  2  0  0  0  0  0  0  0  0  0
    0.2976    1.1783   -2.1349 C   0  0  0  0  0  0  0  0  0  0  0  0
    0.7500    0.4142   -2.9850 O   0  0  0  0  0  0  0  0  0  0  0  0
   -1.0710    3.1886   -2.7460 C   0  0  0  0  0  0  0  0  0  0  0  0
    1.0312    3.4224   -4.1464 H   0  0  0  0  0  0  0  0  0  0  0  0
    0.5725    3.1622   -1.3461 H   0  0  0  0  0  0  0  0  0  0  0  0
   -1.3666    2.7292   -3.6963 H   0  0  0  0  0  0  0  0  0  0  0  0
   -1.8434    2.9482   -2.0082 H   0  0  0  0  0  0  0  0  0  0  0  0
   -1.0632    4.2744   -2.8901 H   0  0  0  0  0  0  0  0  0  0  0  0
   -0.3037    0.7742   -0.9484 N   0  0  0  0  0  0  0  0  0  0  0  0
   -0.4352   -0.6095   -0.5718 C   0  0  2  0  0  0  0  0  0  0  0  0
   -1.7584   -1.1427   -1.1114 C   0  0  0  0  0  0  0  0  0  0  0  0
   -2.0305   -2.3408   -1.1548 O   0  0  0  0  0  0  0  0  0  0  0  0
   -0.2850   -0.8088    0.9410 C   0  0  0  0  0  0  0  0  0  0  0  0
    1.1288   -0.5361    1.4710 C   0  0  0  0  0  0  0  0  0  0  0  0
    1.2095   -0.7783    2.9800 C   0  0  0  0  0  0  0  0  0  0  0  0
    2.6064   -0.4834    3.5062 C   0  0  0  0  0  0  0  0  0  0  0  0
    2.6309   -0.7077    4.9716 N   0  3  0  0  0  0  0  0  0  0  0  0
   -0.6336    1.4811   -0.2948 H   0  0  0  0  0  0  0  0  0  0  0  0
    0.3772   -1.1384   -1.0847 H   0  0  0  0  0  0  0  0  0  0  0  0
   -0.9903   -0.1444    1.4569 H   0  0  0  0  0  0  0  0  0  0  0  0
   -0.5699   -1.8351    1.2037 H   0  0  0  0  0  0  0  0  0  0  0  0
    1.8508   -1.1862    0.9634 H   0  0  0  0  0  0  0  0  0  0  0  0
    1.4165    0.4997    1.2560 H   0  0  0  0  0  0  0  0  0  0  0  0
    0.9417   -1.8193    3.1997 H   0  0  0  0  0  0  0  0  0  0  0  0
    0.4771   -0.1430    3.4936 H   0  0  0  0  0  0  0  0  0  0  0  0
    3.3576   -1.1489    3.0706 H   0  0  0  0  0  0  0  0  0  0  0  0
    2.8959    0.5584    3.3396 H   0  0  0  0  0  0  0  0  0  0  0  0
    3.4225   -0.2200    5.4052 H   0  0  0  0  0  0  0  0  0  0  0  0
    2.7189   -1.7067    5.1887 H   0  0  0  0  0  0  0  0  0  0  0  0
    1.7697   -0.3641    5.4108 H   0  0  0  0  0  0  0  0  0  0  0  0
   -2.6132   -0.1244   -1.5082 N   0  0  0  0  0  0  0  0  0  0  0  0
   -3.9303   -0.3880   -2.0369 C   0  0  2  0  0  0  0  0  0  0  0  0
   -4.4535    0.8996   -2.6595 C   0  0  0  0  0  0  0  0  0  0  0  0
   -4.0358    2.0131   -2.3485 O   0  0  0  0  0  0  0  0  0  0  0  0
   -4.8717   -0.8892   -0.9527 C   0  0  0  0  0  0  0  0  0  0  0  0
   -2.3019    0.8387   -1.4239 H   0  0  0  0  0  0  0  0  0  0  0  0
   -3.8120   -1.1492   -2.8157 H   0  0  0  0  0  0  0  0  0  0  0  0
   -5.0026   -0.1399   -0.1634 H   0  0  0  0  0  0  0  0  0  0  0  0
   -5.8622   -1.1157   -1.3608 H   0  0  0  0  0  0  0  0  0  0  0  0
   -4.4790   -1.7988   -0.4856 H   0  0  0  0  0  0  0  0  0  0  0  0
   -5.4719    0.6619   -3.5719 N   0  0  0  0  0  0  0  0  0  0  0  0
   -6.1409    1.7231   -4.2876 C   0  0  0  0  0  0  0  0  0  0  0  0
   -5.7412   -0.2947   -3.7822 H   0  0  0  0  0  0  0  0  0  0  0  0
   -7.0364    2.0346   -3.7298 H   0  0  0  0  0  0  0  0  0  0  0  0
   -5.4592    2.5798   -4.3943 H   0  0  0  0  0  0  0  0  0  0  0  0
   -6.4366    1.3635   -5.2842 H   0  0  0  0  0  0  0  0  0  0  0  0
  1  3  1  0  0  0  0
  1  7  1  0  0  0  0
  1  2  2  0  0  0  0
 40 41  1  0  0  0  0
 41 49  1  0  0  0  0
 41 42  2  0  0  0  0
  8  9  1  0  0  0  0
  9 17  1  0  0  0  0
  9 10  2  0  0  0  0
 18 19  1  0  0  0  0
 19 39  1  0  0  0  0
 19 20  2  0  0  0  0
 40 43  1  0  0  0  0
  8 11  1  0  0  0  0
 49 50  1  0  0  0  0
 22 23  1  0  0  0  0
 21 22  1  0  0  0  0
 23 24  1  0  0  0  0
 18 21  1  0  0  0  0
 24 25  1  0  0  0  0
 39 40  1  0  0  0  0
  7  8  1  0  0  0  0
 17 18  1  0  0  0  0
  3  4  1  0  0  0  0
  3  5  1  0  0  0  0
  3  6  1  0  0  0  0
 43 46  1  0  0  0  0
 43 47  1  0  0  0  0
 43 48  1  0  0  0  0
 11 14  1  0  0  0  0
 11 15  1  0  0  0  0
 11 16  1  0  0  0  0
 50 52  1  0  0  0  0
 50 53  1  0  0  0  0
 50 54  1  0  0  0  0
 22 30  1  0  0  0  0
 22 31  1  0  0  0  0
 23 32  1  0  0  0  0
 23 33  1  0  0  0  0
 21 28  1  0  0  0  0
 21 29  1  0  0  0  0
 24 34  1  0  0  0  0
 24 35  1  0  0  0  0
 40 45  1  0  0  0  0
  8 13  1  0  0  0  0
 18 27  1  0  0  0  0
 49 51  1  0  0  0  0
  7 12  1  0  0  0  0
 39 44  1  0  0  0  0
 17 26  1  0  0  0  0
 25 36  1  0  0  0  0
 25 37  1  0  0  0  0
 25 38  1  0  0  0  0
M  CHG  1  25   1
M  END
$$$$

  -OEChem-05262214473D

 54 53  0     1  0  0  0  0  0999 V2000
    2.6714    2.8829   -3.0005 C   0  0  0  0  0  0  0  0  0  0  0  0
    3.1741    2.4398   -1.9745 O   0  0  0  0  0  0  0  0  0  0  0  0
    3.5527    3.3077   -4.1279 C   0  0  0  0  0  0  0  0  0  0  0  0
    3.8407    4.3691   -4.0597 H   0  0  0  0  0  0  0  0  0  0  0  0
    4.5024    2.7495   -4.1526 H   0  0  0  0  0  0  0  0  0  0  0  0
    3.1208    3.1887   -5.1345 H   0  0  0  0  0  0  0  0  0  0  0  0
    1.3174    3.0407   -3.2467 N   0  0  0  0  0  0  0  0  0  0  0  0
    0.2944    2.6927   -2.2960 C   0  0  2  0  0  0  0  0  0  0  0  0
    0.2976    1.1783   -2.1349 C   0  0  0  0  0  0  0  0  0  0  0  0
    0.7500    0.4142   -2.9850 O   0  0  0  0  0  0  0  0  0  0  0  0
   -1.0710    3.1886   -2.7460 C   0  0  0  0  0  0  0  0  0  0  0  0
    1.0312    3.4224   -4.1464 H   0  0  0  0  0  0  0  0  0  0  0  0
    0.5725    3.1622   -1.3461 H   0  0  0  0  0  0  0  0  0  0  0  0
   -1.3666    2.7292   -3.6963 H   0  0  0  0  0  0  0  0  0  0  0  0
   -1.8434    2.9482   -2.0082 H   0  0  0  0  0  0  0  0  0  0  0  0
   -1.0632    4.2744   -2.8901 H   0  0  0  0  0  0  0  0  0  0  0  0
   -0.3037    0.7742   -0.9484 N   0  0  0  0  0  0  0  0  0  0  0  0
   -0.4352   -0.6095   -0.5718 C   0  0  2  0  0  0  0  0  0  0  0  0
   -1.7584   -1.1427   -1.1114 C   0  0  0  0  0  0  0  0  0  0  0  0
   -2.1468   -2.2928   -0.9170 O   0  0  0  0  0  0  0  0  0  0  0  0
   -0.2850   -0.8088    0.9410 C   0  0  0  0  0  0  0  0  0  0  0  0
    1.1288   -0.5361    1.4710 C   0  0  0  0  0  0  0  0  0  0  0  0
    1.2095   -0.7783    2.9800 C   0  0  0  0  0  0  0  0  0  0  0  0
    2.6064   -0.4834    3.5062 C   0  0  0  0  0  0  0  0  0  0  0  0
    2.6309   -0.7077    4.9716 N   0  3  0  0  0  0  0  0  0  0  0  0
   -0.6336    1.4811   -0.2948 H   0  0  0  0  0  0  0  0  0  0  0  0
    0.3772   -1.1384   -1.0847 H   0  0  0  0  0  0  0  0  0  0  0  0
   -0.9903   -0.1444    1.4569 H   0  0  0  0  0  0  0  0  0  0  0  0
   -0.5699   -1.8351    1.2037 H   0  0  0  0  0  0  0  0  0  0  0  0
    1.8508   -1.1862    0.9634 H   0  0  0  0  0  0  0  0  0  0  0  0
    1.4165    0.4997    1.2560 H   0  0  0  0  0  0  0  0  0  0  0  0
    0.9417   -1.8193    3.1997 H   0  0  0  0  0  0  0  0  0  0  0  0
    0.4771   -0.1430    3.4936 H   0  0  0  0  0  0  0  0  0  0  0  0
    3.3576   -1.1489    3.0706 H   0  0  0  0  0  0  0  0  0  0  0  0
    2.8959    0.5584    3.3396 H   0  0  0  0  0  0  0  0  0  0  0  0
    3.4225   -0.2200    5.4052 H   0  0  0  0  0  0  0  0  0  0  0  0
    2.7189   -1.7067    5.1887 H   0  0  0  0  0  0  0  0  0  0  0  0
    1.7697   -0.3641    5.4108 H   0  0  0  0  0  0  0  0  0  0  0  0
   -2.4705   -0.1762   -1.8070 N   0  0  0  0  0  0  0  0  0  0  0  0
   -3.7611   -0.4459   -2.3948 C   0  0  2  0  0  0  0  0  0  0  0  0
   -4.0989    0.7033   -3.3353 C   0  0  0  0  0  0  0  0  0  0  0  0
   -3.5961    1.8207   -3.2368 O   0  0  0  0  0  0  0  0  0  0  0  0
   -4.8323   -0.6075   -1.3275 C   0  0  0  0  0  0  0  0  0  0  0  0
   -2.0704    0.7521   -1.9059 H   0  0  0  0  0  0  0  0  0  0  0  0
   -3.6590   -1.3721   -2.9708 H   0  0  0  0  0  0  0  0  0  0  0  0
   -4.9489    0.3105   -0.7400 H   0  0  0  0  0  0  0  0  0  0  0  0
   -5.8049   -0.8403   -1.7735 H   0  0  0  0  0  0  0  0  0  0  0  0
   -4.5730   -1.4150   -0.6343 H   0  0  0  0  0  0  0  0  0  0  0  0
   -5.0599    0.3467   -4.2710 N   0  0  0  0  0  0  0  0  0  0  0  0
   -5.5578    1.2669   -5.2667 C   0  0  0  0  0  0  0  0  0  0  0  0
   -5.4076   -0.6074   -4.2914 H   0  0  0  0  0  0  0  0  0  0  0  0
   -6.4586    1.7693   -4.8845 H   0  0  0  0  0  0  0  0  0  0  0  0
   -4.7860    2.0181   -5.4901 H   0  0  0  0  0  0  0  0  0  0  0  0
   -5.8079    0.7140   -6.1842 H   0  0  0  0  0  0  0  0  0  0  0  0
  1  3  1  0  0  0  0
  1  7  1  0  0  0  0
  1  2  2  0  0  0  0
 40 41  1  0  0  0  0
 41 49  1  0  0  0  0
 41 42  2  0  0  0  0
  8  9  1  0  0  0  0
  9 17  1  0  0  0  0
  9 10  2  0  0  0  0
 18 19  1  0  0  0  0
 19 39  1  0  0  0  0
 19 20  2  0  0  0  0
 40 43  1  0  0  0  0
  8 11  1  0  0  0  0
 49 50  1  0  0  0  0
 22 23  1  0  0  0  0
 21 22  1  0  0  0  0
 23 24  1  0  0  0  0
 18 21  1  0  0  0  0
 24 25  1  0  0  0  0
 39 40  1  0  0  0  0
  7  8  1  0  0  0  0
 17 18  1  0  0  0  0
  3  4  1  0  0  0  0
  3  5  1  0  0  0  0
  3  6  1  0  0  0  0
 43 46  1  0  0  0  0
 43 47  1  0  0  0  0
 43 48  1  0  0  0  0
 11 14  1  0  0  0  0
 11 15  1  0  0  0  0
 11 16  1  0  0  0  0
 50 52  1  0  0  0  0
 50 53  1  0  0  0  0
 50 54  1  0  0  0  0
 22 30  1  0  0  0  0
 22 31  1  0  0  0  0
 23 32  1  0  0  0  0
 23 33  1  0  0  0  0
 21 28  1  0  0  0  0
 21 29  1  0  0  0  0
 24 34  1  0  0  0  0
 24 35  1  0  0  0  0
 40 45  1  0  0  0  0
  8 13  1  0  0  0  0
 18 27  1  0  0  0  0
 49 51  1  0  0  0  0
  7 12  1  0  0  0  0
 39 44  1  0  0  0  0
 17 26  1  0  0  0  0
 25 36  1  0  0  0  0
 25 37  1  0  0  0  0
 25 38  1  0  0  0  0
M  CHG  1  25   1
M  END
$$$$

  -OEChem-05262214473D

 54 53  0     1  0  0  0  0  0999 V2000
    2.6714    2.8829   -3.0005 C   0  0  0  0  0  0  0  0  0  0  0  0
    3.1741    2.4398   -1.9745 O   0  0  0  0  0  0  0  0  0  0  0  0
    3.5527    3.3077   -4.1279 C   0  0  0  0  0  0  0  0  0  0  0  0
    3.8407    4.3691   -4.0597 H   0  0  0  0  0  0  0  0  0  0  0  0
    4.5024    2.7495   -4.1526 H   0  0  0  0  0  0  0  0  0  0  0  0
    3.1208    3.1887   -5.1345 H   0  0  0  0  0  0  0  0  0  0  0  0
    1.3174    3.0407   -3.2467 N   0  0  0  0  0  0  0  0  0  0  0  0
    0.2944    2.6927   -2.2960 C   0  0  2  0  0  0  0  0  0  0  0  0
    0.2976    1.1783   -2.1349 C   0  0  0  0  0  0  0  0  0  0  0  0
    0.7500    0.4142   -2.9850 O   0  0  0  0  0  0  0  0  0  0  0  0
   -1.0710    3.1886   -2.7460 C   0  0  0  0  0  0  0  0  0  0  0  0
    1.0312    3.4224   -4.1464 H   0  0  0  0  0  0  0  0  0  0  0  0
    0.5725    3.1622   -1.3461 H   0  0  0  0  0  0  0  0  0  0  0  0
   -1.3666    2.7292   -3.6963 H   0  0  0  0  0  0  0  0  0  0  0  0
   -1.8434    2.9482   -2.0082 H   0  0  0  0  0  0  0  0  0  0  0  0
   -1.0632    4.2744   -2.8901 H   0  0  0  0  0  0  0  0  0  0  0  0
   -0.3037    0.7742   -0.9484 N   0  0  0  0  0  0  0  0  0  0  0  0
   -0.4352   -0.6095   -0.5718 C   0  0  2  0  0  0  0  0  0  0  0  0
   -1.7584   -1.1427   -1.1114 C   0  0  0  0  0  0  0  0  0  0  0  0
   -2.2763   -2.1823   -0.7086 O   0  0  0  0  0  0  0  0  0  0  0  0
   -0.2850   -0.8088    0.9410 C   0  0  0  0  0  0  0  0  0  0  0  0
    1.1288   -0.5361    1.4710 C   0  0  0  0  0  0  0  0  0  0  0  0
    1.2095   -0.7783    2.9800 C   0  0  0  0  0  0  0  0  0  0  0  0
    2.6064   -0.4834    3.5062 C   0  0  0  0  0  0  0  0  0  0  0  0
    2.6309   -0.7077    4.9716 N   0  3  0  0  0  0  0  0  0  0  0  0
   -0.6336    1.4811   -0.2948 H   0  0  0  0  0  0  0  0  0  0  0  0
    0.3772   -1.1384   -1.0847 H   0  0  0  0  0  0  0  0  0  0  0  0
   -0.9903   -0.1444    1.4569 H   0  0  0  0  0  0  0  0  0  0  0  0
   -0.5699   -1.8351    1.2037 H   0  0  0  0  0  0  0  0  0  0  0  0
    1.8508   -1.1862    0.9634 H   0  0  0  0  0  0  0  0  0  0  0  0
    1.4165    0.4997    1.2560 H   0  0  0  0  0  0  0  0  0  0  0  0
    0.9417   -1.8193    3.1997 H   0  0  0  0  0  0  0  0  0  0  0  0
    0.4771   -0.1430    3.4936 H   0  0  0  0  0  0  0  0  0  0  0  0
    3.3576   -1.1489    3.0706 H   0  0  0  0  0  0  0  0  0  0  0  0
    2.8959    0.5584    3.3396 H   0  0  0  0  0  0  0  0  0  0  0  0
    3.4225   -0.2200    5.4052 H   0  0  0  0  0  0  0  0  0  0  0  0
    2.7189   -1.7067    5.1887 H   0  0  0  0  0  0  0  0  0  0  0  0
    1.7697   -0.3641    5.4108 H   0  0  0  0  0  0  0  0  0  0  0  0
   -2.3104   -0.3064   -2.0711 N   0  0  0  0  0  0  0  0  0  0  0  0
   -3.5705   -0.5976   -2.7122 C   0  0  2  0  0  0  0  0  0  0  0  0
   -3.7131    0.3295   -3.9120 C   0  0  0  0  0  0  0  0  0  0  0  0
   -3.1086    1.3952   -4.0118 O   0  0  0  0  0  0  0  0  0  0  0  0
   -4.7346   -0.4233   -1.7492 C   0  0  0  0  0  0  0  0  0  0  0  0
   -1.8111    0.5390   -2.3312 H   0  0  0  0  0  0  0  0  0  0  0  0
   -3.5175   -1.6361   -3.0566 H   0  0  0  0  0  0  0  0  0  0  0  0
   -4.8037    0.6111   -1.3933 H   0  0  0  0  0  0  0  0  0  0  0  0
   -5.6870   -0.6721   -2.2289 H   0  0  0  0  0  0  0  0  0  0  0  0
   -4.6153   -1.0691   -0.8726 H   0  0  0  0  0  0  0  0  0  0  0  0
   -4.6275   -0.1524   -4.8382 N   0  0  0  0  0  0  0  0  0  0  0  0
   -4.9478    0.5529   -6.0572 C   0  0  0  0  0  0  0  0  0  0  0  0
   -5.0678   -1.0545   -4.6828 H   0  0  0  0  0  0  0  0  0  0  0  0
   -5.8204    1.2009   -5.8880 H   0  0  0  0  0  0  0  0  0  0  0  0
   -4.0880    1.1679   -6.3616 H   0  0  0  0  0  0  0  0  0  0  0  0
   -5.1786   -0.1730   -6.8508 H   0  0  0  0  0  0  0  0  0  0  0  0
  1  3  1  0  0  0  0
  1  7  1  0  0  0  0
  1  2  2  0  0  0  0
 40 41  1  0  0  0  0
 41 49  1  0  0  0  0
 41 42  2  0  0  0  0
  8  9  1  0  0  0  0
  9 17  1  0  0  0  0
  9 10  2  0  0  0  0
 18 19  1  0  0  0  0
 19 39  1  0  0  0  0
 19 20  2  0  0  0  0
 40 43  1  0  0  0  0
  8 11  1  0  0  0  0
 49 50  1  0  0  0  0
 22 23  1  0  0  0  0
 21 22  1  0  0  0  0
 23 24  1  0  0  0  0
 18 21  1  0  0  0  0
 24 25  1  0  0  0  0
 39 40  1  0  0  0  0
  7  8  1  0  0  0  0
 17 18  1  0  0  0  0
  3  4  1  0  0  0  0
  3  5  1  0  0  0  0
  3  6  1  0  0  0  0
 43 46  1  0  0  0  0
 43 47  1  0  0  0  0
 43 48  1  0  0  0  0
 11 14  1  0  0  0  0
 11 15  1  0  0  0  0
 11 16  1  0  0  0  0
 50 52  1  0  0  0  0
 50 53  1  0  0  0  0
 50 54  1  0  0  0  0
 22 30  1  0  0  0  0
 22 31  1  0  0  0  0
 23 32  1  0  0  0  0
 23 33  1  0  0  0  0
 21 28  1  0  0  0  0
 21 29  1  0  0  0  0
 24 34  1  0  0  0  0
 24 35  1  0  0  0  0
 40 45  1  0  0  0  0
  8 13  1  0  0  0  0
 18 27  1  0  0  0  0
 49 51  1  0  0  0  0
  7 12  1  0  0  0  0
 39 44  1  0  0  0  0
 17 26  1  0  0  0  0
 25 36  1  0  0  0  0
 25 37  1  0  0  0  0
 25 38  1  0  0  0  0
M  CHG  1  25   1
M  END
$$$$

  -OEChem-05262214473D

 54 53  0     1  0  0  0  0  0999 V2000
    2.6714    2.8829   -3.0005 C   0  0  0  0  0  0  0  0  0  0  0  0
    3.1741    2.4398   -1.9745 O   0  0  0  0  0  0  0  0  0  0  0  0
    3.5527    3.3077   -4.1279 C   0  0  0  0  0  0  0  0  0  0  0  0
    3.8407    4.3691   -4.0597 H   0  0  0  0  0  0  0  0  0  0  0  0
    4.5024    2.7495   -4.1526 H   0  0  0  0  0  0  0  0  0  0  0  0
    3.1208    3.1887   -5.1345 H   0  0  0  0  0  0  0  0  0  0  0  0
    1.3174    3.0407   -3.2467 N   0  0  0  0  0  0  0  0  0  0  0  0
    0.2944    2.6927   -2.2960 C   0  0  2  0  0  0  0  0  0  0  0  0
    0.2976    1.1783   -2.1349 C   0  0  0  0  0  0  0  0  0  0  0  0
    0.7500    0.4142   -2.9850 O   0  0  0  0  0  0  0  0  0  0  0  0
   -1.0710    3.1886   -2.7460 C   0  0  0  0  0  0  0  0  0  0  0  0
    1.0312    3.4224   -4.1464 H   0  0  0  0  0  0  0  0  0  0  0  0
    0.5725    3.1622   -1.3461 H   0  0  0  0  0  0  0  0  0  0  0  0
   -1.3666    2.7292   -3.6963 H   0  0  0  0  0  0  0  0  0  0  0  0
   -1.8434    2.9482   -2.0082 H   0  0  0  0  0  0  0  0  0  0  0  0
   -1.0632    4.2744   -2.8901 H   0  0  0  0  0  0  0  0  0  0  0  0
   -0.3037    0.7742   -0.9484 N   0  0  0  0  0  0  0  0  0  0  0  0
   -0.4352   -0.6095   -0.5718 C   0  0  2  0  0  0  0  0  0  0  0  0
   -1.7584   -1.1427   -1.1114 C   0  0  0  0  0  0  0  0  0  0  0  0
   -2.4101   -2.0170   -0.5438 O   0  0  0  0  0  0  0  0  0  0  0  0
   -0.2850   -0.8088    0.9410 C   0  0  0  0  0  0  0  0  0  0  0  0
    1.1288   -0.5361    1.4710 C   0  0  0  0  0  0  0  0  0  0  0  0
    1.2095   -0.7783    2.9800 C   0  0  0  0  0  0  0  0  0  0  0  0
    2.6064   -0.4834    3.5062 C   0  0  0  0  0  0  0  0  0  0  0  0
    2.6309   -0.7077    4.9716 N   0  3  0  0  0  0  0  0  0  0  0  0
   -0.6336    1.4811   -0.2948 H   0  0  0  0  0  0  0  0  0  0  0  0
    0.3772   -1.1384   -1.0847 H   0  0  0  0  0  0  0  0  0  0  0  0
   -0.9903   -0.1444    1.4569 H   0  0  0  0  0  0  0  0  0  0  0  0
   -0.5699   -1.8351    1.2037 H   0  0  0  0  0  0  0  0  0  0  0  0
    1.8508   -1.1862    0.9634 H   0  0  0  0  0  0  0  0  0  0  0  0
    1.4165    0.4997    1.2560 H   0  0  0  0  0  0  0  0  0  0  0  0
    0.9417   -1.8193    3.1997 H   0  0  0  0  0  0  0  0  0  0  0  0
    0.4771   -0.1430    3.4936 H   0  0  0  0  0  0  0  0  0  0  0  0
    3.3576   -1.1489    3.0706 H   0  0  0  0  0  0  0  0  0  0  0  0
    2.8959    0.5584    3.3396 H   0  0  0  0  0  0  0  0  0  0  0  0
    3.4225   -0.2200    5.4052 H   0  0  0  0  0  0  0  0  0  0  0  0
    2.7189   -1.7067    5.1887 H   0  0  0  0  0  0  0  0  0  0  0  0
    1.7697   -0.3641    5.4108 H   0  0  0  0  0  0  0  0  0  0  0  0
   -2.1437   -0.5061   -2.2824 N   0  0  0  0  0  0  0  0  0  0  0  0
   -3.3716   -0.8329   -2.9674 C   0  0  2  0  0  0  0  0  0  0  0  0
   -3.3225   -0.1964   -4.3502 C   0  0  0  0  0  0  0  0  0  0  0  0
   -2.6065    0.7655   -4.6208 O   0  0  0  0  0  0  0  0  0  0  0  0
   -4.5851   -0.3489   -2.1891 C   0  0  0  0  0  0  0  0  0  0  0  0
   -1.5417    0.2139   -2.6707 H   0  0  0  0  0  0  0  0  0  0  0  0
   -3.3973   -1.9235   -3.0675 H   0  0  0  0  0  0  0  0  0  0  0  0
   -4.5768    0.7416   -2.0787 H   0  0  0  0  0  0  0  0  0  0  0  0
   -5.5165   -0.6227   -2.6958 H   0  0  0  0  0  0  0  0  0  0  0  0
   -4.6028   -0.7846   -1.1843 H   0  0  0  0  0  0  0  0  0  0  0  0
   -4.2042   -0.8015   -5.2349 N   0  0  0  0  0  0  0  0  0  0  0  0
   -4.3524   -0.3701   -6.6052 C   0  0  0  0  0  0  0  0  0  0  0  0
   -4.7451   -1.6052   -4.9298 H   0  0  0  0  0  0  0  0  0  0  0  0
   -5.1651    0.3681   -6.6720 H   0  0  0  0  0  0  0  0  0  0  0  0
   -3.4129    0.0870   -6.9493 H   0  0  0  0  0  0  0  0  0  0  0  0
   -4.5918   -1.2371   -7.2385 H   0  0  0  0  0  0  0  0  0  0  0  0
  1  3  1  0  0  0  0
  1  7  1  0  0  0  0
  1  2  2  0  0  0  0
 40 41  1  0  0  0  0
 41 49  1  0  0  0  0
 41 42  2  0  0  0  0
  8  9  1  0  0  0  0
  9 17  1  0  0  0  0
  9 10  2  0  0  0  0
 18 19  1  0  0  0  0
 19 39  1  0  0  0  0
 19 20  2  0  0  0  0
 40 43  1  0  0  0  0
  8 11  1  0  0  0  0
 49 50  1  0  0  0  0
 22 23  1  0  0  0  0
 21 22  1  0  0  0  0
 23 24  1  0  0  0  0
 18 21  1  0  0  0  0
 24 25  1  0  0  0  0
 39 40  1  0  0  0  0
  7  8  1  0  0  0  0
 17 18  1  0  0  0  0
  3  4  1  0  0  0  0
  3  5  1  0  0  0  0
  3  6  1  0  0  0  0
 43 46  1  0  0  0  0
 43 47  1  0  0  0  0
 43 48  1  0  0  0  0
 11 14  1  0  0  0  0
 11 15  1  0  0  0  0
 11 16  1  0  0  0  0
 50 52  1  0  0  0  0
 50 53  1  0  0  0  0
 50 54  1  0  0  0  0
 22 30  1  0  0  0  0
 22 31  1  0  0  0  0
 23 32  1  0  0  0  0
 23 33  1  0  0  0  0
 21 28  1  0  0  0  0
 21 29  1  0  0  0  0
 24 34  1  0  0  0  0
 24 35  1  0  0  0  0
 40 45  1  0  0  0  0
  8 13  1  0  0  0  0
 18 27  1  0  0  0  0
 49 51  1  0  0  0  0
  7 12  1  0  0  0  0
 39 44  1  0  0  0  0
 17 26  1  0  0  0  0
 25 36  1  0  0  0  0
 25 37  1  0  0  0  0
 25 38  1  0  0  0  0
M  CHG  1  25   1
M  END
$$$$

  -OEChem-05262214473D

 54 53  0     1  0  0  0  0  0999 V2000
    2.6714    2.8829   -3.0005 C   0  0  0  0  0  0  0  0  0  0  0  0
    3.1741    2.4398   -1.9745 O   0  0  0  0  0  0  0  0  0  0  0  0
    3.5527    3.3077   -4.1279 C   0  0  0  0  0  0  0  0  0  0  0  0
    3.8407    4.3691   -4.0597 H   0  0  0  0  0  0  0  0  0  0  0  0
    4.5024    2.7495   -4.1526 H   0  0  0  0  0  0  0  0  0  0  0  0
    3.1208    3.1887   -5.1345 H   0  0  0  0  0  0  0  0  0  0  0  0
    1.3174    3.0407   -3.2467 N   0  0  0  0  0  0  0  0  0  0  0  0
    0.2944    2.6927   -2.2960 C   0  0  2  0  0  0  0  0  0  0  0  0
    0.2976    1.1783   -2.1349 C   0  0  0  0  0  0  0  0  0  0  0  0
    0.7500    0.4142   -2.9850 O   0  0  0  0  0  0  0  0  0  0  0  0
   -1.0710    3.1886   -2.7460 C   0  0  0  0  0  0  0  0  0  0  0  0
    1.0312    3.4224   -4.1464 H   0  0  0  0  0  0  0  0  0  0  0  0
    0.5725    3.1622   -1.3461 H   0  0  0  0  0  0  0  0  0  0  0  0
   -1.3666    2.7292   -3.6963 H   0  0  0  0  0  0  0  0  0  0  0  0
   -1.8434    2.9482   -2.0082 H   0  0  0  0  0  0  0  0  0  0  0  0
   -1.0632    4.2744   -2.8901 H   0  0  0  0  0  0  0  0  0  0  0  0
   -0.3037    0.7742   -0.9484 N   0  0  0  0  0  0  0  0  0  0  0  0
   -0.4352   -0.6095   -0.5718 C   0  0  2  0  0  0  0  0  0  0  0  0
   -1.7584   -1.1427   -1.1114 C   0  0  0  0  0  0  0  0  0  0  0  0
   -2.5392   -1.8081   -0.4338 O   0  0  0  0  0  0  0  0  0  0  0  0
   -0.2850   -0.8088    0.9410 C   0  0  0  0  0  0  0  0  0  0  0  0
    1.1288   -0.5361    1.4710 C   0  0  0  0  0  0  0  0  0  0  0  0
    1.2095   -0.7783    2.9800 C   0  0  0  0  0  0  0  0  0  0  0  0
    2.6064   -0.4834    3.5062 C   0  0  0  0  0  0  0  0  0  0  0  0
    2.6309   -0.7077    4.9716 N   0  3  0  0  0  0  0  0  0  0  0  0
   -0.6336    1.4811   -0.2948 H   0  0  0  0  0  0  0  0  0  0  0  0
    0.3772   -1.1384   -1.0847 H   0  0  0  0  0  0  0  0  0  0  0  0
   -0.9903   -0.1444    1.4569 H   0  0  0  0  0  0  0  0  0  0  0  0
   -0.5699   -1.8351    1.2037 H   0  0  0  0  0  0  0  0  0  0  0  0
    1.8508   -1.1862    0.9634 H   0  0  0  0  0  0  0  0  0  0  0  0
    1.4165    0.4997    1.2560 H   0  0  0  0  0  0  0  0  0  0  0  0
    0.9417   -1.8193    3.1997 H   0  0  0  0  0  0  0  0  0  0  0  0
    0.4771   -0.1430    3.4936 H   0  0  0  0  0  0  0  0  0  0  0  0
    3.3576   -1.1489    3.0706 H   0  0  0  0  0  0  0  0  0  0  0  0
    2.8959    0.5584    3.3396 H   0  0  0  0  0  0  0  0  0  0  0  0
    3.4225   -0.2200    5.4052 H   0  0  0  0  0  0  0  0  0  0  0  0
    2.7189   -1.7067    5.1887 H   0  0  0  0  0  0  0  0  0  0  0  0
    1.7697   -0.3641    5.4108 H   0  0  0  0  0  0  0  0  0  0  0  0
   -1.9819   -0.7617   -2.4267 N   0  0  0  0  0  0  0  0  0  0  0  0
   -3.1779   -1.1357   -3.1432 C   0  0  2  0  0  0  0  0  0  0  0  0
   -2.9537   -0.8385   -4.6200 C   0  0  0  0  0  0  0  0  0  0  0  0
   -2.1241   -0.0255   -5.0222 O   0  0  0  0  0  0  0  0  0  0  0  0
   -4.3942   -0.3896   -2.6172 C   0  0  0  0  0  0  0  0  0  0  0  0
   -1.2806   -0.2009   -2.9012 H   0  0  0  0  0  0  0  0  0  0  0  0
   -3.3066   -2.2144   -3.0026 H   0  0  0  0  0  0  0  0  0  0  0  0
   -4.2836    0.6929   -2.7494 H   0  0  0  0  0  0  0  0  0  0  0  0
   -5.3050   -0.6954   -3.1424 H   0  0  0  0  0  0  0  0  0  0  0  0
   -4.5365   -0.5809   -1.5481 H   0  0  0  0  0  0  0  0  0  0  0  0
   -3.8188   -1.5563   -5.4340 N   0  0  0  0  0  0  0  0  0  0  0  0
   -3.8122   -1.4392   -6.8735 C   0  0  0  0  0  0  0  0  0  0  0  0
   -4.4616   -2.2223   -5.0156 H   0  0  0  0  0  0  0  0  0  0  0  0
   -4.5375   -0.6723   -7.1829 H   0  0  0  0  0  0  0  0  0  0  0  0
   -2.8065   -1.1508   -7.2132 H   0  0  0  0  0  0  0  0  0  0  0  0
   -4.0872   -2.4057   -7.3211 H   0  0  0  0  0  0  0  0  0  0  0  0
  1  3  1  0  0  0  0
  1  7  1  0  0  0  0
  1  2  2  0  0  0  0
 40 41  1  0  0  0  0
 41 49  1  0  0  0  0
 41 42  2  0  0  0  0
  8  9  1  0  0  0  0
  9 17  1  0  0  0  0
  9 10  2  0  0  0  0
 18 19  1  0  0  0  0
 19 39  1  0  0  0  0
 19 20  2  0  0  0  0
 40 43  1  0  0  0  0
  8 11  1  0  0  0  0
 49 50  1  0  0  0  0
 22 23  1  0  0  0  0
 21 22  1  0  0  0  0
 23 24  1  0  0  0  0
 18 21  1  0  0  0  0
 24 25  1  0  0  0  0
 39 40  1  0  0  0  0
  7  8  1  0  0  0  0
 17 18  1  0  0  0  0
  3  4  1  0  0  0  0
  3  5  1  0  0  0  0
  3  6  1  0  0  0  0
 43 46  1  0  0  0  0
 43 47  1  0  0  0  0
 43 48  1  0  0  0  0
 11 14  1  0  0  0  0
 11 15  1  0  0  0  0
 11 16  1  0  0  0  0
 50 52  1  0  0  0  0
 50 53  1  0  0  0  0
 50 54  1  0  0  0  0
 22 30  1  0  0  0  0
 22 31  1  0  0  0  0
 23 32  1  0  0  0  0
 23 33  1  0  0  0  0
 21 28  1  0  0  0  0
 21 29  1  0  0  0  0
 24 34  1  0  0  0  0
 24 35  1  0  0  0  0
 40 45  1  0  0  0  0
  8 13  1  0  0  0  0
 18 27  1  0  0  0  0
 49 51  1  0  0  0  0
  7 12  1  0  0  0  0
 39 44  1  0  0  0  0
 17 26  1  0  0  0  0
 25 36  1  0  0  0  0
 25 37  1  0  0  0  0
 25 38  1  0  0  0  0
M  CHG  1  25   1
M  END
$$$$

  -OEChem-05262214473D

 54 53  0     1  0  0  0  0  0999 V2000
    2.6714    2.8829   -3.0005 C   0  0  0  0  0  0  0  0  0  0  0  0
    3.1741    2.4398   -1.9745 O   0  0  0  0  0  0  0  0  0  0  0  0
    3.5527    3.3077   -4.1279 C   0  0  0  0  0  0  0  0  0  0  0  0
    3.8407    4.3691   -4.0597 H   0  0  0  0  0  0  0  0  0  0  0  0
    4.5024    2.7495   -4.1526 H   0  0  0  0  0  0  0  0  0  0  0  0
    3.1208    3.1887   -5.1345 H   0  0  0  0  0  0  0  0  0  0  0  0
    1.3174    3.0407   -3.2467 N   0  0  0  0  0  0  0  0  0  0  0  0
    0.2944    2.6927   -2.2960 C   0  0  2  0  0  0  0  0  0  0  0  0
    0.2976    1.1783   -2.1349 C   0  0  0  0  0  0  0  0  0  0  0  0
    0.7500    0.4142   -2.9850 O   0  0  0  0  0  0  0  0  0  0  0  0
   -1.0710    3.1886   -2.7460 C   0  0  0  0  0  0  0  0  0  0  0  0
    1.0312    3.4224   -4.1464 H   0  0  0  0  0  0  0  0  0  0  0  0
    0.5725    3.1622   -1.3461 H   0  0  0  0  0  0  0  0  0  0  0  0
   -1.3666    2.7292   -3.6963 H   0  0  0  0  0  0  0  0  0  0  0  0
   -1.8434    2.9482   -2.0082 H   0  0  0  0  0  0  0  0  0  0  0  0
   -1.0632    4.2744   -2.8901 H   0  0  0  0  0  0  0  0  0  0  0  0
   -0.3037    0.7742   -0.9484 N   0  0  0  0  0  0  0  0  0  0  0  0
   -0.4352   -0.6095   -0.5718 C   0  0  2  0  0  0  0  0  0  0  0  0
   -1.7584   -1.1427   -1.1114 C   0  0  0  0  0  0  0  0  0  0  0  0
   -2.6546   -1.5698   -0.3862 O   0  0  0  0  0  0  0  0  0  0  0  0
   -0.2850   -0.8088    0.9410 C   0  0  0  0  0  0  0  0  0  0  0  0
    1.1288   -0.5361    1.4710 C   0  0  0  0  0  0  0  0  0  0  0  0
    1.2095   -0.7783    2.9800 C   0  0  0  0  0  0  0  0  0  0  0  0
    2.6064   -0.4834    3.5062 C   0  0  0  0  0  0  0  0  0  0  0  0
    2.6309   -0.7077    4.9716 N   0  3  0  0  0  0  0  0  0  0  0  0
   -0.6336    1.4811   -0.2948 H   0  0  0  0  0  0  0  0  0  0  0  0
    0.3772   -1.1384   -1.0847 H   0  0  0  0  0  0  0  0  0  0  0  0
   -0.9903   -0.1444    1.4569 H   0  0  0  0  0  0  0  0  0  0  0  0
   -0.5699   -1.8351    1.2037 H   0  0  0  0  0  0  0  0  0  0  0  0
    1.8508   -1.1862    0.9634 H   0  0  0  0  0  0  0  0  0  0  0  0
    1.4165    0.4997    1.2560 H   0  0  0  0  0  0  0  0  0  0  0  0
    0.9417   -1.8193    3.1997 H   0  0  0  0  0  0  0  0  0  0  0  0
    0.4771   -0.1430    3.4936 H   0  0  0  0  0  0  0  0  0  0  0  0
    3.3576   -1.1489    3.0706 H   0  0  0  0  0  0  0  0  0  0  0  0
    2.8959    0.5584    3.3396 H   0  0  0  0  0  0  0  0  0  0  0  0
    3.4225   -0.2200    5.4052 H   0  0  0  0  0  0  0  0  0  0  0  0
    2.7189   -1.7067    5.1887 H   0  0  0  0  0  0  0  0  0  0  0  0
    1.7697   -0.3641    5.4108 H   0  0  0  0  0  0  0  0  0  0  0  0
   -1.8360   -1.0558   -2.4939 N   0  0  0  0  0  0  0  0  0  0  0  0
   -3.0027   -1.4854   -3.2274 C   0  0  2  0  0  0  0  0  0  0  0  0
   -2.6319   -1.5531   -4.7030 C   0  0  0  0  0  0  0  0  0  0  0  0
   -1.6942   -0.9238   -5.1887 O   0  0  0  0  0  0  0  0  0  0  0  0
   -4.1748   -0.5425   -3.0042 C   0  0  0  0  0  0  0  0  0  0  0  0
   -1.0454   -0.6773   -3.0071 H   0  0  0  0  0  0  0  0  0  0  0  0
   -3.2514   -2.4892   -2.8663 H   0  0  0  0  0  0  0  0  0  0  0  0
   -3.9442    0.4684   -3.3599 H   0  0  0  0  0  0  0  0  0  0  0  0
   -5.0671   -0.8853   -3.5384 H   0  0  0  0  0  0  0  0  0  0  0  0
   -4.4209   -0.4720   -1.9392 H   0  0  0  0  0  0  0  0  0  0  0  0
   -3.4977   -2.3653   -5.4220 N   0  0  0  0  0  0  0  0  0  0  0  0
   -3.3640   -2.5816   -6.8437 C   0  0  0  0  0  0  0  0  0  0  0  0
   -4.2364   -2.8635   -4.9342 H   0  0  0  0  0  0  0  0  0  0  0  0
   -3.9803   -1.8495   -7.3861 H   0  0  0  0  0  0  0  0  0  0  0  0
   -2.3102   -2.4612   -7.1353 H   0  0  0  0  0  0  0  0  0  0  0  0
   -3.6994   -3.5992   -7.0928 H   0  0  0  0  0  0  0  0  0  0  0  0
  1  3  1  0  0  0  0
  1  7  1  0  0  0  0
  1  2  2  0  0  0  0
 40 41  1  0  0  0  0
 41 49  1  0  0  0  0
 41 42  2  0  0  0  0
  8  9  1  0  0  0  0
  9 17  1  0  0  0  0
  9 10  2  0  0  0  0
 18 19  1  0  0  0  0
 19 39  1  0  0  0  0
 19 20  2  0  0  0  0
 40 43  1  0  0  0  0
  8 11  1  0  0  0  0
 49 50  1  0  0  0  0
 22 23  1  0  0  0  0
 21 22  1  0  0  0  0
 23 24  1  0  0  0  0
 18 21  1  0  0  0  0
 24 25  1  0  0  0  0
 39 40  1  0  0  0  0
  7  8  1  0  0  0  0
 17 18  1  0  0  0  0
  3  4  1  0  0  0  0
  3  5  1  0  0  0  0
  3  6  1  0  0  0  0
 43 46  1  0  0  0  0
 43 47  1  0  0  0  0
 43 48  1  0  0  0  0
 11 14  1  0  0  0  0
 11 15  1  0  0  0  0
 11 16  1  0  0  0  0
 50 52  1  0  0  0  0
 50 53  1  0  0  0  0
 50 54  1  0  0  0  0
 22 30  1  0  0  0  0
 22 31  1  0  0  0  0
 23 32  1  0  0  0  0
 23 33  1  0  0  0  0
 21 28  1  0  0  0  0
 21 29  1  0  0  0  0
 24 34  1  0  0  0  0
 24 35  1  0  0  0  0
 40 45  1  0  0  0  0
  8 13  1  0  0  0  0
 18 27  1  0  0  0  0
 49 51  1  0  0  0  0
  7 12  1  0  0  0  0
 39 44  1  0  0  0  0
 17 26  1  0  0  0  0
 25 36  1  0  0  0  0
 25 37  1  0  0  0  0
 25 38  1  0  0  0  0
M  CHG  1  25   1
M  END
$$$$

  -OEChem-05262214473D

 54 53  0     1  0  0  0  0  0999 V2000
    2.6714    2.8829   -3.0005 C   0  0  0  0  0  0  0  0  0  0  0  0
    3.1741    2.4398   -1.9745 O   0  0  0  0  0  0  0  0  0  0  0  0
    3.5527    3.3077   -4.1279 C   0  0  0  0  0  0  0  0  0  0  0  0
    3.8407    4.3691   -4.0597 H   0  0  0  0  0  0  0  0  0  0  0  0
    4.5024    2.7495   -4.1526 H   0  0  0  0  0  0  0  0  0  0  0  0
    3.1208    3.1887   -5.1345 H   0  0  0  0  0  0  0  0  0  0  0  0
    1.3174    3.0407   -3.2467 N   0  0  0  0  0  0  0  0  0  0  0  0
    0.2944    2.6927   -2.2960 C   0  0  2  0  0  0  0  0  0  0  0  0
    0.2976    1.1783   -2.1349 C   0  0  0  0  0  0  0  0  0  0  0  0
    0.7500    0.4142   -2.9850 O   0  0  0  0  0  0  0  0  0  0  0  0
   -1.0710    3.1886   -2.7460 C   0  0  0  0  0  0  0  0  0  0  0  0
    1.0312    3.4224   -4.1464 H   0  0  0  0  0  0  0  0  0  0  0  0
    0.5725    3.1622   -1.3461 H   0  0  0  0  0  0  0  0  0  0  0  0
   -1.3666    2.7292   -3.6963 H   0  0  0  0  0  0  0  0  0  0  0  0
   -1.8434    2.9482   -2.0082 H   0  0  0  0  0  0  0  0  0  0  0  0
   -1.0632    4.2744   -2.8901 H   0  0  0  0  0  0  0  0  0  0  0  0
   -0.3037    0.7742   -0.9484 N   0  0  0  0  0  0  0  0  0  0  0  0
   -0.4352   -0.6095   -0.5718 C   0  0  2  0  0  0  0  0  0  0  0  0
   -1.7584   -1.1427   -1.1114 C   0  0  0  0  0  0  0  0  0  0  0  0
   -2.7486   -1.3183   -0.4042 O   0  0  0  0  0  0  0  0  0  0  0  0
   -0.2850   -0.8088    0.9410 C   0  0  0  0  0  0  0  0  0  0  0  0
    1.1288   -0.5361    1.4710 C   0  0  0  0  0  0  0  0  0  0  0  0
    1.2095   -0.7783    2.9800 C   0  0  0  0  0  0  0  0  0  0  0  0
    2.6064   -0.4834    3.5062 C   0  0  0  0  0  0  0  0  0  0  0  0
    2.6309   -0.7077    4.9716 N   0  3  0  0  0  0  0  0  0  0  0  0
   -0.6336    1.4811   -0.2948 H   0  0  0  0  0  0  0  0  0  0  0  0
    0.3772   -1.1384   -1.0847 H   0  0  0  0  0  0  0  0  0  0  0  0
   -0.9903   -0.1444    1.4569 H   0  0  0  0  0  0  0  0  0  0  0  0
   -0.5699   -1.8351    1.2037 H   0  0  0  0  0  0  0  0  0  0  0  0
    1.8508   -1.1862    0.9634 H   0  0  0  0  0  0  0  0  0  0  0  0
    1.4165    0.4997    1.2560 H   0  0  0  0  0  0  0  0  0  0  0  0
    0.9417   -1.8193    3.1997 H   0  0  0  0  0  0  0  0  0  0  0  0
    0.4771   -0.1430    3.4936 H   0  0  0  0  0  0  0  0  0  0  0  0
    3.3576   -1.1489    3.0706 H   0  0  0  0  0  0  0  0  0  0  0  0
    2.8959    0.5584    3.3396 H   0  0  0  0  0  0  0  0  0  0  0  0
    3.4225   -0.2200    5.4052 H   0  0  0  0  0  0  0  0  0  0  0  0
    2.7189   -1.7067    5.1887 H   0  0  0  0  0  0  0  0  0  0  0  0
    1.7697   -0.3641    5.4108 H   0  0  0  0  0  0  0  0  0  0  0  0
   -1.7158   -1.3684   -2.4797 N   0  0  0  0  0  0  0  0  0  0  0  0
   -2.8578   -1.8581   -3.2144 C   0  0  2  0  0  0  0  0  0  0  0  0
   -2.3790   -2.2915   -4.5937 C   0  0  0  0  0  0  0  0  0  0  0  0
   -1.3462   -1.8682   -5.1089 O   0  0  0  0  0  0  0  0  0  0  0  0
   -3.9418   -0.7971   -3.3239 C   0  0  0  0  0  0  0  0  0  0  0  0
   -0.8523   -1.1828   -2.9812 H   0  0  0  0  0  0  0  0  0  0  0  0
   -3.2356   -2.7291   -2.6680 H   0  0  0  0  0  0  0  0  0  0  0  0
   -3.5817    0.0834   -3.8685 H   0  0  0  0  0  0  0  0  0  0  0  0
   -4.8187   -1.1794   -3.8567 H   0  0  0  0  0  0  0  0  0  0  0  0
   -4.2639   -0.4651   -2.3311 H   0  0  0  0  0  0  0  0  0  0  0  0
   -3.2627   -3.1735   -5.1996 N   0  0  0  0  0  0  0  0  0  0  0  0
   -3.0384   -3.7194   -6.5178 C   0  0  0  0  0  0  0  0  0  0  0  0
   -4.0849   -3.4852   -4.6912 H   0  0  0  0  0  0  0  0  0  0  0  0
   -3.5315   -3.0832   -7.2675 H   0  0  0  0  0  0  0  0  0  0  0  0
   -1.9579   -3.7549   -6.7209 H   0  0  0  0  0  0  0  0  0  0  0  0
   -3.4547   -4.7363   -6.5691 H   0  0  0  0  0  0  0  0  0  0  0  0
  1  3  1  0  0  0  0
  1  7  1  0  0  0  0
  1  2  2  0  0  0  0
 40 41  1  0  0  0  0
 41 49  1  0  0  0  0
 41 42  2  0  0  0  0
  8  9  1  0  0  0  0
  9 17  1  0  0  0  0
  9 10  2  0  0  0  0
 18 19  1  0  0  0  0
 19 39  1  0  0  0  0
 19 20  2  0  0  0  0
 40 43  1  0  0  0  0
  8 11  1  0  0  0  0
 49 50  1  0  0  0  0
 22 23  1  0  0  0  0
 21 22  1  0  0  0  0
 23 24  1  0  0  0  0
 18 21  1  0  0  0  0
 24 25  1  0  0  0  0
 39 40  1  0  0  0  0
  7  8  1  0  0  0  0
 17 18  1  0  0  0  0
  3  4  1  0  0  0  0
  3  5  1  0  0  0  0
  3  6  1  0  0  0  0
 43 46  1  0  0  0  0
 43 47  1  0  0  0  0
 43 48  1  0  0  0  0
 11 14  1  0  0  0  0
 11 15  1  0  0  0  0
 11 16  1  0  0  0  0
 50 52  1  0  0  0  0
 50 53  1  0  0  0  0
 50 54  1  0  0  0  0
 22 30  1  0  0  0  0
 22 31  1  0  0  0  0
 23 32  1  0  0  0  0
 23 33  1  0  0  0  0
 21 28  1  0  0  0  0
 21 29  1  0  0  0  0
 24 34  1  0  0  0  0
 24 35  1  0  0  0  0
 40 45  1  0  0  0  0
  8 13  1  0  0  0  0
 18 27  1  0  0  0  0
 49 51  1  0  0  0  0
  7 12  1  0  0  0  0
 39 44  1  0  0  0  0
 17 26  1  0  0  0  0
 25 36  1  0  0  0  0
 25 37  1  0  0  0  0
 25 38  1  0  0  0  0
M  CHG  1  25   1
M  END
$$$$

  -OEChem-05262214473D

 54 53  0     1  0  0  0  0  0999 V2000
    2.6714    2.8829   -3.0005 C   0  0  0  0  0  0  0  0  0  0  0  0
    3.1741    2.4398   -1.9745 O   0  0  0  0  0  0  0  0  0  0  0  0
    3.5527    3.3077   -4.1279 C   0  0  0  0  0  0  0  0  0  0  0  0
    3.8407    4.3691   -4.0597 H   0  0  0  0  0  0  0  0  0  0  0  0
    4.5024    2.7495   -4.1526 H   0  0  0  0  0  0  0  0  0  0  0  0
    3.1208    3.1887   -5.1345 H   0  0  0  0  0  0  0  0  0  0  0  0
    1.3174    3.0407   -3.2467 N   0  0  0  0  0  0  0  0  0  0  0  0
    0.2944    2.6927   -2.2960 C   0  0  2  0  0  0  0  0  0  0  0  0
    0.2976    1.1783   -2.1349 C   0  0  0  0  0  0  0  0  0  0  0  0
    0.7500    0.4142   -2.9850 O   0  0  0  0  0  0  0  0  0  0  0  0
   -1.0710    3.1886   -2.7460 C   0  0  0  0  0  0  0  0  0  0  0  0
    1.0312    3.4224   -4.1464 H   0  0  0  0  0  0  0  0  0  0  0  0
    0.5725    3.1622   -1.3461 H   0  0  0  0  0  0  0  0  0  0  0  0
   -1.3666    2.7292   -3.6963 H   0  0  0  0  0  0  0  0  0  0  0  0
   -1.8434    2.9482   -2.0082 H   0  0  0  0  0  0  0  0  0  0  0  0
   -1.0632    4.2744   -2.8901 H   0  0  0  0  0  0  0  0  0  0  0  0
   -0.3037    0.7742   -0.9484 N   0  0  0  0  0  0  0  0  0  0  0  0
   -0.4352   -0.6095   -0.5718 C   0  0  2  0  0  0  0  0  0  0  0  0
   -1.7584   -1.1427   -1.1114 C   0  0  0  0  0  0  0  0  0  0  0  0
   -2.8147   -1.0708   -0.4865 O   0  0  0  0  0  0  0  0  0  0  0  0
   -0.2850   -0.8088    0.9410 C   0  0  0  0  0  0  0  0  0  0  0  0
    1.1288   -0.5361    1.4710 C   0  0  0  0  0  0  0  0  0  0  0  0
    1.2095   -0.7783    2.9800 C   0  0  0  0  0  0  0  0  0  0  0  0
    2.6064   -0.4834    3.5062 C   0  0  0  0  0  0  0  0  0  0  0  0
    2.6309   -0.7077    4.9716 N   0  3  0  0  0  0  0  0  0  0  0  0
   -0.6336    1.4811   -0.2948 H   0  0  0  0  0  0  0  0  0  0  0  0
    0.3772   -1.1384   -1.0847 H   0  0  0  0  0  0  0  0  0  0  0  0
   -0.9903   -0.1444    1.4569 H   0  0  0  0  0  0  0  0  0  0  0  0
   -0.5699   -1.8351    1.2037 H   0  0  0  0  0  0  0  0  0  0  0  0
    1.8508   -1.1862    0.9634 H   0  0  0  0  0  0  0  0  0  0  0  0
    1.4165    0.4997    1.2560 H   0  0  0  0  0  0  0  0  0  0  0  0
    0.9417   -1.8193    3.1997 H   0  0  0  0  0  0  0  0  0  0  0  0
    0.4771   -0.1430    3.4936 H   0  0  0  0  0  0  0  0  0  0  0  0
    3.3576   -1.1489    3.0706 H   0  0  0  0  0  0  0  0  0  0  0  0
    2.8959    0.5584    3.3396 H   0  0  0  0  0  0  0  0  0  0  0  0
    3.4225   -0.2200    5.4052 H   0  0  0  0  0  0  0  0  0  0  0  0
    2.7189   -1.7067    5.1887 H   0  0  0  0  0  0  0  0  0  0  0  0
    1.7697   -0.3641    5.4108 H   0  0  0  0  0  0  0  0  0  0  0  0
   -1.6297   -1.6781   -2.3849 N   0  0  0  0  0  0  0  0  0  0  0  0
   -2.7531   -2.2285   -3.1051 C   0  0  2  0  0  0  0  0  0  0  0  0
   -2.2121   -3.0033   -4.2994 C   0  0  0  0  0  0  0  0  0  0  0  0
   -1.1037   -2.7944   -4.7882 O   0  0  0  0  0  0  0  0  0  0  0  0
   -3.7111   -1.1362   -3.5545 C   0  0  0  0  0  0  0  0  0  0  0  0
   -0.7144   -1.6829   -2.8251 H   0  0  0  0  0  0  0  0  0  0  0  0
   -3.2602   -2.9177   -2.4212 H   0  0  0  0  0  0  0  0  0  0  0  0
   -3.2208   -0.4358   -4.2404 H   0  0  0  0  0  0  0  0  0  0  0  0
   -4.5770   -1.5577   -4.0757 H   0  0  0  0  0  0  0  0  0  0  0  0
   -4.0761   -0.5609   -2.6969 H   0  0  0  0  0  0  0  0  0  0  0  0
   -3.1298   -3.9258   -4.7822 N   0  0  0  0  0  0  0  0  0  0  0  0
   -2.8576   -4.7751   -5.9181 C   0  0  0  0  0  0  0  0  0  0  0  0
   -4.0176   -4.0450   -4.3032 H   0  0  0  0  0  0  0  0  0  0  0  0
   -3.2217   -4.2894   -6.8354 H   0  0  0  0  0  0  0  0  0  0  0  0
   -1.7735   -4.9438   -5.9982 H   0  0  0  0  0  0  0  0  0  0  0  0
   -3.3699   -5.7395   -5.7859 H   0  0  0  0  0  0  0  0  0  0  0  0
  1  3  1  0  0  0  0
  1  7  1  0  0  0  0
  1  2  2  0  0  0  0
 40 41  1  0  0  0  0
 41 49  1  0  0  0  0
 41 42  2  0  0  0  0
  8  9  1  0  0  0  0
  9 17  1  0  0  0  0
  9 10  2  0  0  0  0
 18 19  1  0  0  0  0
 19 39  1  0  0  0  0
 19 20  2  0  0  0  0
 40 43  1  0  0  0  0
  8 11  1  0  0  0  0
 49 50  1  0  0  0  0
 22 23  1  0  0  0  0
 21 22  1  0  0  0  0
 23 24  1  0  0  0  0
 18 21  1  0  0  0  0
 24 25  1  0  0  0  0
 39 40  1  0  0  0  0
  7  8  1  0  0  0  0
 17 18  1  0  0  0  0
  3  4  1  0  0  0  0
  3  5  1  0  0  0  0
  3  6  1  0  0  0  0
 43 46  1  0  0  0  0
 43 47  1  0  0  0  0
 43 48  1  0  0  0  0
 11 14  1  0  0  0  0
 11 15  1  0  0  0  0
 11 16  1  0  0  0  0
 50 52  1  0  0  0  0
 50 53  1  0  0  0  0
 50 54  1  0  0  0  0
 22 30  1  0  0  0  0
 22 31  1  0  0  0  0
 23 32  1  0  0  0  0
 23 33  1  0  0  0  0
 21 28  1  0  0  0  0
 21 29  1  0  0  0  0
 24 34  1  0  0  0  0
 24 35  1  0  0  0  0
 40 45  1  0  0  0  0
  8 13  1  0  0  0  0
 18 27  1  0  0  0  0
 49 51  1  0  0  0  0
  7 12  1  0  0  0  0
 39 44  1  0  0  0  0
 17 26  1  0  0  0  0
 25 36  1  0  0  0  0
 25 37  1  0  0  0  0
 25 38  1  0  0  0  0
M  CHG  1  25   1
M  END
$$$$

  -OEChem-05262214473D

 54 53  0     1  0  0  0  0  0999 V2000
    2.6714    2.8829   -3.0005 C   0  0  0  0  0  0  0  0  0  0  0  0
    3.1741    2.4398   -1.9745 O   0  0  0  0  0  0  0  0  0  0  0  0
    3.5527    3.3077   -4.1279 C   0  0  0  0  0  0  0  0  0  0  0  0
    3.8407    4.3691   -4.0597 H   0  0  0  0  0  0  0  0  0  0  0  0
    4.5024    2.7495   -4.1526 H   0  0  0  0  0  0  0  0  0  0  0  0
    3.1208    3.1887   -5.1345 H   0  0  0  0  0  0  0  0  0  0  0  0
    1.3174    3.0407   -3.2467 N   0  0  0  0  0  0  0  0  0  0  0  0
    0.2944    2.6927   -2.2960 C   0  0  2  0  0  0  0  0  0  0  0  0
    0.2976    1.1783   -2.1349 C   0  0  0  0  0  0  0  0  0  0  0  0
    0.7500    0.4142   -2.9850 O   0  0  0  0  0  0  0  0  0  0  0  0
   -1.0710    3.1886   -2.7460 C   0  0  0  0  0  0  0  0  0  0  0  0
    1.0312    3.4224   -4.1464 H   0  0  0  0  0  0  0  0  0  0  0  0
    0.5725    3.1622   -1.3461 H   0  0  0  0  0  0  0  0  0  0  0  0
   -1.3666    2.7292   -3.6963 H   0  0  0  0  0  0  0  0  0  0  0  0
   -1.8434    2.9482   -2.0082 H   0  0  0  0  0  0  0  0  0  0  0  0
   -1.0632    4.2744   -2.8901 H   0  0  0  0  0  0  0  0  0  0  0  0
   -0.3037    0.7742   -0.9484 N   0  0  0  0  0  0  0  0  0  0  0  0
   -0.4352   -0.6095   -0.5718 C   0  0  2  0  0  0  0  0  0  0  0  0
   -1.7584   -1.1427   -1.1114 C   0  0  0  0  0  0  0  0  0  0  0  0
   -2.8485   -0.8442   -0.6276 O   0  0  0  0  0  0  0  0  0  0  0  0
   -0.2850   -0.8088    0.9410 C   0  0  0  0  0  0  0  0  0  0  0  0
    1.1288   -0.5361    1.4710 C   0  0  0  0  0  0  0  0  0  0  0  0
    1.2095   -0.7783    2.9800 C   0  0  0  0  0  0  0  0  0  0  0  0
    2.6064   -0.4834    3.5062 C   0  0  0  0  0  0  0  0  0  0  0  0
    2.6309   -0.7077    4.9716 N   0  3  0  0  0  0  0  0  0  0  0  0
   -0.6336    1.4811   -0.2948 H   0  0  0  0  0  0  0  0  0  0  0  0
    0.3772   -1.1384   -1.0847 H   0  0  0  0  0  0  0  0  0  0  0  0
   -0.9903   -0.1444    1.4569 H   0  0  0  0  0  0  0  0  0  0  0  0
   -0.5699   -1.8351    1.2037 H   0  0  0  0  0  0  0  0  0  0  0  0
    1.8508   -1.1862    0.9634 H   0  0  0  0  0  0  0  0  0  0  0  0
    1.4165    0.4997    1.2560 H   0  0  0  0  0  0  0  0  0  0  0  0
    0.9417   -1.8193    3.1997 H   0  0  0  0  0  0  0  0  0  0  0  0
    0.4771   -0.1430    3.4936 H   0  0  0  0  0  0  0  0  0  0  0  0
    3.3576   -1.1489    3.0706 H   0  0  0  0  0  0  0  0  0  0  0  0
    2.8959    0.5584    3.3396 H   0  0  0  0  0  0  0  0  0  0  0  0
    3.4225   -0.2200    5.4052 H   0  0  0  0  0  0  0  0  0  0  0  0
    2.7189   -1.7067    5.1887 H   0  0  0  0  0  0  0  0  0  0  0  0
    1.7697   -0.3641    5.4108 H   0  0  0  0  0  0  0  0  0  0  0  0
   -1.5835   -1.9638   -2.2160 N   0  0  0  0  0  0  0  0  0  0  0  0
   -2.6958   -2.5712   -2.9068 C   0  0  2  0  0  0  0  0  0  0  0  0
   -2.1428   -3.6400   -3.8403 C   0  0  0  0  0  0  0  0  0  0  0  0
   -0.9834   -3.6393   -4.2486 O   0  0  0  0  0  0  0  0  0  0  0  0
   -3.4985   -1.5367   -3.6802 C   0  0  0  0  0  0  0  0  0  0  0  0
   -0.6411   -2.1436   -2.5496 H   0  0  0  0  0  0  0  0  0  0  0  0
   -3.3237   -3.0423   -2.1426 H   0  0  0  0  0  0  0  0  0  0  0  0
   -2.8861   -1.0540   -4.4505 H   0  0  0  0  0  0  0  0  0  0  0  0
   -4.3583   -1.9944   -4.1804 H   0  0  0  0  0  0  0  0  0  0  0  0
   -3.8705   -0.7527   -3.0117 H   0  0  0  0  0  0  0  0  0  0  0  0
   -3.1081   -4.5708   -4.1980 N   0  0  0  0  0  0  0  0  0  0  0  0
   -2.8338   -5.6767   -5.0855 C   0  0  0  0  0  0  0  0  0  0  0  0
   -4.0389   -4.5048   -3.7966 H   0  0  0  0  0  0  0  0  0  0  0  0
   -3.0720   -5.3858   -6.1192 H   0  0  0  0  0  0  0  0  0  0  0  0
   -1.7697   -5.9467   -5.0166 H   0  0  0  0  0  0  0  0  0  0  0  0
   -3.4507   -6.5404   -4.7964 H   0  0  0  0  0  0  0  0  0  0  0  0
  1  3  1  0  0  0  0
  1  7  1  0  0  0  0
  1  2  2  0  0  0  0
 40 41  1  0  0  0  0
 41 49  1  0  0  0  0
 41 42  2  0  0  0  0
  8  9  1  0  0  0  0
  9 17  1  0  0  0  0
  9 10  2  0  0  0  0
 18 19  1  0  0  0  0
 19 39  1  0  0  0  0
 19 20  2  0  0  0  0
 40 43  1  0  0  0  0
  8 11  1  0  0  0  0
 49 50  1  0  0  0  0
 22 23  1  0  0  0  0
 21 22  1  0  0  0  0
 23 24  1  0  0  0  0
 18 21  1  0  0  0  0
 24 25  1  0  0  0  0
 39 40  1  0  0  0  0
  7  8  1  0  0  0  0
 17 18  1  0  0  0  0
  3  4  1  0  0  0  0
  3  5  1  0  0  0  0
  3  6  1  0  0  0  0
 43 46  1  0  0  0  0
 43 47  1  0  0  0  0
 43 48  1  0  0  0  0
 11 14  1  0  0  0  0
 11 15  1  0  0  0  0
 11 16  1  0  0  0  0
 50 52  1  0  0  0  0
 50 53  1  0  0  0  0
 50 54  1  0  0  0  0
 22 30  1  0  0  0  0
 22 31  1  0  0  0  0
 23 32  1  0  0  0  0
 23 33  1  0  0  0  0
 21 28  1  0  0  0  0
 21 29  1  0  0  0  0
 24 34  1  0  0  0  0
 24 35  1  0  0  0  0
 40 45  1  0  0  0  0
  8 13  1  0  0  0  0
 18 27  1  0  0  0  0
 49 51  1  0  0  0  0
  7 12  1  0  0  0  0
 39 44  1  0  0  0  0
 17 26  1  0  0  0  0
 25 36  1  0  0  0  0
 25 37  1  0  0  0  0
 25 38  1  0  0  0  0
M  CHG  1  25   1
M  END
$$$$

  -OEChem-05262214473D

 54 53  0     1  0  0  0  0  0999 V2000
    2.6714    2.8829   -3.0005 C   0  0  0  0  0  0  0  0  0  0  0  0
    3.1741    2.4398   -1.9745 O   0  0  0  0  0  0  0  0  0  0  0  0
    3.5527    3.3077   -4.1279 C   0  0  0  0  0  0  0  0  0  0  0  0
    3.8407    4.3691   -4.0597 H   0  0  0  0  0  0  0  0  0  0  0  0
    4.5024    2.7495   -4.1526 H   0  0  0  0  0  0  0  0  0  0  0  0
    3.1208    3.1887   -5.1345 H   0  0  0  0  0  0  0  0  0  0  0  0
    1.3174    3.0407   -3.2467 N   0  0  0  0  0  0  0  0  0  0  0  0
    0.2944    2.6927   -2.2960 C   0  0  2  0  0  0  0  0  0  0  0  0
    0.2976    1.1783   -2.1349 C   0  0  0  0  0  0  0  0  0  0  0  0
    0.7500    0.4142   -2.9850 O   0  0  0  0  0  0  0  0  0  0  0  0
   -1.0710    3.1886   -2.7460 C   0  0  0  0  0  0  0  0  0  0  0  0
    1.0312    3.4224   -4.1464 H   0  0  0  0  0  0  0  0  0  0  0  0
    0.5725    3.1622   -1.3461 H   0  0  0  0  0  0  0  0  0  0  0  0
   -1.3666    2.7292   -3.6963 H   0  0  0  0  0  0  0  0  0  0  0  0
   -1.8434    2.9482   -2.0082 H   0  0  0  0  0  0  0  0  0  0  0  0
   -1.0632    4.2744   -2.8901 H   0  0  0  0  0  0  0  0  0  0  0  0
   -0.3037    0.7742   -0.9484 N   0  0  0  0  0  0  0  0  0  0  0  0
   -0.4352   -0.6095   -0.5718 C   0  0  2  0  0  0  0  0  0  0  0  0
   -1.7584   -1.1427   -1.1114 C   0  0  0  0  0  0  0  0  0  0  0  0
   -2.8476   -0.6539   -0.8178 O   0  0  0  0  0  0  0  0  0  0  0  0
   -0.2850   -0.8088    0.9410 C   0  0  0  0  0  0  0  0  0  0  0  0
    1.1288   -0.5361    1.4710 C   0  0  0  0  0  0  0  0  0  0  0  0
    1.2095   -0.7783    2.9800 C   0  0  0  0  0  0  0  0  0  0  0  0
    2.6064   -0.4834    3.5062 C   0  0  0  0  0  0  0  0  0  0  0  0
    2.6309   -0.7077    4.9716 N   0  3  0  0  0  0  0  0  0  0  0  0
   -0.6336    1.4811   -0.2948 H   0  0  0  0  0  0  0  0  0  0  0  0
    0.3772   -1.1384   -1.0847 H   0  0  0  0  0  0  0  0  0  0  0  0
   -0.9903   -0.1444    1.4569 H   0  0  0  0  0  0  0  0  0  0  0  0
   -0.5699   -1.8351    1.2037 H   0  0  0  0  0  0  0  0  0  0  0  0
    1.8508   -1.1862    0.9634 H   0  0  0  0  0  0  0  0  0  0  0  0
    1.4165    0.4997    1.2560 H   0  0  0  0  0  0  0  0  0  0  0  0
    0.9417   -1.8193    3.1997 H   0  0  0  0  0  0  0  0  0  0  0  0
    0.4771   -0.1430    3.4936 H   0  0  0  0  0  0  0  0  0  0  0  0
    3.3576   -1.1489    3.0706 H   0  0  0  0  0  0  0  0  0  0  0  0
    2.8959    0.5584    3.3396 H   0  0  0  0  0  0  0  0  0  0  0  0
    3.4225   -0.2200    5.4052 H   0  0  0  0  0  0  0  0  0  0  0  0
    2.7189   -1.7067    5.1887 H   0  0  0  0  0  0  0  0  0  0  0  0
    1.7697   -0.3641    5.4108 H   0  0  0  0  0  0  0  0  0  0  0  0
   -1.5802   -2.2061   -1.9845 N   0  0  0  0  0  0  0  0  0  0  0  0
   -2.6898   -2.8631   -2.6332 C   0  0  2  0  0  0  0  0  0  0  0  0
   -2.1757   -4.1583   -3.2475 C   0  0  0  0  0  0  0  0  0  0  0  0
   -0.9932   -4.3452   -3.5268 O   0  0  0  0  0  0  0  0  0  0  0  0
   -3.3184   -1.9711   -3.6924 C   0  0  0  0  0  0  0  0  0  0  0  0
   -0.6375   -2.5334   -2.1735 H   0  0  0  0  0  0  0  0  0  0  0  0
   -3.4215   -3.0942   -1.8513 H   0  0  0  0  0  0  0  0  0  0  0  0
   -2.6003   -1.7288   -4.4843 H   0  0  0  0  0  0  0  0  0  0  0  0
   -4.1776   -2.4598   -4.1637 H   0  0  0  0  0  0  0  0  0  0  0  0
   -3.6608   -1.0275   -3.2542 H   0  0  0  0  0  0  0  0  0  0  0  0
   -3.1991   -5.0647   -3.4869 N   0  0  0  0  0  0  0  0  0  0  0  0
   -2.9687   -6.3628   -4.0766 C   0  0  0  0  0  0  0  0  0  0  0  0
   -4.1474   -4.8333   -3.2060 H   0  0  0  0  0  0  0  0  0  0  0  0
   -3.0926   -6.2977   -5.1676 H   0  0  0  0  0  0  0  0  0  0  0  0
   -1.9466   -6.6954   -3.8429 H   0  0  0  0  0  0  0  0  0  0  0  0
   -3.6915   -7.0844   -3.6681 H   0  0  0  0  0  0  0  0  0  0  0  0
  1  3  1  0  0  0  0
  1  7  1  0  0  0  0
  1  2  2  0  0  0  0
 40 41  1  0  0  0  0
 41 49  1  0  0  0  0
 41 42  2  0  0  0  0
  8  9  1  0  0  0  0
  9 17  1  0  0  0  0
  9 10  2  0  0  0  0
 18 19  1  0  0  0  0
 19 39  1  0  0  0  0
 19 20  2  0  0  0  0
 40 43  1  0  0  0  0
  8 11  1  0  0  0  0
 49 50  1  0  0  0  0
 22 23  1  0  0  0  0
 21 22  1  0  0  0  0
 23 24  1  0  0  0  0
 18 21  1  0  0  0  0
 24 25  1  0  0  0  0
 39 40  1  0  0  0  0
  7  8  1  0  0  0  0
 17 18  1  0  0  0  0
  3  4  1  0  0  0  0
  3  5  1  0  0  0  0
  3  6  1  0  0  0  0
 43 46  1  0  0  0  0
 43 47  1  0  0  0  0
 43 48  1  0  0  0  0
 11 14  1  0  0  0  0
 11 15  1  0  0  0  0
 11 16  1  0  0  0  0
 50 52  1  0  0  0  0
 50 53  1  0  0  0  0
 50 54  1  0  0  0  0
 22 30  1  0  0  0  0
 22 31  1  0  0  0  0
 23 32  1  0  0  0  0
 23 33  1  0  0  0  0
 21 28  1  0  0  0  0
 21 29  1  0  0  0  0
 24 34  1  0  0  0  0
 24 35  1  0  0  0  0
 40 45  1  0  0  0  0
  8 13  1  0  0  0  0
 18 27  1  0  0  0  0
 49 51  1  0  0  0  0
  7 12  1  0  0  0  0
 39 44  1  0  0  0  0
 17 26  1  0  0  0  0
 25 36  1  0  0  0  0
 25 37  1  0  0  0  0
 25 38  1  0  0  0  0
M  CHG  1  25   1
M  END
$$$$

  -OEChem-05262214473D

 54 53  0     1  0  0  0  0  0999 V2000
    2.6714    2.8829   -3.0005 C   0  0  0  0  0  0  0  0  0  0  0  0
    3.1741    2.4398   -1.9745 O   0  0  0  0  0  0  0  0  0  0  0  0
    3.5527    3.3077   -4.1279 C   0  0  0  0  0  0  0  0  0  0  0  0
    3.8407    4.3691   -4.0597 H   0  0  0  0  0  0  0  0  0  0  0  0
    4.5024    2.7495   -4.1526 H   0  0  0  0  0  0  0  0  0  0  0  0
    3.1208    3.1887   -5.1345 H   0  0  0  0  0  0  0  0  0  0  0  0
    1.3174    3.0407   -3.2467 N   0  0  0  0  0  0  0  0  0  0  0  0
    0.2944    2.6927   -2.2960 C   0  0  2  0  0  0  0  0  0  0  0  0
    0.2976    1.1783   -2.1349 C   0  0  0  0  0  0  0  0  0  0  0  0
    0.7500    0.4142   -2.9850 O   0  0  0  0  0  0  0  0  0  0  0  0
   -1.0710    3.1886   -2.7460 C   0  0  0  0  0  0  0  0  0  0  0  0
    1.0312    3.4224   -4.1464 H   0  0  0  0  0  0  0  0  0  0  0  0
    0.5725    3.1622   -1.3461 H   0  0  0  0  0  0  0  0  0  0  0  0
   -1.3666    2.7292   -3.6963 H   0  0  0  0  0  0  0  0  0  0  0  0
   -1.8434    2.9482   -2.0082 H   0  0  0  0  0  0  0  0  0  0  0  0
   -1.0632    4.2744   -2.8901 H   0  0  0  0  0  0  0  0  0  0  0  0
   -0.3037    0.7742   -0.9484 N   0  0  0  0  0  0  0  0  0  0  0  0
   -0.4352   -0.6095   -0.5718 C   0  0  2  0  0  0  0  0  0  0  0  0
   -1.7584   -1.1427   -1.1114 C   0  0  0  0  0  0  0  0  0  0  0  0
   -2.8122   -0.5129   -1.0442 O   0  0  0  0  0  0  0  0  0  0  0  0
   -0.2850   -0.8088    0.9410 C   0  0  0  0  0  0  0  0  0  0  0  0
    1.1288   -0.5361    1.4710 C   0  0  0  0  0  0  0  0  0  0  0  0
    1.2095   -0.7783    2.9800 C   0  0  0  0  0  0  0  0  0  0  0  0
    2.6064   -0.4834    3.5062 C   0  0  0  0  0  0  0  0  0  0  0  0
    2.6309   -0.7077    4.9716 N   0  3  0  0  0  0  0  0  0  0  0  0
   -0.6336    1.4811   -0.2948 H   0  0  0  0  0  0  0  0  0  0  0  0
    0.3772   -1.1384   -1.0847 H   0  0  0  0  0  0  0  0  0  0  0  0
   -0.9903   -0.1444    1.4569 H   0  0  0  0  0  0  0  0  0  0  0  0
   -0.5699   -1.8351    1.2037 H   0  0  0  0  0  0  0  0  0  0  0  0
    1.8508   -1.1862    0.9634 H   0  0  0  0  0  0  0  0  0  0  0  0
    1.4165    0.4997    1.2560 H   0  0  0  0  0  0  0  0  0  0  0  0
    0.9417   -1.8193    3.1997 H   0  0  0  0  0  0  0  0  0  0  0  0
    0.4771   -0.1430    3.4936 H   0  0  0  0  0  0  0  0  0  0  0  0
    3.3576   -1.1489    3.0706 H   0  0  0  0  0  0  0  0  0  0  0  0
    2.8959    0.5584    3.3396 H   0  0  0  0  0  0  0  0  0  0  0  0
    3.4225   -0.2200    5.4052 H   0  0  0  0  0  0  0  0  0  0  0  0
    2.7189   -1.7067    5.1887 H   0  0  0  0  0  0  0  0  0  0  0  0
    1.7697   -0.3641    5.4108 H   0  0  0  0  0  0  0  0  0  0  0  0
   -1.6202   -2.3885   -1.7061 N   0  0  0  0  0  0  0  0  0  0  0  0
   -2.7355   -3.0841   -2.3028 C   0  0  2  0  0  0  0  0  0  0  0  0
   -2.3085   -4.5229   -2.5615 C   0  0  0  0  0  0  0  0  0  0  0  0
   -1.1327   -4.8641   -2.6720 O   0  0  0  0  0  0  0  0  0  0  0  0
   -3.1832   -2.4100   -3.5904 C   0  0  0  0  0  0  0  0  0  0  0  0
   -0.7036   -2.8258   -1.7222 H   0  0  0  0  0  0  0  0  0  0  0  0
   -3.5471   -3.0700   -1.5672 H   0  0  0  0  0  0  0  0  0  0  0  0
   -2.3831   -2.4145   -4.3396 H   0  0  0  0  0  0  0  0  0  0  0  0
   -4.0472   -2.9221   -4.0267 H   0  0  0  0  0  0  0  0  0  0  0  0
   -3.4616   -1.3666   -3.4077 H   0  0  0  0  0  0  0  0  0  0  0  0
   -3.3965   -5.3738   -2.6974 N   0  0  0  0  0  0  0  0  0  0  0  0
   -3.2532   -6.7867   -2.9602 C   0  0  0  0  0  0  0  0  0  0  0  0
   -4.3357   -5.0080   -2.5715 H   0  0  0  0  0  0  0  0  0  0  0  0
   -3.2820   -6.9630   -4.0456 H   0  0  0  0  0  0  0  0  0  0  0  0
   -2.2923   -7.1389   -2.5571 H   0  0  0  0  0  0  0  0  0  0  0  0
   -4.0761   -7.3345   -2.4779 H   0  0  0  0  0  0  0  0  0  0  0  0
  1  3  1  0  0  0  0
  1  7  1  0  0  0  0
  1  2  2  0  0  0  0
 40 41  1  0  0  0  0
 41 49  1  0  0  0  0
 41 42  2  0  0  0  0
  8  9  1  0  0  0  0
  9 17  1  0  0  0  0
  9 10  2  0  0  0  0
 18 19  1  0  0  0  0
 19 39  1  0  0  0  0
 19 20  2  0  0  0  0
 40 43  1  0  0  0  0
  8 11  1  0  0  0  0
 49 50  1  0  0  0  0
 22 23  1  0  0  0  0
 21 22  1  0  0  0  0
 23 24  1  0  0  0  0
 18 21  1  0  0  0  0
 24 25  1  0  0  0  0
 39 40  1  0  0  0  0
  7  8  1  0  0  0  0
 17 18  1  0  0  0  0
  3  4  1  0  0  0  0
  3  5  1  0  0  0  0
  3  6  1  0  0  0  0
 43 46  1  0  0  0  0
 43 47  1  0  0  0  0
 43 48  1  0  0  0  0
 11 14  1  0  0  0  0
 11 15  1  0  0  0  0
 11 16  1  0  0  0  0
 50 52  1  0  0  0  0
 50 53  1  0  0  0  0
 50 54  1  0  0  0  0
 22 30  1  0  0  0  0
 22 31  1  0  0  0  0
 23 32  1  0  0  0  0
 23 33  1  0  0  0  0
 21 28  1  0  0  0  0
 21 29  1  0  0  0  0
 24 34  1  0  0  0  0
 24 35  1  0  0  0  0
 40 45  1  0  0  0  0
  8 13  1  0  0  0  0
 18 27  1  0  0  0  0
 49 51  1  0  0  0  0
  7 12  1  0  0  0  0
 39 44  1  0  0  0  0
 17 26  1  0  0  0  0
 25 36  1  0  0  0  0
 25 37  1  0  0  0  0
 25 38  1  0  0  0  0
M  CHG  1  25   1
M  END
$$$$

  -OEChem-05262214473D

 54 53  0     1  0  0  0  0  0999 V2000
    2.6714    2.8829   -3.0005 C   0  0  0  0  0  0  0  0  0  0  0  0
    3.1741    2.4398   -1.9745 O   0  0  0  0  0  0  0  0  0  0  0  0
    3.5527    3.3077   -4.1279 C   0  0  0  0  0  0  0  0  0  0  0  0
    3.8407    4.3691   -4.0597 H   0  0  0  0  0  0  0  0  0  0  0  0
    4.5024    2.7495   -4.1526 H   0  0  0  0  0  0  0  0  0  0  0  0
    3.1208    3.1887   -5.1345 H   0  0  0  0  0  0  0  0  0  0  0  0
    1.3174    3.0407   -3.2467 N   0  0  0  0  0  0  0  0  0  0  0  0
    0.2944    2.6927   -2.2960 C   0  0  2  0  0  0  0  0  0  0  0  0
    0.2976    1.1783   -2.1349 C   0  0  0  0  0  0  0  0  0  0  0  0
    0.7500    0.4142   -2.9850 O   0  0  0  0  0  0  0  0  0  0  0  0
   -1.0710    3.1886   -2.7460 C   0  0  0  0  0  0  0  0  0  0  0  0
    1.0312    3.4224   -4.1464 H   0  0  0  0  0  0  0  0  0  0  0  0
    0.5725    3.1622   -1.3461 H   0  0  0  0  0  0  0  0  0  0  0  0
   -1.3666    2.7292   -3.6963 H   0  0  0  0  0  0  0  0  0  0  0  0
   -1.8434    2.9482   -2.0082 H   0  0  0  0  0  0  0  0  0  0  0  0
   -1.0632    4.2744   -2.8901 H   0  0  0  0  0  0  0  0  0  0  0  0
   -0.3037    0.7742   -0.9484 N   0  0  0  0  0  0  0  0  0  0  0  0
   -0.4352   -0.6095   -0.5718 C   0  0  2  0  0  0  0  0  0  0  0  0
   -1.7584   -1.1427   -1.1114 C   0  0  0  0  0  0  0  0  0  0  0  0
   -2.7445   -0.4308   -1.2913 O   0  0  0  0  0  0  0  0  0  0  0  0
   -0.2850   -0.8088    0.9410 C   0  0  0  0  0  0  0  0  0  0  0  0
    1.1288   -0.5361    1.4710 C   0  0  0  0  0  0  0  0  0  0  0  0
    1.2095   -0.7783    2.9800 C   0  0  0  0  0  0  0  0  0  0  0  0
    2.6064   -0.4834    3.5062 C   0  0  0  0  0  0  0  0  0  0  0  0
    2.6309   -0.7077    4.9716 N   0  3  0  0  0  0  0  0  0  0  0  0
   -0.6336    1.4811   -0.2948 H   0  0  0  0  0  0  0  0  0  0  0  0
    0.3772   -1.1384   -1.0847 H   0  0  0  0  0  0  0  0  0  0  0  0
   -0.9903   -0.1444    1.4569 H   0  0  0  0  0  0  0  0  0  0  0  0
   -0.5699   -1.8351    1.2037 H   0  0  0  0  0  0  0  0  0  0  0  0
    1.8508   -1.1862    0.9634 H   0  0  0  0  0  0  0  0  0  0  0  0
    1.4165    0.4997    1.2560 H   0  0  0  0  0  0  0  0  0  0  0  0
    0.9417   -1.8193    3.1997 H   0  0  0  0  0  0  0  0  0  0  0  0
    0.4771   -0.1430    3.4936 H   0  0  0  0  0  0  0  0  0  0  0  0
    3.3576   -1.1489    3.0706 H   0  0  0  0  0  0  0  0  0  0  0  0
    2.8959    0.5584    3.3396 H   0  0  0  0  0  0  0  0  0  0  0  0
    3.4225   -0.2200    5.4052 H   0  0  0  0  0  0  0  0  0  0  0  0
    2.7189   -1.7067    5.1887 H   0  0  0  0  0  0  0  0  0  0  0  0
    1.7697   -0.3641    5.4108 H   0  0  0  0  0  0  0  0  0  0  0  0
   -1.7007   -2.4985   -1.4000 N   0  0  0  0  0  0  0  0  0  0  0  0
   -2.8298   -3.2191   -1.9382 C   0  0  2  0  0  0  0  0  0  0  0  0
   -2.5323   -4.7088   -1.8290 C   0  0  0  0  0  0  0  0  0  0  0  0
   -1.3923   -5.1606   -1.7424 O   0  0  0  0  0  0  0  0  0  0  0  0
   -3.1019   -2.8235   -3.3811 C   0  0  0  0  0  0  0  0  0  0  0  0
   -0.8352   -3.0008   -1.2267 H   0  0  0  0  0  0  0  0  0  0  0  0
   -3.6920   -2.9713   -1.3095 H   0  0  0  0  0  0  0  0  0  0  0  0
   -2.2491   -3.0641   -4.0262 H   0  0  0  0  0  0  0  0  0  0  0  0
   -3.9760   -3.3498   -3.7787 H   0  0  0  0  0  0  0  0  0  0  0  0
   -3.2863   -1.7468   -3.4618 H   0  0  0  0  0  0  0  0  0  0  0  0
   -3.6869   -5.4769   -1.8832 N   0  0  0  0  0  0  0  0  0  0  0  0
   -3.6678   -6.9194   -1.8125 C   0  0  0  0  0  0  0  0  0  0  0  0
   -4.5910   -5.0170   -1.9365 H   0  0  0  0  0  0  0  0  0  0  0  0
   -3.6275   -7.3364   -2.8296 H   0  0  0  0  0  0  0  0  0  0  0  0
   -2.7831   -7.2469   -1.2467 H   0  0  0  0  0  0  0  0  0  0  0  0
   -4.5782   -7.2737   -1.3069 H   0  0  0  0  0  0  0  0  0  0  0  0
  1  3  1  0  0  0  0
  1  7  1  0  0  0  0
  1  2  2  0  0  0  0
 40 41  1  0  0  0  0
 41 49  1  0  0  0  0
 41 42  2  0  0  0  0
  8  9  1  0  0  0  0
  9 17  1  0  0  0  0
  9 10  2  0  0  0  0
 18 19  1  0  0  0  0
 19 39  1  0  0  0  0
 19 20  2  0  0  0  0
 40 43  1  0  0  0  0
  8 11  1  0  0  0  0
 49 50  1  0  0  0  0
 22 23  1  0  0  0  0
 21 22  1  0  0  0  0
 23 24  1  0  0  0  0
 18 21  1  0  0  0  0
 24 25  1  0  0  0  0
 39 40  1  0  0  0  0
  7  8  1  0  0  0  0
 17 18  1  0  0  0  0
  3  4  1  0  0  0  0
  3  5  1  0  0  0  0
  3  6  1  0  0  0  0
 43 46  1  0  0  0  0
 43 47  1  0  0  0  0
 43 48  1  0  0  0  0
 11 14  1  0  0  0  0
 11 15  1  0  0  0  0
 11 16  1  0  0  0  0
 50 52  1  0  0  0  0
 50 53  1  0  0  0  0
 50 54  1  0  0  0  0
 22 30  1  0  0  0  0
 22 31  1  0  0  0  0
 23 32  1  0  0  0  0
 23 33  1  0  0  0  0
 21 28  1  0  0  0  0
 21 29  1  0  0  0  0
 24 34  1  0  0  0  0
 24 35  1  0  0  0  0
 40 45  1  0  0  0  0
  8 13  1  0  0  0  0
 18 27  1  0  0  0  0
 49 51  1  0  0  0  0
  7 12  1  0  0  0  0
 39 44  1  0  0  0  0
 17 26  1  0  0  0  0
 25 36  1  0  0  0  0
 25 37  1  0  0  0  0
 25 38  1  0  0  0  0
M  CHG  1  25   1
M  END
$$$$

  -OEChem-05262214473D

 54 53  0     1  0  0  0  0  0999 V2000
    2.6714    2.8829   -3.0005 C   0  0  0  0  0  0  0  0  0  0  0  0
    3.1741    2.4398   -1.9745 O   0  0  0  0  0  0  0  0  0  0  0  0
    3.5527    3.3077   -4.1279 C   0  0  0  0  0  0  0  0  0  0  0  0
    3.8407    4.3691   -4.0597 H   0  0  0  0  0  0  0  0  0  0  0  0
    4.5024    2.7495   -4.1526 H   0  0  0  0  0  0  0  0  0  0  0  0
    3.1208    3.1887   -5.1345 H   0  0  0  0  0  0  0  0  0  0  0  0
    1.3174    3.0407   -3.2467 N   0  0  0  0  0  0  0  0  0  0  0  0
    0.2944    2.6927   -2.2960 C   0  0  2  0  0  0  0  0  0  0  0  0
    0.2976    1.1783   -2.1349 C   0  0  0  0  0  0  0  0  0  0  0  0
    0.7500    0.4142   -2.9850 O   0  0  0  0  0  0  0  0  0  0  0  0
   -1.0710    3.1886   -2.7460 C   0  0  0  0  0  0  0  0  0  0  0  0
    1.0312    3.4224   -4.1464 H   0  0  0  0  0  0  0  0  0  0  0  0
    0.5725    3.1622   -1.3461 H   0  0  0  0  0  0  0  0  0  0  0  0
   -1.3666    2.7292   -3.6963 H   0  0  0  0  0  0  0  0  0  0  0  0
   -1.8434    2.9482   -2.0082 H   0  0  0  0  0  0  0  0  0  0  0  0
   -1.0632    4.2744   -2.8901 H   0  0  0  0  0  0  0  0  0  0  0  0
   -0.3037    0.7742   -0.9484 N   0  0  0  0  0  0  0  0  0  0  0  0
   -0.4352   -0.6095   -0.5718 C   0  0  2  0  0  0  0  0  0  0  0  0
   -1.7584   -1.1427   -1.1114 C   0  0  0  0  0  0  0  0  0  0  0  0
   -2.6492   -0.4131   -1.5423 O   0  0  0  0  0  0  0  0  0  0  0  0
   -0.2850   -0.8088    0.9410 C   0  0  0  0  0  0  0  0  0  0  0  0
    1.1288   -0.5361    1.4710 C   0  0  0  0  0  0  0  0  0  0  0  0
    1.2095   -0.7783    2.9800 C   0  0  0  0  0  0  0  0  0  0  0  0
    2.6064   -0.4834    3.5062 C   0  0  0  0  0  0  0  0  0  0  0  0
    2.6309   -0.7077    4.9716 N   0  3  0  0  0  0  0  0  0  0  0  0
   -0.6336    1.4811   -0.2948 H   0  0  0  0  0  0  0  0  0  0  0  0
    0.3772   -1.1384   -1.0847 H   0  0  0  0  0  0  0  0  0  0  0  0
   -0.9903   -0.1444    1.4569 H   0  0  0  0  0  0  0  0  0  0  0  0
   -0.5699   -1.8351    1.2037 H   0  0  0  0  0  0  0  0  0  0  0  0
    1.8508   -1.1862    0.9634 H   0  0  0  0  0  0  0  0  0  0  0  0
    1.4165    0.4997    1.2560 H   0  0  0  0  0  0  0  0  0  0  0  0
    0.9417   -1.8193    3.1997 H   0  0  0  0  0  0  0  0  0  0  0  0
    0.4771   -0.1430    3.4936 H   0  0  0  0  0  0  0  0  0  0  0  0
    3.3576   -1.1489    3.0706 H   0  0  0  0  0  0  0  0  0  0  0  0
    2.8959    0.5584    3.3396 H   0  0  0  0  0  0  0  0  0  0  0  0
    3.4225   -0.2200    5.4052 H   0  0  0  0  0  0  0  0  0  0  0  0
    2.7189   -1.7067    5.1887 H   0  0  0  0  0  0  0  0  0  0  0  0
    1.7697   -0.3641    5.4108 H   0  0  0  0  0  0  0  0  0  0  0  0
   -1.8163   -2.5287   -1.0868 N   0  0  0  0  0  0  0  0  0  0  0  0
   -2.9662   -3.2591   -1.5642 C   0  0  2  0  0  0  0  0  0  0  0  0
   -2.8317   -4.7034   -1.1000 C   0  0  0  0  0  0  0  0  0  0  0  0
   -1.7543   -5.2145   -0.8014 O   0  0  0  0  0  0  0  0  0  0  0  0
   -3.0803   -3.1833   -3.0787 C   0  0  0  0  0  0  0  0  0  0  0  0
   -1.0230   -3.0466   -0.7207 H   0  0  0  0  0  0  0  0  0  0  0  0
   -3.8462   -2.8049   -1.0959 H   0  0  0  0  0  0  0  0  0  0  0  0
   -2.2075   -3.6336   -3.5655 H   0  0  0  0  0  0  0  0  0  0  0  0
   -3.9687   -3.7138   -3.4368 H   0  0  0  0  0  0  0  0  0  0  0  0
   -3.1469   -2.1423   -3.4129 H   0  0  0  0  0  0  0  0  0  0  0  0
   -4.0506   -5.3672   -1.0999 N   0  0  0  0  0  0  0  0  0  0  0  0
   -4.1842   -6.7519   -0.7115 C   0  0  0  0  0  0  0  0  0  0  0  0
   -4.8959   -4.8598   -1.3442 H   0  0  0  0  0  0  0  0  0  0  0  0
   -4.1054   -7.3923   -1.6024 H   0  0  0  0  0  0  0  0  0  0  0  0
   -3.3856   -7.0120   -0.0012 H   0  0  0  0  0  0  0  0  0  0  0  0
   -5.1635   -6.9059   -0.2348 H   0  0  0  0  0  0  0  0  0  0  0  0
  1  3  1  0  0  0  0
  1  7  1  0  0  0  0
  1  2  2  0  0  0  0
 40 41  1  0  0  0  0
 41 49  1  0  0  0  0
 41 42  2  0  0  0  0
  8  9  1  0  0  0  0
  9 17  1  0  0  0  0
  9 10  2  0  0  0  0
 18 19  1  0  0  0  0
 19 39  1  0  0  0  0
 19 20  2  0  0  0  0
 40 43  1  0  0  0  0
  8 11  1  0  0  0  0
 49 50  1  0  0  0  0
 22 23  1  0  0  0  0
 21 22  1  0  0  0  0
 23 24  1  0  0  0  0
 18 21  1  0  0  0  0
 24 25  1  0  0  0  0
 39 40  1  0  0  0  0
  7  8  1  0  0  0  0
 17 18  1  0  0  0  0
  3  4  1  0  0  0  0
  3  5  1  0  0  0  0
  3  6  1  0  0  0  0
 43 46  1  0  0  0  0
 43 47  1  0  0  0  0
 43 48  1  0  0  0  0
 11 14  1  0  0  0  0
 11 15  1  0  0  0  0
 11 16  1  0  0  0  0
 50 52  1  0  0  0  0
 50 53  1  0  0  0  0
 50 54  1  0  0  0  0
 22 30  1  0  0  0  0
 22 31  1  0  0  0  0
 23 32  1  0  0  0  0
 23 33  1  0  0  0  0
 21 28  1  0  0  0  0
 21 29  1  0  0  0  0
 24 34  1  0  0  0  0
 24 35  1  0  0  0  0
 40 45  1  0  0  0  0
  8 13  1  0  0  0  0
 18 27  1  0  0  0  0
 49 51  1  0  0  0  0
  7 12  1  0  0  0  0
 39 44  1  0  0  0  0
 17 26  1  0  0  0  0
 25 36  1  0  0  0  0
 25 37  1  0  0  0  0
 25 38  1  0  0  0  0
M  CHG  1  25   1
M  END
$$$$

  -OEChem-05262214473D

 54 53  0     1  0  0  0  0  0999 V2000
    2.6714    2.8829   -3.0005 C   0  0  0  0  0  0  0  0  0  0  0  0
    3.1741    2.4398   -1.9745 O   0  0  0  0  0  0  0  0  0  0  0  0
    3.5527    3.3077   -4.1279 C   0  0  0  0  0  0  0  0  0  0  0  0
    3.8407    4.3691   -4.0597 H   0  0  0  0  0  0  0  0  0  0  0  0
    4.5024    2.7495   -4.1526 H   0  0  0  0  0  0  0  0  0  0  0  0
    3.1208    3.1887   -5.1345 H   0  0  0  0  0  0  0  0  0  0  0  0
    1.3174    3.0407   -3.2467 N   0  0  0  0  0  0  0  0  0  0  0  0
    0.2944    2.6927   -2.2960 C   0  0  2  0  0  0  0  0  0  0  0  0
    0.2976    1.1783   -2.1349 C   0  0  0  0  0  0  0  0  0  0  0  0
    0.7500    0.4142   -2.9850 O   0  0  0  0  0  0  0  0  0  0  0  0
   -1.0710    3.1886   -2.7460 C   0  0  0  0  0  0  0  0  0  0  0  0
    1.0312    3.4224   -4.1464 H   0  0  0  0  0  0  0  0  0  0  0  0
    0.5725    3.1622   -1.3461 H   0  0  0  0  0  0  0  0  0  0  0  0
   -1.3666    2.7292   -3.6963 H   0  0  0  0  0  0  0  0  0  0  0  0
   -1.8434    2.9482   -2.0082 H   0  0  0  0  0  0  0  0  0  0  0  0
   -1.0632    4.2744   -2.8901 H   0  0  0  0  0  0  0  0  0  0  0  0
   -0.3037    0.7742   -0.9484 N   0  0  0  0  0  0  0  0  0  0  0  0
   -0.4352   -0.6095   -0.5718 C   0  0  2  0  0  0  0  0  0  0  0  0
   -1.5446   -1.2429   -1.4051 C   0  0  0  0  0  0  0  0  0  0  0  0
   -2.1702   -0.6280   -2.2665 O   0  0  0  0  0  0  0  0  0  0  0  0
   -0.6546   -0.7748    0.9366 C   0  0  0  0  0  0  0  0  0  0  0  0
    0.5615   -0.3950    1.7915 C   0  0  0  0  0  0  0  0  0  0  0  0
    0.2786   -0.6081    3.2804 C   0  0  0  0  0  0  0  0  0  0  0  0
    1.4779   -0.2073    4.1266 C   0  0  0  0  0  0  0  0  0  0  0  0
    1.1506   -0.4072    5.5589 N   0  3  0  0  0  0  0  0  0  0  0  0
   -0.6336    1.4811   -0.2948 H   0  0  0  0  0  0  0  0  0  0  0  0
    0.5119   -1.0873   -0.8500 H   0  0  0  0  0  0  0  0  0  0  0  0
   -1.5078   -0.1542    1.2399 H   0  0  0  0  0  0  0  0  0  0  0  0
   -0.9291   -1.8146    1.1535 H   0  0  0  0  0  0  0  0  0  0  0  0
    1.4279   -1.0000    1.4999 H   0  0  0  0  0  0  0  0  0  0  0  0
    0.8262    0.6552    1.6212 H   0  0  0  0  0  0  0  0  0  0  0  0
    0.0324   -1.6620    3.4603 H   0  0  0  0  0  0  0  0  0  0  0  0
   -0.5982   -0.0184    3.5757 H   0  0  0  0  0  0  0  0  0  0  0  0
    2.3555   -0.8245    3.9125 H   0  0  0  0  0  0  0  0  0  0  0  0
    1.7318    0.8497    4.0036 H   0  0  0  0  0  0  0  0  0  0  0  0
    1.7756    0.1418    6.1591 H   0  0  0  0  0  0  0  0  0  0  0  0
    1.2460   -1.3941    5.8230 H   0  0  0  0  0  0  0  0  0  0  0  0
    0.1867   -0.1187    5.7595 H   0  0  0  0  0  0  0  0  0  0  0  0
   -1.7328   -2.5829   -1.0987 N   0  0  0  0  0  0  0  0  0  0  0  0
   -2.7183   -3.3949   -1.7720 C   0  0  2  0  0  0  0  0  0  0  0  0
   -2.8782   -4.6891   -0.9853 C   0  0  0  0  0  0  0  0  0  0  0  0
   -2.0136   -5.1249   -0.2279 O   0  0  0  0  0  0  0  0  0  0  0  0
   -2.3123   -3.6793   -3.2097 C   0  0  0  0  0  0  0  0  0  0  0  0
   -1.1579   -3.0068   -0.3766 H   0  0  0  0  0  0  0  0  0  0  0  0
   -3.6591   -2.8343   -1.7490 H   0  0  0  0  0  0  0  0  0  0  0  0
   -1.3716   -4.2404   -3.2528 H   0  0  0  0  0  0  0  0  0  0  0  0
   -3.0742   -4.2712   -3.7275 H   0  0  0  0  0  0  0  0  0  0  0  0
   -2.1687   -2.7466   -3.7659 H   0  0  0  0  0  0  0  0  0  0  0  0
   -4.0818   -5.3224   -1.2615 N   0  0  0  0  0  0  0  0  0  0  0  0
   -4.4626   -6.5742   -0.6498 C   0  0  0  0  0  0  0  0  0  0  0  0
   -4.7472   -4.8795   -1.8883 H   0  0  0  0  0  0  0  0  0  0  0  0
   -4.1490   -7.4083   -1.2947 H   0  0  0  0  0  0  0  0  0  0  0  0
   -3.9744   -6.6660    0.3316 H   0  0  0  0  0  0  0  0  0  0  0  0
   -5.5546   -6.6016   -0.5202 H   0  0  0  0  0  0  0  0  0  0  0  0
  1  3  1  0  0  0  0
  1  7  1  0  0  0  0
  1  2  2  0  0  0  0
 40 41  1  0  0  0  0
 41 49  1  0  0  0  0
 41 42  2  0  0  0  0
  8  9  1  0  0  0  0
  9 17  1  0  0  0  0
  9 10  2  0  0  0  0
 18 19  1  0  0  0  0
 19 39  1  0  0  0  0
 19 20  2  0  0  0  0
 40 43  1  0  0  0  0
  8 11  1  0  0  0  0
 49 50  1  0  0  0  0
 22 23  1  0  0  0  0
 21 22  1  0  0  0  0
 23 24  1  0  0  0  0
 18 21  1  0  0  0  0
 24 25  1  0  0  0  0
 39 40  1  0  0  0  0
  7  8  1  0  0  0  0
 17 18  1  0  0  0  0
  3  4  1  0  0  0  0
  3  5  1  0  0  0  0
  3  6  1  0  0  0  0
 43 46  1  0  0  0  0
 43 47  1  0  0  0  0
 43 48  1  0  0  0  0
 11 14  1  0  0  0  0
 11 15  1  0  0  0  0
 11 16  1  0  0  0  0
 50 52  1  0  0  0  0
 50 53  1  0  0  0  0
 50 54  1  0  0  0  0
 22 30  1  0  0  0  0
 22 31  1  0  0  0  0
 23 32  1  0  0  0  0
 23 33  1  0  0  0  0
 21 28  1  0  0  0  0
 21 29  1  0  0  0  0
 24 34  1  0  0  0  0
 24 35  1  0  0  0  0
 40 45  1  0  0  0  0
  8 13  1  0  0  0  0
 18 27  1  0  0  0  0
 49 51  1  0  0  0  0
  7 12  1  0  0  0  0
 39 44  1  0  0  0  0
 17 26  1  0  0  0  0
 25 36  1  0  0  0  0
 25 37  1  0  0  0  0
 25 38  1  0  0  0  0
M  CHG  1  25   1
M  END
$$$$

  -OEChem-05262214473D

 54 53  0     1  0  0  0  0  0999 V2000
    2.6714    2.8829   -3.0005 C   0  0  0  0  0  0  0  0  0  0  0  0
    3.1741    2.4398   -1.9745 O   0  0  0  0  0  0  0  0  0  0  0  0
    3.5527    3.3077   -4.1279 C   0  0  0  0  0  0  0  0  0  0  0  0
    3.8407    4.3691   -4.0597 H   0  0  0  0  0  0  0  0  0  0  0  0
    4.5024    2.7495   -4.1526 H   0  0  0  0  0  0  0  0  0  0  0  0
    3.1208    3.1887   -5.1345 H   0  0  0  0  0  0  0  0  0  0  0  0
    1.3174    3.0407   -3.2467 N   0  0  0  0  0  0  0  0  0  0  0  0
    0.2944    2.6927   -2.2960 C   0  0  2  0  0  0  0  0  0  0  0  0
    0.2976    1.1783   -2.1349 C   0  0  0  0  0  0  0  0  0  0  0  0
    0.7500    0.4142   -2.9850 O   0  0  0  0  0  0  0  0  0  0  0  0
   -1.0710    3.1886   -2.7460 C   0  0  0  0  0  0  0  0  0  0  0  0
    1.0312    3.4224   -4.1464 H   0  0  0  0  0  0  0  0  0  0  0  0
    0.5725    3.1622   -1.3461 H   0  0  0  0  0  0  0  0  0  0  0  0
   -1.3666    2.7292   -3.6963 H   0  0  0  0  0  0  0  0  0  0  0  0
   -1.8434    2.9482   -2.0082 H   0  0  0  0  0  0  0  0  0  0  0  0
   -1.0632    4.2744   -2.8901 H   0  0  0  0  0  0  0  0  0  0  0  0
   -0.3037    0.7742   -0.9484 N   0  0  0  0  0  0  0  0  0  0  0  0
   -0.4352   -0.6095   -0.5718 C   0  0  2  0  0  0  0  0  0  0  0  0
   -1.5446   -1.2429   -1.4051 C   0  0  0  0  0  0  0  0  0  0  0  0
   -1.9859   -0.7321   -2.4326 O   0  0  0  0  0  0  0  0  0  0  0  0
   -0.6546   -0.7748    0.9366 C   0  0  0  0  0  0  0  0  0  0  0  0
    0.5615   -0.3950    1.7915 C   0  0  0  0  0  0  0  0  0  0  0  0
    0.2786   -0.6081    3.2804 C   0  0  0  0  0  0  0  0  0  0  0  0
    1.4779   -0.2073    4.1266 C   0  0  0  0  0  0  0  0  0  0  0  0
    1.1506   -0.4072    5.5589 N   0  3  0  0  0  0  0  0  0  0  0  0
   -0.6336    1.4811   -0.2948 H   0  0  0  0  0  0  0  0  0  0  0  0
    0.5119   -1.0873   -0.8500 H   0  0  0  0  0  0  0  0  0  0  0  0
   -1.5078   -0.1542    1.2399 H   0  0  0  0  0  0  0  0  0  0  0  0
   -0.9291   -1.8146    1.1535 H   0  0  0  0  0  0  0  0  0  0  0  0
    1.4279   -1.0000    1.4999 H   0  0  0  0  0  0  0  0  0  0  0  0
    0.8262    0.6552    1.6212 H   0  0  0  0  0  0  0  0  0  0  0  0
    0.0324   -1.6620    3.4603 H   0  0  0  0  0  0  0  0  0  0  0  0
   -0.5982   -0.0184    3.5757 H   0  0  0  0  0  0  0  0  0  0  0  0
    2.3555   -0.8245    3.9125 H   0  0  0  0  0  0  0  0  0  0  0  0
    1.7318    0.8497    4.0036 H   0  0  0  0  0  0  0  0  0  0  0  0
    1.7756    0.1418    6.1591 H   0  0  0  0  0  0  0  0  0  0  0  0
    1.2460   -1.3941    5.8230 H   0  0  0  0  0  0  0  0  0  0  0  0
    0.1867   -0.1187    5.7595 H   0  0  0  0  0  0  0  0  0  0  0  0
   -1.9618   -2.4604   -0.8869 N   0  0  0  0  0  0  0  0  0  0  0  0
   -2.9914   -3.2522   -1.5168 C   0  0  2  0  0  0  0  0  0  0  0  0
   -3.4190   -4.3349   -0.5346 C   0  0  0  0  0  0  0  0  0  0  0  0
   -2.7056   -4.7233    0.3880 O   0  0  0  0  0  0  0  0  0  0  0  0
   -2.5000   -3.8636   -2.8196 C   0  0  0  0  0  0  0  0  0  0  0  0
   -1.5283   -2.8062   -0.0360 H   0  0  0  0  0  0  0  0  0  0  0  0
   -3.8343   -2.5796   -1.7094 H   0  0  0  0  0  0  0  0  0  0  0  0
   -1.6555   -4.5407   -2.6466 H   0  0  0  0  0  0  0  0  0  0  0  0
   -3.2909   -4.4404   -3.3104 H   0  0  0  0  0  0  0  0  0  0  0  0
   -2.1650   -3.0851   -3.5135 H   0  0  0  0  0  0  0  0  0  0  0  0
   -4.6735   -4.8466   -0.8356 N   0  0  0  0  0  0  0  0  0  0  0  0
   -5.2954   -5.8933   -0.0586 C   0  0  0  0  0  0  0  0  0  0  0  0
   -5.2021   -4.4517   -1.6078 H   0  0  0  0  0  0  0  0  0  0  0  0
   -5.0528   -6.8714   -0.4995 H   0  0  0  0  0  0  0  0  0  0  0  0
   -4.9212   -5.8541    0.9750 H   0  0  0  0  0  0  0  0  0  0  0  0
   -6.3862   -5.7513   -0.0593 H   0  0  0  0  0  0  0  0  0  0  0  0
  1  3  1  0  0  0  0
  1  7  1  0  0  0  0
  1  2  2  0  0  0  0
 40 41  1  0  0  0  0
 41 49  1  0  0  0  0
 41 42  2  0  0  0  0
  8  9  1  0  0  0  0
  9 17  1  0  0  0  0
  9 10  2  0  0  0  0
 18 19  1  0  0  0  0
 19 39  1  0  0  0  0
 19 20  2  0  0  0  0
 40 43  1  0  0  0  0
  8 11  1  0  0  0  0
 49 50  1  0  0  0  0
 22 23  1  0  0  0  0
 21 22  1  0  0  0  0
 23 24  1  0  0  0  0
 18 21  1  0  0  0  0
 24 25  1  0  0  0  0
 39 40  1  0  0  0  0
  7  8  1  0  0  0  0
 17 18  1  0  0  0  0
  3  4  1  0  0  0  0
  3  5  1  0  0  0  0
  3  6  1  0  0  0  0
 43 46  1  0  0  0  0
 43 47  1  0  0  0  0
 43 48  1  0  0  0  0
 11 14  1  0  0  0  0
 11 15  1  0  0  0  0
 11 16  1  0  0  0  0
 50 52  1  0  0  0  0
 50 53  1  0  0  0  0
 50 54  1  0  0  0  0
 22 30  1  0  0  0  0
 22 31  1  0  0  0  0
 23 32  1  0  0  0  0
 23 33  1  0  0  0  0
 21 28  1  0  0  0  0
 21 29  1  0  0  0  0
 24 34  1  0  0  0  0
 24 35  1  0  0  0  0
 40 45  1  0  0  0  0
  8 13  1  0  0  0  0
 18 27  1  0  0  0  0
 49 51  1  0  0  0  0
  7 12  1  0  0  0  0
 39 44  1  0  0  0  0
 17 26  1  0  0  0  0
 25 36  1  0  0  0  0
 25 37  1  0  0  0  0
 25 38  1  0  0  0  0
M  CHG  1  25   1
M  END
$$$$

  -OEChem-05262214473D

 54 53  0     1  0  0  0  0  0999 V2000
    2.6714    2.8829   -3.0005 C   0  0  0  0  0  0  0  0  0  0  0  0
    3.1741    2.4398   -1.9745 O   0  0  0  0  0  0  0  0  0  0  0  0
    3.5527    3.3077   -4.1279 C   0  0  0  0  0  0  0  0  0  0  0  0
    3.8407    4.3691   -4.0597 H   0  0  0  0  0  0  0  0  0  0  0  0
    4.5024    2.7495   -4.1526 H   0  0  0  0  0  0  0  0  0  0  0  0
    3.1208    3.1887   -5.1345 H   0  0  0  0  0  0  0  0  0  0  0  0
    1.3174    3.0407   -3.2467 N   0  0  0  0  0  0  0  0  0  0  0  0
    0.2944    2.6927   -2.2960 C   0  0  2  0  0  0  0  0  0  0  0  0
    0.2976    1.1783   -2.1349 C   0  0  0  0  0  0  0  0  0  0  0  0
    0.7500    0.4142   -2.9850 O   0  0  0  0  0  0  0  0  0  0  0  0
   -1.0710    3.1886   -2.7460 C   0  0  0  0  0  0  0  0  0  0  0  0
    1.0312    3.4224   -4.1464 H   0  0  0  0  0  0  0  0  0  0  0  0
    0.5725    3.1622   -1.3461 H   0  0  0  0  0  0  0  0  0  0  0  0
   -1.3666    2.7292   -3.6963 H   0  0  0  0  0  0  0  0  0  0  0  0
   -1.8434    2.9482   -2.0082 H   0  0  0  0  0  0  0  0  0  0  0  0
   -1.0632    4.2744   -2.8901 H   0  0  0  0  0  0  0  0  0  0  0  0
   -0.3037    0.7742   -0.9484 N   0  0  0  0  0  0  0  0  0  0  0  0
   -0.4352   -0.6095   -0.5718 C   0  0  2  0  0  0  0  0  0  0  0  0
   -1.5446   -1.2429   -1.4051 C   0  0  0  0  0  0  0  0  0  0  0  0
   -1.8048   -0.8900   -2.5537 O   0  0  0  0  0  0  0  0  0  0  0  0
   -0.6546   -0.7748    0.9366 C   0  0  0  0  0  0  0  0  0  0  0  0
    0.5615   -0.3950    1.7915 C   0  0  0  0  0  0  0  0  0  0  0  0
    0.2786   -0.6081    3.2804 C   0  0  0  0  0  0  0  0  0  0  0  0
    1.4779   -0.2073    4.1266 C   0  0  0  0  0  0  0  0  0  0  0  0
    1.1506   -0.4072    5.5589 N   0  3  0  0  0  0  0  0  0  0  0  0
   -0.6336    1.4811   -0.2948 H   0  0  0  0  0  0  0  0  0  0  0  0
    0.5119   -1.0873   -0.8500 H   0  0  0  0  0  0  0  0  0  0  0  0
   -1.5078   -0.1542    1.2399 H   0  0  0  0  0  0  0  0  0  0  0  0
   -0.9291   -1.8146    1.1535 H   0  0  0  0  0  0  0  0  0  0  0  0
    1.4279   -1.0000    1.4999 H   0  0  0  0  0  0  0  0  0  0  0  0
    0.8262    0.6552    1.6212 H   0  0  0  0  0  0  0  0  0  0  0  0
    0.0324   -1.6620    3.4603 H   0  0  0  0  0  0  0  0  0  0  0  0
   -0.5982   -0.0184    3.5757 H   0  0  0  0  0  0  0  0  0  0  0  0
    2.3555   -0.8245    3.9125 H   0  0  0  0  0  0  0  0  0  0  0  0
    1.7318    0.8497    4.0036 H   0  0  0  0  0  0  0  0  0  0  0  0
    1.7756    0.1418    6.1591 H   0  0  0  0  0  0  0  0  0  0  0  0
    1.2460   -1.3941    5.8230 H   0  0  0  0  0  0  0  0  0  0  0  0
    0.1867   -0.1187    5.7595 H   0  0  0  0  0  0  0  0  0  0  0  0
   -2.1885   -2.2698   -0.7300 N   0  0  0  0  0  0  0  0  0  0  0  0
   -3.2625   -3.0278   -1.3265 C   0  0  2  0  0  0  0  0  0  0  0  0
   -3.9397   -3.8313   -0.2241 C   0  0  0  0  0  0  0  0  0  0  0  0
   -3.3833   -4.1215    0.8329 O   0  0  0  0  0  0  0  0  0  0  0  0
   -2.7493   -3.9417   -2.4284 C   0  0  0  0  0  0  0  0  0  0  0  0
   -1.8944   -2.4959    0.2155 H   0  0  0  0  0  0  0  0  0  0  0  0
   -3.9717   -2.3013   -1.7380 H   0  0  0  0  0  0  0  0  0  0  0  0
   -2.0374   -4.6765   -2.0351 H   0  0  0  0  0  0  0  0  0  0  0  0
   -3.5689   -4.4947   -2.8990 H   0  0  0  0  0  0  0  0  0  0  0  0
   -2.2364   -3.3650   -3.2057 H   0  0  0  0  0  0  0  0  0  0  0  0
   -5.2234   -4.2232   -0.5773 N   0  0  0  0  0  0  0  0  0  0  0  0
   -6.0672   -5.0065    0.2947 C   0  0  0  0  0  0  0  0  0  0  0  0
   -5.6111   -3.9214   -1.4664 H   0  0  0  0  0  0  0  0  0  0  0  0
   -5.9354   -6.0753    0.0703 H   0  0  0  0  0  0  0  0  0  0  0  0
   -5.7901   -4.8150    1.3419 H   0  0  0  0  0  0  0  0  0  0  0  0
   -7.1189   -4.7256    0.1364 H   0  0  0  0  0  0  0  0  0  0  0  0
  1  3  1  0  0  0  0
  1  7  1  0  0  0  0
  1  2  2  0  0  0  0
 40 41  1  0  0  0  0
 41 49  1  0  0  0  0
 41 42  2  0  0  0  0
  8  9  1  0  0  0  0
  9 17  1  0  0  0  0
  9 10  2  0  0  0  0
 18 19  1  0  0  0  0
 19 39  1  0  0  0  0
 19 20  2  0  0  0  0
 40 43  1  0  0  0  0
  8 11  1  0  0  0  0
 49 50  1  0  0  0  0
 22 23  1  0  0  0  0
 21 22  1  0  0  0  0
 23 24  1  0  0  0  0
 18 21  1  0  0  0  0
 24 25  1  0  0  0  0
 39 40  1  0  0  0  0
  7  8  1  0  0  0  0
 17 18  1  0  0  0  0
  3  4  1  0  0  0  0
  3  5  1  0  0  0  0
  3  6  1  0  0  0  0
 43 46  1  0  0  0  0
 43 47  1  0  0  0  0
 43 48  1  0  0  0  0
 11 14  1  0  0  0  0
 11 15  1  0  0  0  0
 11 16  1  0  0  0  0
 50 52  1  0  0  0  0
 50 53  1  0  0  0  0
 50 54  1  0  0  0  0
 22 30  1  0  0  0  0
 22 31  1  0  0  0  0
 23 32  1  0  0  0  0
 23 33  1  0  0  0  0
 21 28  1  0  0  0  0
 21 29  1  0  0  0  0
 24 34  1  0  0  0  0
 24 35  1  0  0  0  0
 40 45  1  0  0  0  0
  8 13  1  0  0  0  0
 18 27  1  0  0  0  0
 49 51  1  0  0  0  0
  7 12  1  0  0  0  0
 39 44  1  0  0  0  0
 17 26  1  0  0  0  0
 25 36  1  0  0  0  0
 25 37  1  0  0  0  0
 25 38  1  0  0  0  0
M  CHG  1  25   1
M  END
$$$$

  -OEChem-05262214473D

 54 53  0     1  0  0  0  0  0999 V2000
    2.6714    2.8829   -3.0005 C   0  0  0  0  0  0  0  0  0  0  0  0
    3.1741    2.4398   -1.9745 O   0  0  0  0  0  0  0  0  0  0  0  0
    3.5527    3.3077   -4.1279 C   0  0  0  0  0  0  0  0  0  0  0  0
    3.8407    4.3691   -4.0597 H   0  0  0  0  0  0  0  0  0  0  0  0
    4.5024    2.7495   -4.1526 H   0  0  0  0  0  0  0  0  0  0  0  0
    3.1208    3.1887   -5.1345 H   0  0  0  0  0  0  0  0  0  0  0  0
    1.3174    3.0407   -3.2467 N   0  0  0  0  0  0  0  0  0  0  0  0
    0.2944    2.6927   -2.2960 C   0  0  2  0  0  0  0  0  0  0  0  0
    0.2976    1.1783   -2.1349 C   0  0  0  0  0  0  0  0  0  0  0  0
    0.7500    0.4142   -2.9850 O   0  0  0  0  0  0  0  0  0  0  0  0
   -1.0710    3.1886   -2.7460 C   0  0  0  0  0  0  0  0  0  0  0  0
    1.0312    3.4224   -4.1464 H   0  0  0  0  0  0  0  0  0  0  0  0
    0.5725    3.1622   -1.3461 H   0  0  0  0  0  0  0  0  0  0  0  0
   -1.3666    2.7292   -3.6963 H   0  0  0  0  0  0  0  0  0  0  0  0
   -1.8434    2.9482   -2.0082 H   0  0  0  0  0  0  0  0  0  0  0  0
   -1.0632    4.2744   -2.8901 H   0  0  0  0  0  0  0  0  0  0  0  0
   -0.3037    0.7742   -0.9484 N   0  0  0  0  0  0  0  0  0  0  0  0
   -0.4352   -0.6095   -0.5718 C   0  0  2  0  0  0  0  0  0  0  0  0
   -1.5446   -1.2429   -1.4051 C   0  0  0  0  0  0  0  0  0  0  0  0
   -1.6392   -1.0910   -2.6214 O   0  0  0  0  0  0  0  0  0  0  0  0
   -0.6546   -0.7748    0.9366 C   0  0  0  0  0  0  0  0  0  0  0  0
    0.5615   -0.3950    1.7915 C   0  0  0  0  0  0  0  0  0  0  0  0
    0.2786   -0.6081    3.2804 C   0  0  0  0  0  0  0  0  0  0  0  0
    1.4779   -0.2073    4.1266 C   0  0  0  0  0  0  0  0  0  0  0  0
    1.1506   -0.4072    5.5589 N   0  3  0  0  0  0  0  0  0  0  0  0
   -0.6336    1.4811   -0.2948 H   0  0  0  0  0  0  0  0  0  0  0  0
    0.5119   -1.0873   -0.8500 H   0  0  0  0  0  0  0  0  0  0  0  0
   -1.5078   -0.1542    1.2399 H   0  0  0  0  0  0  0  0  0  0  0  0
   -0.9291   -1.8146    1.1535 H   0  0  0  0  0  0  0  0  0  0  0  0
    1.4279   -1.0000    1.4999 H   0  0  0  0  0  0  0  0  0  0  0  0
    0.8262    0.6552    1.6212 H   0  0  0  0  0  0  0  0  0  0  0  0
    0.0324   -1.6620    3.4603 H   0  0  0  0  0  0  0  0  0  0  0  0
   -0.5982   -0.0184    3.5757 H   0  0  0  0  0  0  0  0  0  0  0  0
    2.3555   -0.8245    3.9125 H   0  0  0  0  0  0  0  0  0  0  0  0
    1.7318    0.8497    4.0036 H   0  0  0  0  0  0  0  0  0  0  0  0
    1.7756    0.1418    6.1591 H   0  0  0  0  0  0  0  0  0  0  0  0
    1.2460   -1.3941    5.8230 H   0  0  0  0  0  0  0  0  0  0  0  0
    0.1867   -0.1187    5.7595 H   0  0  0  0  0  0  0  0  0  0  0  0
   -2.3974   -2.0242   -0.6387 N   0  0  0  0  0  0  0  0  0  0  0  0
   -3.5131   -2.7368   -1.2141 C   0  0  2  0  0  0  0  0  0  0  0  0
   -4.4049   -3.2129   -0.0750 C   0  0  0  0  0  0  0  0  0  0  0  0
   -4.0007   -3.3606    1.0765 O   0  0  0  0  0  0  0  0  0  0  0  0
   -3.0432   -3.9082   -2.0625 C   0  0  0  0  0  0  0  0  0  0  0  0
   -2.2311   -2.0971    0.3606 H   0  0  0  0  0  0  0  0  0  0  0  0
   -4.0620   -2.0185   -1.8327 H   0  0  0  0  0  0  0  0  0  0  0  0
   -2.4911   -4.6385   -1.4598 H   0  0  0  0  0  0  0  0  0  0  0  0
   -3.8893   -4.4304   -2.5213 H   0  0  0  0  0  0  0  0  0  0  0  0
   -2.3781   -3.5673   -2.8633 H   0  0  0  0  0  0  0  0  0  0  0  0
   -5.6942   -3.4946   -0.5044 N   0  0  0  0  0  0  0  0  0  0  0  0
   -6.7252   -3.9743    0.3861 C   0  0  0  0  0  0  0  0  0  0  0  0
   -5.9464   -3.3248   -1.4736 H   0  0  0  0  0  0  0  0  0  0  0  0
   -6.7366   -5.0742    0.3760 H   0  0  0  0  0  0  0  0  0  0  0  0
   -6.5219   -3.6193    1.4072 H   0  0  0  0  0  0  0  0  0  0  0  0
   -7.7025   -3.5945    0.0537 H   0  0  0  0  0  0  0  0  0  0  0  0
  1  3  1  0  0  0  0
  1  7  1  0  0  0  0
  1  2  2  0  0  0  0
 40 41  1  0  0  0  0
 41 49  1  0  0  0  0
 41 42  2  0  0  0  0
  8  9  1  0  0  0  0
  9 17  1  0  0  0  0
  9 10  2  0  0  0  0
 18 19  1  0  0  0  0
 19 39  1  0  0  0  0
 19 20  2  0  0  0  0
 40 43  1  0  0  0  0
  8 11  1  0  0  0  0
 49 50  1  0  0  0  0
 22 23  1  0  0  0  0
 21 22  1  0  0  0  0
 23 24  1  0  0  0  0
 18 21  1  0  0  0  0
 24 25  1  0  0  0  0
 39 40  1  0  0  0  0
  7  8  1  0  0  0  0
 17 18  1  0  0  0  0
  3  4  1  0  0  0  0
  3  5  1  0  0  0  0
  3  6  1  0  0  0  0
 43 46  1  0  0  0  0
 43 47  1  0  0  0  0
 43 48  1  0  0  0  0
 11 14  1  0  0  0  0
 11 15  1  0  0  0  0
 11 16  1  0  0  0  0
 50 52  1  0  0  0  0
 50 53  1  0  0  0  0
 50 54  1  0  0  0  0
 22 30  1  0  0  0  0
 22 31  1  0  0  0  0
 23 32  1  0  0  0  0
 23 33  1  0  0  0  0
 21 28  1  0  0  0  0
 21 29  1  0  0  0  0
 24 34  1  0  0  0  0
 24 35  1  0  0  0  0
 40 45  1  0  0  0  0
  8 13  1  0  0  0  0
 18 27  1  0  0  0  0
 49 51  1  0  0  0  0
  7 12  1  0  0  0  0
 39 44  1  0  0  0  0
 17 26  1  0  0  0  0
 25 36  1  0  0  0  0
 25 37  1  0  0  0  0
 25 38  1  0  0  0  0
M  CHG  1  25   1
M  END
$$$$

  -OEChem-05262214473D

 54 53  0     1  0  0  0  0  0999 V2000
    2.6714    2.8829   -3.0005 C   0  0  0  0  0  0  0  0  0  0  0  0
    3.1741    2.4398   -1.9745 O   0  0  0  0  0  0  0  0  0  0  0  0
    3.5527    3.3077   -4.1279 C   0  0  0  0  0  0  0  0  0  0  0  0
    3.8407    4.3691   -4.0597 H   0  0  0  0  0  0  0  0  0  0  0  0
    4.5024    2.7495   -4.1526 H   0  0  0  0  0  0  0  0  0  0  0  0
    3.1208    3.1887   -5.1345 H   0  0  0  0  0  0  0  0  0  0  0  0
    1.3174    3.0407   -3.2467 N   0  0  0  0  0  0  0  0  0  0  0  0
    0.2944    2.6927   -2.2960 C   0  0  2  0  0  0  0  0  0  0  0  0
    0.2976    1.1783   -2.1349 C   0  0  0  0  0  0  0  0  0  0  0  0
    0.7500    0.4142   -2.9850 O   0  0  0  0  0  0  0  0  0  0  0  0
   -1.0710    3.1886   -2.7460 C   0  0  0  0  0  0  0  0  0  0  0  0
    1.0312    3.4224   -4.1464 H   0  0  0  0  0  0  0  0  0  0  0  0
    0.5725    3.1622   -1.3461 H   0  0  0  0  0  0  0  0  0  0  0  0
   -1.3666    2.7292   -3.6963 H   0  0  0  0  0  0  0  0  0  0  0  0
   -1.8434    2.9482   -2.0082 H   0  0  0  0  0  0  0  0  0  0  0  0
   -1.0632    4.2744   -2.8901 H   0  0  0  0  0  0  0  0  0  0  0  0
   -0.3037    0.7742   -0.9484 N   0  0  0  0  0  0  0  0  0  0  0  0
   -0.4352   -0.6095   -0.5718 C   0  0  2  0  0  0  0  0  0  0  0  0
   -1.5446   -1.2429   -1.4051 C   0  0  0  0  0  0  0  0  0  0  0  0
   -1.5004   -1.3212   -2.6312 O   0  0  0  0  0  0  0  0  0  0  0  0
   -0.6546   -0.7748    0.9366 C   0  0  0  0  0  0  0  0  0  0  0  0
    0.5615   -0.3950    1.7915 C   0  0  0  0  0  0  0  0  0  0  0  0
    0.2786   -0.6081    3.2804 C   0  0  0  0  0  0  0  0  0  0  0  0
    1.4779   -0.2073    4.1266 C   0  0  0  0  0  0  0  0  0  0  0  0
    1.1506   -0.4072    5.5589 N   0  3  0  0  0  0  0  0  0  0  0  0
   -0.6336    1.4811   -0.2948 H   0  0  0  0  0  0  0  0  0  0  0  0
    0.5119   -1.0873   -0.8500 H   0  0  0  0  0  0  0  0  0  0  0  0
   -1.5078   -0.1542    1.2399 H   0  0  0  0  0  0  0  0  0  0  0  0
   -0.9291   -1.8146    1.1535 H   0  0  0  0  0  0  0  0  0  0  0  0
    1.4279   -1.0000    1.4999 H   0  0  0  0  0  0  0  0  0  0  0  0
    0.8262    0.6552    1.6212 H   0  0  0  0  0  0  0  0  0  0  0  0
    0.0324   -1.6620    3.4603 H   0  0  0  0  0  0  0  0  0  0  0  0
   -0.5982   -0.0184    3.5757 H   0  0  0  0  0  0  0  0  0  0  0  0
    2.3555   -0.8245    3.9125 H   0  0  0  0  0  0  0  0  0  0  0  0
    1.7318    0.8497    4.0036 H   0  0  0  0  0  0  0  0  0  0  0  0
    1.7756    0.1418    6.1591 H   0  0  0  0  0  0  0  0  0  0  0  0
    1.2460   -1.3941    5.8230 H   0  0  0  0  0  0  0  0  0  0  0  0
    0.1867   -0.1187    5.7595 H   0  0  0  0  0  0  0  0  0  0  0  0
   -2.5742   -1.7401   -0.6192 N   0  0  0  0  0  0  0  0  0  0  0  0
   -3.7260   -2.3992   -1.1872 C   0  0  2  0  0  0  0  0  0  0  0  0
   -4.7828   -2.5216   -0.0973 C   0  0  0  0  0  0  0  0  0  0  0  0
   -4.5157   -2.4925    1.1022 O   0  0  0  0  0  0  0  0  0  0  0  0
   -3.3617   -3.7654   -1.7470 C   0  0  0  0  0  0  0  0  0  0  0  0
   -2.5155   -1.6370    0.3895 H   0  0  0  0  0  0  0  0  0  0  0  0
   -4.0991   -1.7504   -1.9872 H   0  0  0  0  0  0  0  0  0  0  0  0
   -2.9859   -4.4294   -0.9601 H   0  0  0  0  0  0  0  0  0  0  0  0
   -4.2304   -4.2518   -2.2030 H   0  0  0  0  0  0  0  0  0  0  0  0
   -2.5803   -3.6783   -2.5097 H   0  0  0  0  0  0  0  0  0  0  0  0
   -6.0538   -2.7105   -0.6217 N   0  0  0  0  0  0  0  0  0  0  0  0
   -7.2247   -2.8670    0.2094 C   0  0  0  0  0  0  0  0  0  0  0  0
   -6.1851   -2.7024   -1.6289 H   0  0  0  0  0  0  0  0  0  0  0  0
   -7.4018   -3.9364    0.3966 H   0  0  0  0  0  0  0  0  0  0  0  0
   -7.0667   -2.3485    1.1666 H   0  0  0  0  0  0  0  0  0  0  0  0
   -8.0975   -2.4349   -0.3020 H   0  0  0  0  0  0  0  0  0  0  0  0
  1  3  1  0  0  0  0
  1  7  1  0  0  0  0
  1  2  2  0  0  0  0
 40 41  1  0  0  0  0
 41 49  1  0  0  0  0
 41 42  2  0  0  0  0
  8  9  1  0  0  0  0
  9 17  1  0  0  0  0
  9 10  2  0  0  0  0
 18 19  1  0  0  0  0
 19 39  1  0  0  0  0
 19 20  2  0  0  0  0
 40 43  1  0  0  0  0
  8 11  1  0  0  0  0
 49 50  1  0  0  0  0
 22 23  1  0  0  0  0
 21 22  1  0  0  0  0
 23 24  1  0  0  0  0
 18 21  1  0  0  0  0
 24 25  1  0  0  0  0
 39 40  1  0  0  0  0
  7  8  1  0  0  0  0
 17 18  1  0  0  0  0
  3  4  1  0  0  0  0
  3  5  1  0  0  0  0
  3  6  1  0  0  0  0
 43 46  1  0  0  0  0
 43 47  1  0  0  0  0
 43 48  1  0  0  0  0
 11 14  1  0  0  0  0
 11 15  1  0  0  0  0
 11 16  1  0  0  0  0
 50 52  1  0  0  0  0
 50 53  1  0  0  0  0
 50 54  1  0  0  0  0
 22 30  1  0  0  0  0
 22 31  1  0  0  0  0
 23 32  1  0  0  0  0
 23 33  1  0  0  0  0
 21 28  1  0  0  0  0
 21 29  1  0  0  0  0
 24 34  1  0  0  0  0
 24 35  1  0  0  0  0
 40 45  1  0  0  0  0
  8 13  1  0  0  0  0
 18 27  1  0  0  0  0
 49 51  1  0  0  0  0
  7 12  1  0  0  0  0
 39 44  1  0  0  0  0
 17 26  1  0  0  0  0
 25 36  1  0  0  0  0
 25 37  1  0  0  0  0
 25 38  1  0  0  0  0
M  CHG  1  25   1
M  END
$$$$

  -OEChem-05262214473D

 54 53  0     1  0  0  0  0  0999 V2000
    2.6714    2.8829   -3.0005 C   0  0  0  0  0  0  0  0  0  0  0  0
    3.1741    2.4398   -1.9745 O   0  0  0  0  0  0  0  0  0  0  0  0
    3.5527    3.3077   -4.1279 C   0  0  0  0  0  0  0  0  0  0  0  0
    3.8407    4.3691   -4.0597 H   0  0  0  0  0  0  0  0  0  0  0  0
    4.5024    2.7495   -4.1526 H   0  0  0  0  0  0  0  0  0  0  0  0
    3.1208    3.1887   -5.1345 H   0  0  0  0  0  0  0  0  0  0  0  0
    1.3174    3.0407   -3.2467 N   0  0  0  0  0  0  0  0  0  0  0  0
    0.2944    2.6927   -2.2960 C   0  0  2  0  0  0  0  0  0  0  0  0
    0.2976    1.1783   -2.1349 C   0  0  0  0  0  0  0  0  0  0  0  0
    0.7500    0.4142   -2.9850 O   0  0  0  0  0  0  0  0  0  0  0  0
   -1.0710    3.1886   -2.7460 C   0  0  0  0  0  0  0  0  0  0  0  0
    1.0312    3.4224   -4.1464 H   0  0  0  0  0  0  0  0  0  0  0  0
    0.5725    3.1622   -1.3461 H   0  0  0  0  0  0  0  0  0  0  0  0
   -1.3666    2.7292   -3.6963 H   0  0  0  0  0  0  0  0  0  0  0  0
   -1.8434    2.9482   -2.0082 H   0  0  0  0  0  0  0  0  0  0  0  0
   -1.0632    4.2744   -2.8901 H   0  0  0  0  0  0  0  0  0  0  0  0
   -0.3037    0.7742   -0.9484 N   0  0  0  0  0  0  0  0  0  0  0  0
   -0.4352   -0.6095   -0.5718 C   0  0  2  0  0  0  0  0  0  0  0  0
   -1.5446   -1.2429   -1.4051 C   0  0  0  0  0  0  0  0  0  0  0  0
   -1.3978   -1.5651   -2.5824 O   0  0  0  0  0  0  0  0  0  0  0  0
   -0.6546   -0.7748    0.9366 C   0  0  0  0  0  0  0  0  0  0  0  0
    0.5615   -0.3950    1.7915 C   0  0  0  0  0  0  0  0  0  0  0  0
    0.2786   -0.6081    3.2804 C   0  0  0  0  0  0  0  0  0  0  0  0
    1.4779   -0.2073    4.1266 C   0  0  0  0  0  0  0  0  0  0  0  0
    1.1506   -0.4072    5.5589 N   0  3  0  0  0  0  0  0  0  0  0  0
   -0.6336    1.4811   -0.2948 H   0  0  0  0  0  0  0  0  0  0  0  0
    0.5119   -1.0873   -0.8500 H   0  0  0  0  0  0  0  0  0  0  0  0
   -1.5078   -0.1542    1.2399 H   0  0  0  0  0  0  0  0  0  0  0  0
   -0.9291   -1.8146    1.1535 H   0  0  0  0  0  0  0  0  0  0  0  0
    1.4279   -1.0000    1.4999 H   0  0  0  0  0  0  0  0  0  0  0  0
    0.8262    0.6552    1.6212 H   0  0  0  0  0  0  0  0  0  0  0  0
    0.0324   -1.6620    3.4603 H   0  0  0  0  0  0  0  0  0  0  0  0
   -0.5982   -0.0184    3.5757 H   0  0  0  0  0  0  0  0  0  0  0  0
    2.3555   -0.8245    3.9125 H   0  0  0  0  0  0  0  0  0  0  0  0
    1.7318    0.8497    4.0036 H   0  0  0  0  0  0  0  0  0  0  0  0
    1.7756    0.1418    6.1591 H   0  0  0  0  0  0  0  0  0  0  0  0
    1.2460   -1.3941    5.8230 H   0  0  0  0  0  0  0  0  0  0  0  0
    0.1867   -0.1187    5.7595 H   0  0  0  0  0  0  0  0  0  0  0  0
   -2.7069   -1.4371   -0.6729 N   0  0  0  0  0  0  0  0  0  0  0  0
   -3.8869   -2.0378   -1.2477 C   0  0  2  0  0  0  0  0  0  0  0  0
   -5.0476   -1.8047   -0.2897 C   0  0  0  0  0  0  0  0  0  0  0  0
   -4.8932   -1.5764    0.9083 O   0  0  0  0  0  0  0  0  0  0  0  0
   -3.6831   -3.5230   -1.5034 C   0  0  0  0  0  0  0  0  0  0  0  0
   -2.7283   -1.1468    0.3002 H   0  0  0  0  0  0  0  0  0  0  0  0
   -4.0804   -1.5152   -2.1908 H   0  0  0  0  0  0  0  0  0  0  0  0
   -3.4879   -4.0633   -0.5699 H   0  0  0  0  0  0  0  0  0  0  0  0
   -4.5687   -3.9712   -1.9658 H   0  0  0  0  0  0  0  0  0  0  0  0
   -2.8294   -3.6903   -2.1690 H   0  0  0  0  0  0  0  0  0  0  0  0
   -6.2777   -1.9244   -0.9212 N   0  0  0  0  0  0  0  0  0  0  0  0
   -7.5316   -1.7601   -0.2235 C   0  0  0  0  0  0  0  0  0  0  0  0
   -6.3110   -2.0967   -1.9217 H   0  0  0  0  0  0  0  0  0  0  0  0
   -7.8856   -2.7394    0.1309 H   0  0  0  0  0  0  0  0  0  0  0  0
   -7.3874   -1.0893    0.6363 H   0  0  0  0  0  0  0  0  0  0  0  0
   -8.2768   -1.3260   -0.9063 H   0  0  0  0  0  0  0  0  0  0  0  0
  1  3  1  0  0  0  0
  1  7  1  0  0  0  0
  1  2  2  0  0  0  0
 40 41  1  0  0  0  0
 41 49  1  0  0  0  0
 41 42  2  0  0  0  0
  8  9  1  0  0  0  0
  9 17  1  0  0  0  0
  9 10  2  0  0  0  0
 18 19  1  0  0  0  0
 19 39  1  0  0  0  0
 19 20  2  0  0  0  0
 40 43  1  0  0  0  0
  8 11  1  0  0  0  0
 49 50  1  0  0  0  0
 22 23  1  0  0  0  0
 21 22  1  0  0  0  0
 23 24  1  0  0  0  0
 18 21  1  0  0  0  0
 24 25  1  0  0  0  0
 39 40  1  0  0  0  0
  7  8  1  0  0  0  0
 17 18  1  0  0  0  0
  3  4  1  0  0  0  0
  3  5  1  0  0  0  0
  3  6  1  0  0  0  0
 43 46  1  0  0  0  0
 43 47  1  0  0  0  0
 43 48  1  0  0  0  0
 11 14  1  0  0  0  0
 11 15  1  0  0  0  0
 11 16  1  0  0  0  0
 50 52  1  0  0  0  0
 50 53  1  0  0  0  0
 50 54  1  0  0  0  0
 22 30  1  0  0  0  0
 22 31  1  0  0  0  0
 23 32  1  0  0  0  0
 23 33  1  0  0  0  0
 21 28  1  0  0  0  0
 21 29  1  0  0  0  0
 24 34  1  0  0  0  0
 24 35  1  0  0  0  0
 40 45  1  0  0  0  0
  8 13  1  0  0  0  0
 18 27  1  0  0  0  0
 49 51  1  0  0  0  0
  7 12  1  0  0  0  0
 39 44  1  0  0  0  0
 17 26  1  0  0  0  0
 25 36  1  0  0  0  0
 25 37  1  0  0  0  0
 25 38  1  0  0  0  0
M  CHG  1  25   1
M  END
$$$$

  -OEChem-05262214473D

 54 53  0     1  0  0  0  0  0999 V2000
    2.6714    2.8829   -3.0005 C   0  0  0  0  0  0  0  0  0  0  0  0
    3.1741    2.4398   -1.9745 O   0  0  0  0  0  0  0  0  0  0  0  0
    3.5527    3.3077   -4.1279 C   0  0  0  0  0  0  0  0  0  0  0  0
    3.8407    4.3691   -4.0597 H   0  0  0  0  0  0  0  0  0  0  0  0
    4.5024    2.7495   -4.1526 H   0  0  0  0  0  0  0  0  0  0  0  0
    3.1208    3.1887   -5.1345 H   0  0  0  0  0  0  0  0  0  0  0  0
    1.3174    3.0407   -3.2467 N   0  0  0  0  0  0  0  0  0  0  0  0
    0.2944    2.6927   -2.2960 C   0  0  2  0  0  0  0  0  0  0  0  0
    0.2976    1.1783   -2.1349 C   0  0  0  0  0  0  0  0  0  0  0  0
    0.7500    0.4142   -2.9850 O   0  0  0  0  0  0  0  0  0  0  0  0
   -1.0710    3.1886   -2.7460 C   0  0  0  0  0  0  0  0  0  0  0  0
    1.0312    3.4224   -4.1464 H   0  0  0  0  0  0  0  0  0  0  0  0
    0.5725    3.1622   -1.3461 H   0  0  0  0  0  0  0  0  0  0  0  0
   -1.3666    2.7292   -3.6963 H   0  0  0  0  0  0  0  0  0  0  0  0
   -1.8434    2.9482   -2.0082 H   0  0  0  0  0  0  0  0  0  0  0  0
   -1.0632    4.2744   -2.8901 H   0  0  0  0  0  0  0  0  0  0  0  0
   -0.3037    0.7742   -0.9484 N   0  0  0  0  0  0  0  0  0  0  0  0
   -0.4352   -0.6095   -0.5718 C   0  0  2  0  0  0  0  0  0  0  0  0
   -1.5446   -1.2429   -1.4051 C   0  0  0  0  0  0  0  0  0  0  0  0
   -1.3384   -1.8060   -2.4783 O   0  0  0  0  0  0  0  0  0  0  0  0
   -0.6546   -0.7748    0.9366 C   0  0  0  0  0  0  0  0  0  0  0  0
    0.5615   -0.3950    1.7915 C   0  0  0  0  0  0  0  0  0  0  0  0
    0.2786   -0.6081    3.2804 C   0  0  0  0  0  0  0  0  0  0  0  0
    1.4779   -0.2073    4.1266 C   0  0  0  0  0  0  0  0  0  0  0  0
    1.1506   -0.4072    5.5589 N   0  3  0  0  0  0  0  0  0  0  0  0
   -0.6336    1.4811   -0.2948 H   0  0  0  0  0  0  0  0  0  0  0  0
    0.5119   -1.0873   -0.8500 H   0  0  0  0  0  0  0  0  0  0  0  0
   -1.5078   -0.1542    1.2399 H   0  0  0  0  0  0  0  0  0  0  0  0
   -0.9291   -1.8146    1.1535 H   0  0  0  0  0  0  0  0  0  0  0  0
    1.4279   -1.0000    1.4999 H   0  0  0  0  0  0  0  0  0  0  0  0
    0.8262    0.6552    1.6212 H   0  0  0  0  0  0  0  0  0  0  0  0
    0.0324   -1.6620    3.4603 H   0  0  0  0  0  0  0  0  0  0  0  0
   -0.5982   -0.0184    3.5757 H   0  0  0  0  0  0  0  0  0  0  0  0
    2.3555   -0.8245    3.9125 H   0  0  0  0  0  0  0  0  0  0  0  0
    1.7318    0.8497    4.0036 H   0  0  0  0  0  0  0  0  0  0  0  0
    1.7756    0.1418    6.1591 H   0  0  0  0  0  0  0  0  0  0  0  0
    1.2460   -1.3941    5.8230 H   0  0  0  0  0  0  0  0  0  0  0  0
    0.1867   -0.1187    5.7595 H   0  0  0  0  0  0  0  0  0  0  0  0
   -2.7865   -1.1357   -0.7960 N   0  0  0  0  0  0  0  0  0  0  0  0
   -3.9847   -1.6775   -1.3914 C   0  0  2  0  0  0  0  0  0  0  0  0
   -5.1814   -1.1110   -0.6389 C   0  0  0  0  0  0  0  0  0  0  0  0
   -5.1074   -0.6746    0.5079 O   0  0  0  0  0  0  0  0  0  0  0  0
   -3.9854   -3.1976   -1.3483 C   0  0  0  0  0  0  0  0  0  0  0  0
   -2.8549   -0.6601    0.0989 H   0  0  0  0  0  0  0  0  0  0  0  0
   -4.0072   -1.3291   -2.4298 H   0  0  0  0  0  0  0  0  0  0  0  0
   -3.9630   -3.5653   -0.3159 H   0  0  0  0  0  0  0  0  0  0  0  0
   -4.8814   -3.6077   -1.8258 H   0  0  0  0  0  0  0  0  0  0  0  0
   -3.1082   -3.6026   -1.8644 H   0  0  0  0  0  0  0  0  0  0  0  0
   -6.3506   -1.1898   -1.3826 N   0  0  0  0  0  0  0  0  0  0  0  0
   -7.6249   -0.7290   -0.8830 C   0  0  0  0  0  0  0  0  0  0  0  0
   -6.3155   -1.5489   -2.3321 H   0  0  0  0  0  0  0  0  0  0  0  0
   -8.1552   -1.5648   -0.4031 H   0  0  0  0  0  0  0  0  0  0  0  0
   -7.4621    0.0725   -0.1473 H   0  0  0  0  0  0  0  0  0  0  0  0
   -8.2282   -0.3432   -1.7180 H   0  0  0  0  0  0  0  0  0  0  0  0
  1  3  1  0  0  0  0
  1  7  1  0  0  0  0
  1  2  2  0  0  0  0
 40 41  1  0  0  0  0
 41 49  1  0  0  0  0
 41 42  2  0  0  0  0
  8  9  1  0  0  0  0
  9 17  1  0  0  0  0
  9 10  2  0  0  0  0
 18 19  1  0  0  0  0
 19 39  1  0  0  0  0
 19 20  2  0  0  0  0
 40 43  1  0  0  0  0
  8 11  1  0  0  0  0
 49 50  1  0  0  0  0
 22 23  1  0  0  0  0
 21 22  1  0  0  0  0
 23 24  1  0  0  0  0
 18 21  1  0  0  0  0
 24 25  1  0  0  0  0
 39 40  1  0  0  0  0
  7  8  1  0  0  0  0
 17 18  1  0  0  0  0
  3  4  1  0  0  0  0
  3  5  1  0  0  0  0
  3  6  1  0  0  0  0
 43 46  1  0  0  0  0
 43 47  1  0  0  0  0
 43 48  1  0  0  0  0
 11 14  1  0  0  0  0
 11 15  1  0  0  0  0
 11 16  1  0  0  0  0
 50 52  1  0  0  0  0
 50 53  1  0  0  0  0
 50 54  1  0  0  0  0
 22 30  1  0  0  0  0
 22 31  1  0  0  0  0
 23 32  1  0  0  0  0
 23 33  1  0  0  0  0
 21 28  1  0  0  0  0
 21 29  1  0  0  0  0
 24 34  1  0  0  0  0
 24 35  1  0  0  0  0
 40 45  1  0  0  0  0
  8 13  1  0  0  0  0
 18 27  1  0  0  0  0
 49 51  1  0  0  0  0
  7 12  1  0  0  0  0
 39 44  1  0  0  0  0
 17 26  1  0  0  0  0
 25 36  1  0  0  0  0
 25 37  1  0  0  0  0
 25 38  1  0  0  0  0
M  CHG  1  25   1
M  END
$$$$

  -OEChem-05262214473D

 54 53  0     1  0  0  0  0  0999 V2000
    2.6714    2.8829   -3.0005 C   0  0  0  0  0  0  0  0  0  0  0  0
    3.1741    2.4398   -1.9745 O   0  0  0  0  0  0  0  0  0  0  0  0
    3.5527    3.3077   -4.1279 C   0  0  0  0  0  0  0  0  0  0  0  0
    3.8407    4.3691   -4.0597 H   0  0  0  0  0  0  0  0  0  0  0  0
    4.5024    2.7495   -4.1526 H   0  0  0  0  0  0  0  0  0  0  0  0
    3.1208    3.1887   -5.1345 H   0  0  0  0  0  0  0  0  0  0  0  0
    1.3174    3.0407   -3.2467 N   0  0  0  0  0  0  0  0  0  0  0  0
    0.2944    2.6927   -2.2960 C   0  0  2  0  0  0  0  0  0  0  0  0
    0.2976    1.1783   -2.1349 C   0  0  0  0  0  0  0  0  0  0  0  0
    0.7500    0.4142   -2.9850 O   0  0  0  0  0  0  0  0  0  0  0  0
   -1.0710    3.1886   -2.7460 C   0  0  0  0  0  0  0  0  0  0  0  0
    1.0312    3.4224   -4.1464 H   0  0  0  0  0  0  0  0  0  0  0  0
    0.5725    3.1622   -1.3461 H   0  0  0  0  0  0  0  0  0  0  0  0
   -1.3666    2.7292   -3.6963 H   0  0  0  0  0  0  0  0  0  0  0  0
   -1.8434    2.9482   -2.0082 H   0  0  0  0  0  0  0  0  0  0  0  0
   -1.0632    4.2744   -2.8901 H   0  0  0  0  0  0  0  0  0  0  0  0
   -0.3037    0.7742   -0.9484 N   0  0  0  0  0  0  0  0  0  0  0  0
   -0.4352   -0.6095   -0.5718 C   0  0  2  0  0  0  0  0  0  0  0  0
   -1.5446   -1.2429   -1.4051 C   0  0  0  0  0  0  0  0  0  0  0  0
   -1.3263   -2.0275   -2.3261 O   0  0  0  0  0  0  0  0  0  0  0  0
   -0.6546   -0.7748    0.9366 C   0  0  0  0  0  0  0  0  0  0  0  0
    0.5615   -0.3950    1.7915 C   0  0  0  0  0  0  0  0  0  0  0  0
    0.2786   -0.6081    3.2804 C   0  0  0  0  0  0  0  0  0  0  0  0
    1.4779   -0.2073    4.1266 C   0  0  0  0  0  0  0  0  0  0  0  0
    1.1506   -0.4072    5.5589 N   0  3  0  0  0  0  0  0  0  0  0  0
   -0.6336    1.4811   -0.2948 H   0  0  0  0  0  0  0  0  0  0  0  0
    0.5119   -1.0873   -0.8500 H   0  0  0  0  0  0  0  0  0  0  0  0
   -1.5078   -0.1542    1.2399 H   0  0  0  0  0  0  0  0  0  0  0  0
   -0.9291   -1.8146    1.1535 H   0  0  0  0  0  0  0  0  0  0  0  0
    1.4279   -1.0000    1.4999 H   0  0  0  0  0  0  0  0  0  0  0  0
    0.8262    0.6552    1.6212 H   0  0  0  0  0  0  0  0  0  0  0  0
    0.0324   -1.6620    3.4603 H   0  0  0  0  0  0  0  0  0  0  0  0
   -0.5982   -0.0184    3.5757 H   0  0  0  0  0  0  0  0  0  0  0  0
    2.3555   -0.8245    3.9125 H   0  0  0  0  0  0  0  0  0  0  0  0
    1.7318    0.8497    4.0036 H   0  0  0  0  0  0  0  0  0  0  0  0
    1.7756    0.1418    6.1591 H   0  0  0  0  0  0  0  0  0  0  0  0
    1.2460   -1.3941    5.8230 H   0  0  0  0  0  0  0  0  0  0  0  0
    0.1867   -0.1187    5.7595 H   0  0  0  0  0  0  0  0  0  0  0  0
   -2.8076   -0.8565   -0.9802 N   0  0  0  0  0  0  0  0  0  0  0  0
   -4.0127   -1.3426   -1.6086 C   0  0  2  0  0  0  0  0  0  0  0  0
   -5.1751   -0.4877   -1.1212 C   0  0  0  0  0  0  0  0  0  0  0  0
   -5.1437    0.1514   -0.0716 O   0  0  0  0  0  0  0  0  0  0  0  0
   -4.2481   -2.8114   -1.2922 C   0  0  0  0  0  0  0  0  0  0  0  0
   -2.8868   -0.2100   -0.2009 H   0  0  0  0  0  0  0  0  0  0  0  0
   -3.8845   -1.2046   -2.6878 H   0  0  0  0  0  0  0  0  0  0  0  0
   -4.3789   -2.9693   -0.2154 H   0  0  0  0  0  0  0  0  0  0  0  0
   -5.1471   -3.1860   -1.7927 H   0  0  0  0  0  0  0  0  0  0  0  0
   -3.3979   -3.4211   -1.6167 H   0  0  0  0  0  0  0  0  0  0  0  0
   -6.2675   -0.5568   -1.9744 N   0  0  0  0  0  0  0  0  0  0  0  0
   -7.4985    0.1560   -1.7241 C   0  0  0  0  0  0  0  0  0  0  0  0
   -6.1983   -1.0964   -2.8321 H   0  0  0  0  0  0  0  0  0  0  0  0
   -8.1921   -0.4926   -1.1691 H   0  0  0  0  0  0  0  0  0  0  0  0
   -7.2858    1.0577   -1.1310 H   0  0  0  0  0  0  0  0  0  0  0  0
   -7.9551    0.4464   -2.6818 H   0  0  0  0  0  0  0  0  0  0  0  0
  1  3  1  0  0  0  0
  1  7  1  0  0  0  0
  1  2  2  0  0  0  0
 40 41  1  0  0  0  0
 41 49  1  0  0  0  0
 41 42  2  0  0  0  0
  8  9  1  0  0  0  0
  9 17  1  0  0  0  0
  9 10  2  0  0  0  0
 18 19  1  0  0  0  0
 19 39  1  0  0  0  0
 19 20  2  0  0  0  0
 40 43  1  0  0  0  0
  8 11  1  0  0  0  0
 49 50  1  0  0  0  0
 22 23  1  0  0  0  0
 21 22  1  0  0  0  0
 23 24  1  0  0  0  0
 18 21  1  0  0  0  0
 24 25  1  0  0  0  0
 39 40  1  0  0  0  0
  7  8  1  0  0  0  0
 17 18  1  0  0  0  0
  3  4  1  0  0  0  0
  3  5  1  0  0  0  0
  3  6  1  0  0  0  0
 43 46  1  0  0  0  0
 43 47  1  0  0  0  0
 43 48  1  0  0  0  0
 11 14  1  0  0  0  0
 11 15  1  0  0  0  0
 11 16  1  0  0  0  0
 50 52  1  0  0  0  0
 50 53  1  0  0  0  0
 50 54  1  0  0  0  0
 22 30  1  0  0  0  0
 22 31  1  0  0  0  0
 23 32  1  0  0  0  0
 23 33  1  0  0  0  0
 21 28  1  0  0  0  0
 21 29  1  0  0  0  0
 24 34  1  0  0  0  0
 24 35  1  0  0  0  0
 40 45  1  0  0  0  0
  8 13  1  0  0  0  0
 18 27  1  0  0  0  0
 49 51  1  0  0  0  0
  7 12  1  0  0  0  0
 39 44  1  0  0  0  0
 17 26  1  0  0  0  0
 25 36  1  0  0  0  0
 25 37  1  0  0  0  0
 25 38  1  0  0  0  0
M  CHG  1  25   1
M  END
$$$$

  -OEChem-05262214473D

 54 53  0     1  0  0  0  0  0999 V2000
    2.6714    2.8829   -3.0005 C   0  0  0  0  0  0  0  0  0  0  0  0
    3.1741    2.4398   -1.9745 O   0  0  0  0  0  0  0  0  0  0  0  0
    3.5527    3.3077   -4.1279 C   0  0  0  0  0  0  0  0  0  0  0  0
    3.8407    4.3691   -4.0597 H   0  0  0  0  0  0  0  0  0  0  0  0
    4.5024    2.7495   -4.1526 H   0  0  0  0  0  0  0  0  0  0  0  0
    3.1208    3.1887   -5.1345 H   0  0  0  0  0  0  0  0  0  0  0  0
    1.3174    3.0407   -3.2467 N   0  0  0  0  0  0  0  0  0  0  0  0
    0.2944    2.6927   -2.2960 C   0  0  2  0  0  0  0  0  0  0  0  0
    0.2976    1.1783   -2.1349 C   0  0  0  0  0  0  0  0  0  0  0  0
    0.7500    0.4142   -2.9850 O   0  0  0  0  0  0  0  0  0  0  0  0
   -1.0710    3.1886   -2.7460 C   0  0  0  0  0  0  0  0  0  0  0  0
    1.0312    3.4224   -4.1464 H   0  0  0  0  0  0  0  0  0  0  0  0
    0.5725    3.1622   -1.3461 H   0  0  0  0  0  0  0  0  0  0  0  0
   -1.3666    2.7292   -3.6963 H   0  0  0  0  0  0  0  0  0  0  0  0
   -1.8434    2.9482   -2.0082 H   0  0  0  0  0  0  0  0  0  0  0  0
   -1.0632    4.2744   -2.8901 H   0  0  0  0  0  0  0  0  0  0  0  0
   -0.3037    0.7742   -0.9484 N   0  0  0  0  0  0  0  0  0  0  0  0
   -0.4352   -0.6095   -0.5718 C   0  0  2  0  0  0  0  0  0  0  0  0
   -1.5446   -1.2429   -1.4051 C   0  0  0  0  0  0  0  0  0  0  0  0
   -1.3623   -2.2145   -2.1360 O   0  0  0  0  0  0  0  0  0  0  0  0
   -0.6546   -0.7748    0.9366 C   0  0  0  0  0  0  0  0  0  0  0  0
    0.5615   -0.3950    1.7915 C   0  0  0  0  0  0  0  0  0  0  0  0
    0.2786   -0.6081    3.2804 C   0  0  0  0  0  0  0  0  0  0  0  0
    1.4779   -0.2073    4.1266 C   0  0  0  0  0  0  0  0  0  0  0  0
    1.1506   -0.4072    5.5589 N   0  3  0  0  0  0  0  0  0  0  0  0
   -0.6336    1.4811   -0.2948 H   0  0  0  0  0  0  0  0  0  0  0  0
    0.5119   -1.0873   -0.8500 H   0  0  0  0  0  0  0  0  0  0  0  0
   -1.5078   -0.1542    1.2399 H   0  0  0  0  0  0  0  0  0  0  0  0
   -0.9291   -1.8146    1.1535 H   0  0  0  0  0  0  0  0  0  0  0  0
    1.4279   -1.0000    1.4999 H   0  0  0  0  0  0  0  0  0  0  0  0
    0.8262    0.6552    1.6212 H   0  0  0  0  0  0  0  0  0  0  0  0
    0.0324   -1.6620    3.4603 H   0  0  0  0  0  0  0  0  0  0  0  0
   -0.5982   -0.0184    3.5757 H   0  0  0  0  0  0  0  0  0  0  0  0
    2.3555   -0.8245    3.9125 H   0  0  0  0  0  0  0  0  0  0  0  0
    1.7318    0.8497    4.0036 H   0  0  0  0  0  0  0  0  0  0  0  0
    1.7756    0.1418    6.1591 H   0  0  0  0  0  0  0  0  0  0  0  0
    1.2460   -1.3941    5.8230 H   0  0  0  0  0  0  0  0  0  0  0  0
    0.1867   -0.1187    5.7595 H   0  0  0  0  0  0  0  0  0  0  0  0
   -2.7686   -0.6186   -1.2130 N   0  0  0  0  0  0  0  0  0  0  0  0
   -3.9691   -1.0561   -1.8845 C   0  0  2  0  0  0  0  0  0  0  0  0
   -5.0289    0.0226   -1.7037 C   0  0  0  0  0  0  0  0  0  0  0  0
   -4.9997    0.8453   -0.7908 O   0  0  0  0  0  0  0  0  0  0  0  0
   -4.4532   -2.3906   -1.3390 C   0  0  0  0  0  0  0  0  0  0  0  0
   -2.8217    0.1728   -0.5786 H   0  0  0  0  0  0  0  0  0  0  0  0
   -3.7206   -1.1503   -2.9472 H   0  0  0  0  0  0  0  0  0  0  0  0
   -4.7070   -2.3159   -0.2752 H   0  0  0  0  0  0  0  0  0  0  0  0
   -5.3476   -2.7349   -1.8687 H   0  0  0  0  0  0  0  0  0  0  0  0
   -3.6787   -3.1581   -1.4428 H   0  0  0  0  0  0  0  0  0  0  0  0
   -6.0341   -0.0685   -2.6562 N   0  0  0  0  0  0  0  0  0  0  0  0
   -7.1607    0.8347   -2.6896 C   0  0  0  0  0  0  0  0  0  0  0  0
   -5.9673   -0.7701   -3.3877 H   0  0  0  0  0  0  0  0  0  0  0  0
   -7.9938    0.4040   -2.1147 H   0  0  0  0  0  0  0  0  0  0  0  0
   -6.8704    1.7993   -2.2478 H   0  0  0  0  0  0  0  0  0  0  0  0
   -7.4760    0.9890   -3.7321 H   0  0  0  0  0  0  0  0  0  0  0  0
  1  3  1  0  0  0  0
  1  7  1  0  0  0  0
  1  2  2  0  0  0  0
 40 41  1  0  0  0  0
 41 49  1  0  0  0  0
 41 42  2  0  0  0  0
  8  9  1  0  0  0  0
  9 17  1  0  0  0  0
  9 10  2  0  0  0  0
 18 19  1  0  0  0  0
 19 39  1  0  0  0  0
 19 20  2  0  0  0  0
 40 43  1  0  0  0  0
  8 11  1  0  0  0  0
 49 50  1  0  0  0  0
 22 23  1  0  0  0  0
 21 22  1  0  0  0  0
 23 24  1  0  0  0  0
 18 21  1  0  0  0  0
 24 25  1  0  0  0  0
 39 40  1  0  0  0  0
  7  8  1  0  0  0  0
 17 18  1  0  0  0  0
  3  4  1  0  0  0  0
  3  5  1  0  0  0  0
  3  6  1  0  0  0  0
 43 46  1  0  0  0  0
 43 47  1  0  0  0  0
 43 48  1  0  0  0  0
 11 14  1  0  0  0  0
 11 15  1  0  0  0  0
 11 16  1  0  0  0  0
 50 52  1  0  0  0  0
 50 53  1  0  0  0  0
 50 54  1  0  0  0  0
 22 30  1  0  0  0  0
 22 31  1  0  0  0  0
 23 32  1  0  0  0  0
 23 33  1  0  0  0  0
 21 28  1  0  0  0  0
 21 29  1  0  0  0  0
 24 34  1  0  0  0  0
 24 35  1  0  0  0  0
 40 45  1  0  0  0  0
  8 13  1  0  0  0  0
 18 27  1  0  0  0  0
 49 51  1  0  0  0  0
  7 12  1  0  0  0  0
 39 44  1  0  0  0  0
 17 26  1  0  0  0  0
 25 36  1  0  0  0  0
 25 37  1  0  0  0  0
 25 38  1  0  0  0  0
M  CHG  1  25   1
M  END
$$$$

  -OEChem-05262214473D

 54 53  0     1  0  0  0  0  0999 V2000
    2.6714    2.8829   -3.0005 C   0  0  0  0  0  0  0  0  0  0  0  0
    3.1741    2.4398   -1.9745 O   0  0  0  0  0  0  0  0  0  0  0  0
    3.5527    3.3077   -4.1279 C   0  0  0  0  0  0  0  0  0  0  0  0
    3.8407    4.3691   -4.0597 H   0  0  0  0  0  0  0  0  0  0  0  0
    4.5024    2.7495   -4.1526 H   0  0  0  0  0  0  0  0  0  0  0  0
    3.1208    3.1887   -5.1345 H   0  0  0  0  0  0  0  0  0  0  0  0
    1.3174    3.0407   -3.2467 N   0  0  0  0  0  0  0  0  0  0  0  0
    0.2944    2.6927   -2.2960 C   0  0  2  0  0  0  0  0  0  0  0  0
    0.2976    1.1783   -2.1349 C   0  0  0  0  0  0  0  0  0  0  0  0
    0.7500    0.4142   -2.9850 O   0  0  0  0  0  0  0  0  0  0  0  0
   -1.0710    3.1886   -2.7460 C   0  0  0  0  0  0  0  0  0  0  0  0
    1.0312    3.4224   -4.1464 H   0  0  0  0  0  0  0  0  0  0  0  0
    0.5725    3.1622   -1.3461 H   0  0  0  0  0  0  0  0  0  0  0  0
   -1.3666    2.7292   -3.6963 H   0  0  0  0  0  0  0  0  0  0  0  0
   -1.8434    2.9482   -2.0082 H   0  0  0  0  0  0  0  0  0  0  0  0
   -1.0632    4.2744   -2.8901 H   0  0  0  0  0  0  0  0  0  0  0  0
   -0.3037    0.7742   -0.9484 N   0  0  0  0  0  0  0  0  0  0  0  0
   -0.4352   -0.6095   -0.5718 C   0  0  2  0  0  0  0  0  0  0  0  0
   -1.5446   -1.2429   -1.4051 C   0  0  0  0  0  0  0  0  0  0  0  0
   -1.4439   -2.3543   -1.9211 O   0  0  0  0  0  0  0  0  0  0  0  0
   -0.6546   -0.7748    0.9366 C   0  0  0  0  0  0  0  0  0  0  0  0
    0.5615   -0.3950    1.7915 C   0  0  0  0  0  0  0  0  0  0  0  0
    0.2786   -0.6081    3.2804 C   0  0  0  0  0  0  0  0  0  0  0  0
    1.4779   -0.2073    4.1266 C   0  0  0  0  0  0  0  0  0  0  0  0
    1.1506   -0.4072    5.5589 N   0  3  0  0  0  0  0  0  0  0  0  0
   -0.6336    1.4811   -0.2948 H   0  0  0  0  0  0  0  0  0  0  0  0
    0.5119   -1.0873   -0.8500 H   0  0  0  0  0  0  0  0  0  0  0  0
   -1.5078   -0.1542    1.2399 H   0  0  0  0  0  0  0  0  0  0  0  0
   -0.9291   -1.8146    1.1535 H   0  0  0  0  0  0  0  0  0  0  0  0
    1.4279   -1.0000    1.4999 H   0  0  0  0  0  0  0  0  0  0  0  0
    0.8262    0.6552    1.6212 H   0  0  0  0  0  0  0  0  0  0  0  0
    0.0324   -1.6620    3.4603 H   0  0  0  0  0  0  0  0  0  0  0  0
   -0.5982   -0.0184    3.5757 H   0  0  0  0  0  0  0  0  0  0  0  0
    2.3555   -0.8245    3.9125 H   0  0  0  0  0  0  0  0  0  0  0  0
    1.7318    0.8497    4.0036 H   0  0  0  0  0  0  0  0  0  0  0  0
    1.7756    0.1418    6.1591 H   0  0  0  0  0  0  0  0  0  0  0  0
    1.2460   -1.3941    5.8230 H   0  0  0  0  0  0  0  0  0  0  0  0
    0.1867   -0.1187    5.7595 H   0  0  0  0  0  0  0  0  0  0  0  0
   -2.6723   -0.4380   -1.4784 N   0  0  0  0  0  0  0  0  0  0  0  0
   -3.8569   -0.8375   -2.2002 C   0  0  2  0  0  0  0  0  0  0  0  0
   -4.7530    0.3852   -2.3467 C   0  0  0  0  0  0  0  0  0  0  0  0
   -4.6852    1.3598   -1.6006 O   0  0  0  0  0  0  0  0  0  0  0  0
   -4.5869   -1.9639   -1.4854 C   0  0  0  0  0  0  0  0  0  0  0  0
   -2.6641    0.4624   -1.0085 H   0  0  0  0  0  0  0  0  0  0  0  0
   -3.5268   -1.1698   -3.1905 H   0  0  0  0  0  0  0  0  0  0  0  0
   -4.9252   -1.6496   -0.4913 H   0  0  0  0  0  0  0  0  0  0  0  0
   -5.4693   -2.2850   -2.0486 H   0  0  0  0  0  0  0  0  0  0  0  0
   -3.9315   -2.8317   -1.3544 H   0  0  0  0  0  0  0  0  0  0  0  0
   -5.6664    0.2418   -3.3817 N   0  0  0  0  0  0  0  0  0  0  0  0
   -6.6348    1.2607   -3.7137 C   0  0  0  0  0  0  0  0  0  0  0  0
   -5.6384   -0.5921   -3.9609 H   0  0  0  0  0  0  0  0  0  0  0  0
   -7.5738    1.0640   -3.1756 H   0  0  0  0  0  0  0  0  0  0  0  0
   -6.2443    2.2466   -3.4214 H   0  0  0  0  0  0  0  0  0  0  0  0
   -6.8237    1.2476   -4.7973 H   0  0  0  0  0  0  0  0  0  0  0  0
  1  3  1  0  0  0  0
  1  7  1  0  0  0  0
  1  2  2  0  0  0  0
 40 41  1  0  0  0  0
 41 49  1  0  0  0  0
 41 42  2  0  0  0  0
  8  9  1  0  0  0  0
  9 17  1  0  0  0  0
  9 10  2  0  0  0  0
 18 19  1  0  0  0  0
 19 39  1  0  0  0  0
 19 20  2  0  0  0  0
 40 43  1  0  0  0  0
  8 11  1  0  0  0  0
 49 50  1  0  0  0  0
 22 23  1  0  0  0  0
 21 22  1  0  0  0  0
 23 24  1  0  0  0  0
 18 21  1  0  0  0  0
 24 25  1  0  0  0  0
 39 40  1  0  0  0  0
  7  8  1  0  0  0  0
 17 18  1  0  0  0  0
  3  4  1  0  0  0  0
  3  5  1  0  0  0  0
  3  6  1  0  0  0  0
 43 46  1  0  0  0  0
 43 47  1  0  0  0  0
 43 48  1  0  0  0  0
 11 14  1  0  0  0  0
 11 15  1  0  0  0  0
 11 16  1  0  0  0  0
 50 52  1  0  0  0  0
 50 53  1  0  0  0  0
 50 54  1  0  0  0  0
 22 30  1  0  0  0  0
 22 31  1  0  0  0  0
 23 32  1  0  0  0  0
 23 33  1  0  0  0  0
 21 28  1  0  0  0  0
 21 29  1  0  0  0  0
 24 34  1  0  0  0  0
 24 35  1  0  0  0  0
 40 45  1  0  0  0  0
  8 13  1  0  0  0  0
 18 27  1  0  0  0  0
 49 51  1  0  0  0  0
  7 12  1  0  0  0  0
 39 44  1  0  0  0  0
 17 26  1  0  0  0  0
 25 36  1  0  0  0  0
 25 37  1  0  0  0  0
 25 38  1  0  0  0  0
M  CHG  1  25   1
M  END
$$$$

  -OEChem-05262214473D

 54 53  0     1  0  0  0  0  0999 V2000
    2.6714    2.8829   -3.0005 C   0  0  0  0  0  0  0  0  0  0  0  0
    3.1741    2.4398   -1.9745 O   0  0  0  0  0  0  0  0  0  0  0  0
    3.5527    3.3077   -4.1279 C   0  0  0  0  0  0  0  0  0  0  0  0
    3.8407    4.3691   -4.0597 H   0  0  0  0  0  0  0  0  0  0  0  0
    4.5024    2.7495   -4.1526 H   0  0  0  0  0  0  0  0  0  0  0  0
    3.1208    3.1887   -5.1345 H   0  0  0  0  0  0  0  0  0  0  0  0
    1.3174    3.0407   -3.2467 N   0  0  0  0  0  0  0  0  0  0  0  0
    0.2944    2.6927   -2.2960 C   0  0  2  0  0  0  0  0  0  0  0  0
    0.2976    1.1783   -2.1349 C   0  0  0  0  0  0  0  0  0  0  0  0
    0.7500    0.4142   -2.9850 O   0  0  0  0  0  0  0  0  0  0  0  0
   -1.0710    3.1886   -2.7460 C   0  0  0  0  0  0  0  0  0  0  0  0
    1.0312    3.4224   -4.1464 H   0  0  0  0  0  0  0  0  0  0  0  0
    0.5725    3.1622   -1.3461 H   0  0  0  0  0  0  0  0  0  0  0  0
   -1.3666    2.7292   -3.6963 H   0  0  0  0  0  0  0  0  0  0  0  0
   -1.8434    2.9482   -2.0082 H   0  0  0  0  0  0  0  0  0  0  0  0
   -1.0632    4.2744   -2.8901 H   0  0  0  0  0  0  0  0  0  0  0  0
   -0.3037    0.7742   -0.9484 N   0  0  0  0  0  0  0  0  0  0  0  0
   -0.4352   -0.6095   -0.5718 C   0  0  2  0  0  0  0  0  0  0  0  0
   -1.5446   -1.2429   -1.4051 C   0  0  0  0  0  0  0  0  0  0  0  0
   -1.5657   -2.4372   -1.6959 O   0  0  0  0  0  0  0  0  0  0  0  0
   -0.6546   -0.7748    0.9366 C   0  0  0  0  0  0  0  0  0  0  0  0
    0.5615   -0.3950    1.7915 C   0  0  0  0  0  0  0  0  0  0  0  0
    0.2786   -0.6081    3.2804 C   0  0  0  0  0  0  0  0  0  0  0  0
    1.4779   -0.2073    4.1266 C   0  0  0  0  0  0  0  0  0  0  0  0
    1.1506   -0.4072    5.5589 N   0  3  0  0  0  0  0  0  0  0  0  0
   -0.6336    1.4811   -0.2948 H   0  0  0  0  0  0  0  0  0  0  0  0
    0.5119   -1.0873   -0.8500 H   0  0  0  0  0  0  0  0  0  0  0  0
   -1.5078   -0.1542    1.2399 H   0  0  0  0  0  0  0  0  0  0  0  0
   -0.9291   -1.8146    1.1535 H   0  0  0  0  0  0  0  0  0  0  0  0
    1.4279   -1.0000    1.4999 H   0  0  0  0  0  0  0  0  0  0  0  0
    0.8262    0.6552    1.6212 H   0  0  0  0  0  0  0  0  0  0  0  0
    0.0324   -1.6620    3.4603 H   0  0  0  0  0  0  0  0  0  0  0  0
   -0.5982   -0.0184    3.5757 H   0  0  0  0  0  0  0  0  0  0  0  0
    2.3555   -0.8245    3.9125 H   0  0  0  0  0  0  0  0  0  0  0  0
    1.7318    0.8497    4.0036 H   0  0  0  0  0  0  0  0  0  0  0  0
    1.7756    0.1418    6.1591 H   0  0  0  0  0  0  0  0  0  0  0  0
    1.2460   -1.3941    5.8230 H   0  0  0  0  0  0  0  0  0  0  0  0
    0.1867   -0.1187    5.7595 H   0  0  0  0  0  0  0  0  0  0  0  0
   -2.5252   -0.3272   -1.7584 N   0  0  0  0  0  0  0  0  0  0  0  0
   -3.6835   -0.7016   -2.5342 C   0  0  2  0  0  0  0  0  0  0  0  0
   -4.3661    0.5754   -3.0064 C   0  0  0  0  0  0  0  0  0  0  0  0
   -4.2216    1.6599   -2.4459 O   0  0  0  0  0  0  0  0  0  0  0  0
   -4.6399   -1.5604   -1.7215 C   0  0  0  0  0  0  0  0  0  0  0  0
   -2.4247    0.6388   -1.4613 H   0  0  0  0  0  0  0  0  0  0  0  0
   -3.3162   -1.2619   -3.4009 H   0  0  0  0  0  0  0  0  0  0  0  0
   -5.0185   -1.0158   -0.8489 H   0  0  0  0  0  0  0  0  0  0  0  0
   -5.5040   -1.8672   -2.3201 H   0  0  0  0  0  0  0  0  0  0  0  0
   -4.1389   -2.4640   -1.3577 H   0  0  0  0  0  0  0  0  0  0  0  0
   -5.1893    0.3530   -4.1014 N   0  0  0  0  0  0  0  0  0  0  0  0
   -5.9564    1.4050   -4.7265 C   0  0  0  0  0  0  0  0  0  0  0  0
   -5.2339   -0.5747   -4.5128 H   0  0  0  0  0  0  0  0  0  0  0  0
   -6.9607    1.4425   -4.2794 H   0  0  0  0  0  0  0  0  0  0  0  0
   -5.4501    2.3692   -4.5719 H   0  0  0  0  0  0  0  0  0  0  0  0
   -6.0425    1.2047   -5.8047 H   0  0  0  0  0  0  0  0  0  0  0  0
  1  3  1  0  0  0  0
  1  7  1  0  0  0  0
  1  2  2  0  0  0  0
 40 41  1  0  0  0  0
 41 49  1  0  0  0  0
 41 42  2  0  0  0  0
  8  9  1  0  0  0  0
  9 17  1  0  0  0  0
  9 10  2  0  0  0  0
 18 19  1  0  0  0  0
 19 39  1  0  0  0  0
 19 20  2  0  0  0  0
 40 43  1  0  0  0  0
  8 11  1  0  0  0  0
 49 50  1  0  0  0  0
 22 23  1  0  0  0  0
 21 22  1  0  0  0  0
 23 24  1  0  0  0  0
 18 21  1  0  0  0  0
 24 25  1  0  0  0  0
 39 40  1  0  0  0  0
  7  8  1  0  0  0  0
 17 18  1  0  0  0  0
  3  4  1  0  0  0  0
  3  5  1  0  0  0  0
  3  6  1  0  0  0  0
 43 46  1  0  0  0  0
 43 47  1  0  0  0  0
 43 48  1  0  0  0  0
 11 14  1  0  0  0  0
 11 15  1  0  0  0  0
 11 16  1  0  0  0  0
 50 52  1  0  0  0  0
 50 53  1  0  0  0  0
 50 54  1  0  0  0  0
 22 30  1  0  0  0  0
 22 31  1  0  0  0  0
 23 32  1  0  0  0  0
 23 33  1  0  0  0  0
 21 28  1  0  0  0  0
 21 29  1  0  0  0  0
 24 34  1  0  0  0  0
 24 35  1  0  0  0  0
 40 45  1  0  0  0  0
  8 13  1  0  0  0  0
 18 27  1  0  0  0  0
 49 51  1  0  0  0  0
  7 12  1  0  0  0  0
 39 44  1  0  0  0  0
 17 26  1  0  0  0  0
 25 36  1  0  0  0  0
 25 37  1  0  0  0  0
 25 38  1  0  0  0  0
M  CHG  1  25   1
M  END
$$$$

  -OEChem-05262214473D

 54 53  0     1  0  0  0  0  0999 V2000
    2.6714    2.8829   -3.0005 C   0  0  0  0  0  0  0  0  0  0  0  0
    3.1741    2.4398   -1.9745 O   0  0  0  0  0  0  0  0  0  0  0  0
    3.5527    3.3077   -4.1279 C   0  0  0  0  0  0  0  0  0  0  0  0
    3.8407    4.3691   -4.0597 H   0  0  0  0  0  0  0  0  0  0  0  0
    4.5024    2.7495   -4.1526 H   0  0  0  0  0  0  0  0  0  0  0  0
    3.1208    3.1887   -5.1345 H   0  0  0  0  0  0  0  0  0  0  0  0
    1.3174    3.0407   -3.2467 N   0  0  0  0  0  0  0  0  0  0  0  0
    0.2944    2.6927   -2.2960 C   0  0  2  0  0  0  0  0  0  0  0  0
    0.2976    1.1783   -2.1349 C   0  0  0  0  0  0  0  0  0  0  0  0
    0.7500    0.4142   -2.9850 O   0  0  0  0  0  0  0  0  0  0  0  0
   -1.0710    3.1886   -2.7460 C   0  0  0  0  0  0  0  0  0  0  0  0
    1.0312    3.4224   -4.1464 H   0  0  0  0  0  0  0  0  0  0  0  0
    0.5725    3.1622   -1.3461 H   0  0  0  0  0  0  0  0  0  0  0  0
   -1.3666    2.7292   -3.6963 H   0  0  0  0  0  0  0  0  0  0  0  0
   -1.8434    2.9482   -2.0082 H   0  0  0  0  0  0  0  0  0  0  0  0
   -1.0632    4.2744   -2.8901 H   0  0  0  0  0  0  0  0  0  0  0  0
   -0.3037    0.7742   -0.9484 N   0  0  0  0  0  0  0  0  0  0  0  0
   -0.4352   -0.6095   -0.5718 C   0  0  2  0  0  0  0  0  0  0  0  0
   -1.5446   -1.2429   -1.4051 C   0  0  0  0  0  0  0  0  0  0  0  0
   -1.7192   -2.4578   -1.4759 O   0  0  0  0  0  0  0  0  0  0  0  0
   -0.6546   -0.7748    0.9366 C   0  0  0  0  0  0  0  0  0  0  0  0
    0.5615   -0.3950    1.7915 C   0  0  0  0  0  0  0  0  0  0  0  0
    0.2786   -0.6081    3.2804 C   0  0  0  0  0  0  0  0  0  0  0  0
    1.4779   -0.2073    4.1266 C   0  0  0  0  0  0  0  0  0  0  0  0
    1.1506   -0.4072    5.5589 N   0  3  0  0  0  0  0  0  0  0  0  0
   -0.6336    1.4811   -0.2948 H   0  0  0  0  0  0  0  0  0  0  0  0
    0.5119   -1.0873   -0.8500 H   0  0  0  0  0  0  0  0  0  0  0  0
   -1.5078   -0.1542    1.2399 H   0  0  0  0  0  0  0  0  0  0  0  0
   -0.9291   -1.8146    1.1535 H   0  0  0  0  0  0  0  0  0  0  0  0
    1.4279   -1.0000    1.4999 H   0  0  0  0  0  0  0  0  0  0  0  0
    0.8262    0.6552    1.6212 H   0  0  0  0  0  0  0  0  0  0  0  0
    0.0324   -1.6620    3.4603 H   0  0  0  0  0  0  0  0  0  0  0  0
   -0.5982   -0.0184    3.5757 H   0  0  0  0  0  0  0  0  0  0  0  0
    2.3555   -0.8245    3.9125 H   0  0  0  0  0  0  0  0  0  0  0  0
    1.7318    0.8497    4.0036 H   0  0  0  0  0  0  0  0  0  0  0  0
    1.7756    0.1418    6.1591 H   0  0  0  0  0  0  0  0  0  0  0  0
    1.2460   -1.3941    5.8230 H   0  0  0  0  0  0  0  0  0  0  0  0
    0.1867   -0.1187    5.7595 H   0  0  0  0  0  0  0  0  0  0  0  0
   -2.3374   -0.2937   -2.0340 N   0  0  0  0  0  0  0  0  0  0  0  0
   -3.4610   -0.6577   -2.8639 C   0  0  2  0  0  0  0  0  0  0  0  0
   -3.8945    0.5802   -3.6379 C   0  0  0  0  0  0  0  0  0  0  0  0
   -3.6405    1.7250   -3.2691 O   0  0  0  0  0  0  0  0  0  0  0  0
   -4.6086   -1.2077   -2.0313 C   0  0  0  0  0  0  0  0  0  0  0  0
   -2.1199    0.6901   -1.9062 H   0  0  0  0  0  0  0  0  0  0  0  0
   -3.1031   -1.4202   -3.5642 H   0  0  0  0  0  0  0  0  0  0  0  0
   -4.9805   -0.4577   -1.3236 H   0  0  0  0  0  0  0  0  0  0  0  0
   -5.4492   -1.5098   -2.6647 H   0  0  0  0  0  0  0  0  0  0  0  0
   -4.2870   -2.0802   -1.4524 H   0  0  0  0  0  0  0  0  0  0  0  0
   -4.6354    0.2574   -4.7661 N   0  0  0  0  0  0  0  0  0  0  0  0
   -5.1719    1.2578   -5.6591 C   0  0  0  0  0  0  0  0  0  0  0  0
   -4.7813   -0.7189   -5.0056 H   0  0  0  0  0  0  0  0  0  0  0  0
   -6.1964    1.5136   -5.3510 H   0  0  0  0  0  0  0  0  0  0  0  0
   -4.5420    2.1588   -5.6210 H   0  0  0  0  0  0  0  0  0  0  0  0
   -5.1857    0.8632   -6.6858 H   0  0  0  0  0  0  0  0  0  0  0  0
  1  3  1  0  0  0  0
  1  7  1  0  0  0  0
  1  2  2  0  0  0  0
 40 41  1  0  0  0  0
 41 49  1  0  0  0  0
 41 42  2  0  0  0  0
  8  9  1  0  0  0  0
  9 17  1  0  0  0  0
  9 10  2  0  0  0  0
 18 19  1  0  0  0  0
 19 39  1  0  0  0  0
 19 20  2  0  0  0  0
 40 43  1  0  0  0  0
  8 11  1  0  0  0  0
 49 50  1  0  0  0  0
 22 23  1  0  0  0  0
 21 22  1  0  0  0  0
 23 24  1  0  0  0  0
 18 21  1  0  0  0  0
 24 25  1  0  0  0  0
 39 40  1  0  0  0  0
  7  8  1  0  0  0  0
 17 18  1  0  0  0  0
  3  4  1  0  0  0  0
  3  5  1  0  0  0  0
  3  6  1  0  0  0  0
 43 46  1  0  0  0  0
 43 47  1  0  0  0  0
 43 48  1  0  0  0  0
 11 14  1  0  0  0  0
 11 15  1  0  0  0  0
 11 16  1  0  0  0  0
 50 52  1  0  0  0  0
 50 53  1  0  0  0  0
 50 54  1  0  0  0  0
 22 30  1  0  0  0  0
 22 31  1  0  0  0  0
 23 32  1  0  0  0  0
 23 33  1  0  0  0  0
 21 28  1  0  0  0  0
 21 29  1  0  0  0  0
 24 34  1  0  0  0  0
 24 35  1  0  0  0  0
 40 45  1  0  0  0  0
  8 13  1  0  0  0  0
 18 27  1  0  0  0  0
 49 51  1  0  0  0  0
  7 12  1  0  0  0  0
 39 44  1  0  0  0  0
 17 26  1  0  0  0  0
 25 36  1  0  0  0  0
 25 37  1  0  0  0  0
 25 38  1  0  0  0  0
M  CHG  1  25   1
M  END
$$$$

  -OEChem-05262214473D

 54 53  0     1  0  0  0  0  0999 V2000
    2.6714    2.8829   -3.0005 C   0  0  0  0  0  0  0  0  0  0  0  0
    3.1741    2.4398   -1.9745 O   0  0  0  0  0  0  0  0  0  0  0  0
    3.5527    3.3077   -4.1279 C   0  0  0  0  0  0  0  0  0  0  0  0
    3.8407    4.3691   -4.0597 H   0  0  0  0  0  0  0  0  0  0  0  0
    4.5024    2.7495   -4.1526 H   0  0  0  0  0  0  0  0  0  0  0  0
    3.1208    3.1887   -5.1345 H   0  0  0  0  0  0  0  0  0  0  0  0
    1.3174    3.0407   -3.2467 N   0  0  0  0  0  0  0  0  0  0  0  0
    0.2944    2.6927   -2.2960 C   0  0  2  0  0  0  0  0  0  0  0  0
    0.2976    1.1783   -2.1349 C   0  0  0  0  0  0  0  0  0  0  0  0
    0.7500    0.4142   -2.9850 O   0  0  0  0  0  0  0  0  0  0  0  0
   -1.0710    3.1886   -2.7460 C   0  0  0  0  0  0  0  0  0  0  0  0
    1.0312    3.4224   -4.1464 H   0  0  0  0  0  0  0  0  0  0  0  0
    0.5725    3.1622   -1.3461 H   0  0  0  0  0  0  0  0  0  0  0  0
   -1.3666    2.7292   -3.6963 H   0  0  0  0  0  0  0  0  0  0  0  0
   -1.8434    2.9482   -2.0082 H   0  0  0  0  0  0  0  0  0  0  0  0
   -1.0632    4.2744   -2.8901 H   0  0  0  0  0  0  0  0  0  0  0  0
   -0.3037    0.7742   -0.9484 N   0  0  0  0  0  0  0  0  0  0  0  0
   -0.4352   -0.6095   -0.5718 C   0  0  2  0  0  0  0  0  0  0  0  0
   -1.5446   -1.2429   -1.4051 C   0  0  0  0  0  0  0  0  0  0  0  0
   -1.8940   -2.4145   -1.2761 O   0  0  0  0  0  0  0  0  0  0  0  0
   -0.6546   -0.7748    0.9366 C   0  0  0  0  0  0  0  0  0  0  0  0
    0.5615   -0.3950    1.7915 C   0  0  0  0  0  0  0  0  0  0  0  0
    0.2786   -0.6081    3.2804 C   0  0  0  0  0  0  0  0  0  0  0  0
    1.4779   -0.2073    4.1266 C   0  0  0  0  0  0  0  0  0  0  0  0
    1.1506   -0.4072    5.5589 N   0  3  0  0  0  0  0  0  0  0  0  0
   -0.6336    1.4811   -0.2948 H   0  0  0  0  0  0  0  0  0  0  0  0
    0.5119   -1.0873   -0.8500 H   0  0  0  0  0  0  0  0  0  0  0  0
   -1.5078   -0.1542    1.2399 H   0  0  0  0  0  0  0  0  0  0  0  0
   -0.9291   -1.8146    1.1535 H   0  0  0  0  0  0  0  0  0  0  0  0
    1.4279   -1.0000    1.4999 H   0  0  0  0  0  0  0  0  0  0  0  0
    0.8262    0.6552    1.6212 H   0  0  0  0  0  0  0  0  0  0  0  0
    0.0324   -1.6620    3.4603 H   0  0  0  0  0  0  0  0  0  0  0  0
   -0.5982   -0.0184    3.5757 H   0  0  0  0  0  0  0  0  0  0  0  0
    2.3555   -0.8245    3.9125 H   0  0  0  0  0  0  0  0  0  0  0  0
    1.7318    0.8497    4.0036 H   0  0  0  0  0  0  0  0  0  0  0  0
    1.7756    0.1418    6.1591 H   0  0  0  0  0  0  0  0  0  0  0  0
    1.2460   -1.3941    5.8230 H   0  0  0  0  0  0  0  0  0  0  0  0
    0.1867   -0.1187    5.7595 H   0  0  0  0  0  0  0  0  0  0  0  0
   -2.1216   -0.3398   -2.2862 N   0  0  0  0  0  0  0  0  0  0  0  0
   -3.2044   -0.7088   -3.1666 C   0  0  2  0  0  0  0  0  0  0  0  0
   -3.3705    0.3993   -4.1980 C   0  0  0  0  0  0  0  0  0  0  0  0
   -2.9815    1.5508   -4.0139 O   0  0  0  0  0  0  0  0  0  0  0  0
   -4.4953   -0.9297   -2.3935 C   0  0  0  0  0  0  0  0  0  0  0  0
   -1.7704    0.6128   -2.3128 H   0  0  0  0  0  0  0  0  0  0  0  0
   -2.9022   -1.6340   -3.6692 H   0  0  0  0  0  0  0  0  0  0  0  0
   -4.8140   -0.0134   -1.8832 H   0  0  0  0  0  0  0  0  0  0  0  0
   -5.3087   -1.2372   -3.0590 H   0  0  0  0  0  0  0  0  0  0  0  0
   -4.3655   -1.7063   -1.6320 H   0  0  0  0  0  0  0  0  0  0  0  0
   -4.0425   -0.0384   -5.3307 N   0  0  0  0  0  0  0  0  0  0  0  0
   -4.3347    0.8291   -6.4479 C   0  0  0  0  0  0  0  0  0  0  0  0
   -4.3116   -1.0149   -5.4059 H   0  0  0  0  0  0  0  0  0  0  0  0
   -5.3329    1.2724   -6.3173 H   0  0  0  0  0  0  0  0  0  0  0  0
   -3.5818    1.6296   -6.4971 H   0  0  0  0  0  0  0  0  0  0  0  0
   -4.3116    0.2462   -7.3804 H   0  0  0  0  0  0  0  0  0  0  0  0
  1  3  1  0  0  0  0
  1  7  1  0  0  0  0
  1  2  2  0  0  0  0
 40 41  1  0  0  0  0
 41 49  1  0  0  0  0
 41 42  2  0  0  0  0
  8  9  1  0  0  0  0
  9 17  1  0  0  0  0
  9 10  2  0  0  0  0
 18 19  1  0  0  0  0
 19 39  1  0  0  0  0
 19 20  2  0  0  0  0
 40 43  1  0  0  0  0
  8 11  1  0  0  0  0
 49 50  1  0  0  0  0
 22 23  1  0  0  0  0
 21 22  1  0  0  0  0
 23 24  1  0  0  0  0
 18 21  1  0  0  0  0
 24 25  1  0  0  0  0
 39 40  1  0  0  0  0
  7  8  1  0  0  0  0
 17 18  1  0  0  0  0
  3  4  1  0  0  0  0
  3  5  1  0  0  0  0
  3  6  1  0  0  0  0
 43 46  1  0  0  0  0
 43 47  1  0  0  0  0
 43 48  1  0  0  0  0
 11 14  1  0  0  0  0
 11 15  1  0  0  0  0
 11 16  1  0  0  0  0
 50 52  1  0  0  0  0
 50 53  1  0  0  0  0
 50 54  1  0  0  0  0
 22 30  1  0  0  0  0
 22 31  1  0  0  0  0
 23 32  1  0  0  0  0
 23 33  1  0  0  0  0
 21 28  1  0  0  0  0
 21 29  1  0  0  0  0
 24 34  1  0  0  0  0
 24 35  1  0  0  0  0
 40 45  1  0  0  0  0
  8 13  1  0  0  0  0
 18 27  1  0  0  0  0
 49 51  1  0  0  0  0
  7 12  1  0  0  0  0
 39 44  1  0  0  0  0
 17 26  1  0  0  0  0
 25 36  1  0  0  0  0
 25 37  1  0  0  0  0
 25 38  1  0  0  0  0
M  CHG  1  25   1
M  END
$$$$

  -OEChem-05262214473D

 54 53  0     1  0  0  0  0  0999 V2000
    2.6714    2.8829   -3.0005 C   0  0  0  0  0  0  0  0  0  0  0  0
    3.1741    2.4398   -1.9745 O   0  0  0  0  0  0  0  0  0  0  0  0
    3.5527    3.3077   -4.1279 C   0  0  0  0  0  0  0  0  0  0  0  0
    3.8407    4.3691   -4.0597 H   0  0  0  0  0  0  0  0  0  0  0  0
    4.5024    2.7495   -4.1526 H   0  0  0  0  0  0  0  0  0  0  0  0
    3.1208    3.1887   -5.1345 H   0  0  0  0  0  0  0  0  0  0  0  0
    1.3174    3.0407   -3.2467 N   0  0  0  0  0  0  0  0  0  0  0  0
    0.2944    2.6927   -2.2960 C   0  0  2  0  0  0  0  0  0  0  0  0
    0.2976    1.1783   -2.1349 C   0  0  0  0  0  0  0  0  0  0  0  0
    0.7500    0.4142   -2.9850 O   0  0  0  0  0  0  0  0  0  0  0  0
   -1.0710    3.1886   -2.7460 C   0  0  0  0  0  0  0  0  0  0  0  0
    1.0312    3.4224   -4.1464 H   0  0  0  0  0  0  0  0  0  0  0  0
    0.5725    3.1622   -1.3461 H   0  0  0  0  0  0  0  0  0  0  0  0
   -1.3666    2.7292   -3.6963 H   0  0  0  0  0  0  0  0  0  0  0  0
   -1.8434    2.9482   -2.0082 H   0  0  0  0  0  0  0  0  0  0  0  0
   -1.0632    4.2744   -2.8901 H   0  0  0  0  0  0  0  0  0  0  0  0
   -0.3037    0.7742   -0.9484 N   0  0  0  0  0  0  0  0  0  0  0  0
   -0.4352   -0.6095   -0.5718 C   0  0  2  0  0  0  0  0  0  0  0  0
   -1.5446   -1.2429   -1.4051 C   0  0  0  0  0  0  0  0  0  0  0  0
   -2.0783   -2.3104   -1.1099 O   0  0  0  0  0  0  0  0  0  0  0  0
   -0.6546   -0.7748    0.9366 C   0  0  0  0  0  0  0  0  0  0  0  0
    0.5615   -0.3950    1.7915 C   0  0  0  0  0  0  0  0  0  0  0  0
    0.2786   -0.6081    3.2804 C   0  0  0  0  0  0  0  0  0  0  0  0
    1.4779   -0.2073    4.1266 C   0  0  0  0  0  0  0  0  0  0  0  0
    1.1506   -0.4072    5.5589 N   0  3  0  0  0  0  0  0  0  0  0  0
   -0.6336    1.4811   -0.2948 H   0  0  0  0  0  0  0  0  0  0  0  0
    0.5119   -1.0873   -0.8500 H   0  0  0  0  0  0  0  0  0  0  0  0
   -1.5078   -0.1542    1.2399 H   0  0  0  0  0  0  0  0  0  0  0  0
   -0.9291   -1.8146    1.1535 H   0  0  0  0  0  0  0  0  0  0  0  0
    1.4279   -1.0000    1.4999 H   0  0  0  0  0  0  0  0  0  0  0  0
    0.8262    0.6552    1.6212 H   0  0  0  0  0  0  0  0  0  0  0  0
    0.0324   -1.6620    3.4603 H   0  0  0  0  0  0  0  0  0  0  0  0
   -0.5982   -0.0184    3.5757 H   0  0  0  0  0  0  0  0  0  0  0  0
    2.3555   -0.8245    3.9125 H   0  0  0  0  0  0  0  0  0  0  0  0
    1.7318    0.8497    4.0036 H   0  0  0  0  0  0  0  0  0  0  0  0
    1.7756    0.1418    6.1591 H   0  0  0  0  0  0  0  0  0  0  0  0
    1.2460   -1.3941    5.8230 H   0  0  0  0  0  0  0  0  0  0  0  0
    0.1867   -0.1187    5.7595 H   0  0  0  0  0  0  0  0  0  0  0  0
   -1.8926   -0.4623   -2.4980 N   0  0  0  0  0  0  0  0  0  0  0  0
   -2.9313   -0.8515   -3.4218 C   0  0  2  0  0  0  0  0  0  0  0  0
   -2.8297    0.0451   -4.6487 C   0  0  0  0  0  0  0  0  0  0  0  0
   -2.2896    1.1492   -4.6298 O   0  0  0  0  0  0  0  0  0  0  0  0
   -4.3076   -0.7453   -2.7835 C   0  0  0  0  0  0  0  0  0  0  0  0
   -1.4000    0.4122   -2.6534 H   0  0  0  0  0  0  0  0  0  0  0  0
   -2.7270   -1.8887   -3.7087 H   0  0  0  0  0  0  0  0  0  0  0  0
   -4.5301    0.2869   -2.4894 H   0  0  0  0  0  0  0  0  0  0  0  0
   -5.0920   -1.0680   -3.4760 H   0  0  0  0  0  0  0  0  0  0  0  0
   -4.3692   -1.3678   -1.8844 H   0  0  0  0  0  0  0  0  0  0  0  0
   -3.4509   -0.5142   -5.7566 N   0  0  0  0  0  0  0  0  0  0  0  0
   -3.5019    0.1482   -7.0391 C   0  0  0  0  0  0  0  0  0  0  0  0
   -3.8568   -1.4427   -5.6863 H   0  0  0  0  0  0  0  0  0  0  0  0
   -4.4291    0.7354   -7.1124 H   0  0  0  0  0  0  0  0  0  0  0  0
   -2.6350    0.8178   -7.1405 H   0  0  0  0  0  0  0  0  0  0  0  0
   -3.4800   -0.6040   -7.8413 H   0  0  0  0  0  0  0  0  0  0  0  0
  1  3  1  0  0  0  0
  1  7  1  0  0  0  0
  1  2  2  0  0  0  0
 40 41  1  0  0  0  0
 41 49  1  0  0  0  0
 41 42  2  0  0  0  0
  8  9  1  0  0  0  0
  9 17  1  0  0  0  0
  9 10  2  0  0  0  0
 18 19  1  0  0  0  0
 19 39  1  0  0  0  0
 19 20  2  0  0  0  0
 40 43  1  0  0  0  0
  8 11  1  0  0  0  0
 49 50  1  0  0  0  0
 22 23  1  0  0  0  0
 21 22  1  0  0  0  0
 23 24  1  0  0  0  0
 18 21  1  0  0  0  0
 24 25  1  0  0  0  0
 39 40  1  0  0  0  0
  7  8  1  0  0  0  0
 17 18  1  0  0  0  0
  3  4  1  0  0  0  0
  3  5  1  0  0  0  0
  3  6  1  0  0  0  0
 43 46  1  0  0  0  0
 43 47  1  0  0  0  0
 43 48  1  0  0  0  0
 11 14  1  0  0  0  0
 11 15  1  0  0  0  0
 11 16  1  0  0  0  0
 50 52  1  0  0  0  0
 50 53  1  0  0  0  0
 50 54  1  0  0  0  0
 22 30  1  0  0  0  0
 22 31  1  0  0  0  0
 23 32  1  0  0  0  0
 23 33  1  0  0  0  0
 21 28  1  0  0  0  0
 21 29  1  0  0  0  0
 24 34  1  0  0  0  0
 24 35  1  0  0  0  0
 40 45  1  0  0  0  0
  8 13  1  0  0  0  0
 18 27  1  0  0  0  0
 49 51  1  0  0  0  0
  7 12  1  0  0  0  0
 39 44  1  0  0  0  0
 17 26  1  0  0  0  0
 25 36  1  0  0  0  0
 25 37  1  0  0  0  0
 25 38  1  0  0  0  0
M  CHG  1  25   1
M  END
$$$$

  -OEChem-05262214473D

 54 53  0     1  0  0  0  0  0999 V2000
    2.6714    2.8829   -3.0005 C   0  0  0  0  0  0  0  0  0  0  0  0
    3.1741    2.4398   -1.9745 O   0  0  0  0  0  0  0  0  0  0  0  0
    3.5527    3.3077   -4.1279 C   0  0  0  0  0  0  0  0  0  0  0  0
    3.8407    4.3691   -4.0597 H   0  0  0  0  0  0  0  0  0  0  0  0
    4.5024    2.7495   -4.1526 H   0  0  0  0  0  0  0  0  0  0  0  0
    3.1208    3.1887   -5.1345 H   0  0  0  0  0  0  0  0  0  0  0  0
    1.3174    3.0407   -3.2467 N   0  0  0  0  0  0  0  0  0  0  0  0
    0.2944    2.6927   -2.2960 C   0  0  2  0  0  0  0  0  0  0  0  0
    0.2976    1.1783   -2.1349 C   0  0  0  0  0  0  0  0  0  0  0  0
    0.7500    0.4142   -2.9850 O   0  0  0  0  0  0  0  0  0  0  0  0
   -1.0710    3.1886   -2.7460 C   0  0  0  0  0  0  0  0  0  0  0  0
    1.0312    3.4224   -4.1464 H   0  0  0  0  0  0  0  0  0  0  0  0
    0.5725    3.1622   -1.3461 H   0  0  0  0  0  0  0  0  0  0  0  0
   -1.3666    2.7292   -3.6963 H   0  0  0  0  0  0  0  0  0  0  0  0
   -1.8434    2.9482   -2.0082 H   0  0  0  0  0  0  0  0  0  0  0  0
   -1.0632    4.2744   -2.8901 H   0  0  0  0  0  0  0  0  0  0  0  0
   -0.3037    0.7742   -0.9484 N   0  0  0  0  0  0  0  0  0  0  0  0
   -0.4352   -0.6095   -0.5718 C   0  0  2  0  0  0  0  0  0  0  0  0
   -1.5446   -1.2429   -1.4051 C   0  0  0  0  0  0  0  0  0  0  0  0
   -2.2594   -2.1525   -0.9889 O   0  0  0  0  0  0  0  0  0  0  0  0
   -0.6546   -0.7748    0.9366 C   0  0  0  0  0  0  0  0  0  0  0  0
    0.5615   -0.3950    1.7915 C   0  0  0  0  0  0  0  0  0  0  0  0
    0.2786   -0.6081    3.2804 C   0  0  0  0  0  0  0  0  0  0  0  0
    1.4779   -0.2073    4.1266 C   0  0  0  0  0  0  0  0  0  0  0  0
    1.1506   -0.4072    5.5589 N   0  3  0  0  0  0  0  0  0  0  0  0
   -0.6336    1.4811   -0.2948 H   0  0  0  0  0  0  0  0  0  0  0  0
    0.5119   -1.0873   -0.8500 H   0  0  0  0  0  0  0  0  0  0  0  0
   -1.5078   -0.1542    1.2399 H   0  0  0  0  0  0  0  0  0  0  0  0
   -0.9291   -1.8146    1.1535 H   0  0  0  0  0  0  0  0  0  0  0  0
    1.4279   -1.0000    1.4999 H   0  0  0  0  0  0  0  0  0  0  0  0
    0.8262    0.6552    1.6212 H   0  0  0  0  0  0  0  0  0  0  0  0
    0.0324   -1.6620    3.4603 H   0  0  0  0  0  0  0  0  0  0  0  0
   -0.5982   -0.0184    3.5757 H   0  0  0  0  0  0  0  0  0  0  0  0
    2.3555   -0.8245    3.9125 H   0  0  0  0  0  0  0  0  0  0  0  0
    1.7318    0.8497    4.0036 H   0  0  0  0  0  0  0  0  0  0  0  0
    1.7756    0.1418    6.1591 H   0  0  0  0  0  0  0  0  0  0  0  0
    1.2460   -1.3941    5.8230 H   0  0  0  0  0  0  0  0  0  0  0  0
    0.1867   -0.1187    5.7595 H   0  0  0  0  0  0  0  0  0  0  0  0
   -1.6659   -0.6529   -2.6550 N   0  0  0  0  0  0  0  0  0  0  0  0
   -2.6602   -1.0759   -3.6121 C   0  0  2  0  0  0  0  0  0  0  0  0
   -2.3089   -0.4585   -4.9592 C   0  0  0  0  0  0  0  0  0  0  0  0
   -1.6118    0.5474   -5.0747 O   0  0  0  0  0  0  0  0  0  0  0  0
   -4.0583   -0.6673   -3.1748 C   0  0  0  0  0  0  0  0  0  0  0  0
   -1.0339    0.1019   -2.9048 H   0  0  0  0  0  0  0  0  0  0  0  0
   -2.5896   -2.1670   -3.6802 H   0  0  0  0  0  0  0  0  0  0  0  0
   -4.1482    0.4226   -3.1009 H   0  0  0  0  0  0  0  0  0  0  0  0
   -4.8140   -1.0137   -3.8874 H   0  0  0  0  0  0  0  0  0  0  0  0
   -4.2978   -1.0879   -2.1922 H   0  0  0  0  0  0  0  0  0  0  0  0
   -2.9009   -1.1376   -6.0149 N   0  0  0  0  0  0  0  0  0  0  0  0
   -2.7301   -0.7385   -7.3924 C   0  0  0  0  0  0  0  0  0  0  0  0
   -3.4477   -1.9729   -5.8278 H   0  0  0  0  0  0  0  0  0  0  0  0
   -3.5465   -0.0607   -7.6822 H   0  0  0  0  0  0  0  0  0  0  0  0
   -1.7661   -0.2214   -7.5073 H   0  0  0  0  0  0  0  0  0  0  0  0
   -2.7473   -1.6297   -8.0370 H   0  0  0  0  0  0  0  0  0  0  0  0
  1  3  1  0  0  0  0
  1  7  1  0  0  0  0
  1  2  2  0  0  0  0
 40 41  1  0  0  0  0
 41 49  1  0  0  0  0
 41 42  2  0  0  0  0
  8  9  1  0  0  0  0
  9 17  1  0  0  0  0
  9 10  2  0  0  0  0
 18 19  1  0  0  0  0
 19 39  1  0  0  0  0
 19 20  2  0  0  0  0
 40 43  1  0  0  0  0
  8 11  1  0  0  0  0
 49 50  1  0  0  0  0
 22 23  1  0  0  0  0
 21 22  1  0  0  0  0
 23 24  1  0  0  0  0
 18 21  1  0  0  0  0
 24 25  1  0  0  0  0
 39 40  1  0  0  0  0
  7  8  1  0  0  0  0
 17 18  1  0  0  0  0
  3  4  1  0  0  0  0
  3  5  1  0  0  0  0
  3  6  1  0  0  0  0
 43 46  1  0  0  0  0
 43 47  1  0  0  0  0
 43 48  1  0  0  0  0
 11 14  1  0  0  0  0
 11 15  1  0  0  0  0
 11 16  1  0  0  0  0
 50 52  1  0  0  0  0
 50 53  1  0  0  0  0
 50 54  1  0  0  0  0
 22 30  1  0  0  0  0
 22 31  1  0  0  0  0
 23 32  1  0  0  0  0
 23 33  1  0  0  0  0
 21 28  1  0  0  0  0
 21 29  1  0  0  0  0
 24 34  1  0  0  0  0
 24 35  1  0  0  0  0
 40 45  1  0  0  0  0
  8 13  1  0  0  0  0
 18 27  1  0  0  0  0
 49 51  1  0  0  0  0
  7 12  1  0  0  0  0
 39 44  1  0  0  0  0
 17 26  1  0  0  0  0
 25 36  1  0  0  0  0
 25 37  1  0  0  0  0
 25 38  1  0  0  0  0
M  CHG  1  25   1
M  END
$$$$

  -OEChem-05262214473D

 54 53  0     1  0  0  0  0  0999 V2000
    2.6714    2.8829   -3.0005 C   0  0  0  0  0  0  0  0  0  0  0  0
    3.1741    2.4398   -1.9745 O   0  0  0  0  0  0  0  0  0  0  0  0
    3.5527    3.3077   -4.1279 C   0  0  0  0  0  0  0  0  0  0  0  0
    3.8407    4.3691   -4.0597 H   0  0  0  0  0  0  0  0  0  0  0  0
    4.5024    2.7495   -4.1526 H   0  0  0  0  0  0  0  0  0  0  0  0
    3.1208    3.1887   -5.1345 H   0  0  0  0  0  0  0  0  0  0  0  0
    1.3174    3.0407   -3.2467 N   0  0  0  0  0  0  0  0  0  0  0  0
    0.2944    2.6927   -2.2960 C   0  0  2  0  0  0  0  0  0  0  0  0
    0.2976    1.1783   -2.1349 C   0  0  0  0  0  0  0  0  0  0  0  0
    0.7500    0.4142   -2.9850 O   0  0  0  0  0  0  0  0  0  0  0  0
   -1.0710    3.1886   -2.7460 C   0  0  0  0  0  0  0  0  0  0  0  0
    1.0312    3.4224   -4.1464 H   0  0  0  0  0  0  0  0  0  0  0  0
    0.5725    3.1622   -1.3461 H   0  0  0  0  0  0  0  0  0  0  0  0
   -1.3666    2.7292   -3.6963 H   0  0  0  0  0  0  0  0  0  0  0  0
   -1.8434    2.9482   -2.0082 H   0  0  0  0  0  0  0  0  0  0  0  0
   -1.0632    4.2744   -2.8901 H   0  0  0  0  0  0  0  0  0  0  0  0
   -0.3037    0.7742   -0.9484 N   0  0  0  0  0  0  0  0  0  0  0  0
   -0.4352   -0.6095   -0.5718 C   0  0  2  0  0  0  0  0  0  0  0  0
   -1.5446   -1.2429   -1.4051 C   0  0  0  0  0  0  0  0  0  0  0  0
   -2.4250   -1.9515   -0.9211 O   0  0  0  0  0  0  0  0  0  0  0  0
   -0.6546   -0.7748    0.9366 C   0  0  0  0  0  0  0  0  0  0  0  0
    0.5615   -0.3950    1.7915 C   0  0  0  0  0  0  0  0  0  0  0  0
    0.2786   -0.6081    3.2804 C   0  0  0  0  0  0  0  0  0  0  0  0
    1.4779   -0.2073    4.1266 C   0  0  0  0  0  0  0  0  0  0  0  0
    1.1506   -0.4072    5.5589 N   0  3  0  0  0  0  0  0  0  0  0  0
   -0.6336    1.4811   -0.2948 H   0  0  0  0  0  0  0  0  0  0  0  0
    0.5119   -1.0873   -0.8500 H   0  0  0  0  0  0  0  0  0  0  0  0
   -1.5078   -0.1542    1.2399 H   0  0  0  0  0  0  0  0  0  0  0  0
   -0.9291   -1.8146    1.1535 H   0  0  0  0  0  0  0  0  0  0  0  0
    1.4279   -1.0000    1.4999 H   0  0  0  0  0  0  0  0  0  0  0  0
    0.8262    0.6552    1.6212 H   0  0  0  0  0  0  0  0  0  0  0  0
    0.0324   -1.6620    3.4603 H   0  0  0  0  0  0  0  0  0  0  0  0
   -0.5982   -0.0184    3.5757 H   0  0  0  0  0  0  0  0  0  0  0  0
    2.3555   -0.8245    3.9125 H   0  0  0  0  0  0  0  0  0  0  0  0
    1.7318    0.8497    4.0036 H   0  0  0  0  0  0  0  0  0  0  0  0
    1.7756    0.1418    6.1591 H   0  0  0  0  0  0  0  0  0  0  0  0
    1.2460   -1.3941    5.8230 H   0  0  0  0  0  0  0  0  0  0  0  0
    0.1867   -0.1187    5.7595 H   0  0  0  0  0  0  0  0  0  0  0  0
   -1.4570   -0.8986   -2.7463 N   0  0  0  0  0  0  0  0  0  0  0  0
   -2.4096   -1.3669   -3.7245 C   0  0  2  0  0  0  0  0  0  0  0  0
   -1.8438   -1.0769   -5.1084 C   0  0  0  0  0  0  0  0  0  0  0  0
   -0.9944   -0.2135   -5.3183 O   0  0  0  0  0  0  0  0  0  0  0  0
   -3.7643   -0.7008   -3.5407 C   0  0  0  0  0  0  0  0  0  0  0  0
   -0.6972   -0.2969   -3.0500 H   0  0  0  0  0  0  0  0  0  0  0  0
   -2.4992   -2.4498   -3.5855 H   0  0  0  0  0  0  0  0  0  0  0  0
   -3.6945    0.3847   -3.6762 H   0  0  0  0  0  0  0  0  0  0  0  0
   -4.4936   -1.0780   -4.2652 H   0  0  0  0  0  0  0  0  0  0  0  0
   -4.1562   -0.8856   -2.5346 H   0  0  0  0  0  0  0  0  0  0  0  0
   -2.4301   -1.8662   -6.0879 N   0  0  0  0  0  0  0  0  0  0  0  0
   -2.0721   -1.7708   -7.4838 C   0  0  0  0  0  0  0  0  0  0  0  0
   -3.1124   -2.5696   -5.8206 H   0  0  0  0  0  0  0  0  0  0  0  0
   -2.7453   -1.0618   -7.9879 H   0  0  0  0  0  0  0  0  0  0  0  0
   -1.0343   -1.4171   -7.5727 H   0  0  0  0  0  0  0  0  0  0  0  0
   -2.1636   -2.7609   -7.9542 H   0  0  0  0  0  0  0  0  0  0  0  0
  1  3  1  0  0  0  0
  1  7  1  0  0  0  0
  1  2  2  0  0  0  0
 40 41  1  0  0  0  0
 41 49  1  0  0  0  0
 41 42  2  0  0  0  0
  8  9  1  0  0  0  0
  9 17  1  0  0  0  0
  9 10  2  0  0  0  0
 18 19  1  0  0  0  0
 19 39  1  0  0  0  0
 19 20  2  0  0  0  0
 40 43  1  0  0  0  0
  8 11  1  0  0  0  0
 49 50  1  0  0  0  0
 22 23  1  0  0  0  0
 21 22  1  0  0  0  0
 23 24  1  0  0  0  0
 18 21  1  0  0  0  0
 24 25  1  0  0  0  0
 39 40  1  0  0  0  0
  7  8  1  0  0  0  0
 17 18  1  0  0  0  0
  3  4  1  0  0  0  0
  3  5  1  0  0  0  0
  3  6  1  0  0  0  0
 43 46  1  0  0  0  0
 43 47  1  0  0  0  0
 43 48  1  0  0  0  0
 11 14  1  0  0  0  0
 11 15  1  0  0  0  0
 11 16  1  0  0  0  0
 50 52  1  0  0  0  0
 50 53  1  0  0  0  0
 50 54  1  0  0  0  0
 22 30  1  0  0  0  0
 22 31  1  0  0  0  0
 23 32  1  0  0  0  0
 23 33  1  0  0  0  0
 21 28  1  0  0  0  0
 21 29  1  0  0  0  0
 24 34  1  0  0  0  0
 24 35  1  0  0  0  0
 40 45  1  0  0  0  0
  8 13  1  0  0  0  0
 18 27  1  0  0  0  0
 49 51  1  0  0  0  0
  7 12  1  0  0  0  0
 39 44  1  0  0  0  0
 17 26  1  0  0  0  0
 25 36  1  0  0  0  0
 25 37  1  0  0  0  0
 25 38  1  0  0  0  0
M  CHG  1  25   1
M  END
$$$$

  -OEChem-05262214473D

 54 53  0     1  0  0  0  0  0999 V2000
    2.6714    2.8829   -3.0005 C   0  0  0  0  0  0  0  0  0  0  0  0
    3.1741    2.4398   -1.9745 O   0  0  0  0  0  0  0  0  0  0  0  0
    3.5527    3.3077   -4.1279 C   0  0  0  0  0  0  0  0  0  0  0  0
    3.8407    4.3691   -4.0597 H   0  0  0  0  0  0  0  0  0  0  0  0
    4.5024    2.7495   -4.1526 H   0  0  0  0  0  0  0  0  0  0  0  0
    3.1208    3.1887   -5.1345 H   0  0  0  0  0  0  0  0  0  0  0  0
    1.3174    3.0407   -3.2467 N   0  0  0  0  0  0  0  0  0  0  0  0
    0.2944    2.6927   -2.2960 C   0  0  2  0  0  0  0  0  0  0  0  0
    0.2976    1.1783   -2.1349 C   0  0  0  0  0  0  0  0  0  0  0  0
    0.7500    0.4142   -2.9850 O   0  0  0  0  0  0  0  0  0  0  0  0
   -1.0710    3.1886   -2.7460 C   0  0  0  0  0  0  0  0  0  0  0  0
    1.0312    3.4224   -4.1464 H   0  0  0  0  0  0  0  0  0  0  0  0
    0.5725    3.1622   -1.3461 H   0  0  0  0  0  0  0  0  0  0  0  0
   -1.3666    2.7292   -3.6963 H   0  0  0  0  0  0  0  0  0  0  0  0
   -1.8434    2.9482   -2.0082 H   0  0  0  0  0  0  0  0  0  0  0  0
   -1.0632    4.2744   -2.8901 H   0  0  0  0  0  0  0  0  0  0  0  0
   -0.3037    0.7742   -0.9484 N   0  0  0  0  0  0  0  0  0  0  0  0
   -0.4352   -0.6095   -0.5718 C   0  0  2  0  0  0  0  0  0  0  0  0
   -1.5446   -1.2429   -1.4051 C   0  0  0  0  0  0  0  0  0  0  0  0
   -2.5638   -1.7213   -0.9113 O   0  0  0  0  0  0  0  0  0  0  0  0
   -0.6546   -0.7748    0.9366 C   0  0  0  0  0  0  0  0  0  0  0  0
    0.5615   -0.3950    1.7915 C   0  0  0  0  0  0  0  0  0  0  0  0
    0.2786   -0.6081    3.2804 C   0  0  0  0  0  0  0  0  0  0  0  0
    1.4779   -0.2073    4.1266 C   0  0  0  0  0  0  0  0  0  0  0  0
    1.1506   -0.4072    5.5589 N   0  3  0  0  0  0  0  0  0  0  0  0
   -0.6336    1.4811   -0.2948 H   0  0  0  0  0  0  0  0  0  0  0  0
    0.5119   -1.0873   -0.8500 H   0  0  0  0  0  0  0  0  0  0  0  0
   -1.5078   -0.1542    1.2399 H   0  0  0  0  0  0  0  0  0  0  0  0
   -0.9291   -1.8146    1.1535 H   0  0  0  0  0  0  0  0  0  0  0  0
    1.4279   -1.0000    1.4999 H   0  0  0  0  0  0  0  0  0  0  0  0
    0.8262    0.6552    1.6212 H   0  0  0  0  0  0  0  0  0  0  0  0
    0.0324   -1.6620    3.4603 H   0  0  0  0  0  0  0  0  0  0  0  0
   -0.5982   -0.0184    3.5757 H   0  0  0  0  0  0  0  0  0  0  0  0
    2.3555   -0.8245    3.9125 H   0  0  0  0  0  0  0  0  0  0  0  0
    1.7318    0.8497    4.0036 H   0  0  0  0  0  0  0  0  0  0  0  0
    1.7756    0.1418    6.1591 H   0  0  0  0  0  0  0  0  0  0  0  0
    1.2460   -1.3941    5.8230 H   0  0  0  0  0  0  0  0  0  0  0  0
    0.1867   -0.1187    5.7595 H   0  0  0  0  0  0  0  0  0  0  0  0
   -1.2802   -1.1826   -2.7658 N   0  0  0  0  0  0  0  0  0  0  0  0
   -2.1967   -1.7046   -3.7513 C   0  0  2  0  0  0  0  0  0  0  0  0
   -1.4659   -1.7682   -5.0860 C   0  0  0  0  0  0  0  0  0  0  0  0
   -0.4794   -1.0816   -5.3441 O   0  0  0  0  0  0  0  0  0  0  0  0
   -3.4458   -0.8436   -3.8561 C   0  0  0  0  0  0  0  0  0  0  0  0
   -0.4128   -0.7570   -3.0789 H   0  0  0  0  0  0  0  0  0  0  0  0
   -2.4622   -2.7179   -3.4310 H   0  0  0  0  0  0  0  0  0  0  0  0
   -3.1997    0.1756   -4.1759 H   0  0  0  0  0  0  0  0  0  0  0  0
   -4.1525   -1.2566   -4.5835 H   0  0  0  0  0  0  0  0  0  0  0  0
   -3.9540   -0.7746   -2.8882 H   0  0  0  0  0  0  0  0  0  0  0  0
   -2.0705   -2.6503   -5.9706 N   0  0  0  0  0  0  0  0  0  0  0  0
   -1.5726   -2.8780   -7.3071 C   0  0  0  0  0  0  0  0  0  0  0  0
   -2.8737   -3.1920   -5.6653 H   0  0  0  0  0  0  0  0  0  0  0  0
   -2.0801   -2.1996   -8.0086 H   0  0  0  0  0  0  0  0  0  0  0  0
   -0.4895   -2.6879   -7.3320 H   0  0  0  0  0  0  0  0  0  0  0  0
   -1.7687   -3.9204   -7.5986 H   0  0  0  0  0  0  0  0  0  0  0  0
  1  3  1  0  0  0  0
  1  7  1  0  0  0  0
  1  2  2  0  0  0  0
 40 41  1  0  0  0  0
 41 49  1  0  0  0  0
 41 42  2  0  0  0  0
  8  9  1  0  0  0  0
  9 17  1  0  0  0  0
  9 10  2  0  0  0  0
 18 19  1  0  0  0  0
 19 39  1  0  0  0  0
 19 20  2  0  0  0  0
 40 43  1  0  0  0  0
  8 11  1  0  0  0  0
 49 50  1  0  0  0  0
 22 23  1  0  0  0  0
 21 22  1  0  0  0  0
 23 24  1  0  0  0  0
 18 21  1  0  0  0  0
 24 25  1  0  0  0  0
 39 40  1  0  0  0  0
  7  8  1  0  0  0  0
 17 18  1  0  0  0  0
  3  4  1  0  0  0  0
  3  5  1  0  0  0  0
  3  6  1  0  0  0  0
 43 46  1  0  0  0  0
 43 47  1  0  0  0  0
 43 48  1  0  0  0  0
 11 14  1  0  0  0  0
 11 15  1  0  0  0  0
 11 16  1  0  0  0  0
 50 52  1  0  0  0  0
 50 53  1  0  0  0  0
 50 54  1  0  0  0  0
 22 30  1  0  0  0  0
 22 31  1  0  0  0  0
 23 32  1  0  0  0  0
 23 33  1  0  0  0  0
 21 28  1  0  0  0  0
 21 29  1  0  0  0  0
 24 34  1  0  0  0  0
 24 35  1  0  0  0  0
 40 45  1  0  0  0  0
  8 13  1  0  0  0  0
 18 27  1  0  0  0  0
 49 51  1  0  0  0  0
  7 12  1  0  0  0  0
 39 44  1  0  0  0  0
 17 26  1  0  0  0  0
 25 36  1  0  0  0  0
 25 37  1  0  0  0  0
 25 38  1  0  0  0  0
M  CHG  1  25   1
M  END
$$$$

  -OEChem-05262214473D

 54 53  0     1  0  0  0  0  0999 V2000
    2.6714    2.8829   -3.0005 C   0  0  0  0  0  0  0  0  0  0  0  0
    3.1741    2.4398   -1.9745 O   0  0  0  0  0  0  0  0  0  0  0  0
    3.5527    3.3077   -4.1279 C   0  0  0  0  0  0  0  0  0  0  0  0
    3.8407    4.3691   -4.0597 H   0  0  0  0  0  0  0  0  0  0  0  0
    4.5024    2.7495   -4.1526 H   0  0  0  0  0  0  0  0  0  0  0  0
    3.1208    3.1887   -5.1345 H   0  0  0  0  0  0  0  0  0  0  0  0
    1.3174    3.0407   -3.2467 N   0  0  0  0  0  0  0  0  0  0  0  0
    0.2944    2.6927   -2.2960 C   0  0  2  0  0  0  0  0  0  0  0  0
    0.2976    1.1783   -2.1349 C   0  0  0  0  0  0  0  0  0  0  0  0
    0.7500    0.4142   -2.9850 O   0  0  0  0  0  0  0  0  0  0  0  0
   -1.0710    3.1886   -2.7460 C   0  0  0  0  0  0  0  0  0  0  0  0
    1.0312    3.4224   -4.1464 H   0  0  0  0  0  0  0  0  0  0  0  0
    0.5725    3.1622   -1.3461 H   0  0  0  0  0  0  0  0  0  0  0  0
   -1.3666    2.7292   -3.6963 H   0  0  0  0  0  0  0  0  0  0  0  0
   -1.8434    2.9482   -2.0082 H   0  0  0  0  0  0  0  0  0  0  0  0
   -1.0632    4.2744   -2.8901 H   0  0  0  0  0  0  0  0  0  0  0  0
   -0.3037    0.7742   -0.9484 N   0  0  0  0  0  0  0  0  0  0  0  0
   -0.4352   -0.6095   -0.5718 C   0  0  2  0  0  0  0  0  0  0  0  0
   -1.5446   -1.2429   -1.4051 C   0  0  0  0  0  0  0  0  0  0  0  0
   -2.6664   -1.4774   -0.9601 O   0  0  0  0  0  0  0  0  0  0  0  0
   -0.6546   -0.7748    0.9366 C   0  0  0  0  0  0  0  0  0  0  0  0
    0.5615   -0.3950    1.7915 C   0  0  0  0  0  0  0  0  0  0  0  0
    0.2786   -0.6081    3.2804 C   0  0  0  0  0  0  0  0  0  0  0  0
    1.4779   -0.2073    4.1266 C   0  0  0  0  0  0  0  0  0  0  0  0
    1.1506   -0.4072    5.5589 N   0  3  0  0  0  0  0  0  0  0  0  0
   -0.6336    1.4811   -0.2948 H   0  0  0  0  0  0  0  0  0  0  0  0
    0.5119   -1.0873   -0.8500 H   0  0  0  0  0  0  0  0  0  0  0  0
   -1.5078   -0.1542    1.2399 H   0  0  0  0  0  0  0  0  0  0  0  0
   -0.9291   -1.8146    1.1535 H   0  0  0  0  0  0  0  0  0  0  0  0
    1.4279   -1.0000    1.4999 H   0  0  0  0  0  0  0  0  0  0  0  0
    0.8262    0.6552    1.6212 H   0  0  0  0  0  0  0  0  0  0  0  0
    0.0324   -1.6620    3.4603 H   0  0  0  0  0  0  0  0  0  0  0  0
   -0.5982   -0.0184    3.5757 H   0  0  0  0  0  0  0  0  0  0  0  0
    2.3555   -0.8245    3.9125 H   0  0  0  0  0  0  0  0  0  0  0  0
    1.7318    0.8497    4.0036 H   0  0  0  0  0  0  0  0  0  0  0  0
    1.7756    0.1418    6.1591 H   0  0  0  0  0  0  0  0  0  0  0  0
    1.2460   -1.3941    5.8230 H   0  0  0  0  0  0  0  0  0  0  0  0
    0.1867   -0.1187    5.7595 H   0  0  0  0  0  0  0  0  0  0  0  0
   -1.1475   -1.4856   -2.7121 N   0  0  0  0  0  0  0  0  0  0  0  0
   -2.0358   -2.0659   -3.6908 C   0  0  2  0  0  0  0  0  0  0  0  0
   -1.2010   -2.4851   -4.8937 C   0  0  0  0  0  0  0  0  0  0  0  0
   -0.1020   -1.9977   -5.1501 O   0  0  0  0  0  0  0  0  0  0  0  0
   -3.1245   -1.0859   -4.0997 C   0  0  0  0  0  0  0  0  0  0  0  0
   -0.2000   -1.2471   -2.9896 H   0  0  0  0  0  0  0  0  0  0  0  0
   -2.4809   -2.9531   -3.2274 H   0  0  0  0  0  0  0  0  0  0  0  0
   -2.6977   -0.1905   -4.5661 H   0  0  0  0  0  0  0  0  0  0  0  0
   -3.8141   -1.5372   -4.8207 H   0  0  0  0  0  0  0  0  0  0  0  0
   -3.7049   -0.7626   -3.2289 H   0  0  0  0  0  0  0  0  0  0  0  0
   -1.8466   -3.4364   -5.6710 N   0  0  0  0  0  0  0  0  0  0  0  0
   -1.2657   -3.9849   -6.8742 C   0  0  0  0  0  0  0  0  0  0  0  0
   -2.7478   -3.7977   -5.3725 H   0  0  0  0  0  0  0  0  0  0  0  0
   -1.5963   -3.3966   -7.7428 H   0  0  0  0  0  0  0  0  0  0  0  0
   -0.1688   -3.9470   -6.8018 H   0  0  0  0  0  0  0  0  0  0  0  0
   -1.5894   -5.0294   -6.9943 H   0  0  0  0  0  0  0  0  0  0  0  0
  1  3  1  0  0  0  0
  1  7  1  0  0  0  0
  1  2  2  0  0  0  0
 40 41  1  0  0  0  0
 41 49  1  0  0  0  0
 41 42  2  0  0  0  0
  8  9  1  0  0  0  0
  9 17  1  0  0  0  0
  9 10  2  0  0  0  0
 18 19  1  0  0  0  0
 19 39  1  0  0  0  0
 19 20  2  0  0  0  0
 40 43  1  0  0  0  0
  8 11  1  0  0  0  0
 49 50  1  0  0  0  0
 22 23  1  0  0  0  0
 21 22  1  0  0  0  0
 23 24  1  0  0  0  0
 18 21  1  0  0  0  0
 24 25  1  0  0  0  0
 39 40  1  0  0  0  0
  7  8  1  0  0  0  0
 17 18  1  0  0  0  0
  3  4  1  0  0  0  0
  3  5  1  0  0  0  0
  3  6  1  0  0  0  0
 43 46  1  0  0  0  0
 43 47  1  0  0  0  0
 43 48  1  0  0  0  0
 11 14  1  0  0  0  0
 11 15  1  0  0  0  0
 11 16  1  0  0  0  0
 50 52  1  0  0  0  0
 50 53  1  0  0  0  0
 50 54  1  0  0  0  0
 22 30  1  0  0  0  0
 22 31  1  0  0  0  0
 23 32  1  0  0  0  0
 23 33  1  0  0  0  0
 21 28  1  0  0  0  0
 21 29  1  0  0  0  0
 24 34  1  0  0  0  0
 24 35  1  0  0  0  0
 40 45  1  0  0  0  0
  8 13  1  0  0  0  0
 18 27  1  0  0  0  0
 49 51  1  0  0  0  0
  7 12  1  0  0  0  0
 39 44  1  0  0  0  0
 17 26  1  0  0  0  0
 25 36  1  0  0  0  0
 25 37  1  0  0  0  0
 25 38  1  0  0  0  0
M  CHG  1  25   1
M  END
$$$$

  -OEChem-05262214473D

 54 53  0     1  0  0  0  0  0999 V2000
    2.6714    2.8829   -3.0005 C   0  0  0  0  0  0  0  0  0  0  0  0
    3.1741    2.4398   -1.9745 O   0  0  0  0  0  0  0  0  0  0  0  0
    3.5527    3.3077   -4.1279 C   0  0  0  0  0  0  0  0  0  0  0  0
    3.8407    4.3691   -4.0597 H   0  0  0  0  0  0  0  0  0  0  0  0
    4.5024    2.7495   -4.1526 H   0  0  0  0  0  0  0  0  0  0  0  0
    3.1208    3.1887   -5.1345 H   0  0  0  0  0  0  0  0  0  0  0  0
    1.3174    3.0407   -3.2467 N   0  0  0  0  0  0  0  0  0  0  0  0
    0.2944    2.6927   -2.2960 C   0  0  2  0  0  0  0  0  0  0  0  0
    0.2976    1.1783   -2.1349 C   0  0  0  0  0  0  0  0  0  0  0  0
    0.7500    0.4142   -2.9850 O   0  0  0  0  0  0  0  0  0  0  0  0
   -1.0710    3.1886   -2.7460 C   0  0  0  0  0  0  0  0  0  0  0  0
    1.0312    3.4224   -4.1464 H   0  0  0  0  0  0  0  0  0  0  0  0
    0.5725    3.1622   -1.3461 H   0  0  0  0  0  0  0  0  0  0  0  0
   -1.3666    2.7292   -3.6963 H   0  0  0  0  0  0  0  0  0  0  0  0
   -1.8434    2.9482   -2.0082 H   0  0  0  0  0  0  0  0  0  0  0  0
   -1.0632    4.2744   -2.8901 H   0  0  0  0  0  0  0  0  0  0  0  0
   -0.3037    0.7742   -0.9484 N   0  0  0  0  0  0  0  0  0  0  0  0
   -0.4352   -0.6095   -0.5718 C   0  0  2  0  0  0  0  0  0  0  0  0
   -1.5446   -1.2429   -1.4051 C   0  0  0  0  0  0  0  0  0  0  0  0
   -2.7258   -1.2365   -1.0642 O   0  0  0  0  0  0  0  0  0  0  0  0
   -0.6546   -0.7748    0.9366 C   0  0  0  0  0  0  0  0  0  0  0  0
    0.5615   -0.3950    1.7915 C   0  0  0  0  0  0  0  0  0  0  0  0
    0.2786   -0.6081    3.2804 C   0  0  0  0  0  0  0  0  0  0  0  0
    1.4779   -0.2073    4.1266 C   0  0  0  0  0  0  0  0  0  0  0  0
    1.1506   -0.4072    5.5589 N   0  3  0  0  0  0  0  0  0  0  0  0
   -0.6336    1.4811   -0.2948 H   0  0  0  0  0  0  0  0  0  0  0  0
    0.5119   -1.0873   -0.8500 H   0  0  0  0  0  0  0  0  0  0  0  0
   -1.5078   -0.1542    1.2399 H   0  0  0  0  0  0  0  0  0  0  0  0
   -0.9291   -1.8146    1.1535 H   0  0  0  0  0  0  0  0  0  0  0  0
    1.4279   -1.0000    1.4999 H   0  0  0  0  0  0  0  0  0  0  0  0
    0.8262    0.6552    1.6212 H   0  0  0  0  0  0  0  0  0  0  0  0
    0.0324   -1.6620    3.4603 H   0  0  0  0  0  0  0  0  0  0  0  0
   -0.5982   -0.0184    3.5757 H   0  0  0  0  0  0  0  0  0  0  0  0
    2.3555   -0.8245    3.9125 H   0  0  0  0  0  0  0  0  0  0  0  0
    1.7318    0.8497    4.0036 H   0  0  0  0  0  0  0  0  0  0  0  0
    1.7756    0.1418    6.1591 H   0  0  0  0  0  0  0  0  0  0  0  0
    1.2460   -1.3941    5.8230 H   0  0  0  0  0  0  0  0  0  0  0  0
    0.1867   -0.1187    5.7595 H   0  0  0  0  0  0  0  0  0  0  0  0
   -1.0679   -1.7870   -2.5890 N   0  0  0  0  0  0  0  0  0  0  0  0
   -1.9380   -2.4262   -3.5471 C   0  0  2  0  0  0  0  0  0  0  0  0
   -1.0672   -3.1788   -4.5445 C   0  0  0  0  0  0  0  0  0  0  0  0
    0.1122   -2.8995   -4.7497 O   0  0  0  0  0  0  0  0  0  0  0  0
   -2.8222   -1.4113   -4.2549 C   0  0  0  0  0  0  0  0  0  0  0  0
   -0.0733   -1.7338   -2.7882 H   0  0  0  0  0  0  0  0  0  0  0  0
   -2.5541   -3.1392   -2.9884 H   0  0  0  0  0  0  0  0  0  0  0  0
   -2.2226   -0.6885   -4.8201 H   0  0  0  0  0  0  0  0  0  0  0  0
   -3.5015   -1.9007   -4.9606 H   0  0  0  0  0  0  0  0  0  0  0  0
   -3.4260   -0.8503   -3.5335 H   0  0  0  0  0  0  0  0  0  0  0  0
   -1.7738   -4.1710   -5.2096 N   0  0  0  0  0  0  0  0  0  0  0  0
   -1.1723   -5.0160   -6.2147 C   0  0  0  0  0  0  0  0  0  0  0  0
   -2.7433   -4.3455   -4.9621 H   0  0  0  0  0  0  0  0  0  0  0  0
   -1.3267   -4.5712   -7.2088 H   0  0  0  0  0  0  0  0  0  0  0  0
   -0.0940   -5.1088   -6.0181 H   0  0  0  0  0  0  0  0  0  0  0  0
   -1.6380   -6.0121   -6.1826 H   0  0  0  0  0  0  0  0  0  0  0  0
  1  3  1  0  0  0  0
  1  7  1  0  0  0  0
  1  2  2  0  0  0  0
 40 41  1  0  0  0  0
 41 49  1  0  0  0  0
 41 42  2  0  0  0  0
  8  9  1  0  0  0  0
  9 17  1  0  0  0  0
  9 10  2  0  0  0  0
 18 19  1  0  0  0  0
 19 39  1  0  0  0  0
 19 20  2  0  0  0  0
 40 43  1  0  0  0  0
  8 11  1  0  0  0  0
 49 50  1  0  0  0  0
 22 23  1  0  0  0  0
 21 22  1  0  0  0  0
 23 24  1  0  0  0  0
 18 21  1  0  0  0  0
 24 25  1  0  0  0  0
 39 40  1  0  0  0  0
  7  8  1  0  0  0  0
 17 18  1  0  0  0  0
  3  4  1  0  0  0  0
  3  5  1  0  0  0  0
  3  6  1  0  0  0  0
 43 46  1  0  0  0  0
 43 47  1  0  0  0  0
 43 48  1  0  0  0  0
 11 14  1  0  0  0  0
 11 15  1  0  0  0  0
 11 16  1  0  0  0  0
 50 52  1  0  0  0  0
 50 53  1  0  0  0  0
 50 54  1  0  0  0  0
 22 30  1  0  0  0  0
 22 31  1  0  0  0  0
 23 32  1  0  0  0  0
 23 33  1  0  0  0  0
 21 28  1  0  0  0  0
 21 29  1  0  0  0  0
 24 34  1  0  0  0  0
 24 35  1  0  0  0  0
 40 45  1  0  0  0  0
  8 13  1  0  0  0  0
 18 27  1  0  0  0  0
 49 51  1  0  0  0  0
  7 12  1  0  0  0  0
 39 44  1  0  0  0  0
 17 26  1  0  0  0  0
 25 36  1  0  0  0  0
 25 37  1  0  0  0  0
 25 38  1  0  0  0  0
M  CHG  1  25   1
M  END
$$$$

  -OEChem-05262214473D

 54 53  0     1  0  0  0  0  0999 V2000
    2.6714    2.8829   -3.0005 C   0  0  0  0  0  0  0  0  0  0  0  0
    3.1741    2.4398   -1.9745 O   0  0  0  0  0  0  0  0  0  0  0  0
    3.5527    3.3077   -4.1279 C   0  0  0  0  0  0  0  0  0  0  0  0
    3.8407    4.3691   -4.0597 H   0  0  0  0  0  0  0  0  0  0  0  0
    4.5024    2.7495   -4.1526 H   0  0  0  0  0  0  0  0  0  0  0  0
    3.1208    3.1887   -5.1345 H   0  0  0  0  0  0  0  0  0  0  0  0
    1.3174    3.0407   -3.2467 N   0  0  0  0  0  0  0  0  0  0  0  0
    0.2944    2.6927   -2.2960 C   0  0  2  0  0  0  0  0  0  0  0  0
    0.2976    1.1783   -2.1349 C   0  0  0  0  0  0  0  0  0  0  0  0
    0.7500    0.4142   -2.9850 O   0  0  0  0  0  0  0  0  0  0  0  0
   -1.0710    3.1886   -2.7460 C   0  0  0  0  0  0  0  0  0  0  0  0
    1.0312    3.4224   -4.1464 H   0  0  0  0  0  0  0  0  0  0  0  0
    0.5725    3.1622   -1.3461 H   0  0  0  0  0  0  0  0  0  0  0  0
   -1.3666    2.7292   -3.6963 H   0  0  0  0  0  0  0  0  0  0  0  0
   -1.8434    2.9482   -2.0082 H   0  0  0  0  0  0  0  0  0  0  0  0
   -1.0632    4.2744   -2.8901 H   0  0  0  0  0  0  0  0  0  0  0  0
   -0.3037    0.7742   -0.9484 N   0  0  0  0  0  0  0  0  0  0  0  0
   -0.4352   -0.6095   -0.5718 C   0  0  2  0  0  0  0  0  0  0  0  0
   -1.5446   -1.2429   -1.4051 C   0  0  0  0  0  0  0  0  0  0  0  0
   -2.7379   -1.0150   -1.2165 O   0  0  0  0  0  0  0  0  0  0  0  0
   -0.6546   -0.7748    0.9366 C   0  0  0  0  0  0  0  0  0  0  0  0
    0.5615   -0.3950    1.7915 C   0  0  0  0  0  0  0  0  0  0  0  0
    0.2786   -0.6081    3.2804 C   0  0  0  0  0  0  0  0  0  0  0  0
    1.4779   -0.2073    4.1266 C   0  0  0  0  0  0  0  0  0  0  0  0
    1.1506   -0.4072    5.5589 N   0  3  0  0  0  0  0  0  0  0  0  0
   -0.6336    1.4811   -0.2948 H   0  0  0  0  0  0  0  0  0  0  0  0
    0.5119   -1.0873   -0.8500 H   0  0  0  0  0  0  0  0  0  0  0  0
   -1.5078   -0.1542    1.2399 H   0  0  0  0  0  0  0  0  0  0  0  0
   -0.9291   -1.8146    1.1535 H   0  0  0  0  0  0  0  0  0  0  0  0
    1.4279   -1.0000    1.4999 H   0  0  0  0  0  0  0  0  0  0  0  0
    0.8262    0.6552    1.6212 H   0  0  0  0  0  0  0  0  0  0  0  0
    0.0324   -1.6620    3.4603 H   0  0  0  0  0  0  0  0  0  0  0  0
   -0.5982   -0.0184    3.5757 H   0  0  0  0  0  0  0  0  0  0  0  0
    2.3555   -0.8245    3.9125 H   0  0  0  0  0  0  0  0  0  0  0  0
    1.7318    0.8497    4.0036 H   0  0  0  0  0  0  0  0  0  0  0  0
    1.7756    0.1418    6.1591 H   0  0  0  0  0  0  0  0  0  0  0  0
    1.2460   -1.3941    5.8230 H   0  0  0  0  0  0  0  0  0  0  0  0
    0.1867   -0.1187    5.7595 H   0  0  0  0  0  0  0  0  0  0  0  0
   -1.0468   -2.0662   -2.4048 N   0  0  0  0  0  0  0  0  0  0  0  0
   -1.9100   -2.7611   -3.3299 C   0  0  2  0  0  0  0  0  0  0  0  0
   -1.0736   -3.8021   -4.0622 C   0  0  0  0  0  0  0  0  0  0  0  0
    0.1485   -3.7255   -4.1702 O   0  0  0  0  0  0  0  0  0  0  0  0
   -2.5595   -1.7976   -4.3110 C   0  0  0  0  0  0  0  0  0  0  0  0
   -0.0415   -2.1839   -2.4885 H   0  0  0  0  0  0  0  0  0  0  0  0
   -2.6768   -3.2637   -2.7304 H   0  0  0  0  0  0  0  0  0  0  0  0
   -1.8067   -1.2845   -4.9206 H   0  0  0  0  0  0  0  0  0  0  0  0
   -3.2358   -2.3224   -4.9937 H   0  0  0  0  0  0  0  0  0  0  0  0
   -3.1363   -1.0318   -3.7812 H   0  0  0  0  0  0  0  0  0  0  0  0
   -1.8568   -4.8040   -4.6178 N   0  0  0  0  0  0  0  0  0  0  0  0
   -1.2988   -5.9011   -5.3736 C   0  0  0  0  0  0  0  0  0  0  0  0
   -2.8605   -4.7979   -4.4620 H   0  0  0  0  0  0  0  0  0  0  0  0
   -1.2898   -5.6433   -6.4429 H   0  0  0  0  0  0  0  0  0  0  0  0
   -0.2704   -6.0941   -5.0344 H   0  0  0  0  0  0  0  0  0  0  0  0
   -1.9111   -6.8017   -5.2187 H   0  0  0  0  0  0  0  0  0  0  0  0
  1  3  1  0  0  0  0
  1  7  1  0  0  0  0
  1  2  2  0  0  0  0
 40 41  1  0  0  0  0
 41 49  1  0  0  0  0
 41 42  2  0  0  0  0
  8  9  1  0  0  0  0
  9 17  1  0  0  0  0
  9 10  2  0  0  0  0
 18 19  1  0  0  0  0
 19 39  1  0  0  0  0
 19 20  2  0  0  0  0
 40 43  1  0  0  0  0
  8 11  1  0  0  0  0
 49 50  1  0  0  0  0
 22 23  1  0  0  0  0
 21 22  1  0  0  0  0
 23 24  1  0  0  0  0
 18 21  1  0  0  0  0
 24 25  1  0  0  0  0
 39 40  1  0  0  0  0
  7  8  1  0  0  0  0
 17 18  1  0  0  0  0
  3  4  1  0  0  0  0
  3  5  1  0  0  0  0
  3  6  1  0  0  0  0
 43 46  1  0  0  0  0
 43 47  1  0  0  0  0
 43 48  1  0  0  0  0
 11 14  1  0  0  0  0
 11 15  1  0  0  0  0
 11 16  1  0  0  0  0
 50 52  1  0  0  0  0
 50 53  1  0  0  0  0
 50 54  1  0  0  0  0
 22 30  1  0  0  0  0
 22 31  1  0  0  0  0
 23 32  1  0  0  0  0
 23 33  1  0  0  0  0
 21 28  1  0  0  0  0
 21 29  1  0  0  0  0
 24 34  1  0  0  0  0
 24 35  1  0  0  0  0
 40 45  1  0  0  0  0
  8 13  1  0  0  0  0
 18 27  1  0  0  0  0
 49 51  1  0  0  0  0
  7 12  1  0  0  0  0
 39 44  1  0  0  0  0
 17 26  1  0  0  0  0
 25 36  1  0  0  0  0
 25 37  1  0  0  0  0
 25 38  1  0  0  0  0
M  CHG  1  25   1
M  END
$$$$

  -OEChem-05262214473D

 54 53  0     1  0  0  0  0  0999 V2000
    2.6714    2.8829   -3.0005 C   0  0  0  0  0  0  0  0  0  0  0  0
    3.1741    2.4398   -1.9745 O   0  0  0  0  0  0  0  0  0  0  0  0
    3.5527    3.3077   -4.1279 C   0  0  0  0  0  0  0  0  0  0  0  0
    3.8407    4.3691   -4.0597 H   0  0  0  0  0  0  0  0  0  0  0  0
    4.5024    2.7495   -4.1526 H   0  0  0  0  0  0  0  0  0  0  0  0
    3.1208    3.1887   -5.1345 H   0  0  0  0  0  0  0  0  0  0  0  0
    1.3174    3.0407   -3.2467 N   0  0  0  0  0  0  0  0  0  0  0  0
    0.2944    2.6927   -2.2960 C   0  0  2  0  0  0  0  0  0  0  0  0
    0.2976    1.1783   -2.1349 C   0  0  0  0  0  0  0  0  0  0  0  0
    0.7500    0.4142   -2.9850 O   0  0  0  0  0  0  0  0  0  0  0  0
   -1.0710    3.1886   -2.7460 C   0  0  0  0  0  0  0  0  0  0  0  0
    1.0312    3.4224   -4.1464 H   0  0  0  0  0  0  0  0  0  0  0  0
    0.5725    3.1622   -1.3461 H   0  0  0  0  0  0  0  0  0  0  0  0
   -1.3666    2.7292   -3.6963 H   0  0  0  0  0  0  0  0  0  0  0  0
   -1.8434    2.9482   -2.0082 H   0  0  0  0  0  0  0  0  0  0  0  0
   -1.0632    4.2744   -2.8901 H   0  0  0  0  0  0  0  0  0  0  0  0
   -0.3037    0.7742   -0.9484 N   0  0  0  0  0  0  0  0  0  0  0  0
   -0.4352   -0.6095   -0.5718 C   0  0  2  0  0  0  0  0  0  0  0  0
   -1.5446   -1.2429   -1.4051 C   0  0  0  0  0  0  0  0  0  0  0  0
   -2.7019   -0.8280   -1.4065 O   0  0  0  0  0  0  0  0  0  0  0  0
   -0.6546   -0.7748    0.9366 C   0  0  0  0  0  0  0  0  0  0  0  0
    0.5615   -0.3950    1.7915 C   0  0  0  0  0  0  0  0  0  0  0  0
    0.2786   -0.6081    3.2804 C   0  0  0  0  0  0  0  0  0  0  0  0
    1.4779   -0.2073    4.1266 C   0  0  0  0  0  0  0  0  0  0  0  0
    1.1506   -0.4072    5.5589 N   0  3  0  0  0  0  0  0  0  0  0  0
   -0.6336    1.4811   -0.2948 H   0  0  0  0  0  0  0  0  0  0  0  0
    0.5119   -1.0873   -0.8500 H   0  0  0  0  0  0  0  0  0  0  0  0
   -1.5078   -0.1542    1.2399 H   0  0  0  0  0  0  0  0  0  0  0  0
   -0.9291   -1.8146    1.1535 H   0  0  0  0  0  0  0  0  0  0  0  0
    1.4279   -1.0000    1.4999 H   0  0  0  0  0  0  0  0  0  0  0  0
    0.8262    0.6552    1.6212 H   0  0  0  0  0  0  0  0  0  0  0  0
    0.0324   -1.6620    3.4603 H   0  0  0  0  0  0  0  0  0  0  0  0
   -0.5982   -0.0184    3.5757 H   0  0  0  0  0  0  0  0  0  0  0  0
    2.3555   -0.8245    3.9125 H   0  0  0  0  0  0  0  0  0  0  0  0
    1.7318    0.8497    4.0036 H   0  0  0  0  0  0  0  0  0  0  0  0
    1.7756    0.1418    6.1591 H   0  0  0  0  0  0  0  0  0  0  0  0
    1.2460   -1.3941    5.8230 H   0  0  0  0  0  0  0  0  0  0  0  0
    0.1867   -0.1187    5.7595 H   0  0  0  0  0  0  0  0  0  0  0  0
   -1.0858   -2.3042   -2.1720 N   0  0  0  0  0  0  0  0  0  0  0  0
   -1.9536   -3.0476   -3.0540 C   0  0  2  0  0  0  0  0  0  0  0  0
   -1.2197   -4.3124   -3.4797 C   0  0  0  0  0  0  0  0  0  0  0  0
    0.0045   -4.4194   -3.4510 O   0  0  0  0  0  0  0  0  0  0  0  0
   -2.3543   -2.2184   -4.2642 C   0  0  0  0  0  0  0  0  0  0  0  0
   -0.1066   -2.5668   -2.1108 H   0  0  0  0  0  0  0  0  0  0  0  0
   -2.8406   -3.3180   -2.4709 H   0  0  0  0  0  0  0  0  0  0  0  0
   -1.4786   -1.9379   -4.8608 H   0  0  0  0  0  0  0  0  0  0  0  0
   -3.0353   -2.7736   -4.9177 H   0  0  0  0  0  0  0  0  0  0  0  0
   -2.8556   -1.2948   -3.9551 H   0  0  0  0  0  0  0  0  0  0  0  0
   -2.0902   -5.2923   -3.9360 N   0  0  0  0  0  0  0  0  0  0  0  0
   -1.6365   -6.5797   -4.4080 C   0  0  0  0  0  0  0  0  0  0  0  0
   -3.0915   -5.1243   -3.9065 H   0  0  0  0  0  0  0  0  0  0  0  0
   -1.4882   -6.5400   -5.4973 H   0  0  0  0  0  0  0  0  0  0  0  0
   -0.6857   -6.8357   -3.9177 H   0  0  0  0  0  0  0  0  0  0  0  0
   -2.3901   -7.3443   -4.1684 H   0  0  0  0  0  0  0  0  0  0  0  0
  1  3  1  0  0  0  0
  1  7  1  0  0  0  0
  1  2  2  0  0  0  0
 40 41  1  0  0  0  0
 41 49  1  0  0  0  0
 41 42  2  0  0  0  0
  8  9  1  0  0  0  0
  9 17  1  0  0  0  0
  9 10  2  0  0  0  0
 18 19  1  0  0  0  0
 19 39  1  0  0  0  0
 19 20  2  0  0  0  0
 40 43  1  0  0  0  0
  8 11  1  0  0  0  0
 49 50  1  0  0  0  0
 22 23  1  0  0  0  0
 21 22  1  0  0  0  0
 23 24  1  0  0  0  0
 18 21  1  0  0  0  0
 24 25  1  0  0  0  0
 39 40  1  0  0  0  0
  7  8  1  0  0  0  0
 17 18  1  0  0  0  0
  3  4  1  0  0  0  0
  3  5  1  0  0  0  0
  3  6  1  0  0  0  0
 43 46  1  0  0  0  0
 43 47  1  0  0  0  0
 43 48  1  0  0  0  0
 11 14  1  0  0  0  0
 11 15  1  0  0  0  0
 11 16  1  0  0  0  0
 50 52  1  0  0  0  0
 50 53  1  0  0  0  0
 50 54  1  0  0  0  0
 22 30  1  0  0  0  0
 22 31  1  0  0  0  0
 23 32  1  0  0  0  0
 23 33  1  0  0  0  0
 21 28  1  0  0  0  0
 21 29  1  0  0  0  0
 24 34  1  0  0  0  0
 24 35  1  0  0  0  0
 40 45  1  0  0  0  0
  8 13  1  0  0  0  0
 18 27  1  0  0  0  0
 49 51  1  0  0  0  0
  7 12  1  0  0  0  0
 39 44  1  0  0  0  0
 17 26  1  0  0  0  0
 25 36  1  0  0  0  0
 25 37  1  0  0  0  0
 25 38  1  0  0  0  0
M  CHG  1  25   1
M  END
$$$$

  -OEChem-05262214473D

 54 53  0     1  0  0  0  0  0999 V2000
    2.6714    2.8829   -3.0005 C   0  0  0  0  0  0  0  0  0  0  0  0
    3.1741    2.4398   -1.9745 O   0  0  0  0  0  0  0  0  0  0  0  0
    3.5527    3.3077   -4.1279 C   0  0  0  0  0  0  0  0  0  0  0  0
    3.8407    4.3691   -4.0597 H   0  0  0  0  0  0  0  0  0  0  0  0
    4.5024    2.7495   -4.1526 H   0  0  0  0  0  0  0  0  0  0  0  0
    3.1208    3.1887   -5.1345 H   0  0  0  0  0  0  0  0  0  0  0  0
    1.3174    3.0407   -3.2467 N   0  0  0  0  0  0  0  0  0  0  0  0
    0.2944    2.6927   -2.2960 C   0  0  2  0  0  0  0  0  0  0  0  0
    0.2976    1.1783   -2.1349 C   0  0  0  0  0  0  0  0  0  0  0  0
    0.7500    0.4142   -2.9850 O   0  0  0  0  0  0  0  0  0  0  0  0
   -1.0710    3.1886   -2.7460 C   0  0  0  0  0  0  0  0  0  0  0  0
    1.0312    3.4224   -4.1464 H   0  0  0  0  0  0  0  0  0  0  0  0
    0.5725    3.1622   -1.3461 H   0  0  0  0  0  0  0  0  0  0  0  0
   -1.3666    2.7292   -3.6963 H   0  0  0  0  0  0  0  0  0  0  0  0
   -1.8434    2.9482   -2.0082 H   0  0  0  0  0  0  0  0  0  0  0  0
   -1.0632    4.2744   -2.8901 H   0  0  0  0  0  0  0  0  0  0  0  0
   -0.3037    0.7742   -0.9484 N   0  0  0  0  0  0  0  0  0  0  0  0
   -0.4352   -0.6095   -0.5718 C   0  0  2  0  0  0  0  0  0  0  0  0
   -1.5446   -1.2429   -1.4051 C   0  0  0  0  0  0  0  0  0  0  0  0
   -2.6202   -0.6883   -1.6215 O   0  0  0  0  0  0  0  0  0  0  0  0
   -0.6546   -0.7748    0.9366 C   0  0  0  0  0  0  0  0  0  0  0  0
    0.5615   -0.3950    1.7915 C   0  0  0  0  0  0  0  0  0  0  0  0
    0.2786   -0.6081    3.2804 C   0  0  0  0  0  0  0  0  0  0  0  0
    1.4779   -0.2073    4.1266 C   0  0  0  0  0  0  0  0  0  0  0  0
    1.1506   -0.4072    5.5589 N   0  3  0  0  0  0  0  0  0  0  0  0
   -0.6336    1.4811   -0.2948 H   0  0  0  0  0  0  0  0  0  0  0  0
    0.5119   -1.0873   -0.8500 H   0  0  0  0  0  0  0  0  0  0  0  0
   -1.5078   -0.1542    1.2399 H   0  0  0  0  0  0  0  0  0  0  0  0
   -0.9291   -1.8146    1.1535 H   0  0  0  0  0  0  0  0  0  0  0  0
    1.4279   -1.0000    1.4999 H   0  0  0  0  0  0  0  0  0  0  0  0
    0.8262    0.6552    1.6212 H   0  0  0  0  0  0  0  0  0  0  0  0
    0.0324   -1.6620    3.4603 H   0  0  0  0  0  0  0  0  0  0  0  0
   -0.5982   -0.0184    3.5757 H   0  0  0  0  0  0  0  0  0  0  0  0
    2.3555   -0.8245    3.9125 H   0  0  0  0  0  0  0  0  0  0  0  0
    1.7318    0.8497    4.0036 H   0  0  0  0  0  0  0  0  0  0  0  0
    1.7756    0.1418    6.1591 H   0  0  0  0  0  0  0  0  0  0  0  0
    1.2460   -1.3941    5.8230 H   0  0  0  0  0  0  0  0  0  0  0  0
    0.1867   -0.1187    5.7595 H   0  0  0  0  0  0  0  0  0  0  0  0
   -1.1821   -2.4847   -1.9066 N   0  0  0  0  0  0  0  0  0  0  0  0
   -2.0659   -3.2662   -2.7383 C   0  0  2  0  0  0  0  0  0  0  0  0
   -1.4957   -4.6750   -2.8366 C   0  0  0  0  0  0  0  0  0  0  0  0
   -0.3100   -4.9339   -2.6412 O   0  0  0  0  0  0  0  0  0  0  0  0
   -2.2207   -2.6451   -4.1178 C   0  0  0  0  0  0  0  0  0  0  0  0
   -0.2642   -2.8563   -1.6809 H   0  0  0  0  0  0  0  0  0  0  0  0
   -3.0345   -3.2985   -2.2277 H   0  0  0  0  0  0  0  0  0  0  0  0
   -1.2604   -2.6042   -4.6447 H   0  0  0  0  0  0  0  0  0  0  0  0
   -2.9136   -3.2234   -4.7379 H   0  0  0  0  0  0  0  0  0  0  0  0
   -2.6028   -1.6212   -4.0435 H   0  0  0  0  0  0  0  0  0  0  0  0
   -2.4579   -5.6026   -3.2105 N   0  0  0  0  0  0  0  0  0  0  0  0
   -2.1625   -7.0057   -3.3840 C   0  0  0  0  0  0  0  0  0  0  0  0
   -3.4205   -5.3022   -3.3332 H   0  0  0  0  0  0  0  0  0  0  0  0
   -1.9081   -7.2000   -4.4364 H   0  0  0  0  0  0  0  0  0  0  0  0
   -1.3118   -7.2830   -2.7441 H   0  0  0  0  0  0  0  0  0  0  0  0
   -3.0425   -7.6030   -3.1033 H   0  0  0  0  0  0  0  0  0  0  0  0
  1  3  1  0  0  0  0
  1  7  1  0  0  0  0
  1  2  2  0  0  0  0
 40 41  1  0  0  0  0
 41 49  1  0  0  0  0
 41 42  2  0  0  0  0
  8  9  1  0  0  0  0
  9 17  1  0  0  0  0
  9 10  2  0  0  0  0
 18 19  1  0  0  0  0
 19 39  1  0  0  0  0
 19 20  2  0  0  0  0
 40 43  1  0  0  0  0
  8 11  1  0  0  0  0
 49 50  1  0  0  0  0
 22 23  1  0  0  0  0
 21 22  1  0  0  0  0
 23 24  1  0  0  0  0
 18 21  1  0  0  0  0
 24 25  1  0  0  0  0
 39 40  1  0  0  0  0
  7  8  1  0  0  0  0
 17 18  1  0  0  0  0
  3  4  1  0  0  0  0
  3  5  1  0  0  0  0
  3  6  1  0  0  0  0
 43 46  1  0  0  0  0
 43 47  1  0  0  0  0
 43 48  1  0  0  0  0
 11 14  1  0  0  0  0
 11 15  1  0  0  0  0
 11 16  1  0  0  0  0
 50 52  1  0  0  0  0
 50 53  1  0  0  0  0
 50 54  1  0  0  0  0
 22 30  1  0  0  0  0
 22 31  1  0  0  0  0
 23 32  1  0  0  0  0
 23 33  1  0  0  0  0
 21 28  1  0  0  0  0
 21 29  1  0  0  0  0
 24 34  1  0  0  0  0
 24 35  1  0  0  0  0
 40 45  1  0  0  0  0
  8 13  1  0  0  0  0
 18 27  1  0  0  0  0
 49 51  1  0  0  0  0
  7 12  1  0  0  0  0
 39 44  1  0  0  0  0
 17 26  1  0  0  0  0
 25 36  1  0  0  0  0
 25 37  1  0  0  0  0
 25 38  1  0  0  0  0
M  CHG  1  25   1
M  END
$$$$

  -OEChem-05262214473D

 54 53  0     1  0  0  0  0  0999 V2000
    2.6714    2.8829   -3.0005 C   0  0  0  0  0  0  0  0  0  0  0  0
    3.1741    2.4398   -1.9745 O   0  0  0  0  0  0  0  0  0  0  0  0
    3.5527    3.3077   -4.1279 C   0  0  0  0  0  0  0  0  0  0  0  0
    3.8407    4.3691   -4.0597 H   0  0  0  0  0  0  0  0  0  0  0  0
    4.5024    2.7495   -4.1526 H   0  0  0  0  0  0  0  0  0  0  0  0
    3.1208    3.1887   -5.1345 H   0  0  0  0  0  0  0  0  0  0  0  0
    1.3174    3.0407   -3.2467 N   0  0  0  0  0  0  0  0  0  0  0  0
    0.2944    2.6927   -2.2960 C   0  0  2  0  0  0  0  0  0  0  0  0
    0.2976    1.1783   -2.1349 C   0  0  0  0  0  0  0  0  0  0  0  0
    0.7500    0.4142   -2.9850 O   0  0  0  0  0  0  0  0  0  0  0  0
   -1.0710    3.1886   -2.7460 C   0  0  0  0  0  0  0  0  0  0  0  0
    1.0312    3.4224   -4.1464 H   0  0  0  0  0  0  0  0  0  0  0  0
    0.5725    3.1622   -1.3461 H   0  0  0  0  0  0  0  0  0  0  0  0
   -1.3666    2.7292   -3.6963 H   0  0  0  0  0  0  0  0  0  0  0  0
   -1.8434    2.9482   -2.0082 H   0  0  0  0  0  0  0  0  0  0  0  0
   -1.0632    4.2744   -2.8901 H   0  0  0  0  0  0  0  0  0  0  0  0
   -0.3037    0.7742   -0.9484 N   0  0  0  0  0  0  0  0  0  0  0  0
   -0.4352   -0.6095   -0.5718 C   0  0  2  0  0  0  0  0  0  0  0  0
   -1.5446   -1.2429   -1.4051 C   0  0  0  0  0  0  0  0  0  0  0  0
   -2.4985   -0.6053   -1.8466 O   0  0  0  0  0  0  0  0  0  0  0  0
   -0.6546   -0.7748    0.9366 C   0  0  0  0  0  0  0  0  0  0  0  0
    0.5615   -0.3950    1.7915 C   0  0  0  0  0  0  0  0  0  0  0  0
    0.2786   -0.6081    3.2804 C   0  0  0  0  0  0  0  0  0  0  0  0
    1.4779   -0.2073    4.1266 C   0  0  0  0  0  0  0  0  0  0  0  0
    1.1506   -0.4072    5.5589 N   0  3  0  0  0  0  0  0  0  0  0  0
   -0.6336    1.4811   -0.2948 H   0  0  0  0  0  0  0  0  0  0  0  0
    0.5119   -1.0873   -0.8500 H   0  0  0  0  0  0  0  0  0  0  0  0
   -1.5078   -0.1542    1.2399 H   0  0  0  0  0  0  0  0  0  0  0  0
   -0.9291   -1.8146    1.1535 H   0  0  0  0  0  0  0  0  0  0  0  0
    1.4279   -1.0000    1.4999 H   0  0  0  0  0  0  0  0  0  0  0  0
    0.8262    0.6552    1.6212 H   0  0  0  0  0  0  0  0  0  0  0  0
    0.0324   -1.6620    3.4603 H   0  0  0  0  0  0  0  0  0  0  0  0
   -0.5982   -0.0184    3.5757 H   0  0  0  0  0  0  0  0  0  0  0  0
    2.3555   -0.8245    3.9125 H   0  0  0  0  0  0  0  0  0  0  0  0
    1.7318    0.8497    4.0036 H   0  0  0  0  0  0  0  0  0  0  0  0
    1.7756    0.1418    6.1591 H   0  0  0  0  0  0  0  0  0  0  0  0
    1.2460   -1.3941    5.8230 H   0  0  0  0  0  0  0  0  0  0  0  0
    0.1867   -0.1187    5.7595 H   0  0  0  0  0  0  0  0  0  0  0  0
   -1.3292   -2.5955   -1.6265 N   0  0  0  0  0  0  0  0  0  0  0  0
   -2.2392   -3.4021   -2.4043 C   0  0  2  0  0  0  0  0  0  0  0  0
   -1.8826   -4.8652   -2.1769 C   0  0  0  0  0  0  0  0  0  0  0  0
   -0.7736   -5.2340   -1.7959 O   0  0  0  0  0  0  0  0  0  0  0  0
   -2.1677   -3.0485   -3.8816 C   0  0  0  0  0  0  0  0  0  0  0  0
   -0.5036   -3.0327   -1.2281 H   0  0  0  0  0  0  0  0  0  0  0  0
   -3.2451   -3.2064   -2.0173 H   0  0  0  0  0  0  0  0  0  0  0  0
   -1.1671   -3.2380   -4.2871 H   0  0  0  0  0  0  0  0  0  0  0  0
   -2.8789   -3.6412   -4.4664 H   0  0  0  0  0  0  0  0  0  0  0  0
   -2.3953   -1.9889   -4.0402 H   0  0  0  0  0  0  0  0  0  0  0  0
   -2.9350   -5.7138   -2.4909 N   0  0  0  0  0  0  0  0  0  0  0  0
   -2.8409   -7.1500   -2.3712 C   0  0  0  0  0  0  0  0  0  0  0  0
   -3.8250   -5.3197   -2.7814 H   0  0  0  0  0  0  0  0  0  0  0  0
   -2.5212   -7.5784   -3.3325 H   0  0  0  0  0  0  0  0  0  0  0  0
   -2.1060   -7.4056   -1.5935 H   0  0  0  0  0  0  0  0  0  0  0  0
   -3.8237   -7.5601   -2.0958 H   0  0  0  0  0  0  0  0  0  0  0  0
  1  3  1  0  0  0  0
  1  7  1  0  0  0  0
  1  2  2  0  0  0  0
 40 41  1  0  0  0  0
 41 49  1  0  0  0  0
 41 42  2  0  0  0  0
  8  9  1  0  0  0  0
  9 17  1  0  0  0  0
  9 10  2  0  0  0  0
 18 19  1  0  0  0  0
 19 39  1  0  0  0  0
 19 20  2  0  0  0  0
 40 43  1  0  0  0  0
  8 11  1  0  0  0  0
 49 50  1  0  0  0  0
 22 23  1  0  0  0  0
 21 22  1  0  0  0  0
 23 24  1  0  0  0  0
 18 21  1  0  0  0  0
 24 25  1  0  0  0  0
 39 40  1  0  0  0  0
  7  8  1  0  0  0  0
 17 18  1  0  0  0  0
  3  4  1  0  0  0  0
  3  5  1  0  0  0  0
  3  6  1  0  0  0  0
 43 46  1  0  0  0  0
 43 47  1  0  0  0  0
 43 48  1  0  0  0  0
 11 14  1  0  0  0  0
 11 15  1  0  0  0  0
 11 16  1  0  0  0  0
 50 52  1  0  0  0  0
 50 53  1  0  0  0  0
 50 54  1  0  0  0  0
 22 30  1  0  0  0  0
 22 31  1  0  0  0  0
 23 32  1  0  0  0  0
 23 33  1  0  0  0  0
 21 28  1  0  0  0  0
 21 29  1  0  0  0  0
 24 34  1  0  0  0  0
 24 35  1  0  0  0  0
 40 45  1  0  0  0  0
  8 13  1  0  0  0  0
 18 27  1  0  0  0  0
 49 51  1  0  0  0  0
  7 12  1  0  0  0  0
 39 44  1  0  0  0  0
 17 26  1  0  0  0  0
 25 36  1  0  0  0  0
 25 37  1  0  0  0  0
 25 38  1  0  0  0  0
M  CHG  1  25   1
M  END
$$$$

  -OEChem-05262214473D

 54 53  0     1  0  0  0  0  0999 V2000
    2.6714    2.8829   -3.0005 C   0  0  0  0  0  0  0  0  0  0  0  0
    3.1741    2.4398   -1.9745 O   0  0  0  0  0  0  0  0  0  0  0  0
    3.5527    3.3077   -4.1279 C   0  0  0  0  0  0  0  0  0  0  0  0
    3.8407    4.3691   -4.0597 H   0  0  0  0  0  0  0  0  0  0  0  0
    4.5024    2.7495   -4.1526 H   0  0  0  0  0  0  0  0  0  0  0  0
    3.1208    3.1887   -5.1345 H   0  0  0  0  0  0  0  0  0  0  0  0
    1.3174    3.0407   -3.2467 N   0  0  0  0  0  0  0  0  0  0  0  0
    0.2944    2.6927   -2.2960 C   0  0  2  0  0  0  0  0  0  0  0  0
    0.2976    1.1783   -2.1349 C   0  0  0  0  0  0  0  0  0  0  0  0
    0.7500    0.4142   -2.9850 O   0  0  0  0  0  0  0  0  0  0  0  0
   -1.0710    3.1886   -2.7460 C   0  0  0  0  0  0  0  0  0  0  0  0
    1.0312    3.4224   -4.1464 H   0  0  0  0  0  0  0  0  0  0  0  0
    0.5725    3.1622   -1.3461 H   0  0  0  0  0  0  0  0  0  0  0  0
   -1.3666    2.7292   -3.6963 H   0  0  0  0  0  0  0  0  0  0  0  0
   -1.8434    2.9482   -2.0082 H   0  0  0  0  0  0  0  0  0  0  0  0
   -1.0632    4.2744   -2.8901 H   0  0  0  0  0  0  0  0  0  0  0  0
   -0.3037    0.7742   -0.9484 N   0  0  0  0  0  0  0  0  0  0  0  0
   -0.4352   -0.6095   -0.5718 C   0  0  2  0  0  0  0  0  0  0  0  0
   -1.5446   -1.2429   -1.4051 C   0  0  0  0  0  0  0  0  0  0  0  0
   -2.3450   -0.5847   -2.0666 O   0  0  0  0  0  0  0  0  0  0  0  0
   -0.6546   -0.7748    0.9366 C   0  0  0  0  0  0  0  0  0  0  0  0
    0.5615   -0.3950    1.7915 C   0  0  0  0  0  0  0  0  0  0  0  0
    0.2786   -0.6081    3.2804 C   0  0  0  0  0  0  0  0  0  0  0  0
    1.4779   -0.2073    4.1266 C   0  0  0  0  0  0  0  0  0  0  0  0
    1.1506   -0.4072    5.5589 N   0  3  0  0  0  0  0  0  0  0  0  0
   -0.6336    1.4811   -0.2948 H   0  0  0  0  0  0  0  0  0  0  0  0
    0.5119   -1.0873   -0.8500 H   0  0  0  0  0  0  0  0  0  0  0  0
   -1.5078   -0.1542    1.2399 H   0  0  0  0  0  0  0  0  0  0  0  0
   -0.9291   -1.8146    1.1535 H   0  0  0  0  0  0  0  0  0  0  0  0
    1.4279   -1.0000    1.4999 H   0  0  0  0  0  0  0  0  0  0  0  0
    0.8262    0.6552    1.6212 H   0  0  0  0  0  0  0  0  0  0  0  0
    0.0324   -1.6620    3.4603 H   0  0  0  0  0  0  0  0  0  0  0  0
   -0.5982   -0.0184    3.5757 H   0  0  0  0  0  0  0  0  0  0  0  0
    2.3555   -0.8245    3.9125 H   0  0  0  0  0  0  0  0  0  0  0  0
    1.7318    0.8497    4.0036 H   0  0  0  0  0  0  0  0  0  0  0  0
    1.7756    0.1418    6.1591 H   0  0  0  0  0  0  0  0  0  0  0  0
    1.2460   -1.3941    5.8230 H   0  0  0  0  0  0  0  0  0  0  0  0
    0.1867   -0.1187    5.7595 H   0  0  0  0  0  0  0  0  0  0  0  0
   -1.5170   -2.6290   -1.3510 N   0  0  0  0  0  0  0  0  0  0  0  0
   -2.4617   -3.4460   -2.0747 C   0  0  2  0  0  0  0  0  0  0  0  0
   -2.3541   -4.8700   -1.5455 C   0  0  0  0  0  0  0  0  0  0  0  0
   -1.3546   -5.2991   -0.9728 O   0  0  0  0  0  0  0  0  0  0  0  0
   -2.1989   -3.4013   -3.5719 C   0  0  0  0  0  0  0  0  0  0  0  0
   -0.8084   -3.0841   -0.7832 H   0  0  0  0  0  0  0  0  0  0  0  0
   -3.4582   -3.0481   -1.8540 H   0  0  0  0  0  0  0  0  0  0  0  0
   -1.2051   -3.7961   -3.8124 H   0  0  0  0  0  0  0  0  0  0  0  0
   -2.9337   -3.9986   -4.1217 H   0  0  0  0  0  0  0  0  0  0  0  0
   -2.2473   -2.3727   -3.9455 H   0  0  0  0  0  0  0  0  0  0  0  0
   -3.4889   -5.6182   -1.8261 N   0  0  0  0  0  0  0  0  0  0  0  0
   -3.6254   -7.0028   -1.4386 C   0  0  0  0  0  0  0  0  0  0  0  0
   -4.2775   -5.1755   -2.2885 H   0  0  0  0  0  0  0  0  0  0  0  0
   -3.2855   -7.6495   -2.2610 H   0  0  0  0  0  0  0  0  0  0  0  0
   -3.0142   -7.1952   -0.5445 H   0  0  0  0  0  0  0  0  0  0  0  0
   -4.6805   -7.2185   -1.2148 H   0  0  0  0  0  0  0  0  0  0  0  0
  1  3  1  0  0  0  0
  1  7  1  0  0  0  0
  1  2  2  0  0  0  0
 40 41  1  0  0  0  0
 41 49  1  0  0  0  0
 41 42  2  0  0  0  0
  8  9  1  0  0  0  0
  9 17  1  0  0  0  0
  9 10  2  0  0  0  0
 18 19  1  0  0  0  0
 19 39  1  0  0  0  0
 19 20  2  0  0  0  0
 40 43  1  0  0  0  0
  8 11  1  0  0  0  0
 49 50  1  0  0  0  0
 22 23  1  0  0  0  0
 21 22  1  0  0  0  0
 23 24  1  0  0  0  0
 18 21  1  0  0  0  0
 24 25  1  0  0  0  0
 39 40  1  0  0  0  0
  7  8  1  0  0  0  0
 17 18  1  0  0  0  0
  3  4  1  0  0  0  0
  3  5  1  0  0  0  0
  3  6  1  0  0  0  0
 43 46  1  0  0  0  0
 43 47  1  0  0  0  0
 43 48  1  0  0  0  0
 11 14  1  0  0  0  0
 11 15  1  0  0  0  0
 11 16  1  0  0  0  0
 50 52  1  0  0  0  0
 50 53  1  0  0  0  0
 50 54  1  0  0  0  0
 22 30  1  0  0  0  0
 22 31  1  0  0  0  0
 23 32  1  0  0  0  0
 23 33  1  0  0  0  0
 21 28  1  0  0  0  0
 21 29  1  0  0  0  0
 24 34  1  0  0  0  0
 24 35  1  0  0  0  0
 40 45  1  0  0  0  0
  8 13  1  0  0  0  0
 18 27  1  0  0  0  0
 49 51  1  0  0  0  0
  7 12  1  0  0  0  0
 39 44  1  0  0  0  0
 17 26  1  0  0  0  0
 25 36  1  0  0  0  0
 25 37  1  0  0  0  0
 25 38  1  0  0  0  0
M  CHG  1  25   1
M  END
$$$$

  -OEChem-05262214473D

 54 53  0     1  0  0  0  0  0999 V2000
    2.6714    2.8829   -3.0005 C   0  0  0  0  0  0  0  0  0  0  0  0
    3.1741    2.4398   -1.9745 O   0  0  0  0  0  0  0  0  0  0  0  0
    3.5527    3.3077   -4.1279 C   0  0  0  0  0  0  0  0  0  0  0  0
    3.8407    4.3691   -4.0597 H   0  0  0  0  0  0  0  0  0  0  0  0
    4.5024    2.7495   -4.1526 H   0  0  0  0  0  0  0  0  0  0  0  0
    3.1208    3.1887   -5.1345 H   0  0  0  0  0  0  0  0  0  0  0  0
    1.3174    3.0407   -3.2467 N   0  0  0  0  0  0  0  0  0  0  0  0
    0.2944    2.6927   -2.2960 C   0  0  2  0  0  0  0  0  0  0  0  0
    0.2976    1.1783   -2.1349 C   0  0  0  0  0  0  0  0  0  0  0  0
    0.7500    0.4142   -2.9850 O   0  0  0  0  0  0  0  0  0  0  0  0
   -1.0710    3.1886   -2.7460 C   0  0  0  0  0  0  0  0  0  0  0  0
    1.0312    3.4224   -4.1464 H   0  0  0  0  0  0  0  0  0  0  0  0
    0.5725    3.1622   -1.3461 H   0  0  0  0  0  0  0  0  0  0  0  0
   -1.3666    2.7292   -3.6963 H   0  0  0  0  0  0  0  0  0  0  0  0
   -1.8434    2.9482   -2.0082 H   0  0  0  0  0  0  0  0  0  0  0  0
   -1.0632    4.2744   -2.8901 H   0  0  0  0  0  0  0  0  0  0  0  0
   -0.3037    0.7742   -0.9484 N   0  0  0  0  0  0  0  0  0  0  0  0
   -0.4352   -0.6095   -0.5718 C   0  0  2  0  0  0  0  0  0  0  0  0
   -1.2582   -1.3322   -1.6332 C   0  0  0  0  0  0  0  0  0  0  0  0
   -1.6875   -0.7761   -2.6422 O   0  0  0  0  0  0  0  0  0  0  0  0
   -1.0129   -0.7671    0.8397 C   0  0  0  0  0  0  0  0  0  0  0  0
   -0.0757   -0.2894    1.9566 C   0  0  0  0  0  0  0  0  0  0  0  0
   -0.7068   -0.4995    3.3350 C   0  0  0  0  0  0  0  0  0  0  0  0
    0.2150   -0.0022    4.4388 C   0  0  0  0  0  0  0  0  0  0  0  0
   -0.4458   -0.2032    5.7508 N   0  3  0  0  0  0  0  0  0  0  0  0
   -0.6336    1.4811   -0.2948 H   0  0  0  0  0  0  0  0  0  0  0  0
    0.5802   -1.0233   -0.5910 H   0  0  0  0  0  0  0  0  0  0  0  0
   -1.9531   -0.2039    0.9018 H   0  0  0  0  0  0  0  0  0  0  0  0
   -1.2649   -1.8203    1.0151 H   0  0  0  0  0  0  0  0  0  0  0  0
    0.8733   -0.8361    1.9085 H   0  0  0  0  0  0  0  0  0  0  0  0
    0.1546    0.7741    1.8236 H   0  0  0  0  0  0  0  0  0  0  0  0
   -0.9214   -1.5654    3.4821 H   0  0  0  0  0  0  0  0  0  0  0  0
   -1.6658    0.0311    3.3846 H   0  0  0  0  0  0  0  0  0  0  0  0
    1.1562   -0.5591    4.4688 H   0  0  0  0  0  0  0  0  0  0  0  0
    0.4226    1.0681    4.3485 H   0  0  0  0  0  0  0  0  0  0  0  0
   -0.0271    0.3976    6.4693 H   0  0  0  0  0  0  0  0  0  0  0  0
   -0.3556   -1.1767    6.0621 H   0  0  0  0  0  0  0  0  0  0  0  0
   -1.4458    0.0195    5.6969 H   0  0  0  0  0  0  0  0  0  0  0  0
   -1.4298   -2.6774   -1.3401 N   0  0  0  0  0  0  0  0  0  0  0  0
   -2.1615   -3.5670   -2.2101 C   0  0  2  0  0  0  0  0  0  0  0  0
   -2.4286   -4.8573   -1.4464 C   0  0  0  0  0  0  0  0  0  0  0  0
   -1.7540   -5.2195   -0.4846 O   0  0  0  0  0  0  0  0  0  0  0  0
   -1.3921   -3.8437   -3.4924 C   0  0  0  0  0  0  0  0  0  0  0  0
   -1.0272   -3.0486   -0.4847 H   0  0  0  0  0  0  0  0  0  0  0  0
   -3.1126   -3.0740   -2.4391 H   0  0  0  0  0  0  0  0  0  0  0  0
   -0.4362   -4.3375   -3.2829 H   0  0  0  0  0  0  0  0  0  0  0  0
   -1.9609   -4.4957   -4.1635 H   0  0  0  0  0  0  0  0  0  0  0  0
   -1.1750   -2.9117   -4.0254 H   0  0  0  0  0  0  0  0  0  0  0  0
   -3.4817   -5.5782   -1.9918 N   0  0  0  0  0  0  0  0  0  0  0  0
   -3.9212   -6.8444   -1.4536 C   0  0  0  0  0  0  0  0  0  0  0  0
   -3.9969   -5.1929   -2.7778 H   0  0  0  0  0  0  0  0  0  0  0  0
   -3.4034   -7.6639   -1.9733 H   0  0  0  0  0  0  0  0  0  0  0  0
   -3.6884   -6.8866   -0.3793 H   0  0  0  0  0  0  0  0  0  0  0  0
   -5.0069   -6.9469   -1.5978 H   0  0  0  0  0  0  0  0  0  0  0  0
  1  3  1  0  0  0  0
  1  7  1  0  0  0  0
  1  2  2  0  0  0  0
 40 41  1  0  0  0  0
 41 49  1  0  0  0  0
 41 42  2  0  0  0  0
  8  9  1  0  0  0  0
  9 17  1  0  0  0  0
  9 10  2  0  0  0  0
 18 19  1  0  0  0  0
 19 39  1  0  0  0  0
 19 20  2  0  0  0  0
 40 43  1  0  0  0  0
  8 11  1  0  0  0  0
 49 50  1  0  0  0  0
 22 23  1  0  0  0  0
 21 22  1  0  0  0  0
 23 24  1  0  0  0  0
 18 21  1  0  0  0  0
 24 25  1  0  0  0  0
 39 40  1  0  0  0  0
  7  8  1  0  0  0  0
 17 18  1  0  0  0  0
  3  4  1  0  0  0  0
  3  5  1  0  0  0  0
  3  6  1  0  0  0  0
 43 46  1  0  0  0  0
 43 47  1  0  0  0  0
 43 48  1  0  0  0  0
 11 14  1  0  0  0  0
 11 15  1  0  0  0  0
 11 16  1  0  0  0  0
 50 52  1  0  0  0  0
 50 53  1  0  0  0  0
 50 54  1  0  0  0  0
 22 30  1  0  0  0  0
 22 31  1  0  0  0  0
 23 32  1  0  0  0  0
 23 33  1  0  0  0  0
 21 28  1  0  0  0  0
 21 29  1  0  0  0  0
 24 34  1  0  0  0  0
 24 35  1  0  0  0  0
 40 45  1  0  0  0  0
  8 13  1  0  0  0  0
 18 27  1  0  0  0  0
 49 51  1  0  0  0  0
  7 12  1  0  0  0  0
 39 44  1  0  0  0  0
 17 26  1  0  0  0  0
 25 36  1  0  0  0  0
 25 37  1  0  0  0  0
 25 38  1  0  0  0  0
M  CHG  1  25   1
M  END
$$$$

  -OEChem-05262214473D

 54 53  0     1  0  0  0  0  0999 V2000
    2.6714    2.8829   -3.0005 C   0  0  0  0  0  0  0  0  0  0  0  0
    3.1741    2.4398   -1.9745 O   0  0  0  0  0  0  0  0  0  0  0  0
    3.5527    3.3077   -4.1279 C   0  0  0  0  0  0  0  0  0  0  0  0
    3.8407    4.3691   -4.0597 H   0  0  0  0  0  0  0  0  0  0  0  0
    4.5024    2.7495   -4.1526 H   0  0  0  0  0  0  0  0  0  0  0  0
    3.1208    3.1887   -5.1345 H   0  0  0  0  0  0  0  0  0  0  0  0
    1.3174    3.0407   -3.2467 N   0  0  0  0  0  0  0  0  0  0  0  0
    0.2944    2.6927   -2.2960 C   0  0  2  0  0  0  0  0  0  0  0  0
    0.2976    1.1783   -2.1349 C   0  0  0  0  0  0  0  0  0  0  0  0
    0.7500    0.4142   -2.9850 O   0  0  0  0  0  0  0  0  0  0  0  0
   -1.0710    3.1886   -2.7460 C   0  0  0  0  0  0  0  0  0  0  0  0
    1.0312    3.4224   -4.1464 H   0  0  0  0  0  0  0  0  0  0  0  0
    0.5725    3.1622   -1.3461 H   0  0  0  0  0  0  0  0  0  0  0  0
   -1.3666    2.7292   -3.6963 H   0  0  0  0  0  0  0  0  0  0  0  0
   -1.8434    2.9482   -2.0082 H   0  0  0  0  0  0  0  0  0  0  0  0
   -1.0632    4.2744   -2.8901 H   0  0  0  0  0  0  0  0  0  0  0  0
   -0.3037    0.7742   -0.9484 N   0  0  0  0  0  0  0  0  0  0  0  0
   -0.4352   -0.6095   -0.5718 C   0  0  2  0  0  0  0  0  0  0  0  0
   -1.2582   -1.3322   -1.6332 C   0  0  0  0  0  0  0  0  0  0  0  0
   -1.4613   -0.8694   -2.7540 O   0  0  0  0  0  0  0  0  0  0  0  0
   -1.0129   -0.7671    0.8397 C   0  0  0  0  0  0  0  0  0  0  0  0
   -0.0757   -0.2894    1.9566 C   0  0  0  0  0  0  0  0  0  0  0  0
   -0.7068   -0.4995    3.3350 C   0  0  0  0  0  0  0  0  0  0  0  0
    0.2150   -0.0022    4.4388 C   0  0  0  0  0  0  0  0  0  0  0  0
   -0.4458   -0.2032    5.7508 N   0  3  0  0  0  0  0  0  0  0  0  0
   -0.6336    1.4811   -0.2948 H   0  0  0  0  0  0  0  0  0  0  0  0
    0.5802   -1.0233   -0.5910 H   0  0  0  0  0  0  0  0  0  0  0  0
   -1.9531   -0.2039    0.9018 H   0  0  0  0  0  0  0  0  0  0  0  0
   -1.2649   -1.8203    1.0151 H   0  0  0  0  0  0  0  0  0  0  0  0
    0.8733   -0.8361    1.9085 H   0  0  0  0  0  0  0  0  0  0  0  0
    0.1546    0.7741    1.8236 H   0  0  0  0  0  0  0  0  0  0  0  0
   -0.9214   -1.5654    3.4821 H   0  0  0  0  0  0  0  0  0  0  0  0
   -1.6658    0.0311    3.3846 H   0  0  0  0  0  0  0  0  0  0  0  0
    1.1562   -0.5591    4.4688 H   0  0  0  0  0  0  0  0  0  0  0  0
    0.4226    1.0681    4.3485 H   0  0  0  0  0  0  0  0  0  0  0  0
   -0.0271    0.3976    6.4693 H   0  0  0  0  0  0  0  0  0  0  0  0
   -0.3556   -1.1767    6.0621 H   0  0  0  0  0  0  0  0  0  0  0  0
   -1.4458    0.0195    5.6969 H   0  0  0  0  0  0  0  0  0  0  0  0
   -1.7119   -2.5682   -1.1957 N   0  0  0  0  0  0  0  0  0  0  0  0
   -2.4983   -3.4402   -2.0353 C   0  0  2  0  0  0  0  0  0  0  0  0
   -3.0865   -4.5354   -1.1554 C   0  0  0  0  0  0  0  0  0  0  0  0
   -2.6022   -4.8585   -0.0728 O   0  0  0  0  0  0  0  0  0  0  0  0
   -1.6589   -4.0349   -3.1553 C   0  0  0  0  0  0  0  0  0  0  0  0
   -1.4830   -2.8696   -0.2532 H   0  0  0  0  0  0  0  0  0  0  0  0
   -3.3081   -2.8318   -2.4524 H   0  0  0  0  0  0  0  0  0  0  0  0
   -0.8423   -4.6479   -2.7566 H   0  0  0  0  0  0  0  0  0  0  0  0
   -2.2633   -4.6735   -3.8079 H   0  0  0  0  0  0  0  0  0  0  0  0
   -1.2125   -3.2452   -3.7692 H   0  0  0  0  0  0  0  0  0  0  0  0
   -4.1904   -5.1390   -1.7413 N   0  0  0  0  0  0  0  0  0  0  0  0
   -4.9175   -6.2151   -1.1095 C   0  0  0  0  0  0  0  0  0  0  0  0
   -4.5340   -4.7941   -2.6328 H   0  0  0  0  0  0  0  0  0  0  0  0
   -4.5098   -7.1802   -1.4448 H   0  0  0  0  0  0  0  0  0  0  0  0
   -4.8163   -6.1341   -0.0172 H   0  0  0  0  0  0  0  0  0  0  0  0
   -5.9804   -6.1507   -1.3851 H   0  0  0  0  0  0  0  0  0  0  0  0
  1  3  1  0  0  0  0
  1  7  1  0  0  0  0
  1  2  2  0  0  0  0
 40 41  1  0  0  0  0
 41 49  1  0  0  0  0
 41 42  2  0  0  0  0
  8  9  1  0  0  0  0
  9 17  1  0  0  0  0
  9 10  2  0  0  0  0
 18 19  1  0  0  0  0
 19 39  1  0  0  0  0
 19 20  2  0  0  0  0
 40 43  1  0  0  0  0
  8 11  1  0  0  0  0
 49 50  1  0  0  0  0
 22 23  1  0  0  0  0
 21 22  1  0  0  0  0
 23 24  1  0  0  0  0
 18 21  1  0  0  0  0
 24 25  1  0  0  0  0
 39 40  1  0  0  0  0
  7  8  1  0  0  0  0
 17 18  1  0  0  0  0
  3  4  1  0  0  0  0
  3  5  1  0  0  0  0
  3  6  1  0  0  0  0
 43 46  1  0  0  0  0
 43 47  1  0  0  0  0
 43 48  1  0  0  0  0
 11 14  1  0  0  0  0
 11 15  1  0  0  0  0
 11 16  1  0  0  0  0
 50 52  1  0  0  0  0
 50 53  1  0  0  0  0
 50 54  1  0  0  0  0
 22 30  1  0  0  0  0
 22 31  1  0  0  0  0
 23 32  1  0  0  0  0
 23 33  1  0  0  0  0
 21 28  1  0  0  0  0
 21 29  1  0  0  0  0
 24 34  1  0  0  0  0
 24 35  1  0  0  0  0
 40 45  1  0  0  0  0
  8 13  1  0  0  0  0
 18 27  1  0  0  0  0
 49 51  1  0  0  0  0
  7 12  1  0  0  0  0
 39 44  1  0  0  0  0
 17 26  1  0  0  0  0
 25 36  1  0  0  0  0
 25 37  1  0  0  0  0
 25 38  1  0  0  0  0
M  CHG  1  25   1
M  END
$$$$

  -OEChem-05262214473D

 54 53  0     1  0  0  0  0  0999 V2000
    2.6714    2.8829   -3.0005 C   0  0  0  0  0  0  0  0  0  0  0  0
    3.1741    2.4398   -1.9745 O   0  0  0  0  0  0  0  0  0  0  0  0
    3.5527    3.3077   -4.1279 C   0  0  0  0  0  0  0  0  0  0  0  0
    3.8407    4.3691   -4.0597 H   0  0  0  0  0  0  0  0  0  0  0  0
    4.5024    2.7495   -4.1526 H   0  0  0  0  0  0  0  0  0  0  0  0
    3.1208    3.1887   -5.1345 H   0  0  0  0  0  0  0  0  0  0  0  0
    1.3174    3.0407   -3.2467 N   0  0  0  0  0  0  0  0  0  0  0  0
    0.2944    2.6927   -2.2960 C   0  0  2  0  0  0  0  0  0  0  0  0
    0.2976    1.1783   -2.1349 C   0  0  0  0  0  0  0  0  0  0  0  0
    0.7500    0.4142   -2.9850 O   0  0  0  0  0  0  0  0  0  0  0  0
   -1.0710    3.1886   -2.7460 C   0  0  0  0  0  0  0  0  0  0  0  0
    1.0312    3.4224   -4.1464 H   0  0  0  0  0  0  0  0  0  0  0  0
    0.5725    3.1622   -1.3461 H   0  0  0  0  0  0  0  0  0  0  0  0
   -1.3666    2.7292   -3.6963 H   0  0  0  0  0  0  0  0  0  0  0  0
   -1.8434    2.9482   -2.0082 H   0  0  0  0  0  0  0  0  0  0  0  0
   -1.0632    4.2744   -2.8901 H   0  0  0  0  0  0  0  0  0  0  0  0
   -0.3037    0.7742   -0.9484 N   0  0  0  0  0  0  0  0  0  0  0  0
   -0.4352   -0.6095   -0.5718 C   0  0  2  0  0  0  0  0  0  0  0  0
   -1.2582   -1.3322   -1.6332 C   0  0  0  0  0  0  0  0  0  0  0  0
   -1.2459   -1.0160   -2.8212 O   0  0  0  0  0  0  0  0  0  0  0  0
   -1.0129   -0.7671    0.8397 C   0  0  0  0  0  0  0  0  0  0  0  0
   -0.0757   -0.2894    1.9566 C   0  0  0  0  0  0  0  0  0  0  0  0
   -0.7068   -0.4995    3.3350 C   0  0  0  0  0  0  0  0  0  0  0  0
    0.2150   -0.0022    4.4388 C   0  0  0  0  0  0  0  0  0  0  0  0
   -0.4458   -0.2032    5.7508 N   0  3  0  0  0  0  0  0  0  0  0  0
   -0.6336    1.4811   -0.2948 H   0  0  0  0  0  0  0  0  0  0  0  0
    0.5802   -1.0233   -0.5910 H   0  0  0  0  0  0  0  0  0  0  0  0
   -1.9531   -0.2039    0.9018 H   0  0  0  0  0  0  0  0  0  0  0  0
   -1.2649   -1.8203    1.0151 H   0  0  0  0  0  0  0  0  0  0  0  0
    0.8733   -0.8361    1.9085 H   0  0  0  0  0  0  0  0  0  0  0  0
    0.1546    0.7741    1.8236 H   0  0  0  0  0  0  0  0  0  0  0  0
   -0.9214   -1.5654    3.4821 H   0  0  0  0  0  0  0  0  0  0  0  0
   -1.6658    0.0311    3.3846 H   0  0  0  0  0  0  0  0  0  0  0  0
    1.1562   -0.5591    4.4688 H   0  0  0  0  0  0  0  0  0  0  0  0
    0.4226    1.0681    4.3485 H   0  0  0  0  0  0  0  0  0  0  0  0
   -0.0271    0.3976    6.4693 H   0  0  0  0  0  0  0  0  0  0  0  0
   -0.3556   -1.1767    6.0621 H   0  0  0  0  0  0  0  0  0  0  0  0
   -1.4458    0.0195    5.6969 H   0  0  0  0  0  0  0  0  0  0  0  0
   -1.9824   -2.3918   -1.1061 N   0  0  0  0  0  0  0  0  0  0  0  0
   -2.8223   -3.2326   -1.9255 C   0  0  2  0  0  0  0  0  0  0  0  0
   -3.6997   -4.0653   -1.0001 C   0  0  0  0  0  0  0  0  0  0  0  0
   -3.4070   -4.2994    0.1706 O   0  0  0  0  0  0  0  0  0  0  0  0
   -1.9924   -4.1245   -2.8357 C   0  0  0  0  0  0  0  0  0  0  0  0
   -1.9195   -2.5822   -0.1105 H   0  0  0  0  0  0  0  0  0  0  0  0
   -3.4518   -2.5644   -2.5231 H   0  0  0  0  0  0  0  0  0  0  0  0
   -1.3551   -4.8011   -2.2548 H   0  0  0  0  0  0  0  0  0  0  0  0
   -2.6311   -4.7411   -3.4768 H   0  0  0  0  0  0  0  0  0  0  0  0
   -1.3402   -3.5248   -3.4798 H   0  0  0  0  0  0  0  0  0  0  0  0
   -4.8265   -4.5521   -1.6477 N   0  0  0  0  0  0  0  0  0  0  0  0
   -5.8087   -5.3799   -0.9872 C   0  0  0  0  0  0  0  0  0  0  0  0
   -4.9988   -4.2920   -2.6143 H   0  0  0  0  0  0  0  0  0  0  0  0
   -5.5562   -6.4399   -1.1374 H   0  0  0  0  0  0  0  0  0  0  0  0
   -5.8146   -5.1535    0.0892 H   0  0  0  0  0  0  0  0  0  0  0  0
   -6.8035   -5.1765   -1.4102 H   0  0  0  0  0  0  0  0  0  0  0  0
  1  3  1  0  0  0  0
  1  7  1  0  0  0  0
  1  2  2  0  0  0  0
 40 41  1  0  0  0  0
 41 49  1  0  0  0  0
 41 42  2  0  0  0  0
  8  9  1  0  0  0  0
  9 17  1  0  0  0  0
  9 10  2  0  0  0  0
 18 19  1  0  0  0  0
 19 39  1  0  0  0  0
 19 20  2  0  0  0  0
 40 43  1  0  0  0  0
  8 11  1  0  0  0  0
 49 50  1  0  0  0  0
 22 23  1  0  0  0  0
 21 22  1  0  0  0  0
 23 24  1  0  0  0  0
 18 21  1  0  0  0  0
 24 25  1  0  0  0  0
 39 40  1  0  0  0  0
  7  8  1  0  0  0  0
 17 18  1  0  0  0  0
  3  4  1  0  0  0  0
  3  5  1  0  0  0  0
  3  6  1  0  0  0  0
 43 46  1  0  0  0  0
 43 47  1  0  0  0  0
 43 48  1  0  0  0  0
 11 14  1  0  0  0  0
 11 15  1  0  0  0  0
 11 16  1  0  0  0  0
 50 52  1  0  0  0  0
 50 53  1  0  0  0  0
 50 54  1  0  0  0  0
 22 30  1  0  0  0  0
 22 31  1  0  0  0  0
 23 32  1  0  0  0  0
 23 33  1  0  0  0  0
 21 28  1  0  0  0  0
 21 29  1  0  0  0  0
 24 34  1  0  0  0  0
 24 35  1  0  0  0  0
 40 45  1  0  0  0  0
  8 13  1  0  0  0  0
 18 27  1  0  0  0  0
 49 51  1  0  0  0  0
  7 12  1  0  0  0  0
 39 44  1  0  0  0  0
 17 26  1  0  0  0  0
 25 36  1  0  0  0  0
 25 37  1  0  0  0  0
 25 38  1  0  0  0  0
M  CHG  1  25   1
M  END
$$$$

  -OEChem-05262214473D

 54 53  0     1  0  0  0  0  0999 V2000
    2.6714    2.8829   -3.0005 C   0  0  0  0  0  0  0  0  0  0  0  0
    3.1741    2.4398   -1.9745 O   0  0  0  0  0  0  0  0  0  0  0  0
    3.5527    3.3077   -4.1279 C   0  0  0  0  0  0  0  0  0  0  0  0
    3.8407    4.3691   -4.0597 H   0  0  0  0  0  0  0  0  0  0  0  0
    4.5024    2.7495   -4.1526 H   0  0  0  0  0  0  0  0  0  0  0  0
    3.1208    3.1887   -5.1345 H   0  0  0  0  0  0  0  0  0  0  0  0
    1.3174    3.0407   -3.2467 N   0  0  0  0  0  0  0  0  0  0  0  0
    0.2944    2.6927   -2.2960 C   0  0  2  0  0  0  0  0  0  0  0  0
    0.2976    1.1783   -2.1349 C   0  0  0  0  0  0  0  0  0  0  0  0
    0.7500    0.4142   -2.9850 O   0  0  0  0  0  0  0  0  0  0  0  0
   -1.0710    3.1886   -2.7460 C   0  0  0  0  0  0  0  0  0  0  0  0
    1.0312    3.4224   -4.1464 H   0  0  0  0  0  0  0  0  0  0  0  0
    0.5725    3.1622   -1.3461 H   0  0  0  0  0  0  0  0  0  0  0  0
   -1.3666    2.7292   -3.6963 H   0  0  0  0  0  0  0  0  0  0  0  0
   -1.8434    2.9482   -2.0082 H   0  0  0  0  0  0  0  0  0  0  0  0
   -1.0632    4.2744   -2.8901 H   0  0  0  0  0  0  0  0  0  0  0  0
   -0.3037    0.7742   -0.9484 N   0  0  0  0  0  0  0  0  0  0  0  0
   -0.4352   -0.6095   -0.5718 C   0  0  2  0  0  0  0  0  0  0  0  0
   -1.2582   -1.3322   -1.6332 C   0  0  0  0  0  0  0  0  0  0  0  0
   -1.0560   -1.2057   -2.8393 O   0  0  0  0  0  0  0  0  0  0  0  0
   -1.0129   -0.7671    0.8397 C   0  0  0  0  0  0  0  0  0  0  0  0
   -0.0757   -0.2894    1.9566 C   0  0  0  0  0  0  0  0  0  0  0  0
   -0.7068   -0.4995    3.3350 C   0  0  0  0  0  0  0  0  0  0  0  0
    0.2150   -0.0022    4.4388 C   0  0  0  0  0  0  0  0  0  0  0  0
   -0.4458   -0.2032    5.7508 N   0  3  0  0  0  0  0  0  0  0  0  0
   -0.6336    1.4811   -0.2948 H   0  0  0  0  0  0  0  0  0  0  0  0
    0.5802   -1.0233   -0.5910 H   0  0  0  0  0  0  0  0  0  0  0  0
   -1.9531   -0.2039    0.9018 H   0  0  0  0  0  0  0  0  0  0  0  0
   -1.2649   -1.8203    1.0151 H   0  0  0  0  0  0  0  0  0  0  0  0
    0.8733   -0.8361    1.9085 H   0  0  0  0  0  0  0  0  0  0  0  0
    0.1546    0.7741    1.8236 H   0  0  0  0  0  0  0  0  0  0  0  0
   -0.9214   -1.5654    3.4821 H   0  0  0  0  0  0  0  0  0  0  0  0
   -1.6658    0.0311    3.3846 H   0  0  0  0  0  0  0  0  0  0  0  0
    1.1562   -0.5591    4.4688 H   0  0  0  0  0  0  0  0  0  0  0  0
    0.4226    1.0681    4.3485 H   0  0  0  0  0  0  0  0  0  0  0  0
   -0.0271    0.3976    6.4693 H   0  0  0  0  0  0  0  0  0  0  0  0
   -0.3556   -1.1767    6.0621 H   0  0  0  0  0  0  0  0  0  0  0  0
   -1.4458    0.0195    5.6969 H   0  0  0  0  0  0  0  0  0  0  0  0
   -2.2229   -2.1601   -1.0774 N   0  0  0  0  0  0  0  0  0  0  0  0
   -3.1112   -2.9584   -1.8881 C   0  0  2  0  0  0  0  0  0  0  0  0
   -4.2263   -3.4791   -0.9909 C   0  0  0  0  0  0  0  0  0  0  0  0
   -4.1136   -3.5805    0.2290 O   0  0  0  0  0  0  0  0  0  0  0  0
   -2.3698   -4.1063   -2.5554 C   0  0  0  0  0  0  0  0  0  0  0  0
   -2.3068   -2.2060   -0.0663 H   0  0  0  0  0  0  0  0  0  0  0  0
   -3.5337   -2.2901   -2.6463 H   0  0  0  0  0  0  0  0  0  0  0  0
   -1.9395   -4.7866   -1.8115 H   0  0  0  0  0  0  0  0  0  0  0  0
   -3.0391   -4.6939   -3.1925 H   0  0  0  0  0  0  0  0  0  0  0  0
   -1.5494   -3.7315   -3.1769 H   0  0  0  0  0  0  0  0  0  0  0  0
   -5.3467   -3.8576   -1.7172 N   0  0  0  0  0  0  0  0  0  0  0  0
   -6.5340   -4.3955   -1.0951 C   0  0  0  0  0  0  0  0  0  0  0  0
   -5.3596   -3.7207   -2.7236 H   0  0  0  0  0  0  0  0  0  0  0  0
   -6.4714   -5.4935   -1.0723 H   0  0  0  0  0  0  0  0  0  0  0  0
   -6.6153   -4.0116   -0.0674 H   0  0  0  0  0  0  0  0  0  0  0  0
   -7.4200   -4.0908   -1.6715 H   0  0  0  0  0  0  0  0  0  0  0  0
  1  3  1  0  0  0  0
  1  7  1  0  0  0  0
  1  2  2  0  0  0  0
 40 41  1  0  0  0  0
 41 49  1  0  0  0  0
 41 42  2  0  0  0  0
  8  9  1  0  0  0  0
  9 17  1  0  0  0  0
  9 10  2  0  0  0  0
 18 19  1  0  0  0  0
 19 39  1  0  0  0  0
 19 20  2  0  0  0  0
 40 43  1  0  0  0  0
  8 11  1  0  0  0  0
 49 50  1  0  0  0  0
 22 23  1  0  0  0  0
 21 22  1  0  0  0  0
 23 24  1  0  0  0  0
 18 21  1  0  0  0  0
 24 25  1  0  0  0  0
 39 40  1  0  0  0  0
  7  8  1  0  0  0  0
 17 18  1  0  0  0  0
  3  4  1  0  0  0  0
  3  5  1  0  0  0  0
  3  6  1  0  0  0  0
 43 46  1  0  0  0  0
 43 47  1  0  0  0  0
 43 48  1  0  0  0  0
 11 14  1  0  0  0  0
 11 15  1  0  0  0  0
 11 16  1  0  0  0  0
 50 52  1  0  0  0  0
 50 53  1  0  0  0  0
 50 54  1  0  0  0  0
 22 30  1  0  0  0  0
 22 31  1  0  0  0  0
 23 32  1  0  0  0  0
 23 33  1  0  0  0  0
 21 28  1  0  0  0  0
 21 29  1  0  0  0  0
 24 34  1  0  0  0  0
 24 35  1  0  0  0  0
 40 45  1  0  0  0  0
  8 13  1  0  0  0  0
 18 27  1  0  0  0  0
 49 51  1  0  0  0  0
  7 12  1  0  0  0  0
 39 44  1  0  0  0  0
 17 26  1  0  0  0  0
 25 36  1  0  0  0  0
 25 37  1  0  0  0  0
 25 38  1  0  0  0  0
M  CHG  1  25   1
M  END
$$$$

  -OEChem-05262214473D

 54 53  0     1  0  0  0  0  0999 V2000
    2.6714    2.8829   -3.0005 C   0  0  0  0  0  0  0  0  0  0  0  0
    3.1741    2.4398   -1.9745 O   0  0  0  0  0  0  0  0  0  0  0  0
    3.5527    3.3077   -4.1279 C   0  0  0  0  0  0  0  0  0  0  0  0
    3.8407    4.3691   -4.0597 H   0  0  0  0  0  0  0  0  0  0  0  0
    4.5024    2.7495   -4.1526 H   0  0  0  0  0  0  0  0  0  0  0  0
    3.1208    3.1887   -5.1345 H   0  0  0  0  0  0  0  0  0  0  0  0
    1.3174    3.0407   -3.2467 N   0  0  0  0  0  0  0  0  0  0  0  0
    0.2944    2.6927   -2.2960 C   0  0  2  0  0  0  0  0  0  0  0  0
    0.2976    1.1783   -2.1349 C   0  0  0  0  0  0  0  0  0  0  0  0
    0.7500    0.4142   -2.9850 O   0  0  0  0  0  0  0  0  0  0  0  0
   -1.0710    3.1886   -2.7460 C   0  0  0  0  0  0  0  0  0  0  0  0
    1.0312    3.4224   -4.1464 H   0  0  0  0  0  0  0  0  0  0  0  0
    0.5725    3.1622   -1.3461 H   0  0  0  0  0  0  0  0  0  0  0  0
   -1.3666    2.7292   -3.6963 H   0  0  0  0  0  0  0  0  0  0  0  0
   -1.8434    2.9482   -2.0082 H   0  0  0  0  0  0  0  0  0  0  0  0
   -1.0632    4.2744   -2.8901 H   0  0  0  0  0  0  0  0  0  0  0  0
   -0.3037    0.7742   -0.9484 N   0  0  0  0  0  0  0  0  0  0  0  0
   -0.4352   -0.6095   -0.5718 C   0  0  2  0  0  0  0  0  0  0  0  0
   -1.2582   -1.3322   -1.6332 C   0  0  0  0  0  0  0  0  0  0  0  0
   -0.9045   -1.4257   -2.8070 O   0  0  0  0  0  0  0  0  0  0  0  0
   -1.0129   -0.7671    0.8397 C   0  0  0  0  0  0  0  0  0  0  0  0
   -0.0757   -0.2894    1.9566 C   0  0  0  0  0  0  0  0  0  0  0  0
   -0.7068   -0.4995    3.3350 C   0  0  0  0  0  0  0  0  0  0  0  0
    0.2150   -0.0022    4.4388 C   0  0  0  0  0  0  0  0  0  0  0  0
   -0.4458   -0.2032    5.7508 N   0  3  0  0  0  0  0  0  0  0  0  0
   -0.6336    1.4811   -0.2948 H   0  0  0  0  0  0  0  0  0  0  0  0
    0.5802   -1.0233   -0.5910 H   0  0  0  0  0  0  0  0  0  0  0  0
   -1.9531   -0.2039    0.9018 H   0  0  0  0  0  0  0  0  0  0  0  0
   -1.2649   -1.8203    1.0151 H   0  0  0  0  0  0  0  0  0  0  0  0
    0.8733   -0.8361    1.9085 H   0  0  0  0  0  0  0  0  0  0  0  0
    0.1546    0.7741    1.8236 H   0  0  0  0  0  0  0  0  0  0  0  0
   -0.9214   -1.5654    3.4821 H   0  0  0  0  0  0  0  0  0  0  0  0
   -1.6658    0.0311    3.3846 H   0  0  0  0  0  0  0  0  0  0  0  0
    1.1562   -0.5591    4.4688 H   0  0  0  0  0  0  0  0  0  0  0  0
    0.4226    1.0681    4.3485 H   0  0  0  0  0  0  0  0  0  0  0  0
   -0.0271    0.3976    6.4693 H   0  0  0  0  0  0  0  0  0  0  0  0
   -0.3556   -1.1767    6.0621 H   0  0  0  0  0  0  0  0  0  0  0  0
   -1.4458    0.0195    5.6969 H   0  0  0  0  0  0  0  0  0  0  0  0
   -2.4170   -1.8890   -1.1115 N   0  0  0  0  0  0  0  0  0  0  0  0
   -3.3456   -2.6363   -1.9258 C   0  0  2  0  0  0  0  0  0  0  0  0
   -4.6306   -2.8167   -1.1285 C   0  0  0  0  0  0  0  0  0  0  0  0
   -4.6737   -2.7507    0.0982 O   0  0  0  0  0  0  0  0  0  0  0  0
   -2.7655   -3.9816   -2.3335 C   0  0  0  0  0  0  0  0  0  0  0  0
   -2.6186   -1.7668   -0.1236 H   0  0  0  0  0  0  0  0  0  0  0  0
   -3.5484   -2.0277   -2.8137 H   0  0  0  0  0  0  0  0  0  0  0  0
   -2.5557   -4.6055   -1.4570 H   0  0  0  0  0  0  0  0  0  0  0  0
   -3.4596   -4.5351   -2.9746 H   0  0  0  0  0  0  0  0  0  0  0  0
   -1.8258   -3.8511   -2.8811 H   0  0  0  0  0  0  0  0  0  0  0  0
   -5.7156   -3.1028   -1.9451 N   0  0  0  0  0  0  0  0  0  0  0  0
   -7.0442   -3.3291   -1.4257 C   0  0  0  0  0  0  0  0  0  0  0  0
   -5.5917   -3.1192   -2.9532 H   0  0  0  0  0  0  0  0  0  0  0  0
   -7.1928   -4.4054   -1.2538 H   0  0  0  0  0  0  0  0  0  0  0  0
   -7.1639   -2.7864   -0.4764 H   0  0  0  0  0  0  0  0  0  0  0  0
   -7.7878   -2.9675   -2.1511 H   0  0  0  0  0  0  0  0  0  0  0  0
  1  3  1  0  0  0  0
  1  7  1  0  0  0  0
  1  2  2  0  0  0  0
 40 41  1  0  0  0  0
 41 49  1  0  0  0  0
 41 42  2  0  0  0  0
  8  9  1  0  0  0  0
  9 17  1  0  0  0  0
  9 10  2  0  0  0  0
 18 19  1  0  0  0  0
 19 39  1  0  0  0  0
 19 20  2  0  0  0  0
 40 43  1  0  0  0  0
  8 11  1  0  0  0  0
 49 50  1  0  0  0  0
 22 23  1  0  0  0  0
 21 22  1  0  0  0  0
 23 24  1  0  0  0  0
 18 21  1  0  0  0  0
 24 25  1  0  0  0  0
 39 40  1  0  0  0  0
  7  8  1  0  0  0  0
 17 18  1  0  0  0  0
  3  4  1  0  0  0  0
  3  5  1  0  0  0  0
  3  6  1  0  0  0  0
 43 46  1  0  0  0  0
 43 47  1  0  0  0  0
 43 48  1  0  0  0  0
 11 14  1  0  0  0  0
 11 15  1  0  0  0  0
 11 16  1  0  0  0  0
 50 52  1  0  0  0  0
 50 53  1  0  0  0  0
 50 54  1  0  0  0  0
 22 30  1  0  0  0  0
 22 31  1  0  0  0  0
 23 32  1  0  0  0  0
 23 33  1  0  0  0  0
 21 28  1  0  0  0  0
 21 29  1  0  0  0  0
 24 34  1  0  0  0  0
 24 35  1  0  0  0  0
 40 45  1  0  0  0  0
  8 13  1  0  0  0  0
 18 27  1  0  0  0  0
 49 51  1  0  0  0  0
  7 12  1  0  0  0  0
 39 44  1  0  0  0  0
 17 26  1  0  0  0  0
 25 36  1  0  0  0  0
 25 37  1  0  0  0  0
 25 38  1  0  0  0  0
M  CHG  1  25   1
M  END
$$$$

  -OEChem-05262214473D

 54 53  0     1  0  0  0  0  0999 V2000
    2.6714    2.8829   -3.0005 C   0  0  0  0  0  0  0  0  0  0  0  0
    3.1741    2.4398   -1.9745 O   0  0  0  0  0  0  0  0  0  0  0  0
    3.5527    3.3077   -4.1279 C   0  0  0  0  0  0  0  0  0  0  0  0
    3.8407    4.3691   -4.0597 H   0  0  0  0  0  0  0  0  0  0  0  0
    4.5024    2.7495   -4.1526 H   0  0  0  0  0  0  0  0  0  0  0  0
    3.1208    3.1887   -5.1345 H   0  0  0  0  0  0  0  0  0  0  0  0
    1.3174    3.0407   -3.2467 N   0  0  0  0  0  0  0  0  0  0  0  0
    0.2944    2.6927   -2.2960 C   0  0  2  0  0  0  0  0  0  0  0  0
    0.2976    1.1783   -2.1349 C   0  0  0  0  0  0  0  0  0  0  0  0
    0.7500    0.4142   -2.9850 O   0  0  0  0  0  0  0  0  0  0  0  0
   -1.0710    3.1886   -2.7460 C   0  0  0  0  0  0  0  0  0  0  0  0
    1.0312    3.4224   -4.1464 H   0  0  0  0  0  0  0  0  0  0  0  0
    0.5725    3.1622   -1.3461 H   0  0  0  0  0  0  0  0  0  0  0  0
   -1.3666    2.7292   -3.6963 H   0  0  0  0  0  0  0  0  0  0  0  0
   -1.8434    2.9482   -2.0082 H   0  0  0  0  0  0  0  0  0  0  0  0
   -1.0632    4.2744   -2.8901 H   0  0  0  0  0  0  0  0  0  0  0  0
   -0.3037    0.7742   -0.9484 N   0  0  0  0  0  0  0  0  0  0  0  0
   -0.4352   -0.6095   -0.5718 C   0  0  2  0  0  0  0  0  0  0  0  0
   -1.2582   -1.3322   -1.6332 C   0  0  0  0  0  0  0  0  0  0  0  0
   -0.8018   -1.6610   -2.7264 O   0  0  0  0  0  0  0  0  0  0  0  0
   -1.0129   -0.7671    0.8397 C   0  0  0  0  0  0  0  0  0  0  0  0
   -0.0757   -0.2894    1.9566 C   0  0  0  0  0  0  0  0  0  0  0  0
   -0.7068   -0.4995    3.3350 C   0  0  0  0  0  0  0  0  0  0  0  0
    0.2150   -0.0022    4.4388 C   0  0  0  0  0  0  0  0  0  0  0  0
   -0.4458   -0.2032    5.7508 N   0  3  0  0  0  0  0  0  0  0  0  0
   -0.6336    1.4811   -0.2948 H   0  0  0  0  0  0  0  0  0  0  0  0
    0.5802   -1.0233   -0.5910 H   0  0  0  0  0  0  0  0  0  0  0  0
   -1.9531   -0.2039    0.9018 H   0  0  0  0  0  0  0  0  0  0  0  0
   -1.2649   -1.8203    1.0151 H   0  0  0  0  0  0  0  0  0  0  0  0
    0.8733   -0.8361    1.9085 H   0  0  0  0  0  0  0  0  0  0  0  0
    0.1546    0.7741    1.8236 H   0  0  0  0  0  0  0  0  0  0  0  0
   -0.9214   -1.5654    3.4821 H   0  0  0  0  0  0  0  0  0  0  0  0
   -1.6658    0.0311    3.3846 H   0  0  0  0  0  0  0  0  0  0  0  0
    1.1562   -0.5591    4.4688 H   0  0  0  0  0  0  0  0  0  0  0  0
    0.4226    1.0681    4.3485 H   0  0  0  0  0  0  0  0  0  0  0  0
   -0.0271    0.3976    6.4693 H   0  0  0  0  0  0  0  0  0  0  0  0
   -0.3556   -1.1767    6.0621 H   0  0  0  0  0  0  0  0  0  0  0  0
   -1.4458    0.0195    5.6969 H   0  0  0  0  0  0  0  0  0  0  0  0
   -2.5514   -1.5970   -1.2061 N   0  0  0  0  0  0  0  0  0  0  0  0
   -3.5093   -2.2882   -2.0358 C   0  0  2  0  0  0  0  0  0  0  0  0
   -4.8849   -2.1233   -1.4035 C   0  0  0  0  0  0  0  0  0  0  0  0
   -5.0493   -1.8665   -0.2126 O   0  0  0  0  0  0  0  0  0  0  0  0
   -3.1524   -3.7590   -2.1851 C   0  0  0  0  0  0  0  0  0  0  0  0
   -2.8337   -1.2943   -0.2786 H   0  0  0  0  0  0  0  0  0  0  0  0
   -3.4947   -1.7949   -3.0138 H   0  0  0  0  0  0  0  0  0  0  0  0
   -3.1618   -4.2700   -1.2155 H   0  0  0  0  0  0  0  0  0  0  0  0
   -3.8638   -4.2756   -2.8379 H   0  0  0  0  0  0  0  0  0  0  0  0
   -2.1507   -3.8755   -2.6125 H   0  0  0  0  0  0  0  0  0  0  0  0
   -5.9081   -2.3391   -2.3160 N   0  0  0  0  0  0  0  0  0  0  0  0
   -7.3043   -2.2533   -1.9565 C   0  0  0  0  0  0  0  0  0  0  0  0
   -5.6795   -2.5283   -3.2874 H   0  0  0  0  0  0  0  0  0  0  0  0
   -7.6715   -3.2497   -1.6696 H   0  0  0  0  0  0  0  0  0  0  0  0
   -7.4229   -1.5611   -1.1099 H   0  0  0  0  0  0  0  0  0  0  0  0
   -7.8820   -1.8833   -2.8163 H   0  0  0  0  0  0  0  0  0  0  0  0
  1  3  1  0  0  0  0
  1  7  1  0  0  0  0
  1  2  2  0  0  0  0
 40 41  1  0  0  0  0
 41 49  1  0  0  0  0
 41 42  2  0  0  0  0
  8  9  1  0  0  0  0
  9 17  1  0  0  0  0
  9 10  2  0  0  0  0
 18 19  1  0  0  0  0
 19 39  1  0  0  0  0
 19 20  2  0  0  0  0
 40 43  1  0  0  0  0
  8 11  1  0  0  0  0
 49 50  1  0  0  0  0
 22 23  1  0  0  0  0
 21 22  1  0  0  0  0
 23 24  1  0  0  0  0
 18 21  1  0  0  0  0
 24 25  1  0  0  0  0
 39 40  1  0  0  0  0
  7  8  1  0  0  0  0
 17 18  1  0  0  0  0
  3  4  1  0  0  0  0
  3  5  1  0  0  0  0
  3  6  1  0  0  0  0
 43 46  1  0  0  0  0
 43 47  1  0  0  0  0
 43 48  1  0  0  0  0
 11 14  1  0  0  0  0
 11 15  1  0  0  0  0
 11 16  1  0  0  0  0
 50 52  1  0  0  0  0
 50 53  1  0  0  0  0
 50 54  1  0  0  0  0
 22 30  1  0  0  0  0
 22 31  1  0  0  0  0
 23 32  1  0  0  0  0
 23 33  1  0  0  0  0
 21 28  1  0  0  0  0
 21 29  1  0  0  0  0
 24 34  1  0  0  0  0
 24 35  1  0  0  0  0
 40 45  1  0  0  0  0
  8 13  1  0  0  0  0
 18 27  1  0  0  0  0
 49 51  1  0  0  0  0
  7 12  1  0  0  0  0
 39 44  1  0  0  0  0
 17 26  1  0  0  0  0
 25 36  1  0  0  0  0
 25 37  1  0  0  0  0
 25 38  1  0  0  0  0
M  CHG  1  25   1
M  END
$$$$

  -OEChem-05262214473D

 54 53  0     1  0  0  0  0  0999 V2000
    2.6714    2.8829   -3.0005 C   0  0  0  0  0  0  0  0  0  0  0  0
    3.1741    2.4398   -1.9745 O   0  0  0  0  0  0  0  0  0  0  0  0
    3.5527    3.3077   -4.1279 C   0  0  0  0  0  0  0  0  0  0  0  0
    3.8407    4.3691   -4.0597 H   0  0  0  0  0  0  0  0  0  0  0  0
    4.5024    2.7495   -4.1526 H   0  0  0  0  0  0  0  0  0  0  0  0
    3.1208    3.1887   -5.1345 H   0  0  0  0  0  0  0  0  0  0  0  0
    1.3174    3.0407   -3.2467 N   0  0  0  0  0  0  0  0  0  0  0  0
    0.2944    2.6927   -2.2960 C   0  0  2  0  0  0  0  0  0  0  0  0
    0.2976    1.1783   -2.1349 C   0  0  0  0  0  0  0  0  0  0  0  0
    0.7500    0.4142   -2.9850 O   0  0  0  0  0  0  0  0  0  0  0  0
   -1.0710    3.1886   -2.7460 C   0  0  0  0  0  0  0  0  0  0  0  0
    1.0312    3.4224   -4.1464 H   0  0  0  0  0  0  0  0  0  0  0  0
    0.5725    3.1622   -1.3461 H   0  0  0  0  0  0  0  0  0  0  0  0
   -1.3666    2.7292   -3.6963 H   0  0  0  0  0  0  0  0  0  0  0  0
   -1.8434    2.9482   -2.0082 H   0  0  0  0  0  0  0  0  0  0  0  0
   -1.0632    4.2744   -2.8901 H   0  0  0  0  0  0  0  0  0  0  0  0
   -0.3037    0.7742   -0.9484 N   0  0  0  0  0  0  0  0  0  0  0  0
   -0.4352   -0.6095   -0.5718 C   0  0  2  0  0  0  0  0  0  0  0  0
   -1.2582   -1.3322   -1.6332 C   0  0  0  0  0  0  0  0  0  0  0  0
   -0.7548   -1.8955   -2.6032 O   0  0  0  0  0  0  0  0  0  0  0  0
   -1.0129   -0.7671    0.8397 C   0  0  0  0  0  0  0  0  0  0  0  0
   -0.0757   -0.2894    1.9566 C   0  0  0  0  0  0  0  0  0  0  0  0
   -0.7068   -0.4995    3.3350 C   0  0  0  0  0  0  0  0  0  0  0  0
    0.2150   -0.0022    4.4388 C   0  0  0  0  0  0  0  0  0  0  0  0
   -0.4458   -0.2032    5.7508 N   0  3  0  0  0  0  0  0  0  0  0  0
   -0.6336    1.4811   -0.2948 H   0  0  0  0  0  0  0  0  0  0  0  0
    0.5802   -1.0233   -0.5910 H   0  0  0  0  0  0  0  0  0  0  0  0
   -1.9531   -0.2039    0.9018 H   0  0  0  0  0  0  0  0  0  0  0  0
   -1.2649   -1.8203    1.0151 H   0  0  0  0  0  0  0  0  0  0  0  0
    0.8733   -0.8361    1.9085 H   0  0  0  0  0  0  0  0  0  0  0  0
    0.1546    0.7741    1.8236 H   0  0  0  0  0  0  0  0  0  0  0  0
   -0.9214   -1.5654    3.4821 H   0  0  0  0  0  0  0  0  0  0  0  0
   -1.6658    0.0311    3.3846 H   0  0  0  0  0  0  0  0  0  0  0  0
    1.1562   -0.5591    4.4688 H   0  0  0  0  0  0  0  0  0  0  0  0
    0.4226    1.0681    4.3485 H   0  0  0  0  0  0  0  0  0  0  0  0
   -0.0271    0.3976    6.4693 H   0  0  0  0  0  0  0  0  0  0  0  0
   -0.3556   -1.1767    6.0621 H   0  0  0  0  0  0  0  0  0  0  0  0
   -1.4458    0.0195    5.6969 H   0  0  0  0  0  0  0  0  0  0  0  0
   -2.6171   -1.3039   -1.3548 N   0  0  0  0  0  0  0  0  0  0  0  0
   -3.5912   -1.9379   -2.2109 C   0  0  2  0  0  0  0  0  0  0  0  0
   -4.9719   -1.4461   -1.7971 C   0  0  0  0  0  0  0  0  0  0  0  0
   -5.2147   -0.9883   -0.6824 O   0  0  0  0  0  0  0  0  0  0  0  0
   -3.5043   -3.4534   -2.1203 C   0  0  0  0  0  0  0  0  0  0  0  0
   -2.9373   -0.8209   -0.5206 H   0  0  0  0  0  0  0  0  0  0  0  0
   -3.3764   -1.6076   -3.2330 H   0  0  0  0  0  0  0  0  0  0  0  0
   -3.7165   -3.8031   -1.1033 H   0  0  0  0  0  0  0  0  0  0  0  0
   -4.2244   -3.9330   -2.7916 H   0  0  0  0  0  0  0  0  0  0  0  0
   -2.5018   -3.8031   -2.3896 H   0  0  0  0  0  0  0  0  0  0  0  0
   -5.9109   -1.6185   -2.8045 N   0  0  0  0  0  0  0  0  0  0  0  0
   -7.2966   -1.2414   -2.6514 C   0  0  0  0  0  0  0  0  0  0  0  0
   -5.6169   -1.9885   -3.7036 H   0  0  0  0  0  0  0  0  0  0  0  0
   -7.8746   -2.1053   -2.2913 H   0  0  0  0  0  0  0  0  0  0  0  0
   -7.3747   -0.4195   -1.9246 H   0  0  0  0  0  0  0  0  0  0  0  0
   -7.6962   -0.9119   -3.6219 H   0  0  0  0  0  0  0  0  0  0  0  0
  1  3  1  0  0  0  0
  1  7  1  0  0  0  0
  1  2  2  0  0  0  0
 40 41  1  0  0  0  0
 41 49  1  0  0  0  0
 41 42  2  0  0  0  0
  8  9  1  0  0  0  0
  9 17  1  0  0  0  0
  9 10  2  0  0  0  0
 18 19  1  0  0  0  0
 19 39  1  0  0  0  0
 19 20  2  0  0  0  0
 40 43  1  0  0  0  0
  8 11  1  0  0  0  0
 49 50  1  0  0  0  0
 22 23  1  0  0  0  0
 21 22  1  0  0  0  0
 23 24  1  0  0  0  0
 18 21  1  0  0  0  0
 24 25  1  0  0  0  0
 39 40  1  0  0  0  0
  7  8  1  0  0  0  0
 17 18  1  0  0  0  0
  3  4  1  0  0  0  0
  3  5  1  0  0  0  0
  3  6  1  0  0  0  0
 43 46  1  0  0  0  0
 43 47  1  0  0  0  0
 43 48  1  0  0  0  0
 11 14  1  0  0  0  0
 11 15  1  0  0  0  0
 11 16  1  0  0  0  0
 50 52  1  0  0  0  0
 50 53  1  0  0  0  0
 50 54  1  0  0  0  0
 22 30  1  0  0  0  0
 22 31  1  0  0  0  0
 23 32  1  0  0  0  0
 23 33  1  0  0  0  0
 21 28  1  0  0  0  0
 21 29  1  0  0  0  0
 24 34  1  0  0  0  0
 24 35  1  0  0  0  0
 40 45  1  0  0  0  0
  8 13  1  0  0  0  0
 18 27  1  0  0  0  0
 49 51  1  0  0  0  0
  7 12  1  0  0  0  0
 39 44  1  0  0  0  0
 17 26  1  0  0  0  0
 25 36  1  0  0  0  0
 25 37  1  0  0  0  0
 25 38  1  0  0  0  0
M  CHG  1  25   1
M  END
$$$$

  -OEChem-05262214473D

 54 53  0     1  0  0  0  0  0999 V2000
    2.6714    2.8829   -3.0005 C   0  0  0  0  0  0  0  0  0  0  0  0
    3.1741    2.4398   -1.9745 O   0  0  0  0  0  0  0  0  0  0  0  0
    3.5527    3.3077   -4.1279 C   0  0  0  0  0  0  0  0  0  0  0  0
    3.8407    4.3691   -4.0597 H   0  0  0  0  0  0  0  0  0  0  0  0
    4.5024    2.7495   -4.1526 H   0  0  0  0  0  0  0  0  0  0  0  0
    3.1208    3.1887   -5.1345 H   0  0  0  0  0  0  0  0  0  0  0  0
    1.3174    3.0407   -3.2467 N   0  0  0  0  0  0  0  0  0  0  0  0
    0.2944    2.6927   -2.2960 C   0  0  2  0  0  0  0  0  0  0  0  0
    0.2976    1.1783   -2.1349 C   0  0  0  0  0  0  0  0  0  0  0  0
    0.7500    0.4142   -2.9850 O   0  0  0  0  0  0  0  0  0  0  0  0
   -1.0710    3.1886   -2.7460 C   0  0  0  0  0  0  0  0  0  0  0  0
    1.0312    3.4224   -4.1464 H   0  0  0  0  0  0  0  0  0  0  0  0
    0.5725    3.1622   -1.3461 H   0  0  0  0  0  0  0  0  0  0  0  0
   -1.3666    2.7292   -3.6963 H   0  0  0  0  0  0  0  0  0  0  0  0
   -1.8434    2.9482   -2.0082 H   0  0  0  0  0  0  0  0  0  0  0  0
   -1.0632    4.2744   -2.8901 H   0  0  0  0  0  0  0  0  0  0  0  0
   -0.3037    0.7742   -0.9484 N   0  0  0  0  0  0  0  0  0  0  0  0
   -0.4352   -0.6095   -0.5718 C   0  0  2  0  0  0  0  0  0  0  0  0
   -1.2582   -1.3322   -1.6332 C   0  0  0  0  0  0  0  0  0  0  0  0
   -0.7668   -2.1132   -2.4456 O   0  0  0  0  0  0  0  0  0  0  0  0
   -1.0129   -0.7671    0.8397 C   0  0  0  0  0  0  0  0  0  0  0  0
   -0.0757   -0.2894    1.9566 C   0  0  0  0  0  0  0  0  0  0  0  0
   -0.7068   -0.4995    3.3350 C   0  0  0  0  0  0  0  0  0  0  0  0
    0.2150   -0.0022    4.4388 C   0  0  0  0  0  0  0  0  0  0  0  0
   -0.4458   -0.2032    5.7508 N   0  3  0  0  0  0  0  0  0  0  0  0
   -0.6336    1.4811   -0.2948 H   0  0  0  0  0  0  0  0  0  0  0  0
    0.5802   -1.0233   -0.5910 H   0  0  0  0  0  0  0  0  0  0  0  0
   -1.9531   -0.2039    0.9018 H   0  0  0  0  0  0  0  0  0  0  0  0
   -1.2649   -1.8203    1.0151 H   0  0  0  0  0  0  0  0  0  0  0  0
    0.8733   -0.8361    1.9085 H   0  0  0  0  0  0  0  0  0  0  0  0
    0.1546    0.7741    1.8236 H   0  0  0  0  0  0  0  0  0  0  0  0
   -0.9214   -1.5654    3.4821 H   0  0  0  0  0  0  0  0  0  0  0  0
   -1.6658    0.0311    3.3846 H   0  0  0  0  0  0  0  0  0  0  0  0
    1.1562   -0.5591    4.4688 H   0  0  0  0  0  0  0  0  0  0  0  0
    0.4226    1.0681    4.3485 H   0  0  0  0  0  0  0  0  0  0  0  0
   -0.0271    0.3976    6.4693 H   0  0  0  0  0  0  0  0  0  0  0  0
   -0.3556   -1.1767    6.0621 H   0  0  0  0  0  0  0  0  0  0  0  0
   -1.4458    0.0195    5.6969 H   0  0  0  0  0  0  0  0  0  0  0  0
   -2.6095   -1.0297   -1.5473 N   0  0  0  0  0  0  0  0  0  0  0  0
   -3.5857   -1.6092   -2.4389 C   0  0  2  0  0  0  0  0  0  0  0  0
   -4.8857   -0.8313   -2.2826 C   0  0  0  0  0  0  0  0  0  0  0  0
   -5.1586   -0.1757   -1.2791 O   0  0  0  0  0  0  0  0  0  0  0  0
   -3.7971   -3.0859   -2.1436 C   0  0  0  0  0  0  0  0  0  0  0  0
   -2.9224   -0.3787   -0.8332 H   0  0  0  0  0  0  0  0  0  0  0  0
   -3.2015   -1.4787   -3.4565 H   0  0  0  0  0  0  0  0  0  0  0  0
   -4.1819   -3.2365   -1.1283 H   0  0  0  0  0  0  0  0  0  0  0  0
   -4.5166   -3.5306   -2.8390 H   0  0  0  0  0  0  0  0  0  0  0  0
   -2.8553   -3.6388   -2.2274 H   0  0  0  0  0  0  0  0  0  0  0  0
   -5.7239   -0.9902   -3.3773 N   0  0  0  0  0  0  0  0  0  0  0  0
   -7.0218   -0.3625   -3.4630 C   0  0  0  0  0  0  0  0  0  0  0  0
   -5.4081   -1.5365   -4.1732 H   0  0  0  0  0  0  0  0  0  0  0  0
   -7.7885   -1.0501   -3.0766 H   0  0  0  0  0  0  0  0  0  0  0  0
   -7.0227    0.5608   -2.8651 H   0  0  0  0  0  0  0  0  0  0  0  0
   -7.2428   -0.1196   -4.5129 H   0  0  0  0  0  0  0  0  0  0  0  0
  1  3  1  0  0  0  0
  1  7  1  0  0  0  0
  1  2  2  0  0  0  0
 40 41  1  0  0  0  0
 41 49  1  0  0  0  0
 41 42  2  0  0  0  0
  8  9  1  0  0  0  0
  9 17  1  0  0  0  0
  9 10  2  0  0  0  0
 18 19  1  0  0  0  0
 19 39  1  0  0  0  0
 19 20  2  0  0  0  0
 40 43  1  0  0  0  0
  8 11  1  0  0  0  0
 49 50  1  0  0  0  0
 22 23  1  0  0  0  0
 21 22  1  0  0  0  0
 23 24  1  0  0  0  0
 18 21  1  0  0  0  0
 24 25  1  0  0  0  0
 39 40  1  0  0  0  0
  7  8  1  0  0  0  0
 17 18  1  0  0  0  0
  3  4  1  0  0  0  0
  3  5  1  0  0  0  0
  3  6  1  0  0  0  0
 43 46  1  0  0  0  0
 43 47  1  0  0  0  0
 43 48  1  0  0  0  0
 11 14  1  0  0  0  0
 11 15  1  0  0  0  0
 11 16  1  0  0  0  0
 50 52  1  0  0  0  0
 50 53  1  0  0  0  0
 50 54  1  0  0  0  0
 22 30  1  0  0  0  0
 22 31  1  0  0  0  0
 23 32  1  0  0  0  0
 23 33  1  0  0  0  0
 21 28  1  0  0  0  0
 21 29  1  0  0  0  0
 24 34  1  0  0  0  0
 24 35  1  0  0  0  0
 40 45  1  0  0  0  0
  8 13  1  0  0  0  0
 18 27  1  0  0  0  0
 49 51  1  0  0  0  0
  7 12  1  0  0  0  0
 39 44  1  0  0  0  0
 17 26  1  0  0  0  0
 25 36  1  0  0  0  0
 25 37  1  0  0  0  0
 25 38  1  0  0  0  0
M  CHG  1  25   1
M  END
$$$$

  -OEChem-05262214473D

 54 53  0     1  0  0  0  0  0999 V2000
    2.6714    2.8829   -3.0005 C   0  0  0  0  0  0  0  0  0  0  0  0
    3.1741    2.4398   -1.9745 O   0  0  0  0  0  0  0  0  0  0  0  0
    3.5527    3.3077   -4.1279 C   0  0  0  0  0  0  0  0  0  0  0  0
    3.8407    4.3691   -4.0597 H   0  0  0  0  0  0  0  0  0  0  0  0
    4.5024    2.7495   -4.1526 H   0  0  0  0  0  0  0  0  0  0  0  0
    3.1208    3.1887   -5.1345 H   0  0  0  0  0  0  0  0  0  0  0  0
    1.3174    3.0407   -3.2467 N   0  0  0  0  0  0  0  0  0  0  0  0
    0.2944    2.6927   -2.2960 C   0  0  2  0  0  0  0  0  0  0  0  0
    0.2976    1.1783   -2.1349 C   0  0  0  0  0  0  0  0  0  0  0  0
    0.7500    0.4142   -2.9850 O   0  0  0  0  0  0  0  0  0  0  0  0
   -1.0710    3.1886   -2.7460 C   0  0  0  0  0  0  0  0  0  0  0  0
    1.0312    3.4224   -4.1464 H   0  0  0  0  0  0  0  0  0  0  0  0
    0.5725    3.1622   -1.3461 H   0  0  0  0  0  0  0  0  0  0  0  0
   -1.3666    2.7292   -3.6963 H   0  0  0  0  0  0  0  0  0  0  0  0
   -1.8434    2.9482   -2.0082 H   0  0  0  0  0  0  0  0  0  0  0  0
   -1.0632    4.2744   -2.8901 H   0  0  0  0  0  0  0  0  0  0  0  0
   -0.3037    0.7742   -0.9484 N   0  0  0  0  0  0  0  0  0  0  0  0
   -0.4352   -0.6095   -0.5718 C   0  0  2  0  0  0  0  0  0  0  0  0
   -1.2582   -1.3322   -1.6332 C   0  0  0  0  0  0  0  0  0  0  0  0
   -0.8369   -2.2994   -2.2645 O   0  0  0  0  0  0  0  0  0  0  0  0
   -1.0129   -0.7671    0.8397 C   0  0  0  0  0  0  0  0  0  0  0  0
   -0.0757   -0.2894    1.9566 C   0  0  0  0  0  0  0  0  0  0  0  0
   -0.7068   -0.4995    3.3350 C   0  0  0  0  0  0  0  0  0  0  0  0
    0.2150   -0.0022    4.4388 C   0  0  0  0  0  0  0  0  0  0  0  0
   -0.4458   -0.2032    5.7508 N   0  3  0  0  0  0  0  0  0  0  0  0
   -0.6336    1.4811   -0.2948 H   0  0  0  0  0  0  0  0  0  0  0  0
    0.5802   -1.0233   -0.5910 H   0  0  0  0  0  0  0  0  0  0  0  0
   -1.9531   -0.2039    0.9018 H   0  0  0  0  0  0  0  0  0  0  0  0
   -1.2649   -1.8203    1.0151 H   0  0  0  0  0  0  0  0  0  0  0  0
    0.8733   -0.8361    1.9085 H   0  0  0  0  0  0  0  0  0  0  0  0
    0.1546    0.7741    1.8236 H   0  0  0  0  0  0  0  0  0  0  0  0
   -0.9214   -1.5654    3.4821 H   0  0  0  0  0  0  0  0  0  0  0  0
   -1.6658    0.0311    3.3846 H   0  0  0  0  0  0  0  0  0  0  0  0
    1.1562   -0.5591    4.4688 H   0  0  0  0  0  0  0  0  0  0  0  0
    0.4226    1.0681    4.3485 H   0  0  0  0  0  0  0  0  0  0  0  0
   -0.0271    0.3976    6.4693 H   0  0  0  0  0  0  0  0  0  0  0  0
   -0.3556   -1.1767    6.0621 H   0  0  0  0  0  0  0  0  0  0  0  0
   -1.4458    0.0195    5.6969 H   0  0  0  0  0  0  0  0  0  0  0  0
   -2.5292   -0.7931   -1.7707 N   0  0  0  0  0  0  0  0  0  0  0  0
   -3.4933   -1.3245   -2.7044 C   0  0  2  0  0  0  0  0  0  0  0  0
   -4.6322   -0.3207   -2.8268 C   0  0  0  0  0  0  0  0  0  0  0  0
   -4.8849    0.5157   -1.9622 O   0  0  0  0  0  0  0  0  0  0  0  0
   -4.0109   -2.6814   -2.2532 C   0  0  0  0  0  0  0  0  0  0  0  0
   -2.7900    0.0021   -1.1951 H   0  0  0  0  0  0  0  0  0  0  0  0
   -2.9820   -1.4169   -3.6688 H   0  0  0  0  0  0  0  0  0  0  0  0
   -4.5263   -2.6088   -1.2886 H   0  0  0  0  0  0  0  0  0  0  0  0
   -4.7205   -3.0960   -2.9768 H   0  0  0  0  0  0  0  0  0  0  0  0
   -3.1870   -3.3938   -2.1370 H   0  0  0  0  0  0  0  0  0  0  0  0
   -5.3599   -0.4970   -3.9954 N   0  0  0  0  0  0  0  0  0  0  0  0
   -6.4985    0.3237   -4.3360 C   0  0  0  0  0  0  0  0  0  0  0  0
   -5.0674   -1.2031   -4.6644 H   0  0  0  0  0  0  0  0  0  0  0  0
   -7.4190   -0.1560   -3.9719 H   0  0  0  0  0  0  0  0  0  0  0  0
   -6.3906    1.3130   -3.8673 H   0  0  0  0  0  0  0  0  0  0  0  0
   -6.5530    0.4396   -5.4286 H   0  0  0  0  0  0  0  0  0  0  0  0
  1  3  1  0  0  0  0
  1  7  1  0  0  0  0
  1  2  2  0  0  0  0
 40 41  1  0  0  0  0
 41 49  1  0  0  0  0
 41 42  2  0  0  0  0
  8  9  1  0  0  0  0
  9 17  1  0  0  0  0
  9 10  2  0  0  0  0
 18 19  1  0  0  0  0
 19 39  1  0  0  0  0
 19 20  2  0  0  0  0
 40 43  1  0  0  0  0
  8 11  1  0  0  0  0
 49 50  1  0  0  0  0
 22 23  1  0  0  0  0
 21 22  1  0  0  0  0
 23 24  1  0  0  0  0
 18 21  1  0  0  0  0
 24 25  1  0  0  0  0
 39 40  1  0  0  0  0
  7  8  1  0  0  0  0
 17 18  1  0  0  0  0
  3  4  1  0  0  0  0
  3  5  1  0  0  0  0
  3  6  1  0  0  0  0
 43 46  1  0  0  0  0
 43 47  1  0  0  0  0
 43 48  1  0  0  0  0
 11 14  1  0  0  0  0
 11 15  1  0  0  0  0
 11 16  1  0  0  0  0
 50 52  1  0  0  0  0
 50 53  1  0  0  0  0
 50 54  1  0  0  0  0
 22 30  1  0  0  0  0
 22 31  1  0  0  0  0
 23 32  1  0  0  0  0
 23 33  1  0  0  0  0
 21 28  1  0  0  0  0
 21 29  1  0  0  0  0
 24 34  1  0  0  0  0
 24 35  1  0  0  0  0
 40 45  1  0  0  0  0
  8 13  1  0  0  0  0
 18 27  1  0  0  0  0
 49 51  1  0  0  0  0
  7 12  1  0  0  0  0
 39 44  1  0  0  0  0
 17 26  1  0  0  0  0
 25 36  1  0  0  0  0
 25 37  1  0  0  0  0
 25 38  1  0  0  0  0
M  CHG  1  25   1
M  END
$$$$

  -OEChem-05262214473D

 54 53  0     1  0  0  0  0  0999 V2000
    2.6714    2.8829   -3.0005 C   0  0  0  0  0  0  0  0  0  0  0  0
    3.1741    2.4398   -1.9745 O   0  0  0  0  0  0  0  0  0  0  0  0
    3.5527    3.3077   -4.1279 C   0  0  0  0  0  0  0  0  0  0  0  0
    3.8407    4.3691   -4.0597 H   0  0  0  0  0  0  0  0  0  0  0  0
    4.5024    2.7495   -4.1526 H   0  0  0  0  0  0  0  0  0  0  0  0
    3.1208    3.1887   -5.1345 H   0  0  0  0  0  0  0  0  0  0  0  0
    1.3174    3.0407   -3.2467 N   0  0  0  0  0  0  0  0  0  0  0  0
    0.2944    2.6927   -2.2960 C   0  0  2  0  0  0  0  0  0  0  0  0
    0.2976    1.1783   -2.1349 C   0  0  0  0  0  0  0  0  0  0  0  0
    0.7500    0.4142   -2.9850 O   0  0  0  0  0  0  0  0  0  0  0  0
   -1.0710    3.1886   -2.7460 C   0  0  0  0  0  0  0  0  0  0  0  0
    1.0312    3.4224   -4.1464 H   0  0  0  0  0  0  0  0  0  0  0  0
    0.5725    3.1622   -1.3461 H   0  0  0  0  0  0  0  0  0  0  0  0
   -1.3666    2.7292   -3.6963 H   0  0  0  0  0  0  0  0  0  0  0  0
   -1.8434    2.9482   -2.0082 H   0  0  0  0  0  0  0  0  0  0  0  0
   -1.0632    4.2744   -2.8901 H   0  0  0  0  0  0  0  0  0  0  0  0
   -0.3037    0.7742   -0.9484 N   0  0  0  0  0  0  0  0  0  0  0  0
   -0.4352   -0.6095   -0.5718 C   0  0  2  0  0  0  0  0  0  0  0  0
   -1.2582   -1.3322   -1.6332 C   0  0  0  0  0  0  0  0  0  0  0  0
   -0.9604   -2.4413   -2.0721 O   0  0  0  0  0  0  0  0  0  0  0  0
   -1.0129   -0.7671    0.8397 C   0  0  0  0  0  0  0  0  0  0  0  0
   -0.0757   -0.2894    1.9566 C   0  0  0  0  0  0  0  0  0  0  0  0
   -0.7068   -0.4995    3.3350 C   0  0  0  0  0  0  0  0  0  0  0  0
    0.2150   -0.0022    4.4388 C   0  0  0  0  0  0  0  0  0  0  0  0
   -0.4458   -0.2032    5.7508 N   0  3  0  0  0  0  0  0  0  0  0  0
   -0.6336    1.4811   -0.2948 H   0  0  0  0  0  0  0  0  0  0  0  0
    0.5802   -1.0233   -0.5910 H   0  0  0  0  0  0  0  0  0  0  0  0
   -1.9531   -0.2039    0.9018 H   0  0  0  0  0  0  0  0  0  0  0  0
   -1.2649   -1.8203    1.0151 H   0  0  0  0  0  0  0  0  0  0  0  0
    0.8733   -0.8361    1.9085 H   0  0  0  0  0  0  0  0  0  0  0  0
    0.1546    0.7741    1.8236 H   0  0  0  0  0  0  0  0  0  0  0  0
   -0.9214   -1.5654    3.4821 H   0  0  0  0  0  0  0  0  0  0  0  0
   -1.6658    0.0311    3.3846 H   0  0  0  0  0  0  0  0  0  0  0  0
    1.1562   -0.5591    4.4688 H   0  0  0  0  0  0  0  0  0  0  0  0
    0.4226    1.0681    4.3485 H   0  0  0  0  0  0  0  0  0  0  0  0
   -0.0271    0.3976    6.4693 H   0  0  0  0  0  0  0  0  0  0  0  0
   -0.3556   -1.1767    6.0621 H   0  0  0  0  0  0  0  0  0  0  0  0
   -1.4458    0.0195    5.6969 H   0  0  0  0  0  0  0  0  0  0  0  0
   -2.3816   -0.6102   -2.0097 N   0  0  0  0  0  0  0  0  0  0  0  0
   -3.3202   -1.1032   -2.9893 C   0  0  2  0  0  0  0  0  0  0  0  0
   -4.2286    0.0508   -3.3927 C   0  0  0  0  0  0  0  0  0  0  0  0
   -4.4123    1.0389   -2.6849 O   0  0  0  0  0  0  0  0  0  0  0  0
   -4.1310   -2.2675   -2.4419 C   0  0  0  0  0  0  0  0  0  0  0  0
   -2.5492    0.2955   -1.5816 H   0  0  0  0  0  0  0  0  0  0  0  0
   -2.7327   -1.4263   -3.8556 H   0  0  0  0  0  0  0  0  0  0  0  0
   -4.7263   -1.9629   -1.5733 H   0  0  0  0  0  0  0  0  0  0  0  0
   -4.8224   -2.6587   -3.1956 H   0  0  0  0  0  0  0  0  0  0  0  0
   -3.4743   -3.0847   -2.1247 H   0  0  0  0  0  0  0  0  0  0  0  0
   -4.8436   -0.1724   -4.6166 N   0  0  0  0  0  0  0  0  0  0  0  0
   -5.7623    0.7703   -5.2109 C   0  0  0  0  0  0  0  0  0  0  0  0
   -4.6181   -1.0110   -5.1437 H   0  0  0  0  0  0  0  0  0  0  0  0
   -6.7912    0.5159   -4.9163 H   0  0  0  0  0  0  0  0  0  0  0  0
   -5.5218    1.7857   -4.8629 H   0  0  0  0  0  0  0  0  0  0  0  0
   -5.6736    0.7276   -6.3065 H   0  0  0  0  0  0  0  0  0  0  0  0
  1  3  1  0  0  0  0
  1  7  1  0  0  0  0
  1  2  2  0  0  0  0
 40 41  1  0  0  0  0
 41 49  1  0  0  0  0
 41 42  2  0  0  0  0
  8  9  1  0  0  0  0
  9 17  1  0  0  0  0
  9 10  2  0  0  0  0
 18 19  1  0  0  0  0
 19 39  1  0  0  0  0
 19 20  2  0  0  0  0
 40 43  1  0  0  0  0
  8 11  1  0  0  0  0
 49 50  1  0  0  0  0
 22 23  1  0  0  0  0
 21 22  1  0  0  0  0
 23 24  1  0  0  0  0
 18 21  1  0  0  0  0
 24 25  1  0  0  0  0
 39 40  1  0  0  0  0
  7  8  1  0  0  0  0
 17 18  1  0  0  0  0
  3  4  1  0  0  0  0
  3  5  1  0  0  0  0
  3  6  1  0  0  0  0
 43 46  1  0  0  0  0
 43 47  1  0  0  0  0
 43 48  1  0  0  0  0
 11 14  1  0  0  0  0
 11 15  1  0  0  0  0
 11 16  1  0  0  0  0
 50 52  1  0  0  0  0
 50 53  1  0  0  0  0
 50 54  1  0  0  0  0
 22 30  1  0  0  0  0
 22 31  1  0  0  0  0
 23 32  1  0  0  0  0
 23 33  1  0  0  0  0
 21 28  1  0  0  0  0
 21 29  1  0  0  0  0
 24 34  1  0  0  0  0
 24 35  1  0  0  0  0
 40 45  1  0  0  0  0
  8 13  1  0  0  0  0
 18 27  1  0  0  0  0
 49 51  1  0  0  0  0
  7 12  1  0  0  0  0
 39 44  1  0  0  0  0
 17 26  1  0  0  0  0
 25 36  1  0  0  0  0
 25 37  1  0  0  0  0
 25 38  1  0  0  0  0
M  CHG  1  25   1
M  END
$$$$

  -OEChem-05262214473D

 54 53  0     1  0  0  0  0  0999 V2000
    2.6714    2.8829   -3.0005 C   0  0  0  0  0  0  0  0  0  0  0  0
    3.1741    2.4398   -1.9745 O   0  0  0  0  0  0  0  0  0  0  0  0
    3.5527    3.3077   -4.1279 C   0  0  0  0  0  0  0  0  0  0  0  0
    3.8407    4.3691   -4.0597 H   0  0  0  0  0  0  0  0  0  0  0  0
    4.5024    2.7495   -4.1526 H   0  0  0  0  0  0  0  0  0  0  0  0
    3.1208    3.1887   -5.1345 H   0  0  0  0  0  0  0  0  0  0  0  0
    1.3174    3.0407   -3.2467 N   0  0  0  0  0  0  0  0  0  0  0  0
    0.2944    2.6927   -2.2960 C   0  0  2  0  0  0  0  0  0  0  0  0
    0.2976    1.1783   -2.1349 C   0  0  0  0  0  0  0  0  0  0  0  0
    0.7500    0.4142   -2.9850 O   0  0  0  0  0  0  0  0  0  0  0  0
   -1.0710    3.1886   -2.7460 C   0  0  0  0  0  0  0  0  0  0  0  0
    1.0312    3.4224   -4.1464 H   0  0  0  0  0  0  0  0  0  0  0  0
    0.5725    3.1622   -1.3461 H   0  0  0  0  0  0  0  0  0  0  0  0
   -1.3666    2.7292   -3.6963 H   0  0  0  0  0  0  0  0  0  0  0  0
   -1.8434    2.9482   -2.0082 H   0  0  0  0  0  0  0  0  0  0  0  0
   -1.0632    4.2744   -2.8901 H   0  0  0  0  0  0  0  0  0  0  0  0
   -0.3037    0.7742   -0.9484 N   0  0  0  0  0  0  0  0  0  0  0  0
   -0.4352   -0.6095   -0.5718 C   0  0  2  0  0  0  0  0  0  0  0  0
   -1.2582   -1.3322   -1.6332 C   0  0  0  0  0  0  0  0  0  0  0  0
   -1.1288   -2.5293   -1.8816 O   0  0  0  0  0  0  0  0  0  0  0  0
   -1.0129   -0.7671    0.8397 C   0  0  0  0  0  0  0  0  0  0  0  0
   -0.0757   -0.2894    1.9566 C   0  0  0  0  0  0  0  0  0  0  0  0
   -0.7068   -0.4995    3.3350 C   0  0  0  0  0  0  0  0  0  0  0  0
    0.2150   -0.0022    4.4388 C   0  0  0  0  0  0  0  0  0  0  0  0
   -0.4458   -0.2032    5.7508 N   0  3  0  0  0  0  0  0  0  0  0  0
   -0.6336    1.4811   -0.2948 H   0  0  0  0  0  0  0  0  0  0  0  0
    0.5802   -1.0233   -0.5910 H   0  0  0  0  0  0  0  0  0  0  0  0
   -1.9531   -0.2039    0.9018 H   0  0  0  0  0  0  0  0  0  0  0  0
   -1.2649   -1.8203    1.0151 H   0  0  0  0  0  0  0  0  0  0  0  0
    0.8733   -0.8361    1.9085 H   0  0  0  0  0  0  0  0  0  0  0  0
    0.1546    0.7741    1.8236 H   0  0  0  0  0  0  0  0  0  0  0  0
   -0.9214   -1.5654    3.4821 H   0  0  0  0  0  0  0  0  0  0  0  0
   -1.6658    0.0311    3.3846 H   0  0  0  0  0  0  0  0  0  0  0  0
    1.1562   -0.5591    4.4688 H   0  0  0  0  0  0  0  0  0  0  0  0
    0.4226    1.0681    4.3485 H   0  0  0  0  0  0  0  0  0  0  0  0
   -0.0271    0.3976    6.4693 H   0  0  0  0  0  0  0  0  0  0  0  0
   -0.3556   -1.1767    6.0621 H   0  0  0  0  0  0  0  0  0  0  0  0
   -1.4458    0.0195    5.6969 H   0  0  0  0  0  0  0  0  0  0  0  0
   -2.1768   -0.4936   -2.2479 N   0  0  0  0  0  0  0  0  0  0  0  0
   -3.0782   -0.9605   -3.2742 C   0  0  2  0  0  0  0  0  0  0  0  0
   -3.7024    0.2578   -3.9417 C   0  0  0  0  0  0  0  0  0  0  0  0
   -3.7728    1.3581   -3.3981 O   0  0  0  0  0  0  0  0  0  0  0  0
   -4.1494   -1.8724   -2.6967 C   0  0  0  0  0  0  0  0  0  0  0  0
   -2.2163    0.4815   -1.9664 H   0  0  0  0  0  0  0  0  0  0  0  0
   -2.4707   -1.5065   -4.0042 H   0  0  0  0  0  0  0  0  0  0  0  0
   -4.7682   -1.3428   -1.9631 H   0  0  0  0  0  0  0  0  0  0  0  0
   -4.8151   -2.2485   -3.4805 H   0  0  0  0  0  0  0  0  0  0  0  0
   -3.6978   -2.7327   -2.1911 H   0  0  0  0  0  0  0  0  0  0  0  0
   -4.2103   -0.0387   -5.1988 N   0  0  0  0  0  0  0  0  0  0  0  0
   -4.8635    0.9469   -6.0281 C   0  0  0  0  0  0  0  0  0  0  0  0
   -4.0907   -0.9733   -5.5783 H   0  0  0  0  0  0  0  0  0  0  0  0
   -5.9479    0.9201   -5.8453 H   0  0  0  0  0  0  0  0  0  0  0  0
   -4.4753    1.9467   -5.7840 H   0  0  0  0  0  0  0  0  0  0  0  0
   -4.6647    0.7248   -7.0870 H   0  0  0  0  0  0  0  0  0  0  0  0
  1  3  1  0  0  0  0
  1  7  1  0  0  0  0
  1  2  2  0  0  0  0
 40 41  1  0  0  0  0
 41 49  1  0  0  0  0
 41 42  2  0  0  0  0
  8  9  1  0  0  0  0
  9 17  1  0  0  0  0
  9 10  2  0  0  0  0
 18 19  1  0  0  0  0
 19 39  1  0  0  0  0
 19 20  2  0  0  0  0
 40 43  1  0  0  0  0
  8 11  1  0  0  0  0
 49 50  1  0  0  0  0
 22 23  1  0  0  0  0
 21 22  1  0  0  0  0
 23 24  1  0  0  0  0
 18 21  1  0  0  0  0
 24 25  1  0  0  0  0
 39 40  1  0  0  0  0
  7  8  1  0  0  0  0
 17 18  1  0  0  0  0
  3  4  1  0  0  0  0
  3  5  1  0  0  0  0
  3  6  1  0  0  0  0
 43 46  1  0  0  0  0
 43 47  1  0  0  0  0
 43 48  1  0  0  0  0
 11 14  1  0  0  0  0
 11 15  1  0  0  0  0
 11 16  1  0  0  0  0
 50 52  1  0  0  0  0
 50 53  1  0  0  0  0
 50 54  1  0  0  0  0
 22 30  1  0  0  0  0
 22 31  1  0  0  0  0
 23 32  1  0  0  0  0
 23 33  1  0  0  0  0
 21 28  1  0  0  0  0
 21 29  1  0  0  0  0
 24 34  1  0  0  0  0
 24 35  1  0  0  0  0
 40 45  1  0  0  0  0
  8 13  1  0  0  0  0
 18 27  1  0  0  0  0
 49 51  1  0  0  0  0
  7 12  1  0  0  0  0
 39 44  1  0  0  0  0
 17 26  1  0  0  0  0
 25 36  1  0  0  0  0
 25 37  1  0  0  0  0
 25 38  1  0  0  0  0
M  CHG  1  25   1
M  END
$$$$

  -OEChem-05262214473D

 54 53  0     1  0  0  0  0  0999 V2000
    2.6714    2.8829   -3.0005 C   0  0  0  0  0  0  0  0  0  0  0  0
    3.1741    2.4398   -1.9745 O   0  0  0  0  0  0  0  0  0  0  0  0
    3.5527    3.3077   -4.1279 C   0  0  0  0  0  0  0  0  0  0  0  0
    3.8407    4.3691   -4.0597 H   0  0  0  0  0  0  0  0  0  0  0  0
    4.5024    2.7495   -4.1526 H   0  0  0  0  0  0  0  0  0  0  0  0
    3.1208    3.1887   -5.1345 H   0  0  0  0  0  0  0  0  0  0  0  0
    1.3174    3.0407   -3.2467 N   0  0  0  0  0  0  0  0  0  0  0  0
    0.2944    2.6927   -2.2960 C   0  0  2  0  0  0  0  0  0  0  0  0
    0.2976    1.1783   -2.1349 C   0  0  0  0  0  0  0  0  0  0  0  0
    0.7500    0.4142   -2.9850 O   0  0  0  0  0  0  0  0  0  0  0  0
   -1.0710    3.1886   -2.7460 C   0  0  0  0  0  0  0  0  0  0  0  0
    1.0312    3.4224   -4.1464 H   0  0  0  0  0  0  0  0  0  0  0  0
    0.5725    3.1622   -1.3461 H   0  0  0  0  0  0  0  0  0  0  0  0
   -1.3666    2.7292   -3.6963 H   0  0  0  0  0  0  0  0  0  0  0  0
   -1.8434    2.9482   -2.0082 H   0  0  0  0  0  0  0  0  0  0  0  0
   -1.0632    4.2744   -2.8901 H   0  0  0  0  0  0  0  0  0  0  0  0
   -0.3037    0.7742   -0.9484 N   0  0  0  0  0  0  0  0  0  0  0  0
   -0.4352   -0.6095   -0.5718 C   0  0  2  0  0  0  0  0  0  0  0  0
   -1.2582   -1.3322   -1.6332 C   0  0  0  0  0  0  0  0  0  0  0  0
   -1.3307   -2.5573   -1.7060 O   0  0  0  0  0  0  0  0  0  0  0  0
   -1.0129   -0.7671    0.8397 C   0  0  0  0  0  0  0  0  0  0  0  0
   -0.0757   -0.2894    1.9566 C   0  0  0  0  0  0  0  0  0  0  0  0
   -0.7068   -0.4995    3.3350 C   0  0  0  0  0  0  0  0  0  0  0  0
    0.2150   -0.0022    4.4388 C   0  0  0  0  0  0  0  0  0  0  0  0
   -0.4458   -0.2032    5.7508 N   0  3  0  0  0  0  0  0  0  0  0  0
   -0.6336    1.4811   -0.2948 H   0  0  0  0  0  0  0  0  0  0  0  0
    0.5802   -1.0233   -0.5910 H   0  0  0  0  0  0  0  0  0  0  0  0
   -1.9531   -0.2039    0.9018 H   0  0  0  0  0  0  0  0  0  0  0  0
   -1.2649   -1.8203    1.0151 H   0  0  0  0  0  0  0  0  0  0  0  0
    0.8733   -0.8361    1.9085 H   0  0  0  0  0  0  0  0  0  0  0  0
    0.1546    0.7741    1.8236 H   0  0  0  0  0  0  0  0  0  0  0  0
   -0.9214   -1.5654    3.4821 H   0  0  0  0  0  0  0  0  0  0  0  0
   -1.6658    0.0311    3.3846 H   0  0  0  0  0  0  0  0  0  0  0  0
    1.1562   -0.5591    4.4688 H   0  0  0  0  0  0  0  0  0  0  0  0
    0.4226    1.0681    4.3485 H   0  0  0  0  0  0  0  0  0  0  0  0
   -0.0271    0.3976    6.4693 H   0  0  0  0  0  0  0  0  0  0  0  0
   -0.3556   -1.1767    6.0621 H   0  0  0  0  0  0  0  0  0  0  0  0
   -1.4458    0.0195    5.6969 H   0  0  0  0  0  0  0  0  0  0  0  0
   -1.9287   -0.4510   -2.4692 N   0  0  0  0  0  0  0  0  0  0  0  0
   -2.7838   -0.9059   -3.5396 C   0  0  2  0  0  0  0  0  0  0  0  0
   -3.0896    0.2864   -4.4363 C   0  0  0  0  0  0  0  0  0  0  0  0
   -3.0102    1.4517   -4.0531 O   0  0  0  0  0  0  0  0  0  0  0  0
   -4.0648   -1.5230   -3.0002 C   0  0  0  0  0  0  0  0  0  0  0  0
   -1.8141    0.5475   -2.3233 H   0  0  0  0  0  0  0  0  0  0  0  0
   -2.2139   -1.6518   -4.1044 H   0  0  0  0  0  0  0  0  0  0  0  0
   -4.6492   -0.7907   -2.4313 H   0  0  0  0  0  0  0  0  0  0  0  0
   -4.6993   -1.8933   -3.8121 H   0  0  0  0  0  0  0  0  0  0  0  0
   -3.8420   -2.3618   -2.3318 H   0  0  0  0  0  0  0  0  0  0  0  0
   -3.5031   -0.1049   -5.7020 N   0  0  0  0  0  0  0  0  0  0  0  0
   -3.8633    0.8415   -6.7319 C   0  0  0  0  0  0  0  0  0  0  0  0
   -3.5211   -1.0926   -5.9387 H   0  0  0  0  0  0  0  0  0  0  0  0
   -4.9467    1.0288   -6.6957 H   0  0  0  0  0  0  0  0  0  0  0  0
   -3.3225    1.7852   -6.5678 H   0  0  0  0  0  0  0  0  0  0  0  0
   -3.5949    0.4314   -7.7167 H   0  0  0  0  0  0  0  0  0  0  0  0
  1  3  1  0  0  0  0
  1  7  1  0  0  0  0
  1  2  2  0  0  0  0
 40 41  1  0  0  0  0
 41 49  1  0  0  0  0
 41 42  2  0  0  0  0
  8  9  1  0  0  0  0
  9 17  1  0  0  0  0
  9 10  2  0  0  0  0
 18 19  1  0  0  0  0
 19 39  1  0  0  0  0
 19 20  2  0  0  0  0
 40 43  1  0  0  0  0
  8 11  1  0  0  0  0
 49 50  1  0  0  0  0
 22 23  1  0  0  0  0
 21 22  1  0  0  0  0
 23 24  1  0  0  0  0
 18 21  1  0  0  0  0
 24 25  1  0  0  0  0
 39 40  1  0  0  0  0
  7  8  1  0  0  0  0
 17 18  1  0  0  0  0
  3  4  1  0  0  0  0
  3  5  1  0  0  0  0
  3  6  1  0  0  0  0
 43 46  1  0  0  0  0
 43 47  1  0  0  0  0
 43 48  1  0  0  0  0
 11 14  1  0  0  0  0
 11 15  1  0  0  0  0
 11 16  1  0  0  0  0
 50 52  1  0  0  0  0
 50 53  1  0  0  0  0
 50 54  1  0  0  0  0
 22 30  1  0  0  0  0
 22 31  1  0  0  0  0
 23 32  1  0  0  0  0
 23 33  1  0  0  0  0
 21 28  1  0  0  0  0
 21 29  1  0  0  0  0
 24 34  1  0  0  0  0
 24 35  1  0  0  0  0
 40 45  1  0  0  0  0
  8 13  1  0  0  0  0
 18 27  1  0  0  0  0
 49 51  1  0  0  0  0
  7 12  1  0  0  0  0
 39 44  1  0  0  0  0
 17 26  1  0  0  0  0
 25 36  1  0  0  0  0
 25 37  1  0  0  0  0
 25 38  1  0  0  0  0
M  CHG  1  25   1
M  END
$$$$

  -OEChem-05262214473D

 54 53  0     1  0  0  0  0  0999 V2000
    2.6714    2.8829   -3.0005 C   0  0  0  0  0  0  0  0  0  0  0  0
    3.1741    2.4398   -1.9745 O   0  0  0  0  0  0  0  0  0  0  0  0
    3.5527    3.3077   -4.1279 C   0  0  0  0  0  0  0  0  0  0  0  0
    3.8407    4.3691   -4.0597 H   0  0  0  0  0  0  0  0  0  0  0  0
    4.5024    2.7495   -4.1526 H   0  0  0  0  0  0  0  0  0  0  0  0
    3.1208    3.1887   -5.1345 H   0  0  0  0  0  0  0  0  0  0  0  0
    1.3174    3.0407   -3.2467 N   0  0  0  0  0  0  0  0  0  0  0  0
    0.2944    2.6927   -2.2960 C   0  0  2  0  0  0  0  0  0  0  0  0
    0.2976    1.1783   -2.1349 C   0  0  0  0  0  0  0  0  0  0  0  0
    0.7500    0.4142   -2.9850 O   0  0  0  0  0  0  0  0  0  0  0  0
   -1.0710    3.1886   -2.7460 C   0  0  0  0  0  0  0  0  0  0  0  0
    1.0312    3.4224   -4.1464 H   0  0  0  0  0  0  0  0  0  0  0  0
    0.5725    3.1622   -1.3461 H   0  0  0  0  0  0  0  0  0  0  0  0
   -1.3666    2.7292   -3.6963 H   0  0  0  0  0  0  0  0  0  0  0  0
   -1.8434    2.9482   -2.0082 H   0  0  0  0  0  0  0  0  0  0  0  0
   -1.0632    4.2744   -2.8901 H   0  0  0  0  0  0  0  0  0  0  0  0
   -0.3037    0.7742   -0.9484 N   0  0  0  0  0  0  0  0  0  0  0  0
   -0.4352   -0.6095   -0.5718 C   0  0  2  0  0  0  0  0  0  0  0  0
   -1.2582   -1.3322   -1.6332 C   0  0  0  0  0  0  0  0  0  0  0  0
   -1.5523   -2.5235   -1.5572 O   0  0  0  0  0  0  0  0  0  0  0  0
   -1.0129   -0.7671    0.8397 C   0  0  0  0  0  0  0  0  0  0  0  0
   -0.0757   -0.2894    1.9566 C   0  0  0  0  0  0  0  0  0  0  0  0
   -0.7068   -0.4995    3.3350 C   0  0  0  0  0  0  0  0  0  0  0  0
    0.2150   -0.0022    4.4388 C   0  0  0  0  0  0  0  0  0  0  0  0
   -0.4458   -0.2032    5.7508 N   0  3  0  0  0  0  0  0  0  0  0  0
   -0.6336    1.4811   -0.2948 H   0  0  0  0  0  0  0  0  0  0  0  0
    0.5802   -1.0233   -0.5910 H   0  0  0  0  0  0  0  0  0  0  0  0
   -1.9531   -0.2039    0.9018 H   0  0  0  0  0  0  0  0  0  0  0  0
   -1.2649   -1.8203    1.0151 H   0  0  0  0  0  0  0  0  0  0  0  0
    0.8733   -0.8361    1.9085 H   0  0  0  0  0  0  0  0  0  0  0  0
    0.1546    0.7741    1.8236 H   0  0  0  0  0  0  0  0  0  0  0  0
   -0.9214   -1.5654    3.4821 H   0  0  0  0  0  0  0  0  0  0  0  0
   -1.6658    0.0311    3.3846 H   0  0  0  0  0  0  0  0  0  0  0  0
    1.1562   -0.5591    4.4688 H   0  0  0  0  0  0  0  0  0  0  0  0
    0.4226    1.0681    4.3485 H   0  0  0  0  0  0  0  0  0  0  0  0
   -0.0271    0.3976    6.4693 H   0  0  0  0  0  0  0  0  0  0  0  0
   -0.3556   -1.1767    6.0621 H   0  0  0  0  0  0  0  0  0  0  0  0
   -1.4458    0.0195    5.6969 H   0  0  0  0  0  0  0  0  0  0  0  0
   -1.6543   -0.4855   -2.6585 N   0  0  0  0  0  0  0  0  0  0  0  0
   -2.4570   -0.9434   -3.7674 C   0  0  2  0  0  0  0  0  0  0  0  0
   -2.4318    0.1346   -4.8430 C   0  0  0  0  0  0  0  0  0  0  0  0
   -2.1764    1.3133   -4.6054 O   0  0  0  0  0  0  0  0  0  0  0  0
   -3.8829   -1.2432   -3.3318 C   0  0  0  0  0  0  0  0  0  0  0  0
   -1.3699    0.4890   -2.6278 H   0  0  0  0  0  0  0  0  0  0  0  0
   -1.9797   -1.8524   -4.1493 H   0  0  0  0  0  0  0  0  0  0  0  0
   -4.3774   -0.3442   -2.9461 H   0  0  0  0  0  0  0  0  0  0  0  0
   -4.4828   -1.6175   -4.1678 H   0  0  0  0  0  0  0  0  0  0  0  0
   -3.8973   -1.9971   -2.5373 H   0  0  0  0  0  0  0  0  0  0  0  0
   -2.7702   -0.3665   -6.0922 N   0  0  0  0  0  0  0  0  0  0  0  0
   -2.8299    0.4612   -7.2743 C   0  0  0  0  0  0  0  0  0  0  0  0
   -2.9483   -1.3607   -6.2003 H   0  0  0  0  0  0  0  0  0  0  0  0
   -3.8556    0.8347   -7.4095 H   0  0  0  0  0  0  0  0  0  0  0  0
   -2.1419    1.3120   -7.1611 H   0  0  0  0  0  0  0  0  0  0  0  0
   -2.5372   -0.1326   -8.1527 H   0  0  0  0  0  0  0  0  0  0  0  0
  1  3  1  0  0  0  0
  1  7  1  0  0  0  0
  1  2  2  0  0  0  0
 40 41  1  0  0  0  0
 41 49  1  0  0  0  0
 41 42  2  0  0  0  0
  8  9  1  0  0  0  0
  9 17  1  0  0  0  0
  9 10  2  0  0  0  0
 18 19  1  0  0  0  0
 19 39  1  0  0  0  0
 19 20  2  0  0  0  0
 40 43  1  0  0  0  0
  8 11  1  0  0  0  0
 49 50  1  0  0  0  0
 22 23  1  0  0  0  0
 21 22  1  0  0  0  0
 23 24  1  0  0  0  0
 18 21  1  0  0  0  0
 24 25  1  0  0  0  0
 39 40  1  0  0  0  0
  7  8  1  0  0  0  0
 17 18  1  0  0  0  0
  3  4  1  0  0  0  0
  3  5  1  0  0  0  0
  3  6  1  0  0  0  0
 43 46  1  0  0  0  0
 43 47  1  0  0  0  0
 43 48  1  0  0  0  0
 11 14  1  0  0  0  0
 11 15  1  0  0  0  0
 11 16  1  0  0  0  0
 50 52  1  0  0  0  0
 50 53  1  0  0  0  0
 50 54  1  0  0  0  0
 22 30  1  0  0  0  0
 22 31  1  0  0  0  0
 23 32  1  0  0  0  0
 23 33  1  0  0  0  0
 21 28  1  0  0  0  0
 21 29  1  0  0  0  0
 24 34  1  0  0  0  0
 24 35  1  0  0  0  0
 40 45  1  0  0  0  0
  8 13  1  0  0  0  0
 18 27  1  0  0  0  0
 49 51  1  0  0  0  0
  7 12  1  0  0  0  0
 39 44  1  0  0  0  0
 17 26  1  0  0  0  0
 25 36  1  0  0  0  0
 25 37  1  0  0  0  0
 25 38  1  0  0  0  0
M  CHG  1  25   1
M  END
$$$$

  -OEChem-05262214473D

 54 53  0     1  0  0  0  0  0999 V2000
    2.6714    2.8829   -3.0005 C   0  0  0  0  0  0  0  0  0  0  0  0
    3.1741    2.4398   -1.9745 O   0  0  0  0  0  0  0  0  0  0  0  0
    3.5527    3.3077   -4.1279 C   0  0  0  0  0  0  0  0  0  0  0  0
    3.8407    4.3691   -4.0597 H   0  0  0  0  0  0  0  0  0  0  0  0
    4.5024    2.7495   -4.1526 H   0  0  0  0  0  0  0  0  0  0  0  0
    3.1208    3.1887   -5.1345 H   0  0  0  0  0  0  0  0  0  0  0  0
    1.3174    3.0407   -3.2467 N   0  0  0  0  0  0  0  0  0  0  0  0
    0.2944    2.6927   -2.2960 C   0  0  2  0  0  0  0  0  0  0  0  0
    0.2976    1.1783   -2.1349 C   0  0  0  0  0  0  0  0  0  0  0  0
    0.7500    0.4142   -2.9850 O   0  0  0  0  0  0  0  0  0  0  0  0
   -1.0710    3.1886   -2.7460 C   0  0  0  0  0  0  0  0  0  0  0  0
    1.0312    3.4224   -4.1464 H   0  0  0  0  0  0  0  0  0  0  0  0
    0.5725    3.1622   -1.3461 H   0  0  0  0  0  0  0  0  0  0  0  0
   -1.3666    2.7292   -3.6963 H   0  0  0  0  0  0  0  0  0  0  0  0
   -1.8434    2.9482   -2.0082 H   0  0  0  0  0  0  0  0  0  0  0  0
   -1.0632    4.2744   -2.8901 H   0  0  0  0  0  0  0  0  0  0  0  0
   -0.3037    0.7742   -0.9484 N   0  0  0  0  0  0  0  0  0  0  0  0
   -0.4352   -0.6095   -0.5718 C   0  0  2  0  0  0  0  0  0  0  0  0
   -1.2582   -1.3322   -1.6332 C   0  0  0  0  0  0  0  0  0  0  0  0
   -1.7785   -2.4302   -1.4453 O   0  0  0  0  0  0  0  0  0  0  0  0
   -1.0129   -0.7671    0.8397 C   0  0  0  0  0  0  0  0  0  0  0  0
   -0.0757   -0.2894    1.9566 C   0  0  0  0  0  0  0  0  0  0  0  0
   -0.7068   -0.4995    3.3350 C   0  0  0  0  0  0  0  0  0  0  0  0
    0.2150   -0.0022    4.4388 C   0  0  0  0  0  0  0  0  0  0  0  0
   -0.4458   -0.2032    5.7508 N   0  3  0  0  0  0  0  0  0  0  0  0
   -0.6336    1.4811   -0.2948 H   0  0  0  0  0  0  0  0  0  0  0  0
    0.5802   -1.0233   -0.5910 H   0  0  0  0  0  0  0  0  0  0  0  0
   -1.9531   -0.2039    0.9018 H   0  0  0  0  0  0  0  0  0  0  0  0
   -1.2649   -1.8203    1.0151 H   0  0  0  0  0  0  0  0  0  0  0  0
    0.8733   -0.8361    1.9085 H   0  0  0  0  0  0  0  0  0  0  0  0
    0.1546    0.7741    1.8236 H   0  0  0  0  0  0  0  0  0  0  0  0
   -0.9214   -1.5654    3.4821 H   0  0  0  0  0  0  0  0  0  0  0  0
   -1.6658    0.0311    3.3846 H   0  0  0  0  0  0  0  0  0  0  0  0
    1.1562   -0.5591    4.4688 H   0  0  0  0  0  0  0  0  0  0  0  0
    0.4226    1.0681    4.3485 H   0  0  0  0  0  0  0  0  0  0  0  0
   -0.0271    0.3976    6.4693 H   0  0  0  0  0  0  0  0  0  0  0  0
   -0.3556   -1.1767    6.0621 H   0  0  0  0  0  0  0  0  0  0  0  0
   -1.4458    0.0195    5.6969 H   0  0  0  0  0  0  0  0  0  0  0  0
   -1.3722   -0.5947   -2.8029 N   0  0  0  0  0  0  0  0  0  0  0  0
   -2.1202   -1.0702   -3.9422 C   0  0  2  0  0  0  0  0  0  0  0  0
   -1.7739   -0.1874   -5.1339 C   0  0  0  0  0  0  0  0  0  0  0  0
   -1.3282    0.9523   -5.0173 O   0  0  0  0  0  0  0  0  0  0  0  0
   -3.6161   -1.0520   -3.6688 C   0  0  0  0  0  0  0  0  0  0  0  0
   -0.9141    0.3100   -2.8594 H   0  0  0  0  0  0  0  0  0  0  0  0
   -1.7841   -2.0947   -4.1360 H   0  0  0  0  0  0  0  0  0  0  0  0
   -3.9712   -0.0338   -3.4724 H   0  0  0  0  0  0  0  0  0  0  0  0
   -4.1804   -1.4397   -4.5234 H   0  0  0  0  0  0  0  0  0  0  0  0
   -3.8598   -1.6636   -2.7934 H   0  0  0  0  0  0  0  0  0  0  0  0
   -2.0615   -0.8057   -6.3426 N   0  0  0  0  0  0  0  0  0  0  0  0
   -1.8336   -0.1680   -7.6183 C   0  0  0  0  0  0  0  0  0  0  0  0
   -2.4112   -1.7594   -6.3453 H   0  0  0  0  0  0  0  0  0  0  0  0
   -2.7492    0.3511   -7.9381 H   0  0  0  0  0  0  0  0  0  0  0  0
   -1.0141    0.5595   -7.5232 H   0  0  0  0  0  0  0  0  0  0  0  0
   -1.5636   -0.9289   -8.3654 H   0  0  0  0  0  0  0  0  0  0  0  0
  1  3  1  0  0  0  0
  1  7  1  0  0  0  0
  1  2  2  0  0  0  0
 40 41  1  0  0  0  0
 41 49  1  0  0  0  0
 41 42  2  0  0  0  0
  8  9  1  0  0  0  0
  9 17  1  0  0  0  0
  9 10  2  0  0  0  0
 18 19  1  0  0  0  0
 19 39  1  0  0  0  0
 19 20  2  0  0  0  0
 40 43  1  0  0  0  0
  8 11  1  0  0  0  0
 49 50  1  0  0  0  0
 22 23  1  0  0  0  0
 21 22  1  0  0  0  0
 23 24  1  0  0  0  0
 18 21  1  0  0  0  0
 24 25  1  0  0  0  0
 39 40  1  0  0  0  0
  7  8  1  0  0  0  0
 17 18  1  0  0  0  0
  3  4  1  0  0  0  0
  3  5  1  0  0  0  0
  3  6  1  0  0  0  0
 43 46  1  0  0  0  0
 43 47  1  0  0  0  0
 43 48  1  0  0  0  0
 11 14  1  0  0  0  0
 11 15  1  0  0  0  0
 11 16  1  0  0  0  0
 50 52  1  0  0  0  0
 50 53  1  0  0  0  0
 50 54  1  0  0  0  0
 22 30  1  0  0  0  0
 22 31  1  0  0  0  0
 23 32  1  0  0  0  0
 23 33  1  0  0  0  0
 21 28  1  0  0  0  0
 21 29  1  0  0  0  0
 24 34  1  0  0  0  0
 24 35  1  0  0  0  0
 40 45  1  0  0  0  0
  8 13  1  0  0  0  0
 18 27  1  0  0  0  0
 49 51  1  0  0  0  0
  7 12  1  0  0  0  0
 39 44  1  0  0  0  0
 17 26  1  0  0  0  0
 25 36  1  0  0  0  0
 25 37  1  0  0  0  0
 25 38  1  0  0  0  0
M  CHG  1  25   1
M  END
$$$$

  -OEChem-05262214473D

 54 53  0     1  0  0  0  0  0999 V2000
    2.6714    2.8829   -3.0005 C   0  0  0  0  0  0  0  0  0  0  0  0
    3.1741    2.4398   -1.9745 O   0  0  0  0  0  0  0  0  0  0  0  0
    3.5527    3.3077   -4.1279 C   0  0  0  0  0  0  0  0  0  0  0  0
    3.8407    4.3691   -4.0597 H   0  0  0  0  0  0  0  0  0  0  0  0
    4.5024    2.7495   -4.1526 H   0  0  0  0  0  0  0  0  0  0  0  0
    3.1208    3.1887   -5.1345 H   0  0  0  0  0  0  0  0  0  0  0  0
    1.3174    3.0407   -3.2467 N   0  0  0  0  0  0  0  0  0  0  0  0
    0.2944    2.6927   -2.2960 C   0  0  2  0  0  0  0  0  0  0  0  0
    0.2976    1.1783   -2.1349 C   0  0  0  0  0  0  0  0  0  0  0  0
    0.7500    0.4142   -2.9850 O   0  0  0  0  0  0  0  0  0  0  0  0
   -1.0710    3.1886   -2.7460 C   0  0  0  0  0  0  0  0  0  0  0  0
    1.0312    3.4224   -4.1464 H   0  0  0  0  0  0  0  0  0  0  0  0
    0.5725    3.1622   -1.3461 H   0  0  0  0  0  0  0  0  0  0  0  0
   -1.3666    2.7292   -3.6963 H   0  0  0  0  0  0  0  0  0  0  0  0
   -1.8434    2.9482   -2.0082 H   0  0  0  0  0  0  0  0  0  0  0  0
   -1.0632    4.2744   -2.8901 H   0  0  0  0  0  0  0  0  0  0  0  0
   -0.3037    0.7742   -0.9484 N   0  0  0  0  0  0  0  0  0  0  0  0
   -0.4352   -0.6095   -0.5718 C   0  0  2  0  0  0  0  0  0  0  0  0
   -1.2582   -1.3322   -1.6332 C   0  0  0  0  0  0  0  0  0  0  0  0
   -1.9939   -2.2836   -1.3781 O   0  0  0  0  0  0  0  0  0  0  0  0
   -1.0129   -0.7671    0.8397 C   0  0  0  0  0  0  0  0  0  0  0  0
   -0.0757   -0.2894    1.9566 C   0  0  0  0  0  0  0  0  0  0  0  0
   -0.7068   -0.4995    3.3350 C   0  0  0  0  0  0  0  0  0  0  0  0
    0.2150   -0.0022    4.4388 C   0  0  0  0  0  0  0  0  0  0  0  0
   -0.4458   -0.2032    5.7508 N   0  3  0  0  0  0  0  0  0  0  0  0
   -0.6336    1.4811   -0.2948 H   0  0  0  0  0  0  0  0  0  0  0  0
    0.5802   -1.0233   -0.5910 H   0  0  0  0  0  0  0  0  0  0  0  0
   -1.9531   -0.2039    0.9018 H   0  0  0  0  0  0  0  0  0  0  0  0
   -1.2649   -1.8203    1.0151 H   0  0  0  0  0  0  0  0  0  0  0  0
    0.8733   -0.8361    1.9085 H   0  0  0  0  0  0  0  0  0  0  0  0
    0.1546    0.7741    1.8236 H   0  0  0  0  0  0  0  0  0  0  0  0
   -0.9214   -1.5654    3.4821 H   0  0  0  0  0  0  0  0  0  0  0  0
   -1.6658    0.0311    3.3846 H   0  0  0  0  0  0  0  0  0  0  0  0
    1.1562   -0.5591    4.4688 H   0  0  0  0  0  0  0  0  0  0  0  0
    0.4226    1.0681    4.3485 H   0  0  0  0  0  0  0  0  0  0  0  0
   -0.0271    0.3976    6.4693 H   0  0  0  0  0  0  0  0  0  0  0  0
   -0.3556   -1.1767    6.0621 H   0  0  0  0  0  0  0  0  0  0  0  0
   -1.4458    0.0195    5.6969 H   0  0  0  0  0  0  0  0  0  0  0  0
   -1.1018   -0.7712   -2.8925 N   0  0  0  0  0  0  0  0  0  0  0  0
   -1.7963   -1.2778   -4.0521 C   0  0  2  0  0  0  0  0  0  0  0  0
   -1.1607   -0.6575   -5.2893 C   0  0  0  0  0  0  0  0  0  0  0  0
   -0.5234    0.3933   -5.2607 O   0  0  0  0  0  0  0  0  0  0  0  0
   -3.2826   -0.9624   -3.9884 C   0  0  0  0  0  0  0  0  0  0  0  0
   -0.4776    0.0226   -3.0021 H   0  0  0  0  0  0  0  0  0  0  0  0
   -1.6405   -2.3620   -4.0654 H   0  0  0  0  0  0  0  0  0  0  0  0
   -3.4585    0.1194   -3.9743 H   0  0  0  0  0  0  0  0  0  0  0  0
   -3.8126   -1.3721   -4.8546 H   0  0  0  0  0  0  0  0  0  0  0  0
   -3.7321   -1.3840   -3.0828 H   0  0  0  0  0  0  0  0  0  0  0  0
   -1.4254   -1.3926   -6.4363 N   0  0  0  0  0  0  0  0  0  0  0  0
   -0.9424   -1.0033   -7.7406 C   0  0  0  0  0  0  0  0  0  0  0  0
   -1.9464   -2.2615   -6.3637 H   0  0  0  0  0  0  0  0  0  0  0  0
   -1.7028   -0.3892   -8.2454 H   0  0  0  0  0  0  0  0  0  0  0  0
   -0.0158   -0.4211   -7.6296 H   0  0  0  0  0  0  0  0  0  0  0  0
   -0.7406   -1.9030   -8.3403 H   0  0  0  0  0  0  0  0  0  0  0  0
  1  3  1  0  0  0  0
  1  7  1  0  0  0  0
  1  2  2  0  0  0  0
 40 41  1  0  0  0  0
 41 49  1  0  0  0  0
 41 42  2  0  0  0  0
  8  9  1  0  0  0  0
  9 17  1  0  0  0  0
  9 10  2  0  0  0  0
 18 19  1  0  0  0  0
 19 39  1  0  0  0  0
 19 20  2  0  0  0  0
 40 43  1  0  0  0  0
  8 11  1  0  0  0  0
 49 50  1  0  0  0  0
 22 23  1  0  0  0  0
 21 22  1  0  0  0  0
 23 24  1  0  0  0  0
 18 21  1  0  0  0  0
 24 25  1  0  0  0  0
 39 40  1  0  0  0  0
  7  8  1  0  0  0  0
 17 18  1  0  0  0  0
  3  4  1  0  0  0  0
  3  5  1  0  0  0  0
  3  6  1  0  0  0  0
 43 46  1  0  0  0  0
 43 47  1  0  0  0  0
 43 48  1  0  0  0  0
 11 14  1  0  0  0  0
 11 15  1  0  0  0  0
 11 16  1  0  0  0  0
 50 52  1  0  0  0  0
 50 53  1  0  0  0  0
 50 54  1  0  0  0  0
 22 30  1  0  0  0  0
 22 31  1  0  0  0  0
 23 32  1  0  0  0  0
 23 33  1  0  0  0  0
 21 28  1  0  0  0  0
 21 29  1  0  0  0  0
 24 34  1  0  0  0  0
 24 35  1  0  0  0  0
 40 45  1  0  0  0  0
  8 13  1  0  0  0  0
 18 27  1  0  0  0  0
 49 51  1  0  0  0  0
  7 12  1  0  0  0  0
 39 44  1  0  0  0  0
 17 26  1  0  0  0  0
 25 36  1  0  0  0  0
 25 37  1  0  0  0  0
 25 38  1  0  0  0  0
M  CHG  1  25   1
M  END
$$$$

  -OEChem-05262214473D

 54 53  0     1  0  0  0  0  0999 V2000
    2.6714    2.8829   -3.0005 C   0  0  0  0  0  0  0  0  0  0  0  0
    3.1741    2.4398   -1.9745 O   0  0  0  0  0  0  0  0  0  0  0  0
    3.5527    3.3077   -4.1279 C   0  0  0  0  0  0  0  0  0  0  0  0
    3.8407    4.3691   -4.0597 H   0  0  0  0  0  0  0  0  0  0  0  0
    4.5024    2.7495   -4.1526 H   0  0  0  0  0  0  0  0  0  0  0  0
    3.1208    3.1887   -5.1345 H   0  0  0  0  0  0  0  0  0  0  0  0
    1.3174    3.0407   -3.2467 N   0  0  0  0  0  0  0  0  0  0  0  0
    0.2944    2.6927   -2.2960 C   0  0  2  0  0  0  0  0  0  0  0  0
    0.2976    1.1783   -2.1349 C   0  0  0  0  0  0  0  0  0  0  0  0
    0.7500    0.4142   -2.9850 O   0  0  0  0  0  0  0  0  0  0  0  0
   -1.0710    3.1886   -2.7460 C   0  0  0  0  0  0  0  0  0  0  0  0
    1.0312    3.4224   -4.1464 H   0  0  0  0  0  0  0  0  0  0  0  0
    0.5725    3.1622   -1.3461 H   0  0  0  0  0  0  0  0  0  0  0  0
   -1.3666    2.7292   -3.6963 H   0  0  0  0  0  0  0  0  0  0  0  0
   -1.8434    2.9482   -2.0082 H   0  0  0  0  0  0  0  0  0  0  0  0
   -1.0632    4.2744   -2.8901 H   0  0  0  0  0  0  0  0  0  0  0  0
   -0.3037    0.7742   -0.9484 N   0  0  0  0  0  0  0  0  0  0  0  0
   -0.4352   -0.6095   -0.5718 C   0  0  2  0  0  0  0  0  0  0  0  0
   -1.2582   -1.3322   -1.6332 C   0  0  0  0  0  0  0  0  0  0  0  0
   -2.1838   -2.0939   -1.3600 O   0  0  0  0  0  0  0  0  0  0  0  0
   -1.0129   -0.7671    0.8397 C   0  0  0  0  0  0  0  0  0  0  0  0
   -0.0757   -0.2894    1.9566 C   0  0  0  0  0  0  0  0  0  0  0  0
   -0.7068   -0.4995    3.3350 C   0  0  0  0  0  0  0  0  0  0  0  0
    0.2150   -0.0022    4.4388 C   0  0  0  0  0  0  0  0  0  0  0  0
   -0.4458   -0.2032    5.7508 N   0  3  0  0  0  0  0  0  0  0  0  0
   -0.6336    1.4811   -0.2948 H   0  0  0  0  0  0  0  0  0  0  0  0
    0.5802   -1.0233   -0.5910 H   0  0  0  0  0  0  0  0  0  0  0  0
   -1.9531   -0.2039    0.9018 H   0  0  0  0  0  0  0  0  0  0  0  0
   -1.2649   -1.8203    1.0151 H   0  0  0  0  0  0  0  0  0  0  0  0
    0.8733   -0.8361    1.9085 H   0  0  0  0  0  0  0  0  0  0  0  0
    0.1546    0.7741    1.8236 H   0  0  0  0  0  0  0  0  0  0  0  0
   -0.9214   -1.5654    3.4821 H   0  0  0  0  0  0  0  0  0  0  0  0
   -1.6658    0.0311    3.3846 H   0  0  0  0  0  0  0  0  0  0  0  0
    1.1562   -0.5591    4.4688 H   0  0  0  0  0  0  0  0  0  0  0  0
    0.4226    1.0681    4.3485 H   0  0  0  0  0  0  0  0  0  0  0  0
   -0.0271    0.3976    6.4693 H   0  0  0  0  0  0  0  0  0  0  0  0
   -0.3556   -1.1767    6.0621 H   0  0  0  0  0  0  0  0  0  0  0  0
   -1.4458    0.0195    5.6969 H   0  0  0  0  0  0  0  0  0  0  0  0
   -0.8613   -1.0028   -2.9212 N   0  0  0  0  0  0  0  0  0  0  0  0
   -1.5073   -1.5520   -4.0894 C   0  0  2  0  0  0  0  0  0  0  0  0
   -0.6340   -1.2437   -5.2985 C   0  0  0  0  0  0  0  0  0  0  0  0
    0.1832   -0.3256   -5.3190 O   0  0  0  0  0  0  0  0  0  0  0  0
   -2.9052   -0.9806   -4.2687 C   0  0  0  0  0  0  0  0  0  0  0  0
   -0.0903   -0.3536   -3.0463 H   0  0  0  0  0  0  0  0  0  0  0  0
   -1.5585   -2.6363   -3.9422 H   0  0  0  0  0  0  0  0  0  0  0  0
   -2.8741    0.1049   -4.4176 H   0  0  0  0  0  0  0  0  0  0  0  0
   -3.4046   -1.4193   -5.1388 H   0  0  0  0  0  0  0  0  0  0  0  0
   -3.5229   -1.1774   -3.3858 H   0  0  0  0  0  0  0  0  0  0  0  0
   -0.9051   -2.0871   -6.3668 N   0  0  0  0  0  0  0  0  0  0  0  0
   -0.2171   -1.9876   -7.6327 C   0  0  0  0  0  0  0  0  0  0  0  0
   -1.5856   -2.8328   -6.2545 H   0  0  0  0  0  0  0  0  0  0  0  0
   -0.7877   -1.3357   -8.3105 H   0  0  0  0  0  0  0  0  0  0  0  0
    0.7850   -1.5629   -7.4729 H   0  0  0  0  0  0  0  0  0  0  0  0
   -0.1241   -2.9887   -8.0790 H   0  0  0  0  0  0  0  0  0  0  0  0
  1  3  1  0  0  0  0
  1  7  1  0  0  0  0
  1  2  2  0  0  0  0
 40 41  1  0  0  0  0
 41 49  1  0  0  0  0
 41 42  2  0  0  0  0
  8  9  1  0  0  0  0
  9 17  1  0  0  0  0
  9 10  2  0  0  0  0
 18 19  1  0  0  0  0
 19 39  1  0  0  0  0
 19 20  2  0  0  0  0
 40 43  1  0  0  0  0
  8 11  1  0  0  0  0
 49 50  1  0  0  0  0
 22 23  1  0  0  0  0
 21 22  1  0  0  0  0
 23 24  1  0  0  0  0
 18 21  1  0  0  0  0
 24 25  1  0  0  0  0
 39 40  1  0  0  0  0
  7  8  1  0  0  0  0
 17 18  1  0  0  0  0
  3  4  1  0  0  0  0
  3  5  1  0  0  0  0
  3  6  1  0  0  0  0
 43 46  1  0  0  0  0
 43 47  1  0  0  0  0
 43 48  1  0  0  0  0
 11 14  1  0  0  0  0
 11 15  1  0  0  0  0
 11 16  1  0  0  0  0
 50 52  1  0  0  0  0
 50 53  1  0  0  0  0
 50 54  1  0  0  0  0
 22 30  1  0  0  0  0
 22 31  1  0  0  0  0
 23 32  1  0  0  0  0
 23 33  1  0  0  0  0
 21 28  1  0  0  0  0
 21 29  1  0  0  0  0
 24 34  1  0  0  0  0
 24 35  1  0  0  0  0
 40 45  1  0  0  0  0
  8 13  1  0  0  0  0
 18 27  1  0  0  0  0
 49 51  1  0  0  0  0
  7 12  1  0  0  0  0
 39 44  1  0  0  0  0
 17 26  1  0  0  0  0
 25 36  1  0  0  0  0
 25 37  1  0  0  0  0
 25 38  1  0  0  0  0
M  CHG  1  25   1
M  END
$$$$

  -OEChem-05262214473D

 54 53  0     1  0  0  0  0  0999 V2000
    2.6714    2.8829   -3.0005 C   0  0  0  0  0  0  0  0  0  0  0  0
    3.1741    2.4398   -1.9745 O   0  0  0  0  0  0  0  0  0  0  0  0
    3.5527    3.3077   -4.1279 C   0  0  0  0  0  0  0  0  0  0  0  0
    3.8407    4.3691   -4.0597 H   0  0  0  0  0  0  0  0  0  0  0  0
    4.5024    2.7495   -4.1526 H   0  0  0  0  0  0  0  0  0  0  0  0
    3.1208    3.1887   -5.1345 H   0  0  0  0  0  0  0  0  0  0  0  0
    1.3174    3.0407   -3.2467 N   0  0  0  0  0  0  0  0  0  0  0  0
    0.2944    2.6927   -2.2960 C   0  0  2  0  0  0  0  0  0  0  0  0
    0.2976    1.1783   -2.1349 C   0  0  0  0  0  0  0  0  0  0  0  0
    0.7500    0.4142   -2.9850 O   0  0  0  0  0  0  0  0  0  0  0  0
   -1.0710    3.1886   -2.7460 C   0  0  0  0  0  0  0  0  0  0  0  0
    1.0312    3.4224   -4.1464 H   0  0  0  0  0  0  0  0  0  0  0  0
    0.5725    3.1622   -1.3461 H   0  0  0  0  0  0  0  0  0  0  0  0
   -1.3666    2.7292   -3.6963 H   0  0  0  0  0  0  0  0  0  0  0  0
   -1.8434    2.9482   -2.0082 H   0  0  0  0  0  0  0  0  0  0  0  0
   -1.0632    4.2744   -2.8901 H   0  0  0  0  0  0  0  0  0  0  0  0
   -0.3037    0.7742   -0.9484 N   0  0  0  0  0  0  0  0  0  0  0  0
   -0.4352   -0.6095   -0.5718 C   0  0  2  0  0  0  0  0  0  0  0  0
   -1.2582   -1.3322   -1.6332 C   0  0  0  0  0  0  0  0  0  0  0  0
   -2.3353   -1.8739   -1.3924 O   0  0  0  0  0  0  0  0  0  0  0  0
   -1.0129   -0.7671    0.8397 C   0  0  0  0  0  0  0  0  0  0  0  0
   -0.0757   -0.2894    1.9566 C   0  0  0  0  0  0  0  0  0  0  0  0
   -0.7068   -0.4995    3.3350 C   0  0  0  0  0  0  0  0  0  0  0  0
    0.2150   -0.0022    4.4388 C   0  0  0  0  0  0  0  0  0  0  0  0
   -0.4458   -0.2032    5.7508 N   0  3  0  0  0  0  0  0  0  0  0  0
   -0.6336    1.4811   -0.2948 H   0  0  0  0  0  0  0  0  0  0  0  0
    0.5802   -1.0233   -0.5910 H   0  0  0  0  0  0  0  0  0  0  0  0
   -1.9531   -0.2039    0.9018 H   0  0  0  0  0  0  0  0  0  0  0  0
   -1.2649   -1.8203    1.0151 H   0  0  0  0  0  0  0  0  0  0  0  0
    0.8733   -0.8361    1.9085 H   0  0  0  0  0  0  0  0  0  0  0  0
    0.1546    0.7741    1.8236 H   0  0  0  0  0  0  0  0  0  0  0  0
   -0.9214   -1.5654    3.4821 H   0  0  0  0  0  0  0  0  0  0  0  0
   -1.6658    0.0311    3.3846 H   0  0  0  0  0  0  0  0  0  0  0  0
    1.1562   -0.5591    4.4688 H   0  0  0  0  0  0  0  0  0  0  0  0
    0.4226    1.0681    4.3485 H   0  0  0  0  0  0  0  0  0  0  0  0
   -0.0271    0.3976    6.4693 H   0  0  0  0  0  0  0  0  0  0  0  0
   -0.3556   -1.1767    6.0621 H   0  0  0  0  0  0  0  0  0  0  0  0
   -1.4458    0.0195    5.6969 H   0  0  0  0  0  0  0  0  0  0  0  0
   -0.6672   -1.2739   -2.8871 N   0  0  0  0  0  0  0  0  0  0  0  0
   -1.2730   -1.8741   -4.0518 C   0  0  2  0  0  0  0  0  0  0  0  0
   -0.2298   -1.9061   -5.1609 C   0  0  0  0  0  0  0  0  0  0  0  0
    0.7433   -1.1554   -5.1883 O   0  0  0  0  0  0  0  0  0  0  0  0
   -2.5095   -1.1052   -4.4906 C   0  0  0  0  0  0  0  0  0  0  0  0
    0.2215   -0.7928   -2.9890 H   0  0  0  0  0  0  0  0  0  0  0  0
   -1.5439   -2.8988   -3.7748 H   0  0  0  0  0  0  0  0  0  0  0  0
   -2.2578   -0.0762   -4.7720 H   0  0  0  0  0  0  0  0  0  0  0  0
   -2.9841   -1.5781   -5.3567 H   0  0  0  0  0  0  0  0  0  0  0  0
   -3.2464   -1.0578   -3.6816 H   0  0  0  0  0  0  0  0  0  0  0  0
   -0.5362   -2.8419   -6.1388 N   0  0  0  0  0  0  0  0  0  0  0  0
    0.2930   -3.0541   -7.3021 C   0  0  0  0  0  0  0  0  0  0  0  0
   -1.3534   -3.4344   -6.0249 H   0  0  0  0  0  0  0  0  0  0  0  0
   -0.0662   -2.4238   -8.1290 H   0  0  0  0  0  0  0  0  0  0  0  0
    1.3335   -2.7882   -7.0639 H   0  0  0  0  0  0  0  0  0  0  0  0
    0.2438   -4.1120   -7.5994 H   0  0  0  0  0  0  0  0  0  0  0  0
  1  3  1  0  0  0  0
  1  7  1  0  0  0  0
  1  2  2  0  0  0  0
 40 41  1  0  0  0  0
 41 49  1  0  0  0  0
 41 42  2  0  0  0  0
  8  9  1  0  0  0  0
  9 17  1  0  0  0  0
  9 10  2  0  0  0  0
 18 19  1  0  0  0  0
 19 39  1  0  0  0  0
 19 20  2  0  0  0  0
 40 43  1  0  0  0  0
  8 11  1  0  0  0  0
 49 50  1  0  0  0  0
 22 23  1  0  0  0  0
 21 22  1  0  0  0  0
 23 24  1  0  0  0  0
 18 21  1  0  0  0  0
 24 25  1  0  0  0  0
 39 40  1  0  0  0  0
  7  8  1  0  0  0  0
 17 18  1  0  0  0  0
  3  4  1  0  0  0  0
  3  5  1  0  0  0  0
  3  6  1  0  0  0  0
 43 46  1  0  0  0  0
 43 47  1  0  0  0  0
 43 48  1  0  0  0  0
 11 14  1  0  0  0  0
 11 15  1  0  0  0  0
 11 16  1  0  0  0  0
 50 52  1  0  0  0  0
 50 53  1  0  0  0  0
 50 54  1  0  0  0  0
 22 30  1  0  0  0  0
 22 31  1  0  0  0  0
 23 32  1  0  0  0  0
 23 33  1  0  0  0  0
 21 28  1  0  0  0  0
 21 29  1  0  0  0  0
 24 34  1  0  0  0  0
 24 35  1  0  0  0  0
 40 45  1  0  0  0  0
  8 13  1  0  0  0  0
 18 27  1  0  0  0  0
 49 51  1  0  0  0  0
  7 12  1  0  0  0  0
 39 44  1  0  0  0  0
 17 26  1  0  0  0  0
 25 36  1  0  0  0  0
 25 37  1  0  0  0  0
 25 38  1  0  0  0  0
M  CHG  1  25   1
M  END
$$$$

  -OEChem-05262214473D

 54 53  0     1  0  0  0  0  0999 V2000
    2.6714    2.8829   -3.0005 C   0  0  0  0  0  0  0  0  0  0  0  0
    3.1741    2.4398   -1.9745 O   0  0  0  0  0  0  0  0  0  0  0  0
    3.5527    3.3077   -4.1279 C   0  0  0  0  0  0  0  0  0  0  0  0
    3.8407    4.3691   -4.0597 H   0  0  0  0  0  0  0  0  0  0  0  0
    4.5024    2.7495   -4.1526 H   0  0  0  0  0  0  0  0  0  0  0  0
    3.1208    3.1887   -5.1345 H   0  0  0  0  0  0  0  0  0  0  0  0
    1.3174    3.0407   -3.2467 N   0  0  0  0  0  0  0  0  0  0  0  0
    0.2944    2.6927   -2.2960 C   0  0  2  0  0  0  0  0  0  0  0  0
    0.2976    1.1783   -2.1349 C   0  0  0  0  0  0  0  0  0  0  0  0
    0.7500    0.4142   -2.9850 O   0  0  0  0  0  0  0  0  0  0  0  0
   -1.0710    3.1886   -2.7460 C   0  0  0  0  0  0  0  0  0  0  0  0
    1.0312    3.4224   -4.1464 H   0  0  0  0  0  0  0  0  0  0  0  0
    0.5725    3.1622   -1.3461 H   0  0  0  0  0  0  0  0  0  0  0  0
   -1.3666    2.7292   -3.6963 H   0  0  0  0  0  0  0  0  0  0  0  0
   -1.8434    2.9482   -2.0082 H   0  0  0  0  0  0  0  0  0  0  0  0
   -1.0632    4.2744   -2.8901 H   0  0  0  0  0  0  0  0  0  0  0  0
   -0.3037    0.7742   -0.9484 N   0  0  0  0  0  0  0  0  0  0  0  0
   -0.4352   -0.6095   -0.5718 C   0  0  2  0  0  0  0  0  0  0  0  0
   -1.2582   -1.3322   -1.6332 C   0  0  0  0  0  0  0  0  0  0  0  0
   -2.4380   -1.6386   -1.4729 O   0  0  0  0  0  0  0  0  0  0  0  0
   -1.0129   -0.7671    0.8397 C   0  0  0  0  0  0  0  0  0  0  0  0
   -0.0757   -0.2894    1.9566 C   0  0  0  0  0  0  0  0  0  0  0  0
   -0.7068   -0.4995    3.3350 C   0  0  0  0  0  0  0  0  0  0  0  0
    0.2150   -0.0022    4.4388 C   0  0  0  0  0  0  0  0  0  0  0  0
   -0.4458   -0.2032    5.7508 N   0  3  0  0  0  0  0  0  0  0  0  0
   -0.6336    1.4811   -0.2948 H   0  0  0  0  0  0  0  0  0  0  0  0
    0.5802   -1.0233   -0.5910 H   0  0  0  0  0  0  0  0  0  0  0  0
   -1.9531   -0.2039    0.9018 H   0  0  0  0  0  0  0  0  0  0  0  0
   -1.2649   -1.8203    1.0151 H   0  0  0  0  0  0  0  0  0  0  0  0
    0.8733   -0.8361    1.9085 H   0  0  0  0  0  0  0  0  0  0  0  0
    0.1546    0.7741    1.8236 H   0  0  0  0  0  0  0  0  0  0  0  0
   -0.9214   -1.5654    3.4821 H   0  0  0  0  0  0  0  0  0  0  0  0
   -1.6658    0.0311    3.3846 H   0  0  0  0  0  0  0  0  0  0  0  0
    1.1562   -0.5591    4.4688 H   0  0  0  0  0  0  0  0  0  0  0  0
    0.4226    1.0681    4.3485 H   0  0  0  0  0  0  0  0  0  0  0  0
   -0.0271    0.3976    6.4693 H   0  0  0  0  0  0  0  0  0  0  0  0
   -0.3556   -1.1767    6.0621 H   0  0  0  0  0  0  0  0  0  0  0  0
   -1.4458    0.0195    5.6969 H   0  0  0  0  0  0  0  0  0  0  0  0
   -0.5327   -1.5660   -2.7925 N   0  0  0  0  0  0  0  0  0  0  0  0
   -1.1093   -2.2222   -3.9417 C   0  0  2  0  0  0  0  0  0  0  0  0
    0.0245   -2.5995   -4.8859 C   0  0  0  0  0  0  0  0  0  0  0  0
    1.1189   -2.0396   -4.8775 O   0  0  0  0  0  0  0  0  0  0  0  0
   -2.1226   -1.3279   -4.6390 C   0  0  0  0  0  0  0  0  0  0  0  0
    0.4366   -1.2653   -2.8340 H   0  0  0  0  0  0  0  0  0  0  0  0
   -1.5976   -3.1316   -3.5747 H   0  0  0  0  0  0  0  0  0  0  0  0
   -1.6517   -0.4117   -5.0136 H   0  0  0  0  0  0  0  0  0  0  0  0
   -2.5799   -1.8376   -5.4935 H   0  0  0  0  0  0  0  0  0  0  0  0
   -2.9216   -1.0333   -3.9501 H   0  0  0  0  0  0  0  0  0  0  0  0
   -0.3438   -3.6057   -5.7680 N   0  0  0  0  0  0  0  0  0  0  0  0
    0.5532   -4.1299   -6.7713 C   0  0  0  0  0  0  0  0  0  0  0  0
   -1.2656   -4.0252   -5.6906 H   0  0  0  0  0  0  0  0  0  0  0  0
    0.4124   -3.5795   -7.7132 H   0  0  0  0  0  0  0  0  0  0  0  0
    1.5925   -4.0135   -6.4305 H   0  0  0  0  0  0  0  0  0  0  0  0
    0.3380   -5.1962   -6.9342 H   0  0  0  0  0  0  0  0  0  0  0  0
  1  3  1  0  0  0  0
  1  7  1  0  0  0  0
  1  2  2  0  0  0  0
 40 41  1  0  0  0  0
 41 49  1  0  0  0  0
 41 42  2  0  0  0  0
  8  9  1  0  0  0  0
  9 17  1  0  0  0  0
  9 10  2  0  0  0  0
 18 19  1  0  0  0  0
 19 39  1  0  0  0  0
 19 20  2  0  0  0  0
 40 43  1  0  0  0  0
  8 11  1  0  0  0  0
 49 50  1  0  0  0  0
 22 23  1  0  0  0  0
 21 22  1  0  0  0  0
 23 24  1  0  0  0  0
 18 21  1  0  0  0  0
 24 25  1  0  0  0  0
 39 40  1  0  0  0  0
  7  8  1  0  0  0  0
 17 18  1  0  0  0  0
  3  4  1  0  0  0  0
  3  5  1  0  0  0  0
  3  6  1  0  0  0  0
 43 46  1  0  0  0  0
 43 47  1  0  0  0  0
 43 48  1  0  0  0  0
 11 14  1  0  0  0  0
 11 15  1  0  0  0  0
 11 16  1  0  0  0  0
 50 52  1  0  0  0  0
 50 53  1  0  0  0  0
 50 54  1  0  0  0  0
 22 30  1  0  0  0  0
 22 31  1  0  0  0  0
 23 32  1  0  0  0  0
 23 33  1  0  0  0  0
 21 28  1  0  0  0  0
 21 29  1  0  0  0  0
 24 34  1  0  0  0  0
 24 35  1  0  0  0  0
 40 45  1  0  0  0  0
  8 13  1  0  0  0  0
 18 27  1  0  0  0  0
 49 51  1  0  0  0  0
  7 12  1  0  0  0  0
 39 44  1  0  0  0  0
 17 26  1  0  0  0  0
 25 36  1  0  0  0  0
 25 37  1  0  0  0  0
 25 38  1  0  0  0  0
M  CHG  1  25   1
M  END
$$$$

  -OEChem-05262214473D

 54 53  0     1  0  0  0  0  0999 V2000
    2.6714    2.8829   -3.0005 C   0  0  0  0  0  0  0  0  0  0  0  0
    3.1741    2.4398   -1.9745 O   0  0  0  0  0  0  0  0  0  0  0  0
    3.5527    3.3077   -4.1279 C   0  0  0  0  0  0  0  0  0  0  0  0
    3.8407    4.3691   -4.0597 H   0  0  0  0  0  0  0  0  0  0  0  0
    4.5024    2.7495   -4.1526 H   0  0  0  0  0  0  0  0  0  0  0  0
    3.1208    3.1887   -5.1345 H   0  0  0  0  0  0  0  0  0  0  0  0
    1.3174    3.0407   -3.2467 N   0  0  0  0  0  0  0  0  0  0  0  0
    0.2944    2.6927   -2.2960 C   0  0  2  0  0  0  0  0  0  0  0  0
    0.2976    1.1783   -2.1349 C   0  0  0  0  0  0  0  0  0  0  0  0
    0.7500    0.4142   -2.9850 O   0  0  0  0  0  0  0  0  0  0  0  0
   -1.0710    3.1886   -2.7460 C   0  0  0  0  0  0  0  0  0  0  0  0
    1.0312    3.4224   -4.1464 H   0  0  0  0  0  0  0  0  0  0  0  0
    0.5725    3.1622   -1.3461 H   0  0  0  0  0  0  0  0  0  0  0  0
   -1.3666    2.7292   -3.6963 H   0  0  0  0  0  0  0  0  0  0  0  0
   -1.8434    2.9482   -2.0082 H   0  0  0  0  0  0  0  0  0  0  0  0
   -1.0632    4.2744   -2.8901 H   0  0  0  0  0  0  0  0  0  0  0  0
   -0.3037    0.7742   -0.9484 N   0  0  0  0  0  0  0  0  0  0  0  0
   -0.4352   -0.6095   -0.5718 C   0  0  2  0  0  0  0  0  0  0  0  0
   -1.2582   -1.3322   -1.6332 C   0  0  0  0  0  0  0  0  0  0  0  0
   -2.4850   -1.4041   -1.5962 O   0  0  0  0  0  0  0  0  0  0  0  0
   -1.0129   -0.7671    0.8397 C   0  0  0  0  0  0  0  0  0  0  0  0
   -0.0757   -0.2894    1.9566 C   0  0  0  0  0  0  0  0  0  0  0  0
   -0.7068   -0.4995    3.3350 C   0  0  0  0  0  0  0  0  0  0  0  0
    0.2150   -0.0022    4.4388 C   0  0  0  0  0  0  0  0  0  0  0  0
   -0.4458   -0.2032    5.7508 N   0  3  0  0  0  0  0  0  0  0  0  0
   -0.6336    1.4811   -0.2948 H   0  0  0  0  0  0  0  0  0  0  0  0
    0.5802   -1.0233   -0.5910 H   0  0  0  0  0  0  0  0  0  0  0  0
   -1.9531   -0.2039    0.9018 H   0  0  0  0  0  0  0  0  0  0  0  0
   -1.2649   -1.8203    1.0151 H   0  0  0  0  0  0  0  0  0  0  0  0
    0.8733   -0.8361    1.9085 H   0  0  0  0  0  0  0  0  0  0  0  0
    0.1546    0.7741    1.8236 H   0  0  0  0  0  0  0  0  0  0  0  0
   -0.9214   -1.5654    3.4821 H   0  0  0  0  0  0  0  0  0  0  0  0
   -1.6658    0.0311    3.3846 H   0  0  0  0  0  0  0  0  0  0  0  0
    1.1562   -0.5591    4.4688 H   0  0  0  0  0  0  0  0  0  0  0  0
    0.4226    1.0681    4.3485 H   0  0  0  0  0  0  0  0  0  0  0  0
   -0.0271    0.3976    6.4693 H   0  0  0  0  0  0  0  0  0  0  0  0
   -0.3556   -1.1767    6.0621 H   0  0  0  0  0  0  0  0  0  0  0  0
   -1.4458    0.0195    5.6969 H   0  0  0  0  0  0  0  0  0  0  0  0
   -0.4670   -1.8591   -2.6439 N   0  0  0  0  0  0  0  0  0  0  0  0
   -1.0274   -2.5726   -3.7666 C   0  0  2  0  0  0  0  0  0  0  0  0
    0.1116   -3.2767   -4.4923 C   0  0  0  0  0  0  0  0  0  0  0  0
    1.2842   -2.9179   -4.4077 O   0  0  0  0  0  0  0  0  0  0  0  0
   -1.7707   -1.6334   -4.7038 C   0  0  0  0  0  0  0  0  0  0  0  0
    0.5402   -1.7387   -2.5920 H   0  0  0  0  0  0  0  0  0  0  0  0
   -1.7159   -3.3188   -3.3554 H   0  0  0  0  0  0  0  0  0  0  0  0
   -1.0971   -0.8786   -5.1257 H   0  0  0  0  0  0  0  0  0  0  0  0
   -2.2193   -2.1802   -5.5397 H   0  0  0  0  0  0  0  0  0  0  0  0
   -2.5705   -1.1057   -4.1731 H   0  0  0  0  0  0  0  0  0  0  0  0
   -0.3410   -4.3262   -5.2795 N   0  0  0  0  0  0  0  0  0  0  0  0
    0.5455   -5.1417   -6.0764 C   0  0  0  0  0  0  0  0  0  0  0  0
   -1.3283   -4.5650   -5.2745 H   0  0  0  0  0  0  0  0  0  0  0  0
    0.6156   -4.7239   -7.0915 H   0  0  0  0  0  0  0  0  0  0  0  0
    1.5444   -5.1551   -5.6158 H   0  0  0  0  0  0  0  0  0  0  0  0
    0.1521   -6.1676   -6.1286 H   0  0  0  0  0  0  0  0  0  0  0  0
  1  3  1  0  0  0  0
  1  7  1  0  0  0  0
  1  2  2  0  0  0  0
 40 41  1  0  0  0  0
 41 49  1  0  0  0  0
 41 42  2  0  0  0  0
  8  9  1  0  0  0  0
  9 17  1  0  0  0  0
  9 10  2  0  0  0  0
 18 19  1  0  0  0  0
 19 39  1  0  0  0  0
 19 20  2  0  0  0  0
 40 43  1  0  0  0  0
  8 11  1  0  0  0  0
 49 50  1  0  0  0  0
 22 23  1  0  0  0  0
 21 22  1  0  0  0  0
 23 24  1  0  0  0  0
 18 21  1  0  0  0  0
 24 25  1  0  0  0  0
 39 40  1  0  0  0  0
  7  8  1  0  0  0  0
 17 18  1  0  0  0  0
  3  4  1  0  0  0  0
  3  5  1  0  0  0  0
  3  6  1  0  0  0  0
 43 46  1  0  0  0  0
 43 47  1  0  0  0  0
 43 48  1  0  0  0  0
 11 14  1  0  0  0  0
 11 15  1  0  0  0  0
 11 16  1  0  0  0  0
 50 52  1  0  0  0  0
 50 53  1  0  0  0  0
 50 54  1  0  0  0  0
 22 30  1  0  0  0  0
 22 31  1  0  0  0  0
 23 32  1  0  0  0  0
 23 33  1  0  0  0  0
 21 28  1  0  0  0  0
 21 29  1  0  0  0  0
 24 34  1  0  0  0  0
 24 35  1  0  0  0  0
 40 45  1  0  0  0  0
  8 13  1  0  0  0  0
 18 27  1  0  0  0  0
 49 51  1  0  0  0  0
  7 12  1  0  0  0  0
 39 44  1  0  0  0  0
 17 26  1  0  0  0  0
 25 36  1  0  0  0  0
 25 37  1  0  0  0  0
 25 38  1  0  0  0  0
M  CHG  1  25   1
M  END
$$$$

  -OEChem-05262214473D

 54 53  0     1  0  0  0  0  0999 V2000
    2.6714    2.8829   -3.0005 C   0  0  0  0  0  0  0  0  0  0  0  0
    3.1741    2.4398   -1.9745 O   0  0  0  0  0  0  0  0  0  0  0  0
    3.5527    3.3077   -4.1279 C   0  0  0  0  0  0  0  0  0  0  0  0
    3.8407    4.3691   -4.0597 H   0  0  0  0  0  0  0  0  0  0  0  0
    4.5024    2.7495   -4.1526 H   0  0  0  0  0  0  0  0  0  0  0  0
    3.1208    3.1887   -5.1345 H   0  0  0  0  0  0  0  0  0  0  0  0
    1.3174    3.0407   -3.2467 N   0  0  0  0  0  0  0  0  0  0  0  0
    0.2944    2.6927   -2.2960 C   0  0  2  0  0  0  0  0  0  0  0  0
    0.2976    1.1783   -2.1349 C   0  0  0  0  0  0  0  0  0  0  0  0
    0.7500    0.4142   -2.9850 O   0  0  0  0  0  0  0  0  0  0  0  0
   -1.0710    3.1886   -2.7460 C   0  0  0  0  0  0  0  0  0  0  0  0
    1.0312    3.4224   -4.1464 H   0  0  0  0  0  0  0  0  0  0  0  0
    0.5725    3.1622   -1.3461 H   0  0  0  0  0  0  0  0  0  0  0  0
   -1.3666    2.7292   -3.6963 H   0  0  0  0  0  0  0  0  0  0  0  0
   -1.8434    2.9482   -2.0082 H   0  0  0  0  0  0  0  0  0  0  0  0
   -1.0632    4.2744   -2.8901 H   0  0  0  0  0  0  0  0  0  0  0  0
   -0.3037    0.7742   -0.9484 N   0  0  0  0  0  0  0  0  0  0  0  0
   -0.4352   -0.6095   -0.5718 C   0  0  2  0  0  0  0  0  0  0  0  0
   -1.2582   -1.3322   -1.6332 C   0  0  0  0  0  0  0  0  0  0  0  0
   -2.4730   -1.1864   -1.7537 O   0  0  0  0  0  0  0  0  0  0  0  0
   -1.0129   -0.7671    0.8397 C   0  0  0  0  0  0  0  0  0  0  0  0
   -0.0757   -0.2894    1.9566 C   0  0  0  0  0  0  0  0  0  0  0  0
   -0.7068   -0.4995    3.3350 C   0  0  0  0  0  0  0  0  0  0  0  0
    0.2150   -0.0022    4.4388 C   0  0  0  0  0  0  0  0  0  0  0  0
   -0.4458   -0.2032    5.7508 N   0  3  0  0  0  0  0  0  0  0  0  0
   -0.6336    1.4811   -0.2948 H   0  0  0  0  0  0  0  0  0  0  0  0
    0.5802   -1.0233   -0.5910 H   0  0  0  0  0  0  0  0  0  0  0  0
   -1.9531   -0.2039    0.9018 H   0  0  0  0  0  0  0  0  0  0  0  0
   -1.2649   -1.8203    1.0151 H   0  0  0  0  0  0  0  0  0  0  0  0
    0.8733   -0.8361    1.9085 H   0  0  0  0  0  0  0  0  0  0  0  0
    0.1546    0.7741    1.8236 H   0  0  0  0  0  0  0  0  0  0  0  0
   -0.9214   -1.5654    3.4821 H   0  0  0  0  0  0  0  0  0  0  0  0
   -1.6658    0.0311    3.3846 H   0  0  0  0  0  0  0  0  0  0  0  0
    1.1562   -0.5591    4.4688 H   0  0  0  0  0  0  0  0  0  0  0  0
    0.4226    1.0681    4.3485 H   0  0  0  0  0  0  0  0  0  0  0  0
   -0.0271    0.3976    6.4693 H   0  0  0  0  0  0  0  0  0  0  0  0
   -0.3556   -1.1767    6.0621 H   0  0  0  0  0  0  0  0  0  0  0  0
   -1.4458    0.0195    5.6969 H   0  0  0  0  0  0  0  0  0  0  0  0
   -0.4746   -2.1333   -2.4513 N   0  0  0  0  0  0  0  0  0  0  0  0
   -1.0328   -2.9013   -3.5386 C   0  0  2  0  0  0  0  0  0  0  0  0
    0.0254   -3.8915   -4.0068 C   0  0  0  0  0  0  0  0  0  0  0  0
    1.2282   -3.7304   -3.8109 O   0  0  0  0  0  0  0  0  0  0  0  0
   -1.4779   -2.0010   -4.6806 C   0  0  0  0  0  0  0  0  0  0  0  0
    0.5253   -2.1809   -2.2793 H   0  0  0  0  0  0  0  0  0  0  0  0
   -1.8908   -3.4477   -3.1320 H   0  0  0  0  0  0  0  0  0  0  0  0
   -0.6317   -1.4452   -5.1007 H   0  0  0  0  0  0  0  0  0  0  0  0
   -1.9271   -2.5826   -5.4924 H   0  0  0  0  0  0  0  0  0  0  0  0
   -2.2170   -1.2700   -4.3353 H   0  0  0  0  0  0  0  0  0  0  0  0
   -0.5280   -4.9545   -4.7067 N   0  0  0  0  0  0  0  0  0  0  0  0
    0.2707   -6.0207   -5.2648 C   0  0  0  0  0  0  0  0  0  0  0  0
   -1.5370   -5.0170   -4.8048 H   0  0  0  0  0  0  0  0  0  0  0  0
    0.5295   -5.7791   -6.3062 H   0  0  0  0  0  0  0  0  0  0  0  0
    1.1923   -6.1354   -4.6753 H   0  0  0  0  0  0  0  0  0  0  0  0
   -0.3012   -6.9599   -5.2376 H   0  0  0  0  0  0  0  0  0  0  0  0
  1  3  1  0  0  0  0
  1  7  1  0  0  0  0
  1  2  2  0  0  0  0
 40 41  1  0  0  0  0
 41 49  1  0  0  0  0
 41 42  2  0  0  0  0
  8  9  1  0  0  0  0
  9 17  1  0  0  0  0
  9 10  2  0  0  0  0
 18 19  1  0  0  0  0
 19 39  1  0  0  0  0
 19 20  2  0  0  0  0
 40 43  1  0  0  0  0
  8 11  1  0  0  0  0
 49 50  1  0  0  0  0
 22 23  1  0  0  0  0
 21 22  1  0  0  0  0
 23 24  1  0  0  0  0
 18 21  1  0  0  0  0
 24 25  1  0  0  0  0
 39 40  1  0  0  0  0
  7  8  1  0  0  0  0
 17 18  1  0  0  0  0
  3  4  1  0  0  0  0
  3  5  1  0  0  0  0
  3  6  1  0  0  0  0
 43 46  1  0  0  0  0
 43 47  1  0  0  0  0
 43 48  1  0  0  0  0
 11 14  1  0  0  0  0
 11 15  1  0  0  0  0
 11 16  1  0  0  0  0
 50 52  1  0  0  0  0
 50 53  1  0  0  0  0
 50 54  1  0  0  0  0
 22 30  1  0  0  0  0
 22 31  1  0  0  0  0
 23 32  1  0  0  0  0
 23 33  1  0  0  0  0
 21 28  1  0  0  0  0
 21 29  1  0  0  0  0
 24 34  1  0  0  0  0
 24 35  1  0  0  0  0
 40 45  1  0  0  0  0
  8 13  1  0  0  0  0
 18 27  1  0  0  0  0
 49 51  1  0  0  0  0
  7 12  1  0  0  0  0
 39 44  1  0  0  0  0
 17 26  1  0  0  0  0
 25 36  1  0  0  0  0
 25 37  1  0  0  0  0
 25 38  1  0  0  0  0
M  CHG  1  25   1
M  END
$$$$

  -OEChem-05262214473D

 54 53  0     1  0  0  0  0  0999 V2000
    2.6714    2.8829   -3.0005 C   0  0  0  0  0  0  0  0  0  0  0  0
    3.1741    2.4398   -1.9745 O   0  0  0  0  0  0  0  0  0  0  0  0
    3.5527    3.3077   -4.1279 C   0  0  0  0  0  0  0  0  0  0  0  0
    3.8407    4.3691   -4.0597 H   0  0  0  0  0  0  0  0  0  0  0  0
    4.5024    2.7495   -4.1526 H   0  0  0  0  0  0  0  0  0  0  0  0
    3.1208    3.1887   -5.1345 H   0  0  0  0  0  0  0  0  0  0  0  0
    1.3174    3.0407   -3.2467 N   0  0  0  0  0  0  0  0  0  0  0  0
    0.2944    2.6927   -2.2960 C   0  0  2  0  0  0  0  0  0  0  0  0
    0.2976    1.1783   -2.1349 C   0  0  0  0  0  0  0  0  0  0  0  0
    0.7500    0.4142   -2.9850 O   0  0  0  0  0  0  0  0  0  0  0  0
   -1.0710    3.1886   -2.7460 C   0  0  0  0  0  0  0  0  0  0  0  0
    1.0312    3.4224   -4.1464 H   0  0  0  0  0  0  0  0  0  0  0  0
    0.5725    3.1622   -1.3461 H   0  0  0  0  0  0  0  0  0  0  0  0
   -1.3666    2.7292   -3.6963 H   0  0  0  0  0  0  0  0  0  0  0  0
   -1.8434    2.9482   -2.0082 H   0  0  0  0  0  0  0  0  0  0  0  0
   -1.0632    4.2744   -2.8901 H   0  0  0  0  0  0  0  0  0  0  0  0
   -0.3037    0.7742   -0.9484 N   0  0  0  0  0  0  0  0  0  0  0  0
   -0.4352   -0.6095   -0.5718 C   0  0  2  0  0  0  0  0  0  0  0  0
   -1.2582   -1.3322   -1.6332 C   0  0  0  0  0  0  0  0  0  0  0  0
   -2.4029   -1.0002   -1.9349 O   0  0  0  0  0  0  0  0  0  0  0  0
   -1.0129   -0.7671    0.8397 C   0  0  0  0  0  0  0  0  0  0  0  0
   -0.0757   -0.2894    1.9566 C   0  0  0  0  0  0  0  0  0  0  0  0
   -0.7068   -0.4995    3.3350 C   0  0  0  0  0  0  0  0  0  0  0  0
    0.2150   -0.0022    4.4388 C   0  0  0  0  0  0  0  0  0  0  0  0
   -0.4458   -0.2032    5.7508 N   0  3  0  0  0  0  0  0  0  0  0  0
   -0.6336    1.4811   -0.2948 H   0  0  0  0  0  0  0  0  0  0  0  0
    0.5802   -1.0233   -0.5910 H   0  0  0  0  0  0  0  0  0  0  0  0
   -1.9531   -0.2039    0.9018 H   0  0  0  0  0  0  0  0  0  0  0  0
   -1.2649   -1.8203    1.0151 H   0  0  0  0  0  0  0  0  0  0  0  0
    0.8733   -0.8361    1.9085 H   0  0  0  0  0  0  0  0  0  0  0  0
    0.1546    0.7741    1.8236 H   0  0  0  0  0  0  0  0  0  0  0  0
   -0.9214   -1.5654    3.4821 H   0  0  0  0  0  0  0  0  0  0  0  0
   -1.6658    0.0311    3.3846 H   0  0  0  0  0  0  0  0  0  0  0  0
    1.1562   -0.5591    4.4688 H   0  0  0  0  0  0  0  0  0  0  0  0
    0.4226    1.0681    4.3485 H   0  0  0  0  0  0  0  0  0  0  0  0
   -0.0271    0.3976    6.4693 H   0  0  0  0  0  0  0  0  0  0  0  0
   -0.3556   -1.1767    6.0621 H   0  0  0  0  0  0  0  0  0  0  0  0
   -1.4458    0.0195    5.6969 H   0  0  0  0  0  0  0  0  0  0  0  0
   -0.5549   -2.3699   -2.2279 N   0  0  0  0  0  0  0  0  0  0  0  0
   -1.1252   -3.1860   -3.2731 C   0  0  2  0  0  0  0  0  0  0  0  0
   -0.2282   -4.4020   -3.4626 C   0  0  0  0  0  0  0  0  0  0  0  0
    0.9545   -4.4218   -3.1279 O   0  0  0  0  0  0  0  0  0  0  0  0
   -1.2641   -2.4055   -4.5709 C   0  0  0  0  0  0  0  0  0  0  0  0
    0.3929   -2.5617   -1.9174 H   0  0  0  0  0  0  0  0  0  0  0  0
   -2.1103   -3.5096   -2.9197 H   0  0  0  0  0  0  0  0  0  0  0  0
   -0.2873   -2.0729   -4.9404 H   0  0  0  0  0  0  0  0  0  0  0  0
   -1.7231   -3.0172   -5.3546 H   0  0  0  0  0  0  0  0  0  0  0  0
   -1.8853   -1.5151   -4.4256 H   0  0  0  0  0  0  0  0  0  0  0  0
   -0.8920   -5.4478   -4.0886 N   0  0  0  0  0  0  0  0  0  0  0  0
   -0.2526   -6.7068   -4.3918 C   0  0  0  0  0  0  0  0  0  0  0  0
   -1.8777   -5.3505   -4.3137 H   0  0  0  0  0  0  0  0  0  0  0  0
    0.1600   -6.6732   -5.4109 H   0  0  0  0  0  0  0  0  0  0  0  0
    0.5603   -6.8876   -3.6731 H   0  0  0  0  0  0  0  0  0  0  0  0
   -0.9911   -7.5191   -4.3220 H   0  0  0  0  0  0  0  0  0  0  0  0
  1  3  1  0  0  0  0
  1  7  1  0  0  0  0
  1  2  2  0  0  0  0
 40 41  1  0  0  0  0
 41 49  1  0  0  0  0
 41 42  2  0  0  0  0
  8  9  1  0  0  0  0
  9 17  1  0  0  0  0
  9 10  2  0  0  0  0
 18 19  1  0  0  0  0
 19 39  1  0  0  0  0
 19 20  2  0  0  0  0
 40 43  1  0  0  0  0
  8 11  1  0  0  0  0
 49 50  1  0  0  0  0
 22 23  1  0  0  0  0
 21 22  1  0  0  0  0
 23 24  1  0  0  0  0
 18 21  1  0  0  0  0
 24 25  1  0  0  0  0
 39 40  1  0  0  0  0
  7  8  1  0  0  0  0
 17 18  1  0  0  0  0
  3  4  1  0  0  0  0
  3  5  1  0  0  0  0
  3  6  1  0  0  0  0
 43 46  1  0  0  0  0
 43 47  1  0  0  0  0
 43 48  1  0  0  0  0
 11 14  1  0  0  0  0
 11 15  1  0  0  0  0
 11 16  1  0  0  0  0
 50 52  1  0  0  0  0
 50 53  1  0  0  0  0
 50 54  1  0  0  0  0
 22 30  1  0  0  0  0
 22 31  1  0  0  0  0
 23 32  1  0  0  0  0
 23 33  1  0  0  0  0
 21 28  1  0  0  0  0
 21 29  1  0  0  0  0
 24 34  1  0  0  0  0
 24 35  1  0  0  0  0
 40 45  1  0  0  0  0
  8 13  1  0  0  0  0
 18 27  1  0  0  0  0
 49 51  1  0  0  0  0
  7 12  1  0  0  0  0
 39 44  1  0  0  0  0
 17 26  1  0  0  0  0
 25 36  1  0  0  0  0
 25 37  1  0  0  0  0
 25 38  1  0  0  0  0
M  CHG  1  25   1
M  END
$$$$

  -OEChem-05262214473D

 54 53  0     1  0  0  0  0  0999 V2000
    2.6714    2.8829   -3.0005 C   0  0  0  0  0  0  0  0  0  0  0  0
    3.1741    2.4398   -1.9745 O   0  0  0  0  0  0  0  0  0  0  0  0
    3.5527    3.3077   -4.1279 C   0  0  0  0  0  0  0  0  0  0  0  0
    3.8407    4.3691   -4.0597 H   0  0  0  0  0  0  0  0  0  0  0  0
    4.5024    2.7495   -4.1526 H   0  0  0  0  0  0  0  0  0  0  0  0
    3.1208    3.1887   -5.1345 H   0  0  0  0  0  0  0  0  0  0  0  0
    1.3174    3.0407   -3.2467 N   0  0  0  0  0  0  0  0  0  0  0  0
    0.2944    2.6927   -2.2960 C   0  0  2  0  0  0  0  0  0  0  0  0
    0.2976    1.1783   -2.1349 C   0  0  0  0  0  0  0  0  0  0  0  0
    0.7500    0.4142   -2.9850 O   0  0  0  0  0  0  0  0  0  0  0  0
   -1.0710    3.1886   -2.7460 C   0  0  0  0  0  0  0  0  0  0  0  0
    1.0312    3.4224   -4.1464 H   0  0  0  0  0  0  0  0  0  0  0  0
    0.5725    3.1622   -1.3461 H   0  0  0  0  0  0  0  0  0  0  0  0
   -1.3666    2.7292   -3.6963 H   0  0  0  0  0  0  0  0  0  0  0  0
   -1.8434    2.9482   -2.0082 H   0  0  0  0  0  0  0  0  0  0  0  0
   -1.0632    4.2744   -2.8901 H   0  0  0  0  0  0  0  0  0  0  0  0
   -0.3037    0.7742   -0.9484 N   0  0  0  0  0  0  0  0  0  0  0  0
   -0.4352   -0.6095   -0.5718 C   0  0  2  0  0  0  0  0  0  0  0  0
   -1.2582   -1.3322   -1.6332 C   0  0  0  0  0  0  0  0  0  0  0  0
   -2.2794   -0.8583   -2.1272 O   0  0  0  0  0  0  0  0  0  0  0  0
   -1.0129   -0.7671    0.8397 C   0  0  0  0  0  0  0  0  0  0  0  0
   -0.0757   -0.2894    1.9566 C   0  0  0  0  0  0  0  0  0  0  0  0
   -0.7068   -0.4995    3.3350 C   0  0  0  0  0  0  0  0  0  0  0  0
    0.2150   -0.0022    4.4388 C   0  0  0  0  0  0  0  0  0  0  0  0
   -0.4458   -0.2032    5.7508 N   0  3  0  0  0  0  0  0  0  0  0  0
   -0.6336    1.4811   -0.2948 H   0  0  0  0  0  0  0  0  0  0  0  0
    0.5802   -1.0233   -0.5910 H   0  0  0  0  0  0  0  0  0  0  0  0
   -1.9531   -0.2039    0.9018 H   0  0  0  0  0  0  0  0  0  0  0  0
   -1.2649   -1.8203    1.0151 H   0  0  0  0  0  0  0  0  0  0  0  0
    0.8733   -0.8361    1.9085 H   0  0  0  0  0  0  0  0  0  0  0  0
    0.1546    0.7741    1.8236 H   0  0  0  0  0  0  0  0  0  0  0  0
   -0.9214   -1.5654    3.4821 H   0  0  0  0  0  0  0  0  0  0  0  0
   -1.6658    0.0311    3.3846 H   0  0  0  0  0  0  0  0  0  0  0  0
    1.1562   -0.5591    4.4688 H   0  0  0  0  0  0  0  0  0  0  0  0
    0.4226    1.0681    4.3485 H   0  0  0  0  0  0  0  0  0  0  0  0
   -0.0271    0.3976    6.4693 H   0  0  0  0  0  0  0  0  0  0  0  0
   -0.3556   -1.1767    6.0621 H   0  0  0  0  0  0  0  0  0  0  0  0
   -1.4458    0.0195    5.6969 H   0  0  0  0  0  0  0  0  0  0  0  0
   -0.7025   -2.5527   -1.9889 N   0  0  0  0  0  0  0  0  0  0  0  0
   -1.2984   -3.4072   -2.9882 C   0  0  2  0  0  0  0  0  0  0  0  0
   -0.6318   -4.7735   -2.8967 C   0  0  0  0  0  0  0  0  0  0  0  0
    0.4818   -4.9450   -2.4052 O   0  0  0  0  0  0  0  0  0  0  0  0
   -1.1440   -2.8194   -4.3822 C   0  0  0  0  0  0  0  0  0  0  0  0
    0.1521   -2.8551   -1.5309 H   0  0  0  0  0  0  0  0  0  0  0  0
   -2.3596   -3.5001   -2.7329 H   0  0  0  0  0  0  0  0  0  0  0  0
   -0.0873   -2.7188   -4.6557 H   0  0  0  0  0  0  0  0  0  0  0  0
   -1.6213   -3.4545   -5.1358 H   0  0  0  0  0  0  0  0  0  0  0  0
   -1.5979   -1.8241   -4.4380 H   0  0  0  0  0  0  0  0  0  0  0  0
   -1.4083   -5.7723   -3.4673 N   0  0  0  0  0  0  0  0  0  0  0  0
   -0.9888   -7.1534   -3.5169 C   0  0  0  0  0  0  0  0  0  0  0  0
   -2.3271   -5.5426   -3.8344 H   0  0  0  0  0  0  0  0  0  0  0  0
   -0.4678   -7.3451   -4.4666 H   0  0  0  0  0  0  0  0  0  0  0  0
   -0.3086   -7.3603   -2.6775 H   0  0  0  0  0  0  0  0  0  0  0  0
   -1.8704   -7.8071   -3.4440 H   0  0  0  0  0  0  0  0  0  0  0  0
  1  3  1  0  0  0  0
  1  7  1  0  0  0  0
  1  2  2  0  0  0  0
 40 41  1  0  0  0  0
 41 49  1  0  0  0  0
 41 42  2  0  0  0  0
  8  9  1  0  0  0  0
  9 17  1  0  0  0  0
  9 10  2  0  0  0  0
 18 19  1  0  0  0  0
 19 39  1  0  0  0  0
 19 20  2  0  0  0  0
 40 43  1  0  0  0  0
  8 11  1  0  0  0  0
 49 50  1  0  0  0  0
 22 23  1  0  0  0  0
 21 22  1  0  0  0  0
 23 24  1  0  0  0  0
 18 21  1  0  0  0  0
 24 25  1  0  0  0  0
 39 40  1  0  0  0  0
  7  8  1  0  0  0  0
 17 18  1  0  0  0  0
  3  4  1  0  0  0  0
  3  5  1  0  0  0  0
  3  6  1  0  0  0  0
 43 46  1  0  0  0  0
 43 47  1  0  0  0  0
 43 48  1  0  0  0  0
 11 14  1  0  0  0  0
 11 15  1  0  0  0  0
 11 16  1  0  0  0  0
 50 52  1  0  0  0  0
 50 53  1  0  0  0  0
 50 54  1  0  0  0  0
 22 30  1  0  0  0  0
 22 31  1  0  0  0  0
 23 32  1  0  0  0  0
 23 33  1  0  0  0  0
 21 28  1  0  0  0  0
 21 29  1  0  0  0  0
 24 34  1  0  0  0  0
 24 35  1  0  0  0  0
 40 45  1  0  0  0  0
  8 13  1  0  0  0  0
 18 27  1  0  0  0  0
 49 51  1  0  0  0  0
  7 12  1  0  0  0  0
 39 44  1  0  0  0  0
 17 26  1  0  0  0  0
 25 36  1  0  0  0  0
 25 37  1  0  0  0  0
 25 38  1  0  0  0  0
M  CHG  1  25   1
M  END
$$$$

  -OEChem-05262214473D

 54 53  0     1  0  0  0  0  0999 V2000
    2.6714    2.8829   -3.0005 C   0  0  0  0  0  0  0  0  0  0  0  0
    3.1741    2.4398   -1.9745 O   0  0  0  0  0  0  0  0  0  0  0  0
    3.5527    3.3077   -4.1279 C   0  0  0  0  0  0  0  0  0  0  0  0
    3.8407    4.3691   -4.0597 H   0  0  0  0  0  0  0  0  0  0  0  0
    4.5024    2.7495   -4.1526 H   0  0  0  0  0  0  0  0  0  0  0  0
    3.1208    3.1887   -5.1345 H   0  0  0  0  0  0  0  0  0  0  0  0
    1.3174    3.0407   -3.2467 N   0  0  0  0  0  0  0  0  0  0  0  0
    0.2944    2.6927   -2.2960 C   0  0  2  0  0  0  0  0  0  0  0  0
    0.2976    1.1783   -2.1349 C   0  0  0  0  0  0  0  0  0  0  0  0
    0.7500    0.4142   -2.9850 O   0  0  0  0  0  0  0  0  0  0  0  0
   -1.0710    3.1886   -2.7460 C   0  0  0  0  0  0  0  0  0  0  0  0
    1.0312    3.4224   -4.1464 H   0  0  0  0  0  0  0  0  0  0  0  0
    0.5725    3.1622   -1.3461 H   0  0  0  0  0  0  0  0  0  0  0  0
   -1.3666    2.7292   -3.6963 H   0  0  0  0  0  0  0  0  0  0  0  0
   -1.8434    2.9482   -2.0082 H   0  0  0  0  0  0  0  0  0  0  0  0
   -1.0632    4.2744   -2.8901 H   0  0  0  0  0  0  0  0  0  0  0  0
   -0.3037    0.7742   -0.9484 N   0  0  0  0  0  0  0  0  0  0  0  0
   -0.4352   -0.6095   -0.5718 C   0  0  2  0  0  0  0  0  0  0  0  0
   -1.2582   -1.3322   -1.6332 C   0  0  0  0  0  0  0  0  0  0  0  0
   -2.1110   -0.7703   -2.3177 O   0  0  0  0  0  0  0  0  0  0  0  0
   -1.0129   -0.7671    0.8397 C   0  0  0  0  0  0  0  0  0  0  0  0
   -0.0757   -0.2894    1.9566 C   0  0  0  0  0  0  0  0  0  0  0  0
   -0.7068   -0.4995    3.3350 C   0  0  0  0  0  0  0  0  0  0  0  0
    0.2150   -0.0022    4.4388 C   0  0  0  0  0  0  0  0  0  0  0  0
   -0.4458   -0.2032    5.7508 N   0  3  0  0  0  0  0  0  0  0  0  0
   -0.6336    1.4811   -0.2948 H   0  0  0  0  0  0  0  0  0  0  0  0
    0.5802   -1.0233   -0.5910 H   0  0  0  0  0  0  0  0  0  0  0  0
   -1.9531   -0.2039    0.9018 H   0  0  0  0  0  0  0  0  0  0  0  0
   -1.2649   -1.8203    1.0151 H   0  0  0  0  0  0  0  0  0  0  0  0
    0.8733   -0.8361    1.9085 H   0  0  0  0  0  0  0  0  0  0  0  0
    0.1546    0.7741    1.8236 H   0  0  0  0  0  0  0  0  0  0  0  0
   -0.9214   -1.5654    3.4821 H   0  0  0  0  0  0  0  0  0  0  0  0
   -1.6658    0.0311    3.3846 H   0  0  0  0  0  0  0  0  0  0  0  0
    1.1562   -0.5591    4.4688 H   0  0  0  0  0  0  0  0  0  0  0  0
    0.4226    1.0681    4.3485 H   0  0  0  0  0  0  0  0  0  0  0  0
   -0.0271    0.3976    6.4693 H   0  0  0  0  0  0  0  0  0  0  0  0
   -0.3556   -1.1767    6.0621 H   0  0  0  0  0  0  0  0  0  0  0  0
   -1.4458    0.0195    5.6969 H   0  0  0  0  0  0  0  0  0  0  0  0
   -0.9073   -2.6694   -1.7507 N   0  0  0  0  0  0  0  0  0  0  0  0
   -1.5404   -3.5500   -2.7034 C   0  0  2  0  0  0  0  0  0  0  0  0
   -1.1579   -4.9806   -2.3477 C   0  0  0  0  0  0  0  0  0  0  0  0
   -0.1576   -5.2643   -1.6920 O   0  0  0  0  0  0  0  0  0  0  0  0
   -1.1256   -3.2145   -4.1275 C   0  0  0  0  0  0  0  0  0  0  0  0
   -0.1808   -3.0411   -1.1461 H   0  0  0  0  0  0  0  0  0  0  0  0
   -2.6215   -3.4200   -2.5843 H   0  0  0  0  0  0  0  0  0  0  0  0
   -0.0454   -3.3389   -4.2659 H   0  0  0  0  0  0  0  0  0  0  0  0
   -1.6285   -3.8647   -4.8508 H   0  0  0  0  0  0  0  0  0  0  0  0
   -1.3745   -2.1761   -4.3715 H   0  0  0  0  0  0  0  0  0  0  0  0
   -2.0416   -5.9060   -2.8852 N   0  0  0  0  0  0  0  0  0  0  0  0
   -1.8876   -7.3300   -2.6997 C   0  0  0  0  0  0  0  0  0  0  0  0
   -2.8545   -5.5803   -3.3998 H   0  0  0  0  0  0  0  0  0  0  0  0
   -1.3111   -7.7493   -3.5375 H   0  0  0  0  0  0  0  0  0  0  0  0
   -1.3551   -7.5213   -1.7564 H   0  0  0  0  0  0  0  0  0  0  0  0
   -2.8794   -7.8044   -2.6636 H   0  0  0  0  0  0  0  0  0  0  0  0
  1  3  1  0  0  0  0
  1  7  1  0  0  0  0
  1  2  2  0  0  0  0
 40 41  1  0  0  0  0
 41 49  1  0  0  0  0
 41 42  2  0  0  0  0
  8  9  1  0  0  0  0
  9 17  1  0  0  0  0
  9 10  2  0  0  0  0
 18 19  1  0  0  0  0
 19 39  1  0  0  0  0
 19 20  2  0  0  0  0
 40 43  1  0  0  0  0
  8 11  1  0  0  0  0
 49 50  1  0  0  0  0
 22 23  1  0  0  0  0
 21 22  1  0  0  0  0
 23 24  1  0  0  0  0
 18 21  1  0  0  0  0
 24 25  1  0  0  0  0
 39 40  1  0  0  0  0
  7  8  1  0  0  0  0
 17 18  1  0  0  0  0
  3  4  1  0  0  0  0
  3  5  1  0  0  0  0
  3  6  1  0  0  0  0
 43 46  1  0  0  0  0
 43 47  1  0  0  0  0
 43 48  1  0  0  0  0
 11 14  1  0  0  0  0
 11 15  1  0  0  0  0
 11 16  1  0  0  0  0
 50 52  1  0  0  0  0
 50 53  1  0  0  0  0
 50 54  1  0  0  0  0
 22 30  1  0  0  0  0
 22 31  1  0  0  0  0
 23 32  1  0  0  0  0
 23 33  1  0  0  0  0
 21 28  1  0  0  0  0
 21 29  1  0  0  0  0
 24 34  1  0  0  0  0
 24 35  1  0  0  0  0
 40 45  1  0  0  0  0
  8 13  1  0  0  0  0
 18 27  1  0  0  0  0
 49 51  1  0  0  0  0
  7 12  1  0  0  0  0
 39 44  1  0  0  0  0
 17 26  1  0  0  0  0
 25 36  1  0  0  0  0
 25 37  1  0  0  0  0
 25 38  1  0  0  0  0
M  CHG  1  25   1
M  END
$$$$

  -OEChem-05262214473D

 54 53  0     1  0  0  0  0  0999 V2000
    2.6714    2.8829   -3.0005 C   0  0  0  0  0  0  0  0  0  0  0  0
    3.1741    2.4398   -1.9745 O   0  0  0  0  0  0  0  0  0  0  0  0
    3.5527    3.3077   -4.1279 C   0  0  0  0  0  0  0  0  0  0  0  0
    3.8407    4.3691   -4.0597 H   0  0  0  0  0  0  0  0  0  0  0  0
    4.5024    2.7495   -4.1526 H   0  0  0  0  0  0  0  0  0  0  0  0
    3.1208    3.1887   -5.1345 H   0  0  0  0  0  0  0  0  0  0  0  0
    1.3174    3.0407   -3.2467 N   0  0  0  0  0  0  0  0  0  0  0  0
    0.2944    2.6927   -2.2960 C   0  0  2  0  0  0  0  0  0  0  0  0
    0.2976    1.1783   -2.1349 C   0  0  0  0  0  0  0  0  0  0  0  0
    0.7500    0.4142   -2.9850 O   0  0  0  0  0  0  0  0  0  0  0  0
   -1.0710    3.1886   -2.7460 C   0  0  0  0  0  0  0  0  0  0  0  0
    1.0312    3.4224   -4.1464 H   0  0  0  0  0  0  0  0  0  0  0  0
    0.5725    3.1622   -1.3461 H   0  0  0  0  0  0  0  0  0  0  0  0
   -1.3666    2.7292   -3.6963 H   0  0  0  0  0  0  0  0  0  0  0  0
   -1.8434    2.9482   -2.0082 H   0  0  0  0  0  0  0  0  0  0  0  0
   -1.0632    4.2744   -2.8901 H   0  0  0  0  0  0  0  0  0  0  0  0
   -0.3037    0.7742   -0.9484 N   0  0  0  0  0  0  0  0  0  0  0  0
   -0.4352   -0.6095   -0.5718 C   0  0  2  0  0  0  0  0  0  0  0  0
   -1.2582   -1.3322   -1.6332 C   0  0  0  0  0  0  0  0  0  0  0  0
   -1.9091   -0.7423   -2.4934 O   0  0  0  0  0  0  0  0  0  0  0  0
   -1.0129   -0.7671    0.8397 C   0  0  0  0  0  0  0  0  0  0  0  0
   -0.0757   -0.2894    1.9566 C   0  0  0  0  0  0  0  0  0  0  0  0
   -0.7068   -0.4995    3.3350 C   0  0  0  0  0  0  0  0  0  0  0  0
    0.2150   -0.0022    4.4388 C   0  0  0  0  0  0  0  0  0  0  0  0
   -0.4458   -0.2032    5.7508 N   0  3  0  0  0  0  0  0  0  0  0  0
   -0.6336    1.4811   -0.2948 H   0  0  0  0  0  0  0  0  0  0  0  0
    0.5802   -1.0233   -0.5910 H   0  0  0  0  0  0  0  0  0  0  0  0
   -1.9531   -0.2039    0.9018 H   0  0  0  0  0  0  0  0  0  0  0  0
   -1.2649   -1.8203    1.0151 H   0  0  0  0  0  0  0  0  0  0  0  0
    0.8733   -0.8361    1.9085 H   0  0  0  0  0  0  0  0  0  0  0  0
    0.1546    0.7741    1.8236 H   0  0  0  0  0  0  0  0  0  0  0  0
   -0.9214   -1.5654    3.4821 H   0  0  0  0  0  0  0  0  0  0  0  0
   -1.6658    0.0311    3.3846 H   0  0  0  0  0  0  0  0  0  0  0  0
    1.1562   -0.5591    4.4688 H   0  0  0  0  0  0  0  0  0  0  0  0
    0.4226    1.0681    4.3485 H   0  0  0  0  0  0  0  0  0  0  0  0
   -0.0271    0.3976    6.4693 H   0  0  0  0  0  0  0  0  0  0  0  0
   -0.3556   -1.1767    6.0621 H   0  0  0  0  0  0  0  0  0  0  0  0
   -1.4458    0.0195    5.6969 H   0  0  0  0  0  0  0  0  0  0  0  0
   -1.1554   -2.7119   -1.5294 N   0  0  0  0  0  0  0  0  0  0  0  0
   -1.8348   -3.6045   -2.4379 C   0  0  2  0  0  0  0  0  0  0  0  0
   -1.7708   -5.0092   -1.8530 C   0  0  0  0  0  0  0  0  0  0  0  0
   -0.9202   -5.3579   -1.0369 O   0  0  0  0  0  0  0  0  0  0  0  0
   -1.2102   -3.5639   -3.8239 C   0  0  0  0  0  0  0  0  0  0  0  0
   -0.5830   -3.1071   -0.7893 H   0  0  0  0  0  0  0  0  0  0  0  0
   -2.8784   -3.2746   -2.4841 H   0  0  0  0  0  0  0  0  0  0  0  0
   -0.1644   -3.8910   -3.7977 H   0  0  0  0  0  0  0  0  0  0  0  0
   -1.7444   -4.2198   -4.5192 H   0  0  0  0  0  0  0  0  0  0  0  0
   -1.2302   -2.5471   -4.2308 H   0  0  0  0  0  0  0  0  0  0  0  0
   -2.7488   -5.8398   -2.3819 N   0  0  0  0  0  0  0  0  0  0  0  0
   -2.8878   -7.2246   -1.9959 C   0  0  0  0  0  0  0  0  0  0  0  0
   -3.4240   -5.4610   -3.0394 H   0  0  0  0  0  0  0  0  0  0  0  0
   -2.3124   -7.8580   -2.6871 H   0  0  0  0  0  0  0  0  0  0  0  0
   -2.5079   -7.3598   -0.9725 H   0  0  0  0  0  0  0  0  0  0  0  0
   -3.9492   -7.5109   -2.0339 H   0  0  0  0  0  0  0  0  0  0  0  0
  1  3  1  0  0  0  0
  1  7  1  0  0  0  0
  1  2  2  0  0  0  0
 40 41  1  0  0  0  0
 41 49  1  0  0  0  0
 41 42  2  0  0  0  0
  8  9  1  0  0  0  0
  9 17  1  0  0  0  0
  9 10  2  0  0  0  0
 18 19  1  0  0  0  0
 19 39  1  0  0  0  0
 19 20  2  0  0  0  0
 40 43  1  0  0  0  0
  8 11  1  0  0  0  0
 49 50  1  0  0  0  0
 22 23  1  0  0  0  0
 21 22  1  0  0  0  0
 23 24  1  0  0  0  0
 18 21  1  0  0  0  0
 24 25  1  0  0  0  0
 39 40  1  0  0  0  0
  7  8  1  0  0  0  0
 17 18  1  0  0  0  0
  3  4  1  0  0  0  0
  3  5  1  0  0  0  0
  3  6  1  0  0  0  0
 43 46  1  0  0  0  0
 43 47  1  0  0  0  0
 43 48  1  0  0  0  0
 11 14  1  0  0  0  0
 11 15  1  0  0  0  0
 11 16  1  0  0  0  0
 50 52  1  0  0  0  0
 50 53  1  0  0  0  0
 50 54  1  0  0  0  0
 22 30  1  0  0  0  0
 22 31  1  0  0  0  0
 23 32  1  0  0  0  0
 23 33  1  0  0  0  0
 21 28  1  0  0  0  0
 21 29  1  0  0  0  0
 24 34  1  0  0  0  0
 24 35  1  0  0  0  0
 40 45  1  0  0  0  0
  8 13  1  0  0  0  0
 18 27  1  0  0  0  0
 49 51  1  0  0  0  0
  7 12  1  0  0  0  0
 39 44  1  0  0  0  0
 17 26  1  0  0  0  0
 25 36  1  0  0  0  0
 25 37  1  0  0  0  0
 25 38  1  0  0  0  0
M  CHG  1  25   1
M  END
$$$$

  -OEChem-05262214473D

 54 53  0     1  0  0  0  0  0999 V2000
    2.6714    2.8829   -3.0005 C   0  0  0  0  0  0  0  0  0  0  0  0
    3.1741    2.4398   -1.9745 O   0  0  0  0  0  0  0  0  0  0  0  0
    3.5527    3.3077   -4.1279 C   0  0  0  0  0  0  0  0  0  0  0  0
    3.8407    4.3691   -4.0597 H   0  0  0  0  0  0  0  0  0  0  0  0
    4.5024    2.7495   -4.1526 H   0  0  0  0  0  0  0  0  0  0  0  0
    3.1208    3.1887   -5.1345 H   0  0  0  0  0  0  0  0  0  0  0  0
    1.3174    3.0407   -3.2467 N   0  0  0  0  0  0  0  0  0  0  0  0
    0.2944    2.6927   -2.2960 C   0  0  2  0  0  0  0  0  0  0  0  0
    0.2976    1.1783   -2.1349 C   0  0  0  0  0  0  0  0  0  0  0  0
    0.7500    0.4142   -2.9850 O   0  0  0  0  0  0  0  0  0  0  0  0
   -1.0710    3.1886   -2.7460 C   0  0  0  0  0  0  0  0  0  0  0  0
    1.0312    3.4224   -4.1464 H   0  0  0  0  0  0  0  0  0  0  0  0
    0.5725    3.1622   -1.3461 H   0  0  0  0  0  0  0  0  0  0  0  0
   -1.3666    2.7292   -3.6963 H   0  0  0  0  0  0  0  0  0  0  0  0
   -1.8434    2.9482   -2.0082 H   0  0  0  0  0  0  0  0  0  0  0  0
   -1.0632    4.2744   -2.8901 H   0  0  0  0  0  0  0  0  0  0  0  0
   -0.3037    0.7742   -0.9484 N   0  0  0  0  0  0  0  0  0  0  0  0
   -0.4352   -0.6095   -0.5718 C   0  0  2  0  0  0  0  0  0  0  0  0
   -0.9188   -1.4045   -1.7803 C   0  0  0  0  0  0  0  0  0  0  0  0
   -1.1179   -0.8954   -2.8815 O   0  0  0  0  0  0  0  0  0  0  0  0
   -1.3354   -0.7863    0.6568 C   0  0  0  0  0  0  0  0  0  0  0  0
   -0.7394   -0.2267    1.9552 C   0  0  0  0  0  0  0  0  0  0  0  0
   -1.6795   -0.4601    3.1401 C   0  0  0  0  0  0  0  0  0  0  0  0
   -1.0965    0.1177    4.4213 C   0  0  0  0  0  0  0  0  0  0  0  0
   -2.0492   -0.1096    5.5344 N   0  3  0  0  0  0  0  0  0  0  0  0
   -0.6336    1.4811   -0.2948 H   0  0  0  0  0  0  0  0  0  0  0  0
    0.5775   -0.9508   -0.3253 H   0  0  0  0  0  0  0  0  0  0  0  0
   -2.2957   -0.2900    0.4657 H   0  0  0  0  0  0  0  0  0  0  0  0
   -1.5545   -1.8518    0.7980 H   0  0  0  0  0  0  0  0  0  0  0  0
    0.2248   -0.7056    2.1614 H   0  0  0  0  0  0  0  0  0  0  0  0
   -0.5525    0.8483    1.8492 H   0  0  0  0  0  0  0  0  0  0  0  0
   -1.8546   -1.5361    3.2637 H   0  0  0  0  0  0  0  0  0  0  0  0
   -2.6528    0.0021    2.9333 H   0  0  0  0  0  0  0  0  0  0  0  0
   -0.1585   -0.3707    4.7016 H   0  0  0  0  0  0  0  0  0  0  0  0
   -0.9425    1.1985    4.3509 H   0  0  0  0  0  0  0  0  0  0  0  0
   -1.8628    0.5300    6.3145 H   0  0  0  0  0  0  0  0  0  0  0  0
   -1.9768   -1.0696    5.8895 H   0  0  0  0  0  0  0  0  0  0  0  0
   -3.0165    0.0410    5.2271 H   0  0  0  0  0  0  0  0  0  0  0  0
   -1.0708   -2.7539   -1.4957 N   0  0  0  0  0  0  0  0  0  0  0  0
   -1.5031   -3.7060   -2.4907 C   0  0  2  0  0  0  0  0  0  0  0  0
   -1.8683   -5.0003   -1.7759 C   0  0  0  0  0  0  0  0  0  0  0  0
   -1.4330   -5.2993   -0.6658 O   0  0  0  0  0  0  0  0  0  0  0  0
   -0.4219   -3.9469   -3.5327 C   0  0  0  0  0  0  0  0  0  0  0  0
   -0.8711   -3.0828   -0.5557 H   0  0  0  0  0  0  0  0  0  0  0  0
   -2.3968   -3.2849   -2.9641 H   0  0  0  0  0  0  0  0  0  0  0  0
    0.4814   -4.3687   -3.0770 H   0  0  0  0  0  0  0  0  0  0  0  0
   -0.7618   -4.6475   -4.3025 H   0  0  0  0  0  0  0  0  0  0  0  0
   -0.1394   -3.0101   -4.0250 H   0  0  0  0  0  0  0  0  0  0  0  0
   -2.7031   -5.8019   -2.5418 N   0  0  0  0  0  0  0  0  0  0  0  0
   -3.1801   -7.0877   -2.0889 C   0  0  0  0  0  0  0  0  0  0  0  0
   -3.0297   -5.4658   -3.4430 H   0  0  0  0  0  0  0  0  0  0  0  0
   -2.4971   -7.8764   -2.4374 H   0  0  0  0  0  0  0  0  0  0  0  0
   -3.2205   -7.0972   -0.9897 H   0  0  0  0  0  0  0  0  0  0  0  0
   -4.1865   -7.2689   -2.4943 H   0  0  0  0  0  0  0  0  0  0  0  0
  1  3  1  0  0  0  0
  1  7  1  0  0  0  0
  1  2  2  0  0  0  0
 40 41  1  0  0  0  0
 41 49  1  0  0  0  0
 41 42  2  0  0  0  0
  8  9  1  0  0  0  0
  9 17  1  0  0  0  0
  9 10  2  0  0  0  0
 18 19  1  0  0  0  0
 19 39  1  0  0  0  0
 19 20  2  0  0  0  0
 40 43  1  0  0  0  0
  8 11  1  0  0  0  0
 49 50  1  0  0  0  0
 22 23  1  0  0  0  0
 21 22  1  0  0  0  0
 23 24  1  0  0  0  0
 18 21  1  0  0  0  0
 24 25  1  0  0  0  0
 39 40  1  0  0  0  0
  7  8  1  0  0  0  0
 17 18  1  0  0  0  0
  3  4  1  0  0  0  0
  3  5  1  0  0  0  0
  3  6  1  0  0  0  0
 43 46  1  0  0  0  0
 43 47  1  0  0  0  0
 43 48  1  0  0  0  0
 11 14  1  0  0  0  0
 11 15  1  0  0  0  0
 11 16  1  0  0  0  0
 50 52  1  0  0  0  0
 50 53  1  0  0  0  0
 50 54  1  0  0  0  0
 22 30  1  0  0  0  0
 22 31  1  0  0  0  0
 23 32  1  0  0  0  0
 23 33  1  0  0  0  0
 21 28  1  0  0  0  0
 21 29  1  0  0  0  0
 24 34  1  0  0  0  0
 24 35  1  0  0  0  0
 40 45  1  0  0  0  0
  8 13  1  0  0  0  0
 18 27  1  0  0  0  0
 49 51  1  0  0  0  0
  7 12  1  0  0  0  0
 39 44  1  0  0  0  0
 17 26  1  0  0  0  0
 25 36  1  0  0  0  0
 25 37  1  0  0  0  0
 25 38  1  0  0  0  0
M  CHG  1  25   1
M  END
$$$$

  -OEChem-05262214473D

 54 53  0     1  0  0  0  0  0999 V2000
    2.6714    2.8829   -3.0005 C   0  0  0  0  0  0  0  0  0  0  0  0
    3.1741    2.4398   -1.9745 O   0  0  0  0  0  0  0  0  0  0  0  0
    3.5527    3.3077   -4.1279 C   0  0  0  0  0  0  0  0  0  0  0  0
    3.8407    4.3691   -4.0597 H   0  0  0  0  0  0  0  0  0  0  0  0
    4.5024    2.7495   -4.1526 H   0  0  0  0  0  0  0  0  0  0  0  0
    3.1208    3.1887   -5.1345 H   0  0  0  0  0  0  0  0  0  0  0  0
    1.3174    3.0407   -3.2467 N   0  0  0  0  0  0  0  0  0  0  0  0
    0.2944    2.6927   -2.2960 C   0  0  2  0  0  0  0  0  0  0  0  0
    0.2976    1.1783   -2.1349 C   0  0  0  0  0  0  0  0  0  0  0  0
    0.7500    0.4142   -2.9850 O   0  0  0  0  0  0  0  0  0  0  0  0
   -1.0710    3.1886   -2.7460 C   0  0  0  0  0  0  0  0  0  0  0  0
    1.0312    3.4224   -4.1464 H   0  0  0  0  0  0  0  0  0  0  0  0
    0.5725    3.1622   -1.3461 H   0  0  0  0  0  0  0  0  0  0  0  0
   -1.3666    2.7292   -3.6963 H   0  0  0  0  0  0  0  0  0  0  0  0
   -1.8434    2.9482   -2.0082 H   0  0  0  0  0  0  0  0  0  0  0  0
   -1.0632    4.2744   -2.8901 H   0  0  0  0  0  0  0  0  0  0  0  0
   -0.3037    0.7742   -0.9484 N   0  0  0  0  0  0  0  0  0  0  0  0
   -0.4352   -0.6095   -0.5718 C   0  0  2  0  0  0  0  0  0  0  0  0
   -0.9188   -1.4045   -1.7803 C   0  0  0  0  0  0  0  0  0  0  0  0
   -0.8654   -0.9742   -2.9307 O   0  0  0  0  0  0  0  0  0  0  0  0
   -1.3354   -0.7863    0.6568 C   0  0  0  0  0  0  0  0  0  0  0  0
   -0.7394   -0.2267    1.9552 C   0  0  0  0  0  0  0  0  0  0  0  0
   -1.6795   -0.4601    3.1401 C   0  0  0  0  0  0  0  0  0  0  0  0
   -1.0965    0.1177    4.4213 C   0  0  0  0  0  0  0  0  0  0  0  0
   -2.0492   -0.1096    5.5344 N   0  3  0  0  0  0  0  0  0  0  0  0
   -0.6336    1.4811   -0.2948 H   0  0  0  0  0  0  0  0  0  0  0  0
    0.5775   -0.9508   -0.3253 H   0  0  0  0  0  0  0  0  0  0  0  0
   -2.2957   -0.2900    0.4657 H   0  0  0  0  0  0  0  0  0  0  0  0
   -1.5545   -1.8518    0.7980 H   0  0  0  0  0  0  0  0  0  0  0  0
    0.2248   -0.7056    2.1614 H   0  0  0  0  0  0  0  0  0  0  0  0
   -0.5525    0.8483    1.8492 H   0  0  0  0  0  0  0  0  0  0  0  0
   -1.8546   -1.5361    3.2637 H   0  0  0  0  0  0  0  0  0  0  0  0
   -2.6528    0.0021    2.9333 H   0  0  0  0  0  0  0  0  0  0  0  0
   -0.1585   -0.3707    4.7016 H   0  0  0  0  0  0  0  0  0  0  0  0
   -0.9425    1.1985    4.3509 H   0  0  0  0  0  0  0  0  0  0  0  0
   -1.8628    0.5300    6.3145 H   0  0  0  0  0  0  0  0  0  0  0  0
   -1.9768   -1.0696    5.8895 H   0  0  0  0  0  0  0  0  0  0  0  0
   -3.0165    0.0410    5.2271 H   0  0  0  0  0  0  0  0  0  0  0  0
   -1.3864   -2.6627   -1.4293 N   0  0  0  0  0  0  0  0  0  0  0  0
   -1.8804   -3.6007   -2.4091 C   0  0  2  0  0  0  0  0  0  0  0  0
   -2.5973   -4.7213   -1.6677 C   0  0  0  0  0  0  0  0  0  0  0  0
   -2.3787   -4.9930   -0.4889 O   0  0  0  0  0  0  0  0  0  0  0  0
   -0.7514   -4.1514   -3.2663 C   0  0  0  0  0  0  0  0  0  0  0  0
   -1.3809   -2.9329   -0.4502 H   0  0  0  0  0  0  0  0  0  0  0  0
   -2.5981   -3.0573   -3.0333 H   0  0  0  0  0  0  0  0  0  0  0  0
   -0.0222   -4.6991   -2.6581 H   0  0  0  0  0  0  0  0  0  0  0  0
   -1.1312   -4.8409   -4.0275 H   0  0  0  0  0  0  0  0  0  0  0  0
   -0.2180   -3.3415   -3.7755 H   0  0  0  0  0  0  0  0  0  0  0  0
   -3.4787   -5.4102   -2.4892 N   0  0  0  0  0  0  0  0  0  0  0  0
   -4.2693   -6.5253   -2.0230 C   0  0  0  0  0  0  0  0  0  0  0  0
   -3.6106   -5.1039   -3.4486 H   0  0  0  0  0  0  0  0  0  0  0  0
   -3.7293   -7.4642   -2.2154 H   0  0  0  0  0  0  0  0  0  0  0  0
   -4.4493   -6.4209   -0.9428 H   0  0  0  0  0  0  0  0  0  0  0  0
   -5.2317   -6.5403   -2.5554 H   0  0  0  0  0  0  0  0  0  0  0  0
  1  3  1  0  0  0  0
  1  7  1  0  0  0  0
  1  2  2  0  0  0  0
 40 41  1  0  0  0  0
 41 49  1  0  0  0  0
 41 42  2  0  0  0  0
  8  9  1  0  0  0  0
  9 17  1  0  0  0  0
  9 10  2  0  0  0  0
 18 19  1  0  0  0  0
 19 39  1  0  0  0  0
 19 20  2  0  0  0  0
 40 43  1  0  0  0  0
  8 11  1  0  0  0  0
 49 50  1  0  0  0  0
 22 23  1  0  0  0  0
 21 22  1  0  0  0  0
 23 24  1  0  0  0  0
 18 21  1  0  0  0  0
 24 25  1  0  0  0  0
 39 40  1  0  0  0  0
  7  8  1  0  0  0  0
 17 18  1  0  0  0  0
  3  4  1  0  0  0  0
  3  5  1  0  0  0  0
  3  6  1  0  0  0  0
 43 46  1  0  0  0  0
 43 47  1  0  0  0  0
 43 48  1  0  0  0  0
 11 14  1  0  0  0  0
 11 15  1  0  0  0  0
 11 16  1  0  0  0  0
 50 52  1  0  0  0  0
 50 53  1  0  0  0  0
 50 54  1  0  0  0  0
 22 30  1  0  0  0  0
 22 31  1  0  0  0  0
 23 32  1  0  0  0  0
 23 33  1  0  0  0  0
 21 28  1  0  0  0  0
 21 29  1  0  0  0  0
 24 34  1  0  0  0  0
 24 35  1  0  0  0  0
 40 45  1  0  0  0  0
  8 13  1  0  0  0  0
 18 27  1  0  0  0  0
 49 51  1  0  0  0  0
  7 12  1  0  0  0  0
 39 44  1  0  0  0  0
 17 26  1  0  0  0  0
 25 36  1  0  0  0  0
 25 37  1  0  0  0  0
 25 38  1  0  0  0  0
M  CHG  1  25   1
M  END
$$$$

  -OEChem-05262214473D

 54 53  0     1  0  0  0  0  0999 V2000
    2.6714    2.8829   -3.0005 C   0  0  0  0  0  0  0  0  0  0  0  0
    3.1741    2.4398   -1.9745 O   0  0  0  0  0  0  0  0  0  0  0  0
    3.5527    3.3077   -4.1279 C   0  0  0  0  0  0  0  0  0  0  0  0
    3.8407    4.3691   -4.0597 H   0  0  0  0  0  0  0  0  0  0  0  0
    4.5024    2.7495   -4.1526 H   0  0  0  0  0  0  0  0  0  0  0  0
    3.1208    3.1887   -5.1345 H   0  0  0  0  0  0  0  0  0  0  0  0
    1.3174    3.0407   -3.2467 N   0  0  0  0  0  0  0  0  0  0  0  0
    0.2944    2.6927   -2.2960 C   0  0  2  0  0  0  0  0  0  0  0  0
    0.2976    1.1783   -2.1349 C   0  0  0  0  0  0  0  0  0  0  0  0
    0.7500    0.4142   -2.9850 O   0  0  0  0  0  0  0  0  0  0  0  0
   -1.0710    3.1886   -2.7460 C   0  0  0  0  0  0  0  0  0  0  0  0
    1.0312    3.4224   -4.1464 H   0  0  0  0  0  0  0  0  0  0  0  0
    0.5725    3.1622   -1.3461 H   0  0  0  0  0  0  0  0  0  0  0  0
   -1.3666    2.7292   -3.6963 H   0  0  0  0  0  0  0  0  0  0  0  0
   -1.8434    2.9482   -2.0082 H   0  0  0  0  0  0  0  0  0  0  0  0
   -1.0632    4.2744   -2.8901 H   0  0  0  0  0  0  0  0  0  0  0  0
   -0.3037    0.7742   -0.9484 N   0  0  0  0  0  0  0  0  0  0  0  0
   -0.4352   -0.6095   -0.5718 C   0  0  2  0  0  0  0  0  0  0  0  0
   -0.9188   -1.4045   -1.7803 C   0  0  0  0  0  0  0  0  0  0  0  0
   -0.6310   -1.1061   -2.9377 O   0  0  0  0  0  0  0  0  0  0  0  0
   -1.3354   -0.7863    0.6568 C   0  0  0  0  0  0  0  0  0  0  0  0
   -0.7394   -0.2267    1.9552 C   0  0  0  0  0  0  0  0  0  0  0  0
   -1.6795   -0.4601    3.1401 C   0  0  0  0  0  0  0  0  0  0  0  0
   -1.0965    0.1177    4.4213 C   0  0  0  0  0  0  0  0  0  0  0  0
   -2.0492   -0.1096    5.5344 N   0  3  0  0  0  0  0  0  0  0  0  0
   -0.6336    1.4811   -0.2948 H   0  0  0  0  0  0  0  0  0  0  0  0
    0.5775   -0.9508   -0.3253 H   0  0  0  0  0  0  0  0  0  0  0  0
   -2.2957   -0.2900    0.4657 H   0  0  0  0  0  0  0  0  0  0  0  0
   -1.5545   -1.8518    0.7980 H   0  0  0  0  0  0  0  0  0  0  0  0
    0.2248   -0.7056    2.1614 H   0  0  0  0  0  0  0  0  0  0  0  0
   -0.5525    0.8483    1.8492 H   0  0  0  0  0  0  0  0  0  0  0  0
   -1.8546   -1.5361    3.2637 H   0  0  0  0  0  0  0  0  0  0  0  0
   -2.6528    0.0021    2.9333 H   0  0  0  0  0  0  0  0  0  0  0  0
   -0.1585   -0.3707    4.7016 H   0  0  0  0  0  0  0  0  0  0  0  0
   -0.9425    1.1985    4.3509 H   0  0  0  0  0  0  0  0  0  0  0  0
   -1.8628    0.5300    6.3145 H   0  0  0  0  0  0  0  0  0  0  0  0
   -1.9768   -1.0696    5.8895 H   0  0  0  0  0  0  0  0  0  0  0  0
   -3.0165    0.0410    5.2271 H   0  0  0  0  0  0  0  0  0  0  0  0
   -1.6815   -2.5045   -1.4153 N   0  0  0  0  0  0  0  0  0  0  0  0
   -2.2342   -3.4149   -2.3897 C   0  0  2  0  0  0  0  0  0  0  0  0
   -3.2590   -4.2934   -1.6844 C   0  0  0  0  0  0  0  0  0  0  0  0
   -3.2532   -4.4886   -0.4707 O   0  0  0  0  0  0  0  0  0  0  0  0
   -1.1475   -4.2595   -3.0366 C   0  0  0  0  0  0  0  0  0  0  0  0
   -1.8568   -2.6750   -0.4295 H   0  0  0  0  0  0  0  0  0  0  0  0
   -2.7366   -2.8019   -3.1459 H   0  0  0  0  0  0  0  0  0  0  0  0
   -0.6330   -4.8805   -2.2944 H   0  0  0  0  0  0  0  0  0  0  0  0
   -1.5648   -4.9293   -3.7958 H   0  0  0  0  0  0  0  0  0  0  0  0
   -0.3955   -3.6250   -3.5179 H   0  0  0  0  0  0  0  0  0  0  0  0
   -4.1547   -4.8684   -2.5751 N   0  0  0  0  0  0  0  0  0  0  0  0
   -5.2149   -5.7534   -2.1524 C   0  0  0  0  0  0  0  0  0  0  0  0
   -4.0968   -4.6357   -3.5621 H   0  0  0  0  0  0  0  0  0  0  0  0
   -4.8649   -6.7951   -2.2011 H   0  0  0  0  0  0  0  0  0  0  0  0
   -5.5039   -5.5118   -1.1189 H   0  0  0  0  0  0  0  0  0  0  0  0
   -6.0837   -5.6272   -2.8151 H   0  0  0  0  0  0  0  0  0  0  0  0
  1  3  1  0  0  0  0
  1  7  1  0  0  0  0
  1  2  2  0  0  0  0
 40 41  1  0  0  0  0
 41 49  1  0  0  0  0
 41 42  2  0  0  0  0
  8  9  1  0  0  0  0
  9 17  1  0  0  0  0
  9 10  2  0  0  0  0
 18 19  1  0  0  0  0
 19 39  1  0  0  0  0
 19 20  2  0  0  0  0
 40 43  1  0  0  0  0
  8 11  1  0  0  0  0
 49 50  1  0  0  0  0
 22 23  1  0  0  0  0
 21 22  1  0  0  0  0
 23 24  1  0  0  0  0
 18 21  1  0  0  0  0
 24 25  1  0  0  0  0
 39 40  1  0  0  0  0
  7  8  1  0  0  0  0
 17 18  1  0  0  0  0
  3  4  1  0  0  0  0
  3  5  1  0  0  0  0
  3  6  1  0  0  0  0
 43 46  1  0  0  0  0
 43 47  1  0  0  0  0
 43 48  1  0  0  0  0
 11 14  1  0  0  0  0
 11 15  1  0  0  0  0
 11 16  1  0  0  0  0
 50 52  1  0  0  0  0
 50 53  1  0  0  0  0
 50 54  1  0  0  0  0
 22 30  1  0  0  0  0
 22 31  1  0  0  0  0
 23 32  1  0  0  0  0
 23 33  1  0  0  0  0
 21 28  1  0  0  0  0
 21 29  1  0  0  0  0
 24 34  1  0  0  0  0
 24 35  1  0  0  0  0
 40 45  1  0  0  0  0
  8 13  1  0  0  0  0
 18 27  1  0  0  0  0
 49 51  1  0  0  0  0
  7 12  1  0  0  0  0
 39 44  1  0  0  0  0
 17 26  1  0  0  0  0
 25 36  1  0  0  0  0
 25 37  1  0  0  0  0
 25 38  1  0  0  0  0
M  CHG  1  25   1
M  END
$$$$

  -OEChem-05262214473D

 54 53  0     1  0  0  0  0  0999 V2000
    2.6714    2.8829   -3.0005 C   0  0  0  0  0  0  0  0  0  0  0  0
    3.1741    2.4398   -1.9745 O   0  0  0  0  0  0  0  0  0  0  0  0
    3.5527    3.3077   -4.1279 C   0  0  0  0  0  0  0  0  0  0  0  0
    3.8407    4.3691   -4.0597 H   0  0  0  0  0  0  0  0  0  0  0  0
    4.5024    2.7495   -4.1526 H   0  0  0  0  0  0  0  0  0  0  0  0
    3.1208    3.1887   -5.1345 H   0  0  0  0  0  0  0  0  0  0  0  0
    1.3174    3.0407   -3.2467 N   0  0  0  0  0  0  0  0  0  0  0  0
    0.2944    2.6927   -2.2960 C   0  0  2  0  0  0  0  0  0  0  0  0
    0.2976    1.1783   -2.1349 C   0  0  0  0  0  0  0  0  0  0  0  0
    0.7500    0.4142   -2.9850 O   0  0  0  0  0  0  0  0  0  0  0  0
   -1.0710    3.1886   -2.7460 C   0  0  0  0  0  0  0  0  0  0  0  0
    1.0312    3.4224   -4.1464 H   0  0  0  0  0  0  0  0  0  0  0  0
    0.5725    3.1622   -1.3461 H   0  0  0  0  0  0  0  0  0  0  0  0
   -1.3666    2.7292   -3.6963 H   0  0  0  0  0  0  0  0  0  0  0  0
   -1.8434    2.9482   -2.0082 H   0  0  0  0  0  0  0  0  0  0  0  0
   -1.0632    4.2744   -2.8901 H   0  0  0  0  0  0  0  0  0  0  0  0
   -0.3037    0.7742   -0.9484 N   0  0  0  0  0  0  0  0  0  0  0  0
   -0.4352   -0.6095   -0.5718 C   0  0  2  0  0  0  0  0  0  0  0  0
   -0.9188   -1.4045   -1.7803 C   0  0  0  0  0  0  0  0  0  0  0  0
   -0.4307   -1.2822   -2.9020 O   0  0  0  0  0  0  0  0  0  0  0  0
   -1.3354   -0.7863    0.6568 C   0  0  0  0  0  0  0  0  0  0  0  0
   -0.7394   -0.2267    1.9552 C   0  0  0  0  0  0  0  0  0  0  0  0
   -1.6795   -0.4601    3.1401 C   0  0  0  0  0  0  0  0  0  0  0  0
   -1.0965    0.1177    4.4213 C   0  0  0  0  0  0  0  0  0  0  0  0
   -2.0492   -0.1096    5.5344 N   0  3  0  0  0  0  0  0  0  0  0  0
   -0.6336    1.4811   -0.2948 H   0  0  0  0  0  0  0  0  0  0  0  0
    0.5775   -0.9508   -0.3253 H   0  0  0  0  0  0  0  0  0  0  0  0
   -2.2957   -0.2900    0.4657 H   0  0  0  0  0  0  0  0  0  0  0  0
   -1.5545   -1.8518    0.7980 H   0  0  0  0  0  0  0  0  0  0  0  0
    0.2248   -0.7056    2.1614 H   0  0  0  0  0  0  0  0  0  0  0  0
   -0.5525    0.8483    1.8492 H   0  0  0  0  0  0  0  0  0  0  0  0
   -1.8546   -1.5361    3.2637 H   0  0  0  0  0  0  0  0  0  0  0  0
   -2.6528    0.0021    2.9333 H   0  0  0  0  0  0  0  0  0  0  0  0
   -0.1585   -0.3707    4.7016 H   0  0  0  0  0  0  0  0  0  0  0  0
   -0.9425    1.1985    4.3509 H   0  0  0  0  0  0  0  0  0  0  0  0
   -1.8628    0.5300    6.3145 H   0  0  0  0  0  0  0  0  0  0  0  0
   -1.9768   -1.0696    5.8895 H   0  0  0  0  0  0  0  0  0  0  0  0
   -3.0165    0.0410    5.2271 H   0  0  0  0  0  0  0  0  0  0  0  0
   -1.9360   -2.2900   -1.4545 N   0  0  0  0  0  0  0  0  0  0  0  0
   -2.5405   -3.1612   -2.4340 C   0  0  2  0  0  0  0  0  0  0  0  0
   -3.8080   -3.7458   -1.8249 C   0  0  0  0  0  0  0  0  0  0  0  0
   -3.9969   -3.8206   -0.6126 O   0  0  0  0  0  0  0  0  0  0  0  0
   -1.5833   -4.2638   -2.8594 C   0  0  0  0  0  0  0  0  0  0  0  0
   -2.2664   -2.3265   -0.4948 H   0  0  0  0  0  0  0  0  0  0  0  0
   -2.8027   -2.5360   -3.2944 H   0  0  0  0  0  0  0  0  0  0  0  0
   -1.3092   -4.9007   -2.0105 H   0  0  0  0  0  0  0  0  0  0  0  0
   -2.0330   -4.9067   -3.6232 H   0  0  0  0  0  0  0  0  0  0  0  0
   -0.6598   -3.8413   -3.2698 H   0  0  0  0  0  0  0  0  0  0  0  0
   -4.6849   -4.2135   -2.7937 N   0  0  0  0  0  0  0  0  0  0  0  0
   -5.9525   -4.8245   -2.4683 C   0  0  0  0  0  0  0  0  0  0  0  0
   -4.4550   -4.0930   -3.7757 H   0  0  0  0  0  0  0  0  0  0  0  0
   -5.8266   -5.9148   -2.3954 H   0  0  0  0  0  0  0  0  0  0  0  0
   -6.3123   -4.4319   -1.5058 H   0  0  0  0  0  0  0  0  0  0  0  0
   -6.6844   -4.5919   -3.2558 H   0  0  0  0  0  0  0  0  0  0  0  0
  1  3  1  0  0  0  0
  1  7  1  0  0  0  0
  1  2  2  0  0  0  0
 40 41  1  0  0  0  0
 41 49  1  0  0  0  0
 41 42  2  0  0  0  0
  8  9  1  0  0  0  0
  9 17  1  0  0  0  0
  9 10  2  0  0  0  0
 18 19  1  0  0  0  0
 19 39  1  0  0  0  0
 19 20  2  0  0  0  0
 40 43  1  0  0  0  0
  8 11  1  0  0  0  0
 49 50  1  0  0  0  0
 22 23  1  0  0  0  0
 21 22  1  0  0  0  0
 23 24  1  0  0  0  0
 18 21  1  0  0  0  0
 24 25  1  0  0  0  0
 39 40  1  0  0  0  0
  7  8  1  0  0  0  0
 17 18  1  0  0  0  0
  3  4  1  0  0  0  0
  3  5  1  0  0  0  0
  3  6  1  0  0  0  0
 43 46  1  0  0  0  0
 43 47  1  0  0  0  0
 43 48  1  0  0  0  0
 11 14  1  0  0  0  0
 11 15  1  0  0  0  0
 11 16  1  0  0  0  0
 50 52  1  0  0  0  0
 50 53  1  0  0  0  0
 50 54  1  0  0  0  0
 22 30  1  0  0  0  0
 22 31  1  0  0  0  0
 23 32  1  0  0  0  0
 23 33  1  0  0  0  0
 21 28  1  0  0  0  0
 21 29  1  0  0  0  0
 24 34  1  0  0  0  0
 24 35  1  0  0  0  0
 40 45  1  0  0  0  0
  8 13  1  0  0  0  0
 18 27  1  0  0  0  0
 49 51  1  0  0  0  0
  7 12  1  0  0  0  0
 39 44  1  0  0  0  0
 17 26  1  0  0  0  0
 25 36  1  0  0  0  0
 25 37  1  0  0  0  0
 25 38  1  0  0  0  0
M  CHG  1  25   1
M  END
$$$$

  -OEChem-05262214473D

 54 53  0     1  0  0  0  0  0999 V2000
    2.6714    2.8829   -3.0005 C   0  0  0  0  0  0  0  0  0  0  0  0
    3.1741    2.4398   -1.9745 O   0  0  0  0  0  0  0  0  0  0  0  0
    3.5527    3.3077   -4.1279 C   0  0  0  0  0  0  0  0  0  0  0  0
    3.8407    4.3691   -4.0597 H   0  0  0  0  0  0  0  0  0  0  0  0
    4.5024    2.7495   -4.1526 H   0  0  0  0  0  0  0  0  0  0  0  0
    3.1208    3.1887   -5.1345 H   0  0  0  0  0  0  0  0  0  0  0  0
    1.3174    3.0407   -3.2467 N   0  0  0  0  0  0  0  0  0  0  0  0
    0.2944    2.6927   -2.2960 C   0  0  2  0  0  0  0  0  0  0  0  0
    0.2976    1.1783   -2.1349 C   0  0  0  0  0  0  0  0  0  0  0  0
    0.7500    0.4142   -2.9850 O   0  0  0  0  0  0  0  0  0  0  0  0
   -1.0710    3.1886   -2.7460 C   0  0  0  0  0  0  0  0  0  0  0  0
    1.0312    3.4224   -4.1464 H   0  0  0  0  0  0  0  0  0  0  0  0
    0.5725    3.1622   -1.3461 H   0  0  0  0  0  0  0  0  0  0  0  0
   -1.3666    2.7292   -3.6963 H   0  0  0  0  0  0  0  0  0  0  0  0
   -1.8434    2.9482   -2.0082 H   0  0  0  0  0  0  0  0  0  0  0  0
   -1.0632    4.2744   -2.8901 H   0  0  0  0  0  0  0  0  0  0  0  0
   -0.3037    0.7742   -0.9484 N   0  0  0  0  0  0  0  0  0  0  0  0
   -0.4352   -0.6095   -0.5718 C   0  0  2  0  0  0  0  0  0  0  0  0
   -0.9188   -1.4045   -1.7803 C   0  0  0  0  0  0  0  0  0  0  0  0
   -0.2782   -1.4904   -2.8260 O   0  0  0  0  0  0  0  0  0  0  0  0
   -1.3354   -0.7863    0.6568 C   0  0  0  0  0  0  0  0  0  0  0  0
   -0.7394   -0.2267    1.9552 C   0  0  0  0  0  0  0  0  0  0  0  0
   -1.6795   -0.4601    3.1401 C   0  0  0  0  0  0  0  0  0  0  0  0
   -1.0965    0.1177    4.4213 C   0  0  0  0  0  0  0  0  0  0  0  0
   -2.0492   -0.1096    5.5344 N   0  3  0  0  0  0  0  0  0  0  0  0
   -0.6336    1.4811   -0.2948 H   0  0  0  0  0  0  0  0  0  0  0  0
    0.5775   -0.9508   -0.3253 H   0  0  0  0  0  0  0  0  0  0  0  0
   -2.2957   -0.2900    0.4657 H   0  0  0  0  0  0  0  0  0  0  0  0
   -1.5545   -1.8518    0.7980 H   0  0  0  0  0  0  0  0  0  0  0  0
    0.2248   -0.7056    2.1614 H   0  0  0  0  0  0  0  0  0  0  0  0
   -0.5525    0.8483    1.8492 H   0  0  0  0  0  0  0  0  0  0  0  0
   -1.8546   -1.5361    3.2637 H   0  0  0  0  0  0  0  0  0  0  0  0
   -2.6528    0.0021    2.9333 H   0  0  0  0  0  0  0  0  0  0  0  0
   -0.1585   -0.3707    4.7016 H   0  0  0  0  0  0  0  0  0  0  0  0
   -0.9425    1.1985    4.3509 H   0  0  0  0  0  0  0  0  0  0  0  0
   -1.8628    0.5300    6.3145 H   0  0  0  0  0  0  0  0  0  0  0  0
   -1.9768   -1.0696    5.8895 H   0  0  0  0  0  0  0  0  0  0  0  0
   -3.0165    0.0410    5.2271 H   0  0  0  0  0  0  0  0  0  0  0  0
   -2.1326   -2.0339   -1.5444 N   0  0  0  0  0  0  0  0  0  0  0  0
   -2.7783   -2.8571   -2.5389 C   0  0  2  0  0  0  0  0  0  0  0  0
   -4.2072   -3.1158   -2.0797 C   0  0  0  0  0  0  0  0  0  0  0  0
   -4.5592   -3.0345   -0.9047 O   0  0  0  0  0  0  0  0  0  0  0  0
   -2.0291   -4.1641   -2.7466 C   0  0  0  0  0  0  0  0  0  0  0  0
   -2.5818   -1.9113   -0.6418 H   0  0  0  0  0  0  0  0  0  0  0  0
   -2.7921   -2.2778   -3.4685 H   0  0  0  0  0  0  0  0  0  0  0  0
   -2.0048   -4.7582   -1.8258 H   0  0  0  0  0  0  0  0  0  0  0  0
   -2.5039   -4.7748   -3.5216 H   0  0  0  0  0  0  0  0  0  0  0  0
   -0.9930   -3.9757   -3.0481 H   0  0  0  0  0  0  0  0  0  0  0  0
   -5.0333   -3.4901   -3.1302 N   0  0  0  0  0  0  0  0  0  0  0  0
   -6.4319   -3.8019   -2.9492 C   0  0  0  0  0  0  0  0  0  0  0  0
   -4.6610   -3.5129   -4.0750 H   0  0  0  0  0  0  0  0  0  0  0  0
   -6.5488   -4.8832   -2.7850 H   0  0  0  0  0  0  0  0  0  0  0  0
   -6.8195   -3.2547   -2.0772 H   0  0  0  0  0  0  0  0  0  0  0  0
   -6.9928   -3.5048   -3.8476 H   0  0  0  0  0  0  0  0  0  0  0  0
  1  3  1  0  0  0  0
  1  7  1  0  0  0  0
  1  2  2  0  0  0  0
 40 41  1  0  0  0  0
 41 49  1  0  0  0  0
 41 42  2  0  0  0  0
  8  9  1  0  0  0  0
  9 17  1  0  0  0  0
  9 10  2  0  0  0  0
 18 19  1  0  0  0  0
 19 39  1  0  0  0  0
 19 20  2  0  0  0  0
 40 43  1  0  0  0  0
  8 11  1  0  0  0  0
 49 50  1  0  0  0  0
 22 23  1  0  0  0  0
 21 22  1  0  0  0  0
 23 24  1  0  0  0  0
 18 21  1  0  0  0  0
 24 25  1  0  0  0  0
 39 40  1  0  0  0  0
  7  8  1  0  0  0  0
 17 18  1  0  0  0  0
  3  4  1  0  0  0  0
  3  5  1  0  0  0  0
  3  6  1  0  0  0  0
 43 46  1  0  0  0  0
 43 47  1  0  0  0  0
 43 48  1  0  0  0  0
 11 14  1  0  0  0  0
 11 15  1  0  0  0  0
 11 16  1  0  0  0  0
 50 52  1  0  0  0  0
 50 53  1  0  0  0  0
 50 54  1  0  0  0  0
 22 30  1  0  0  0  0
 22 31  1  0  0  0  0
 23 32  1  0  0  0  0
 23 33  1  0  0  0  0
 21 28  1  0  0  0  0
 21 29  1  0  0  0  0
 24 34  1  0  0  0  0
 24 35  1  0  0  0  0
 40 45  1  0  0  0  0
  8 13  1  0  0  0  0
 18 27  1  0  0  0  0
 49 51  1  0  0  0  0
  7 12  1  0  0  0  0
 39 44  1  0  0  0  0
 17 26  1  0  0  0  0
 25 36  1  0  0  0  0
 25 37  1  0  0  0  0
 25 38  1  0  0  0  0
M  CHG  1  25   1
M  END
$$$$

  -OEChem-05262214473D

 54 53  0     1  0  0  0  0  0999 V2000
    2.6714    2.8829   -3.0005 C   0  0  0  0  0  0  0  0  0  0  0  0
    3.1741    2.4398   -1.9745 O   0  0  0  0  0  0  0  0  0  0  0  0
    3.5527    3.3077   -4.1279 C   0  0  0  0  0  0  0  0  0  0  0  0
    3.8407    4.3691   -4.0597 H   0  0  0  0  0  0  0  0  0  0  0  0
    4.5024    2.7495   -4.1526 H   0  0  0  0  0  0  0  0  0  0  0  0
    3.1208    3.1887   -5.1345 H   0  0  0  0  0  0  0  0  0  0  0  0
    1.3174    3.0407   -3.2467 N   0  0  0  0  0  0  0  0  0  0  0  0
    0.2944    2.6927   -2.2960 C   0  0  2  0  0  0  0  0  0  0  0  0
    0.2976    1.1783   -2.1349 C   0  0  0  0  0  0  0  0  0  0  0  0
    0.7500    0.4142   -2.9850 O   0  0  0  0  0  0  0  0  0  0  0  0
   -1.0710    3.1886   -2.7460 C   0  0  0  0  0  0  0  0  0  0  0  0
    1.0312    3.4224   -4.1464 H   0  0  0  0  0  0  0  0  0  0  0  0
    0.5725    3.1622   -1.3461 H   0  0  0  0  0  0  0  0  0  0  0  0
   -1.3666    2.7292   -3.6963 H   0  0  0  0  0  0  0  0  0  0  0  0
   -1.8434    2.9482   -2.0082 H   0  0  0  0  0  0  0  0  0  0  0  0
   -1.0632    4.2744   -2.8901 H   0  0  0  0  0  0  0  0  0  0  0  0
   -0.3037    0.7742   -0.9484 N   0  0  0  0  0  0  0  0  0  0  0  0
   -0.4352   -0.6095   -0.5718 C   0  0  2  0  0  0  0  0  0  0  0  0
   -0.9188   -1.4045   -1.7803 C   0  0  0  0  0  0  0  0  0  0  0  0
   -0.1838   -1.7166   -2.7150 O   0  0  0  0  0  0  0  0  0  0  0  0
   -1.3354   -0.7863    0.6568 C   0  0  0  0  0  0  0  0  0  0  0  0
   -0.7394   -0.2267    1.9552 C   0  0  0  0  0  0  0  0  0  0  0  0
   -1.6795   -0.4601    3.1401 C   0  0  0  0  0  0  0  0  0  0  0  0
   -1.0965    0.1177    4.4213 C   0  0  0  0  0  0  0  0  0  0  0  0
   -2.0492   -0.1096    5.5344 N   0  3  0  0  0  0  0  0  0  0  0  0
   -0.6336    1.4811   -0.2948 H   0  0  0  0  0  0  0  0  0  0  0  0
    0.5775   -0.9508   -0.3253 H   0  0  0  0  0  0  0  0  0  0  0  0
   -2.2957   -0.2900    0.4657 H   0  0  0  0  0  0  0  0  0  0  0  0
   -1.5545   -1.8518    0.7980 H   0  0  0  0  0  0  0  0  0  0  0  0
    0.2248   -0.7056    2.1614 H   0  0  0  0  0  0  0  0  0  0  0  0
   -0.5525    0.8483    1.8492 H   0  0  0  0  0  0  0  0  0  0  0  0
   -1.8546   -1.5361    3.2637 H   0  0  0  0  0  0  0  0  0  0  0  0
   -2.6528    0.0021    2.9333 H   0  0  0  0  0  0  0  0  0  0  0  0
   -0.1585   -0.3707    4.7016 H   0  0  0  0  0  0  0  0  0  0  0  0
   -0.9425    1.1985    4.3509 H   0  0  0  0  0  0  0  0  0  0  0  0
   -1.8628    0.5300    6.3145 H   0  0  0  0  0  0  0  0  0  0  0  0
   -1.9768   -1.0696    5.8895 H   0  0  0  0  0  0  0  0  0  0  0  0
   -3.0165    0.0410    5.2271 H   0  0  0  0  0  0  0  0  0  0  0  0
   -2.2578   -1.7535   -1.6787 N   0  0  0  0  0  0  0  0  0  0  0  0
   -2.9315   -2.5231   -2.6973 C   0  0  2  0  0  0  0  0  0  0  0  0
   -4.4291   -2.4463   -2.4313 C   0  0  0  0  0  0  0  0  0  0  0  0
   -4.9017   -2.1839   -1.3273 O   0  0  0  0  0  0  0  0  0  0  0  0
   -2.4544   -3.9671   -2.7060 C   0  0  0  0  0  0  0  0  0  0  0  0
   -2.7815   -1.4576   -0.8603 H   0  0  0  0  0  0  0  0  0  0  0  0
   -2.7054   -2.0448   -3.6565 H   0  0  0  0  0  0  0  0  0  0  0  0
   -2.6723   -4.4628   -1.7530 H   0  0  0  0  0  0  0  0  0  0  0  0
   -2.9455   -4.5424   -3.4977 H   0  0  0  0  0  0  0  0  0  0  0  0
   -1.3723   -4.0190   -2.8678 H   0  0  0  0  0  0  0  0  0  0  0  0
   -5.1761   -2.7476   -3.5615 N   0  0  0  0  0  0  0  0  0  0  0  0
   -6.6203   -2.7553   -3.5623 C   0  0  0  0  0  0  0  0  0  0  0  0
   -4.7006   -2.9349   -4.4394 H   0  0  0  0  0  0  0  0  0  0  0  0
   -6.9823   -3.7707   -3.3435 H   0  0  0  0  0  0  0  0  0  0  0  0
   -6.9910   -2.0605   -2.7942 H   0  0  0  0  0  0  0  0  0  0  0  0
   -6.9880   -2.4400   -4.5500 H   0  0  0  0  0  0  0  0  0  0  0  0
  1  3  1  0  0  0  0
  1  7  1  0  0  0  0
  1  2  2  0  0  0  0
 40 41  1  0  0  0  0
 41 49  1  0  0  0  0
 41 42  2  0  0  0  0
  8  9  1  0  0  0  0
  9 17  1  0  0  0  0
  9 10  2  0  0  0  0
 18 19  1  0  0  0  0
 19 39  1  0  0  0  0
 19 20  2  0  0  0  0
 40 43  1  0  0  0  0
  8 11  1  0  0  0  0
 49 50  1  0  0  0  0
 22 23  1  0  0  0  0
 21 22  1  0  0  0  0
 23 24  1  0  0  0  0
 18 21  1  0  0  0  0
 24 25  1  0  0  0  0
 39 40  1  0  0  0  0
  7  8  1  0  0  0  0
 17 18  1  0  0  0  0
  3  4  1  0  0  0  0
  3  5  1  0  0  0  0
  3  6  1  0  0  0  0
 43 46  1  0  0  0  0
 43 47  1  0  0  0  0
 43 48  1  0  0  0  0
 11 14  1  0  0  0  0
 11 15  1  0  0  0  0
 11 16  1  0  0  0  0
 50 52  1  0  0  0  0
 50 53  1  0  0  0  0
 50 54  1  0  0  0  0
 22 30  1  0  0  0  0
 22 31  1  0  0  0  0
 23 32  1  0  0  0  0
 23 33  1  0  0  0  0
 21 28  1  0  0  0  0
 21 29  1  0  0  0  0
 24 34  1  0  0  0  0
 24 35  1  0  0  0  0
 40 45  1  0  0  0  0
  8 13  1  0  0  0  0
 18 27  1  0  0  0  0
 49 51  1  0  0  0  0
  7 12  1  0  0  0  0
 39 44  1  0  0  0  0
 17 26  1  0  0  0  0
 25 36  1  0  0  0  0
 25 37  1  0  0  0  0
 25 38  1  0  0  0  0
M  CHG  1  25   1
M  END
$$$$

  -OEChem-05262214473D

 54 53  0     1  0  0  0  0  0999 V2000
    2.6714    2.8829   -3.0005 C   0  0  0  0  0  0  0  0  0  0  0  0
    3.1741    2.4398   -1.9745 O   0  0  0  0  0  0  0  0  0  0  0  0
    3.5527    3.3077   -4.1279 C   0  0  0  0  0  0  0  0  0  0  0  0
    3.8407    4.3691   -4.0597 H   0  0  0  0  0  0  0  0  0  0  0  0
    4.5024    2.7495   -4.1526 H   0  0  0  0  0  0  0  0  0  0  0  0
    3.1208    3.1887   -5.1345 H   0  0  0  0  0  0  0  0  0  0  0  0
    1.3174    3.0407   -3.2467 N   0  0  0  0  0  0  0  0  0  0  0  0
    0.2944    2.6927   -2.2960 C   0  0  2  0  0  0  0  0  0  0  0  0
    0.2976    1.1783   -2.1349 C   0  0  0  0  0  0  0  0  0  0  0  0
    0.7500    0.4142   -2.9850 O   0  0  0  0  0  0  0  0  0  0  0  0
   -1.0710    3.1886   -2.7460 C   0  0  0  0  0  0  0  0  0  0  0  0
    1.0312    3.4224   -4.1464 H   0  0  0  0  0  0  0  0  0  0  0  0
    0.5725    3.1622   -1.3461 H   0  0  0  0  0  0  0  0  0  0  0  0
   -1.3666    2.7292   -3.6963 H   0  0  0  0  0  0  0  0  0  0  0  0
   -1.8434    2.9482   -2.0082 H   0  0  0  0  0  0  0  0  0  0  0  0
   -1.0632    4.2744   -2.8901 H   0  0  0  0  0  0  0  0  0  0  0  0
   -0.3037    0.7742   -0.9484 N   0  0  0  0  0  0  0  0  0  0  0  0
   -0.4352   -0.6095   -0.5718 C   0  0  2  0  0  0  0  0  0  0  0  0
   -0.9188   -1.4045   -1.7803 C   0  0  0  0  0  0  0  0  0  0  0  0
   -0.1540   -1.9453   -2.5765 O   0  0  0  0  0  0  0  0  0  0  0  0
   -1.3354   -0.7863    0.6568 C   0  0  0  0  0  0  0  0  0  0  0  0
   -0.7394   -0.2267    1.9552 C   0  0  0  0  0  0  0  0  0  0  0  0
   -1.6795   -0.4601    3.1401 C   0  0  0  0  0  0  0  0  0  0  0  0
   -1.0965    0.1177    4.4213 C   0  0  0  0  0  0  0  0  0  0  0  0
   -2.0492   -0.1096    5.5344 N   0  3  0  0  0  0  0  0  0  0  0  0
   -0.6336    1.4811   -0.2948 H   0  0  0  0  0  0  0  0  0  0  0  0
    0.5775   -0.9508   -0.3253 H   0  0  0  0  0  0  0  0  0  0  0  0
   -2.2957   -0.2900    0.4657 H   0  0  0  0  0  0  0  0  0  0  0  0
   -1.5545   -1.8518    0.7980 H   0  0  0  0  0  0  0  0  0  0  0  0
    0.2248   -0.7056    2.1614 H   0  0  0  0  0  0  0  0  0  0  0  0
   -0.5525    0.8483    1.8492 H   0  0  0  0  0  0  0  0  0  0  0  0
   -1.8546   -1.5361    3.2637 H   0  0  0  0  0  0  0  0  0  0  0  0
   -2.6528    0.0021    2.9333 H   0  0  0  0  0  0  0  0  0  0  0  0
   -0.1585   -0.3707    4.7016 H   0  0  0  0  0  0  0  0  0  0  0  0
   -0.9425    1.1985    4.3509 H   0  0  0  0  0  0  0  0  0  0  0  0
   -1.8628    0.5300    6.3145 H   0  0  0  0  0  0  0  0  0  0  0  0
   -1.9768   -1.0696    5.8895 H   0  0  0  0  0  0  0  0  0  0  0  0
   -3.0165    0.0410    5.2271 H   0  0  0  0  0  0  0  0  0  0  0  0
   -2.3031   -1.4680   -1.8484 N   0  0  0  0  0  0  0  0  0  0  0  0
   -2.9897   -2.1821   -2.8984 C   0  0  2  0  0  0  0  0  0  0  0  0
   -4.4588   -1.7830   -2.8558 C   0  0  0  0  0  0  0  0  0  0  0  0
   -5.0011   -1.3267   -1.8514 O   0  0  0  0  0  0  0  0  0  0  0  0
   -2.8303   -3.6862   -2.7403 C   0  0  0  0  0  0  0  0  0  0  0  0
   -2.8518   -0.9964   -1.1356 H   0  0  0  0  0  0  0  0  0  0  0  0
   -2.5485   -1.8530   -3.8455 H   0  0  0  0  0  0  0  0  0  0  0  0
   -3.2664   -4.0346   -1.7970 H   0  0  0  0  0  0  0  0  0  0  0  0
   -3.3275   -4.2255   -3.5533 H   0  0  0  0  0  0  0  0  0  0  0  0
   -1.7719   -3.9682   -2.7413 H   0  0  0  0  0  0  0  0  0  0  0  0
   -5.1035   -2.0365   -4.0584 N   0  0  0  0  0  0  0  0  0  0  0  0
   -6.5050   -1.7560   -4.2659 C   0  0  0  0  0  0  0  0  0  0  0  0
   -4.5712   -2.3983   -4.8442 H   0  0  0  0  0  0  0  0  0  0  0  0
   -7.0975   -2.6530   -4.0327 H   0  0  0  0  0  0  0  0  0  0  0  0
   -6.8150   -0.9307   -3.6079 H   0  0  0  0  0  0  0  0  0  0  0  0
   -6.6702   -1.4702   -5.3152 H   0  0  0  0  0  0  0  0  0  0  0  0
  1  3  1  0  0  0  0
  1  7  1  0  0  0  0
  1  2  2  0  0  0  0
 40 41  1  0  0  0  0
 41 49  1  0  0  0  0
 41 42  2  0  0  0  0
  8  9  1  0  0  0  0
  9 17  1  0  0  0  0
  9 10  2  0  0  0  0
 18 19  1  0  0  0  0
 19 39  1  0  0  0  0
 19 20  2  0  0  0  0
 40 43  1  0  0  0  0
  8 11  1  0  0  0  0
 49 50  1  0  0  0  0
 22 23  1  0  0  0  0
 21 22  1  0  0  0  0
 23 24  1  0  0  0  0
 18 21  1  0  0  0  0
 24 25  1  0  0  0  0
 39 40  1  0  0  0  0
  7  8  1  0  0  0  0
 17 18  1  0  0  0  0
  3  4  1  0  0  0  0
  3  5  1  0  0  0  0
  3  6  1  0  0  0  0
 43 46  1  0  0  0  0
 43 47  1  0  0  0  0
 43 48  1  0  0  0  0
 11 14  1  0  0  0  0
 11 15  1  0  0  0  0
 11 16  1  0  0  0  0
 50 52  1  0  0  0  0
 50 53  1  0  0  0  0
 50 54  1  0  0  0  0
 22 30  1  0  0  0  0
 22 31  1  0  0  0  0
 23 32  1  0  0  0  0
 23 33  1  0  0  0  0
 21 28  1  0  0  0  0
 21 29  1  0  0  0  0
 24 34  1  0  0  0  0
 24 35  1  0  0  0  0
 40 45  1  0  0  0  0
  8 13  1  0  0  0  0
 18 27  1  0  0  0  0
 49 51  1  0  0  0  0
  7 12  1  0  0  0  0
 39 44  1  0  0  0  0
 17 26  1  0  0  0  0
 25 36  1  0  0  0  0
 25 37  1  0  0  0  0
 25 38  1  0  0  0  0
M  CHG  1  25   1
M  END
$$$$

  -OEChem-05262214473D

 54 53  0     1  0  0  0  0  0999 V2000
    2.6714    2.8829   -3.0005 C   0  0  0  0  0  0  0  0  0  0  0  0
    3.1741    2.4398   -1.9745 O   0  0  0  0  0  0  0  0  0  0  0  0
    3.5527    3.3077   -4.1279 C   0  0  0  0  0  0  0  0  0  0  0  0
    3.8407    4.3691   -4.0597 H   0  0  0  0  0  0  0  0  0  0  0  0
    4.5024    2.7495   -4.1526 H   0  0  0  0  0  0  0  0  0  0  0  0
    3.1208    3.1887   -5.1345 H   0  0  0  0  0  0  0  0  0  0  0  0
    1.3174    3.0407   -3.2467 N   0  0  0  0  0  0  0  0  0  0  0  0
    0.2944    2.6927   -2.2960 C   0  0  2  0  0  0  0  0  0  0  0  0
    0.2976    1.1783   -2.1349 C   0  0  0  0  0  0  0  0  0  0  0  0
    0.7500    0.4142   -2.9850 O   0  0  0  0  0  0  0  0  0  0  0  0
   -1.0710    3.1886   -2.7460 C   0  0  0  0  0  0  0  0  0  0  0  0
    1.0312    3.4224   -4.1464 H   0  0  0  0  0  0  0  0  0  0  0  0
    0.5725    3.1622   -1.3461 H   0  0  0  0  0  0  0  0  0  0  0  0
   -1.3666    2.7292   -3.6963 H   0  0  0  0  0  0  0  0  0  0  0  0
   -1.8434    2.9482   -2.0082 H   0  0  0  0  0  0  0  0  0  0  0  0
   -1.0632    4.2744   -2.8901 H   0  0  0  0  0  0  0  0  0  0  0  0
   -0.3037    0.7742   -0.9484 N   0  0  0  0  0  0  0  0  0  0  0  0
   -0.4352   -0.6095   -0.5718 C   0  0  2  0  0  0  0  0  0  0  0  0
   -0.9188   -1.4045   -1.7803 C   0  0  0  0  0  0  0  0  0  0  0  0
   -0.1908   -2.1610   -2.4199 O   0  0  0  0  0  0  0  0  0  0  0  0
   -1.3354   -0.7863    0.6568 C   0  0  0  0  0  0  0  0  0  0  0  0
   -0.7394   -0.2267    1.9552 C   0  0  0  0  0  0  0  0  0  0  0  0
   -1.6795   -0.4601    3.1401 C   0  0  0  0  0  0  0  0  0  0  0  0
   -1.0965    0.1177    4.4213 C   0  0  0  0  0  0  0  0  0  0  0  0
   -2.0492   -0.1096    5.5344 N   0  3  0  0  0  0  0  0  0  0  0  0
   -0.6336    1.4811   -0.2948 H   0  0  0  0  0  0  0  0  0  0  0  0
    0.5775   -0.9508   -0.3253 H   0  0  0  0  0  0  0  0  0  0  0  0
   -2.2957   -0.2900    0.4657 H   0  0  0  0  0  0  0  0  0  0  0  0
   -1.5545   -1.8518    0.7980 H   0  0  0  0  0  0  0  0  0  0  0  0
    0.2248   -0.7056    2.1614 H   0  0  0  0  0  0  0  0  0  0  0  0
   -0.5525    0.8483    1.8492 H   0  0  0  0  0  0  0  0  0  0  0  0
   -1.8546   -1.5361    3.2637 H   0  0  0  0  0  0  0  0  0  0  0  0
   -2.6528    0.0021    2.9333 H   0  0  0  0  0  0  0  0  0  0  0  0
   -0.1585   -0.3707    4.7016 H   0  0  0  0  0  0  0  0  0  0  0  0
   -0.9425    1.1985    4.3509 H   0  0  0  0  0  0  0  0  0  0  0  0
   -1.8628    0.5300    6.3145 H   0  0  0  0  0  0  0  0  0  0  0  0
   -1.9768   -1.0696    5.8895 H   0  0  0  0  0  0  0  0  0  0  0  0
   -3.0165    0.0410    5.2271 H   0  0  0  0  0  0  0  0  0  0  0  0
   -2.2655   -1.1969   -2.0418 N   0  0  0  0  0  0  0  0  0  0  0  0
   -2.9488   -1.8573   -3.1284 C   0  0  2  0  0  0  0  0  0  0  0  0
   -4.2941   -1.1710   -3.3243 C   0  0  0  0  0  0  0  0  0  0  0  0
   -4.8506   -0.5213   -2.4415 O   0  0  0  0  0  0  0  0  0  0  0  0
   -3.1312   -3.3407   -2.8472 C   0  0  0  0  0  0  0  0  0  0  0  0
   -2.7880   -0.5590   -1.4489 H   0  0  0  0  0  0  0  0  0  0  0  0
   -2.3321   -1.7154   -4.0226 H   0  0  0  0  0  0  0  0  0  0  0  0
   -3.7465   -3.5027   -1.9547 H   0  0  0  0  0  0  0  0  0  0  0  0
   -3.6240   -3.8456   -3.6846 H   0  0  0  0  0  0  0  0  0  0  0  0
   -2.1645   -3.8269   -2.6772 H   0  0  0  0  0  0  0  0  0  0  0  0
   -4.8206   -1.4052   -4.5869 N   0  0  0  0  0  0  0  0  0  0  0  0
   -6.0939   -0.8722   -5.0119 C   0  0  0  0  0  0  0  0  0  0  0  0
   -4.2815   -1.9398   -5.2617 H   0  0  0  0  0  0  0  0  0  0  0  0
   -6.8866   -1.6063   -4.8057 H   0  0  0  0  0  0  0  0  0  0  0  0
   -6.3036    0.0577   -4.4629 H   0  0  0  0  0  0  0  0  0  0  0  0
   -6.0612   -0.6614   -6.0910 H   0  0  0  0  0  0  0  0  0  0  0  0
  1  3  1  0  0  0  0
  1  7  1  0  0  0  0
  1  2  2  0  0  0  0
 40 41  1  0  0  0  0
 41 49  1  0  0  0  0
 41 42  2  0  0  0  0
  8  9  1  0  0  0  0
  9 17  1  0  0  0  0
  9 10  2  0  0  0  0
 18 19  1  0  0  0  0
 19 39  1  0  0  0  0
 19 20  2  0  0  0  0
 40 43  1  0  0  0  0
  8 11  1  0  0  0  0
 49 50  1  0  0  0  0
 22 23  1  0  0  0  0
 21 22  1  0  0  0  0
 23 24  1  0  0  0  0
 18 21  1  0  0  0  0
 24 25  1  0  0  0  0
 39 40  1  0  0  0  0
  7  8  1  0  0  0  0
 17 18  1  0  0  0  0
  3  4  1  0  0  0  0
  3  5  1  0  0  0  0
  3  6  1  0  0  0  0
 43 46  1  0  0  0  0
 43 47  1  0  0  0  0
 43 48  1  0  0  0  0
 11 14  1  0  0  0  0
 11 15  1  0  0  0  0
 11 16  1  0  0  0  0
 50 52  1  0  0  0  0
 50 53  1  0  0  0  0
 50 54  1  0  0  0  0
 22 30  1  0  0  0  0
 22 31  1  0  0  0  0
 23 32  1  0  0  0  0
 23 33  1  0  0  0  0
 21 28  1  0  0  0  0
 21 29  1  0  0  0  0
 24 34  1  0  0  0  0
 24 35  1  0  0  0  0
 40 45  1  0  0  0  0
  8 13  1  0  0  0  0
 18 27  1  0  0  0  0
 49 51  1  0  0  0  0
  7 12  1  0  0  0  0
 39 44  1  0  0  0  0
 17 26  1  0  0  0  0
 25 36  1  0  0  0  0
 25 37  1  0  0  0  0
 25 38  1  0  0  0  0
M  CHG  1  25   1
M  END
$$$$

  -OEChem-05262214473D

 54 53  0     1  0  0  0  0  0999 V2000
    2.6714    2.8829   -3.0005 C   0  0  0  0  0  0  0  0  0  0  0  0
    3.1741    2.4398   -1.9745 O   0  0  0  0  0  0  0  0  0  0  0  0
    3.5527    3.3077   -4.1279 C   0  0  0  0  0  0  0  0  0  0  0  0
    3.8407    4.3691   -4.0597 H   0  0  0  0  0  0  0  0  0  0  0  0
    4.5024    2.7495   -4.1526 H   0  0  0  0  0  0  0  0  0  0  0  0
    3.1208    3.1887   -5.1345 H   0  0  0  0  0  0  0  0  0  0  0  0
    1.3174    3.0407   -3.2467 N   0  0  0  0  0  0  0  0  0  0  0  0
    0.2944    2.6927   -2.2960 C   0  0  2  0  0  0  0  0  0  0  0  0
    0.2976    1.1783   -2.1349 C   0  0  0  0  0  0  0  0  0  0  0  0
    0.7500    0.4142   -2.9850 O   0  0  0  0  0  0  0  0  0  0  0  0
   -1.0710    3.1886   -2.7460 C   0  0  0  0  0  0  0  0  0  0  0  0
    1.0312    3.4224   -4.1464 H   0  0  0  0  0  0  0  0  0  0  0  0
    0.5725    3.1622   -1.3461 H   0  0  0  0  0  0  0  0  0  0  0  0
   -1.3666    2.7292   -3.6963 H   0  0  0  0  0  0  0  0  0  0  0  0
   -1.8434    2.9482   -2.0082 H   0  0  0  0  0  0  0  0  0  0  0  0
   -1.0632    4.2744   -2.8901 H   0  0  0  0  0  0  0  0  0  0  0  0
   -0.3037    0.7742   -0.9484 N   0  0  0  0  0  0  0  0  0  0  0  0
   -0.4352   -0.6095   -0.5718 C   0  0  2  0  0  0  0  0  0  0  0  0
   -0.9188   -1.4045   -1.7803 C   0  0  0  0  0  0  0  0  0  0  0  0
   -0.2917   -2.3489   -2.2559 O   0  0  0  0  0  0  0  0  0  0  0  0
   -1.3354   -0.7863    0.6568 C   0  0  0  0  0  0  0  0  0  0  0  0
   -0.7394   -0.2267    1.9552 C   0  0  0  0  0  0  0  0  0  0  0  0
   -1.6795   -0.4601    3.1401 C   0  0  0  0  0  0  0  0  0  0  0  0
   -1.0965    0.1177    4.4213 C   0  0  0  0  0  0  0  0  0  0  0  0
   -2.0492   -0.1096    5.5344 N   0  3  0  0  0  0  0  0  0  0  0  0
   -0.6336    1.4811   -0.2948 H   0  0  0  0  0  0  0  0  0  0  0  0
    0.5775   -0.9508   -0.3253 H   0  0  0  0  0  0  0  0  0  0  0  0
   -2.2957   -0.2900    0.4657 H   0  0  0  0  0  0  0  0  0  0  0  0
   -1.5545   -1.8518    0.7980 H   0  0  0  0  0  0  0  0  0  0  0  0
    0.2248   -0.7056    2.1614 H   0  0  0  0  0  0  0  0  0  0  0  0
   -0.5525    0.8483    1.8492 H   0  0  0  0  0  0  0  0  0  0  0  0
   -1.8546   -1.5361    3.2637 H   0  0  0  0  0  0  0  0  0  0  0  0
   -2.6528    0.0021    2.9333 H   0  0  0  0  0  0  0  0  0  0  0  0
   -0.1585   -0.3707    4.7016 H   0  0  0  0  0  0  0  0  0  0  0  0
   -0.9425    1.1985    4.3509 H   0  0  0  0  0  0  0  0  0  0  0  0
   -1.8628    0.5300    6.3145 H   0  0  0  0  0  0  0  0  0  0  0  0
   -1.9768   -1.0696    5.8895 H   0  0  0  0  0  0  0  0  0  0  0  0
   -3.0165    0.0410    5.2271 H   0  0  0  0  0  0  0  0  0  0  0  0
   -2.1474   -0.9587   -2.2458 N   0  0  0  0  0  0  0  0  0  0  0  0
   -2.8116   -1.5709   -3.3717 C   0  0  2  0  0  0  0  0  0  0  0  0
   -3.9464   -0.6521   -3.8049 C   0  0  0  0  0  0  0  0  0  0  0  0
   -4.4605    0.1773   -3.0572 O   0  0  0  0  0  0  0  0  0  0  0  0
   -3.3365   -2.9540   -3.0195 C   0  0  0  0  0  0  0  0  0  0  0  0
   -2.5945   -0.1753   -1.7787 H   0  0  0  0  0  0  0  0  0  0  0  0
   -2.0710   -1.6414   -4.1758 H   0  0  0  0  0  0  0  0  0  0  0  0
   -4.0799   -2.9035   -2.2155 H   0  0  0  0  0  0  0  0  0  0  0  0
   -3.8149   -3.4286   -3.8826 H   0  0  0  0  0  0  0  0  0  0  0  0
   -2.5234   -3.6046   -2.6798 H   0  0  0  0  0  0  0  0  0  0  0  0
   -4.3466   -0.8969   -5.1110 N   0  0  0  0  0  0  0  0  0  0  0  0
   -5.4148   -0.1640   -5.7496 C   0  0  0  0  0  0  0  0  0  0  0  0
   -3.8514   -1.5906   -5.6636 H   0  0  0  0  0  0  0  0  0  0  0  0
   -6.3640   -0.7020   -5.6097 H   0  0  0  0  0  0  0  0  0  0  0  0
   -5.4915    0.8374   -5.3008 H   0  0  0  0  0  0  0  0  0  0  0  0
   -5.2024   -0.0687   -6.8246 H   0  0  0  0  0  0  0  0  0  0  0  0
  1  3  1  0  0  0  0
  1  7  1  0  0  0  0
  1  2  2  0  0  0  0
 40 41  1  0  0  0  0
 41 49  1  0  0  0  0
 41 42  2  0  0  0  0
  8  9  1  0  0  0  0
  9 17  1  0  0  0  0
  9 10  2  0  0  0  0
 18 19  1  0  0  0  0
 19 39  1  0  0  0  0
 19 20  2  0  0  0  0
 40 43  1  0  0  0  0
  8 11  1  0  0  0  0
 49 50  1  0  0  0  0
 22 23  1  0  0  0  0
 21 22  1  0  0  0  0
 23 24  1  0  0  0  0
 18 21  1  0  0  0  0
 24 25  1  0  0  0  0
 39 40  1  0  0  0  0
  7  8  1  0  0  0  0
 17 18  1  0  0  0  0
  3  4  1  0  0  0  0
  3  5  1  0  0  0  0
  3  6  1  0  0  0  0
 43 46  1  0  0  0  0
 43 47  1  0  0  0  0
 43 48  1  0  0  0  0
 11 14  1  0  0  0  0
 11 15  1  0  0  0  0
 11 16  1  0  0  0  0
 50 52  1  0  0  0  0
 50 53  1  0  0  0  0
 50 54  1  0  0  0  0
 22 30  1  0  0  0  0
 22 31  1  0  0  0  0
 23 32  1  0  0  0  0
 23 33  1  0  0  0  0
 21 28  1  0  0  0  0
 21 29  1  0  0  0  0
 24 34  1  0  0  0  0
 24 35  1  0  0  0  0
 40 45  1  0  0  0  0
  8 13  1  0  0  0  0
 18 27  1  0  0  0  0
 49 51  1  0  0  0  0
  7 12  1  0  0  0  0
 39 44  1  0  0  0  0
 17 26  1  0  0  0  0
 25 36  1  0  0  0  0
 25 37  1  0  0  0  0
 25 38  1  0  0  0  0
M  CHG  1  25   1
M  END
$$$$

  -OEChem-05262214473D

 54 53  0     1  0  0  0  0  0999 V2000
    2.6714    2.8829   -3.0005 C   0  0  0  0  0  0  0  0  0  0  0  0
    3.1741    2.4398   -1.9745 O   0  0  0  0  0  0  0  0  0  0  0  0
    3.5527    3.3077   -4.1279 C   0  0  0  0  0  0  0  0  0  0  0  0
    3.8407    4.3691   -4.0597 H   0  0  0  0  0  0  0  0  0  0  0  0
    4.5024    2.7495   -4.1526 H   0  0  0  0  0  0  0  0  0  0  0  0
    3.1208    3.1887   -5.1345 H   0  0  0  0  0  0  0  0  0  0  0  0
    1.3174    3.0407   -3.2467 N   0  0  0  0  0  0  0  0  0  0  0  0
    0.2944    2.6927   -2.2960 C   0  0  2  0  0  0  0  0  0  0  0  0
    0.2976    1.1783   -2.1349 C   0  0  0  0  0  0  0  0  0  0  0  0
    0.7500    0.4142   -2.9850 O   0  0  0  0  0  0  0  0  0  0  0  0
   -1.0710    3.1886   -2.7460 C   0  0  0  0  0  0  0  0  0  0  0  0
    1.0312    3.4224   -4.1464 H   0  0  0  0  0  0  0  0  0  0  0  0
    0.5725    3.1622   -1.3461 H   0  0  0  0  0  0  0  0  0  0  0  0
   -1.3666    2.7292   -3.6963 H   0  0  0  0  0  0  0  0  0  0  0  0
   -1.8434    2.9482   -2.0082 H   0  0  0  0  0  0  0  0  0  0  0  0
   -1.0632    4.2744   -2.8901 H   0  0  0  0  0  0  0  0  0  0  0  0
   -0.3037    0.7742   -0.9484 N   0  0  0  0  0  0  0  0  0  0  0  0
   -0.4352   -0.6095   -0.5718 C   0  0  2  0  0  0  0  0  0  0  0  0
   -0.9188   -1.4045   -1.7803 C   0  0  0  0  0  0  0  0  0  0  0  0
   -0.4498   -2.4963   -2.0956 O   0  0  0  0  0  0  0  0  0  0  0  0
   -1.3354   -0.7863    0.6568 C   0  0  0  0  0  0  0  0  0  0  0  0
   -0.7394   -0.2267    1.9552 C   0  0  0  0  0  0  0  0  0  0  0  0
   -1.6795   -0.4601    3.1401 C   0  0  0  0  0  0  0  0  0  0  0  0
   -1.0965    0.1177    4.4213 C   0  0  0  0  0  0  0  0  0  0  0  0
   -2.0492   -0.1096    5.5344 N   0  3  0  0  0  0  0  0  0  0  0  0
   -0.6336    1.4811   -0.2948 H   0  0  0  0  0  0  0  0  0  0  0  0
    0.5775   -0.9508   -0.3253 H   0  0  0  0  0  0  0  0  0  0  0  0
   -2.2957   -0.2900    0.4657 H   0  0  0  0  0  0  0  0  0  0  0  0
   -1.5545   -1.8518    0.7980 H   0  0  0  0  0  0  0  0  0  0  0  0
    0.2248   -0.7056    2.1614 H   0  0  0  0  0  0  0  0  0  0  0  0
   -0.5525    0.8483    1.8492 H   0  0  0  0  0  0  0  0  0  0  0  0
   -1.8546   -1.5361    3.2637 H   0  0  0  0  0  0  0  0  0  0  0  0
   -2.6528    0.0021    2.9333 H   0  0  0  0  0  0  0  0  0  0  0  0
   -0.1585   -0.3707    4.7016 H   0  0  0  0  0  0  0  0  0  0  0  0
   -0.9425    1.1985    4.3509 H   0  0  0  0  0  0  0  0  0  0  0  0
   -1.8628    0.5300    6.3145 H   0  0  0  0  0  0  0  0  0  0  0  0
   -1.9768   -1.0696    5.8895 H   0  0  0  0  0  0  0  0  0  0  0  0
   -3.0165    0.0410    5.2271 H   0  0  0  0  0  0  0  0  0  0  0  0
   -1.9570   -0.7695   -2.4465 N   0  0  0  0  0  0  0  0  0  0  0  0
   -2.5876   -1.3423   -3.6118 C   0  0  2  0  0  0  0  0  0  0  0  0
   -3.4393   -0.2616   -4.2647 C   0  0  0  0  0  0  0  0  0  0  0  0
   -3.8573    0.7216   -3.6567 O   0  0  0  0  0  0  0  0  0  0  0  0
   -3.4323   -2.5525   -3.2452 C   0  0  0  0  0  0  0  0  0  0  0  0
   -2.2843    0.1285   -2.1027 H   0  0  0  0  0  0  0  0  0  0  0  0
   -1.7829   -1.6361   -4.2946 H   0  0  0  0  0  0  0  0  0  0  0  0
   -4.2439   -2.2777   -2.5616 H   0  0  0  0  0  0  0  0  0  0  0  0
   -3.8869   -3.0029   -4.1338 H   0  0  0  0  0  0  0  0  0  0  0  0
   -2.8241   -3.3165   -2.7490 H   0  0  0  0  0  0  0  0  0  0  0  0
   -3.7137   -0.5461   -5.5951 N   0  0  0  0  0  0  0  0  0  0  0  0
   -4.5141    0.3203   -6.4286 C   0  0  0  0  0  0  0  0  0  0  0  0
   -3.3101   -1.3745   -6.0224 H   0  0  0  0  0  0  0  0  0  0  0  0
   -5.5652   -0.0017   -6.3901 H   0  0  0  0  0  0  0  0  0  0  0  0
   -4.4342    1.3552   -6.0646 H   0  0  0  0  0  0  0  0  0  0  0  0
   -4.1523    0.2675   -7.4660 H   0  0  0  0  0  0  0  0  0  0  0  0
  1  3  1  0  0  0  0
  1  7  1  0  0  0  0
  1  2  2  0  0  0  0
 40 41  1  0  0  0  0
 41 49  1  0  0  0  0
 41 42  2  0  0  0  0
  8  9  1  0  0  0  0
  9 17  1  0  0  0  0
  9 10  2  0  0  0  0
 18 19  1  0  0  0  0
 19 39  1  0  0  0  0
 19 20  2  0  0  0  0
 40 43  1  0  0  0  0
  8 11  1  0  0  0  0
 49 50  1  0  0  0  0
 22 23  1  0  0  0  0
 21 22  1  0  0  0  0
 23 24  1  0  0  0  0
 18 21  1  0  0  0  0
 24 25  1  0  0  0  0
 39 40  1  0  0  0  0
  7  8  1  0  0  0  0
 17 18  1  0  0  0  0
  3  4  1  0  0  0  0
  3  5  1  0  0  0  0
  3  6  1  0  0  0  0
 43 46  1  0  0  0  0
 43 47  1  0  0  0  0
 43 48  1  0  0  0  0
 11 14  1  0  0  0  0
 11 15  1  0  0  0  0
 11 16  1  0  0  0  0
 50 52  1  0  0  0  0
 50 53  1  0  0  0  0
 50 54  1  0  0  0  0
 22 30  1  0  0  0  0
 22 31  1  0  0  0  0
 23 32  1  0  0  0  0
 23 33  1  0  0  0  0
 21 28  1  0  0  0  0
 21 29  1  0  0  0  0
 24 34  1  0  0  0  0
 24 35  1  0  0  0  0
 40 45  1  0  0  0  0
  8 13  1  0  0  0  0
 18 27  1  0  0  0  0
 49 51  1  0  0  0  0
  7 12  1  0  0  0  0
 39 44  1  0  0  0  0
 17 26  1  0  0  0  0
 25 36  1  0  0  0  0
 25 37  1  0  0  0  0
 25 38  1  0  0  0  0
M  CHG  1  25   1
M  END
$$$$

  -OEChem-05262214473D

 54 53  0     1  0  0  0  0  0999 V2000
    2.6714    2.8829   -3.0005 C   0  0  0  0  0  0  0  0  0  0  0  0
    3.1741    2.4398   -1.9745 O   0  0  0  0  0  0  0  0  0  0  0  0
    3.5527    3.3077   -4.1279 C   0  0  0  0  0  0  0  0  0  0  0  0
    3.8407    4.3691   -4.0597 H   0  0  0  0  0  0  0  0  0  0  0  0
    4.5024    2.7495   -4.1526 H   0  0  0  0  0  0  0  0  0  0  0  0
    3.1208    3.1887   -5.1345 H   0  0  0  0  0  0  0  0  0  0  0  0
    1.3174    3.0407   -3.2467 N   0  0  0  0  0  0  0  0  0  0  0  0
    0.2944    2.6927   -2.2960 C   0  0  2  0  0  0  0  0  0  0  0  0
    0.2976    1.1783   -2.1349 C   0  0  0  0  0  0  0  0  0  0  0  0
    0.7500    0.4142   -2.9850 O   0  0  0  0  0  0  0  0  0  0  0  0
   -1.0710    3.1886   -2.7460 C   0  0  0  0  0  0  0  0  0  0  0  0
    1.0312    3.4224   -4.1464 H   0  0  0  0  0  0  0  0  0  0  0  0
    0.5725    3.1622   -1.3461 H   0  0  0  0  0  0  0  0  0  0  0  0
   -1.3666    2.7292   -3.6963 H   0  0  0  0  0  0  0  0  0  0  0  0
   -1.8434    2.9482   -2.0082 H   0  0  0  0  0  0  0  0  0  0  0  0
   -1.0632    4.2744   -2.8901 H   0  0  0  0  0  0  0  0  0  0  0  0
   -0.3037    0.7742   -0.9484 N   0  0  0  0  0  0  0  0  0  0  0  0
   -0.4352   -0.6095   -0.5718 C   0  0  2  0  0  0  0  0  0  0  0  0
   -0.9188   -1.4045   -1.7803 C   0  0  0  0  0  0  0  0  0  0  0  0
   -0.6544   -2.5930   -1.9501 O   0  0  0  0  0  0  0  0  0  0  0  0
   -1.3354   -0.7863    0.6568 C   0  0  0  0  0  0  0  0  0  0  0  0
   -0.7394   -0.2267    1.9552 C   0  0  0  0  0  0  0  0  0  0  0  0
   -1.6795   -0.4601    3.1401 C   0  0  0  0  0  0  0  0  0  0  0  0
   -1.0965    0.1177    4.4213 C   0  0  0  0  0  0  0  0  0  0  0  0
   -2.0492   -0.1096    5.5344 N   0  3  0  0  0  0  0  0  0  0  0  0
   -0.6336    1.4811   -0.2948 H   0  0  0  0  0  0  0  0  0  0  0  0
    0.5775   -0.9508   -0.3253 H   0  0  0  0  0  0  0  0  0  0  0  0
   -2.2957   -0.2900    0.4657 H   0  0  0  0  0  0  0  0  0  0  0  0
   -1.5545   -1.8518    0.7980 H   0  0  0  0  0  0  0  0  0  0  0  0
    0.2248   -0.7056    2.1614 H   0  0  0  0  0  0  0  0  0  0  0  0
   -0.5525    0.8483    1.8492 H   0  0  0  0  0  0  0  0  0  0  0  0
   -1.8546   -1.5361    3.2637 H   0  0  0  0  0  0  0  0  0  0  0  0
   -2.6528    0.0021    2.9333 H   0  0  0  0  0  0  0  0  0  0  0  0
   -0.1585   -0.3707    4.7016 H   0  0  0  0  0  0  0  0  0  0  0  0
   -0.9425    1.1985    4.3509 H   0  0  0  0  0  0  0  0  0  0  0  0
   -1.8628    0.5300    6.3145 H   0  0  0  0  0  0  0  0  0  0  0  0
   -1.9768   -1.0696    5.8895 H   0  0  0  0  0  0  0  0  0  0  0  0
   -3.0165    0.0410    5.2271 H   0  0  0  0  0  0  0  0  0  0  0  0
   -1.7073   -0.6422   -2.6302 N   0  0  0  0  0  0  0  0  0  0  0  0
   -2.2919   -1.1871   -3.8322 C   0  0  2  0  0  0  0  0  0  0  0  0
   -2.8073   -0.0261   -4.6725 C   0  0  0  0  0  0  0  0  0  0  0  0
   -3.0822    1.0745   -4.1991 O   0  0  0  0  0  0  0  0  0  0  0  0
   -3.4121   -2.1636   -3.5092 C   0  0  0  0  0  0  0  0  0  0  0  0
   -1.8788    0.3318   -2.3988 H   0  0  0  0  0  0  0  0  0  0  0  0
   -1.4875   -1.6997   -4.3709 H   0  0  0  0  0  0  0  0  0  0  0  0
   -4.2272   -1.6680   -2.9694 H   0  0  0  0  0  0  0  0  0  0  0  0
   -3.8354   -2.5976   -4.4211 H   0  0  0  0  0  0  0  0  0  0  0  0
   -3.0462   -2.9822   -2.8800 H   0  0  0  0  0  0  0  0  0  0  0  0
   -2.9652   -0.3768   -6.0060 N   0  0  0  0  0  0  0  0  0  0  0  0
   -3.4532    0.5476   -7.0027 C   0  0  0  0  0  0  0  0  0  0  0  0
   -2.6945   -1.3062   -6.3137 H   0  0  0  0  0  0  0  0  0  0  0  0
   -4.5448    0.4470   -7.0937 H   0  0  0  0  0  0  0  0  0  0  0  0
   -3.2037    1.5759   -6.7023 H   0  0  0  0  0  0  0  0  0  0  0  0
   -2.9825    0.3242   -7.9715 H   0  0  0  0  0  0  0  0  0  0  0  0
  1  3  1  0  0  0  0
  1  7  1  0  0  0  0
  1  2  2  0  0  0  0
 40 41  1  0  0  0  0
 41 49  1  0  0  0  0
 41 42  2  0  0  0  0
  8  9  1  0  0  0  0
  9 17  1  0  0  0  0
  9 10  2  0  0  0  0
 18 19  1  0  0  0  0
 19 39  1  0  0  0  0
 19 20  2  0  0  0  0
 40 43  1  0  0  0  0
  8 11  1  0  0  0  0
 49 50  1  0  0  0  0
 22 23  1  0  0  0  0
 21 22  1  0  0  0  0
 23 24  1  0  0  0  0
 18 21  1  0  0  0  0
 24 25  1  0  0  0  0
 39 40  1  0  0  0  0
  7  8  1  0  0  0  0
 17 18  1  0  0  0  0
  3  4  1  0  0  0  0
  3  5  1  0  0  0  0
  3  6  1  0  0  0  0
 43 46  1  0  0  0  0
 43 47  1  0  0  0  0
 43 48  1  0  0  0  0
 11 14  1  0  0  0  0
 11 15  1  0  0  0  0
 11 16  1  0  0  0  0
 50 52  1  0  0  0  0
 50 53  1  0  0  0  0
 50 54  1  0  0  0  0
 22 30  1  0  0  0  0
 22 31  1  0  0  0  0
 23 32  1  0  0  0  0
 23 33  1  0  0  0  0
 21 28  1  0  0  0  0
 21 29  1  0  0  0  0
 24 34  1  0  0  0  0
 24 35  1  0  0  0  0
 40 45  1  0  0  0  0
  8 13  1  0  0  0  0
 18 27  1  0  0  0  0
 49 51  1  0  0  0  0
  7 12  1  0  0  0  0
 39 44  1  0  0  0  0
 17 26  1  0  0  0  0
 25 36  1  0  0  0  0
 25 37  1  0  0  0  0
 25 38  1  0  0  0  0
M  CHG  1  25   1
M  END
$$$$

  -OEChem-05262214473D

 54 53  0     1  0  0  0  0  0999 V2000
    2.6714    2.8829   -3.0005 C   0  0  0  0  0  0  0  0  0  0  0  0
    3.1741    2.4398   -1.9745 O   0  0  0  0  0  0  0  0  0  0  0  0
    3.5527    3.3077   -4.1279 C   0  0  0  0  0  0  0  0  0  0  0  0
    3.8407    4.3691   -4.0597 H   0  0  0  0  0  0  0  0  0  0  0  0
    4.5024    2.7495   -4.1526 H   0  0  0  0  0  0  0  0  0  0  0  0
    3.1208    3.1887   -5.1345 H   0  0  0  0  0  0  0  0  0  0  0  0
    1.3174    3.0407   -3.2467 N   0  0  0  0  0  0  0  0  0  0  0  0
    0.2944    2.6927   -2.2960 C   0  0  2  0  0  0  0  0  0  0  0  0
    0.2976    1.1783   -2.1349 C   0  0  0  0  0  0  0  0  0  0  0  0
    0.7500    0.4142   -2.9850 O   0  0  0  0  0  0  0  0  0  0  0  0
   -1.0710    3.1886   -2.7460 C   0  0  0  0  0  0  0  0  0  0  0  0
    1.0312    3.4224   -4.1464 H   0  0  0  0  0  0  0  0  0  0  0  0
    0.5725    3.1622   -1.3461 H   0  0  0  0  0  0  0  0  0  0  0  0
   -1.3666    2.7292   -3.6963 H   0  0  0  0  0  0  0  0  0  0  0  0
   -1.8434    2.9482   -2.0082 H   0  0  0  0  0  0  0  0  0  0  0  0
   -1.0632    4.2744   -2.8901 H   0  0  0  0  0  0  0  0  0  0  0  0
   -0.3037    0.7742   -0.9484 N   0  0  0  0  0  0  0  0  0  0  0  0
   -0.4352   -0.6095   -0.5718 C   0  0  2  0  0  0  0  0  0  0  0  0
   -0.9188   -1.4045   -1.7803 C   0  0  0  0  0  0  0  0  0  0  0  0
   -0.8914   -2.6326   -1.8292 O   0  0  0  0  0  0  0  0  0  0  0  0
   -1.3354   -0.7863    0.6568 C   0  0  0  0  0  0  0  0  0  0  0  0
   -0.7394   -0.2267    1.9552 C   0  0  0  0  0  0  0  0  0  0  0  0
   -1.6795   -0.4601    3.1401 C   0  0  0  0  0  0  0  0  0  0  0  0
   -1.0965    0.1177    4.4213 C   0  0  0  0  0  0  0  0  0  0  0  0
   -2.0492   -0.1096    5.5344 N   0  3  0  0  0  0  0  0  0  0  0  0
   -0.6336    1.4811   -0.2948 H   0  0  0  0  0  0  0  0  0  0  0  0
    0.5775   -0.9508   -0.3253 H   0  0  0  0  0  0  0  0  0  0  0  0
   -2.2957   -0.2900    0.4657 H   0  0  0  0  0  0  0  0  0  0  0  0
   -1.5545   -1.8518    0.7980 H   0  0  0  0  0  0  0  0  0  0  0  0
    0.2248   -0.7056    2.1614 H   0  0  0  0  0  0  0  0  0  0  0  0
   -0.5525    0.8483    1.8492 H   0  0  0  0  0  0  0  0  0  0  0  0
   -1.8546   -1.5361    3.2637 H   0  0  0  0  0  0  0  0  0  0  0  0
   -2.6528    0.0021    2.9333 H   0  0  0  0  0  0  0  0  0  0  0  0
   -0.1585   -0.3707    4.7016 H   0  0  0  0  0  0  0  0  0  0  0  0
   -0.9425    1.1985    4.3509 H   0  0  0  0  0  0  0  0  0  0  0  0
   -1.8628    0.5300    6.3145 H   0  0  0  0  0  0  0  0  0  0  0  0
   -1.9768   -1.0696    5.8895 H   0  0  0  0  0  0  0  0  0  0  0  0
   -3.0165    0.0410    5.2271 H   0  0  0  0  0  0  0  0  0  0  0  0
   -1.4151   -0.5856   -2.7843 N   0  0  0  0  0  0  0  0  0  0  0  0
   -1.9448   -1.1159   -4.0180 C   0  0  2  0  0  0  0  0  0  0  0  0
   -2.0936    0.0382   -5.0005 C   0  0  0  0  0  0  0  0  0  0  0  0
   -2.1879    1.2119   -4.6473 O   0  0  0  0  0  0  0  0  0  0  0  0
   -3.2772   -1.8138   -3.7934 C   0  0  0  0  0  0  0  0  0  0  0  0
   -1.4054    0.4207   -2.6467 H   0  0  0  0  0  0  0  0  0  0  0  0
   -1.2050   -1.8280   -4.3996 H   0  0  0  0  0  0  0  0  0  0  0  0
   -4.0311   -1.1160   -3.4110 H   0  0  0  0  0  0  0  0  0  0  0  0
   -3.6637   -2.2402   -4.7249 H   0  0  0  0  0  0  0  0  0  0  0  0
   -3.1744   -2.6245   -3.0640 H   0  0  0  0  0  0  0  0  0  0  0  0
   -2.1520   -0.4004   -6.3159 N   0  0  0  0  0  0  0  0  0  0  0  0
   -2.3044    0.5025   -7.4328 C   0  0  0  0  0  0  0  0  0  0  0  0
   -2.0465   -1.3903   -6.5177 H   0  0  0  0  0  0  0  0  0  0  0  0
   -3.3722    0.6133   -7.6724 H   0  0  0  0  0  0  0  0  0  0  0  0
   -1.8838    1.4845   -7.1703 H   0  0  0  0  0  0  0  0  0  0  0  0
   -1.7728    0.0976   -8.3066 H   0  0  0  0  0  0  0  0  0  0  0  0
  1  3  1  0  0  0  0
  1  7  1  0  0  0  0
  1  2  2  0  0  0  0
 40 41  1  0  0  0  0
 41 49  1  0  0  0  0
 41 42  2  0  0  0  0
  8  9  1  0  0  0  0
  9 17  1  0  0  0  0
  9 10  2  0  0  0  0
 18 19  1  0  0  0  0
 19 39  1  0  0  0  0
 19 20  2  0  0  0  0
 40 43  1  0  0  0  0
  8 11  1  0  0  0  0
 49 50  1  0  0  0  0
 22 23  1  0  0  0  0
 21 22  1  0  0  0  0
 23 24  1  0  0  0  0
 18 21  1  0  0  0  0
 24 25  1  0  0  0  0
 39 40  1  0  0  0  0
  7  8  1  0  0  0  0
 17 18  1  0  0  0  0
  3  4  1  0  0  0  0
  3  5  1  0  0  0  0
  3  6  1  0  0  0  0
 43 46  1  0  0  0  0
 43 47  1  0  0  0  0
 43 48  1  0  0  0  0
 11 14  1  0  0  0  0
 11 15  1  0  0  0  0
 11 16  1  0  0  0  0
 50 52  1  0  0  0  0
 50 53  1  0  0  0  0
 50 54  1  0  0  0  0
 22 30  1  0  0  0  0
 22 31  1  0  0  0  0
 23 32  1  0  0  0  0
 23 33  1  0  0  0  0
 21 28  1  0  0  0  0
 21 29  1  0  0  0  0
 24 34  1  0  0  0  0
 24 35  1  0  0  0  0
 40 45  1  0  0  0  0
  8 13  1  0  0  0  0
 18 27  1  0  0  0  0
 49 51  1  0  0  0  0
  7 12  1  0  0  0  0
 39 44  1  0  0  0  0
 17 26  1  0  0  0  0
 25 36  1  0  0  0  0
 25 37  1  0  0  0  0
 25 38  1  0  0  0  0
M  CHG  1  25   1
M  END
$$$$

  -OEChem-05262214473D

 54 53  0     1  0  0  0  0  0999 V2000
    2.6714    2.8829   -3.0005 C   0  0  0  0  0  0  0  0  0  0  0  0
    3.1741    2.4398   -1.9745 O   0  0  0  0  0  0  0  0  0  0  0  0
    3.5527    3.3077   -4.1279 C   0  0  0  0  0  0  0  0  0  0  0  0
    3.8407    4.3691   -4.0597 H   0  0  0  0  0  0  0  0  0  0  0  0
    4.5024    2.7495   -4.1526 H   0  0  0  0  0  0  0  0  0  0  0  0
    3.1208    3.1887   -5.1345 H   0  0  0  0  0  0  0  0  0  0  0  0
    1.3174    3.0407   -3.2467 N   0  0  0  0  0  0  0  0  0  0  0  0
    0.2944    2.6927   -2.2960 C   0  0  2  0  0  0  0  0  0  0  0  0
    0.2976    1.1783   -2.1349 C   0  0  0  0  0  0  0  0  0  0  0  0
    0.7500    0.4142   -2.9850 O   0  0  0  0  0  0  0  0  0  0  0  0
   -1.0710    3.1886   -2.7460 C   0  0  0  0  0  0  0  0  0  0  0  0
    1.0312    3.4224   -4.1464 H   0  0  0  0  0  0  0  0  0  0  0  0
    0.5725    3.1622   -1.3461 H   0  0  0  0  0  0  0  0  0  0  0  0
   -1.3666    2.7292   -3.6963 H   0  0  0  0  0  0  0  0  0  0  0  0
   -1.8434    2.9482   -2.0082 H   0  0  0  0  0  0  0  0  0  0  0  0
   -1.0632    4.2744   -2.8901 H   0  0  0  0  0  0  0  0  0  0  0  0
   -0.3037    0.7742   -0.9484 N   0  0  0  0  0  0  0  0  0  0  0  0
   -0.4352   -0.6095   -0.5718 C   0  0  2  0  0  0  0  0  0  0  0  0
   -0.9188   -1.4045   -1.7803 C   0  0  0  0  0  0  0  0  0  0  0  0
   -1.1449   -2.6123   -1.7411 O   0  0  0  0  0  0  0  0  0  0  0  0
   -1.3354   -0.7863    0.6568 C   0  0  0  0  0  0  0  0  0  0  0  0
   -0.7394   -0.2267    1.9552 C   0  0  0  0  0  0  0  0  0  0  0  0
   -1.6795   -0.4601    3.1401 C   0  0  0  0  0  0  0  0  0  0  0  0
   -1.0965    0.1177    4.4213 C   0  0  0  0  0  0  0  0  0  0  0  0
   -2.0492   -0.1096    5.5344 N   0  3  0  0  0  0  0  0  0  0  0  0
   -0.6336    1.4811   -0.2948 H   0  0  0  0  0  0  0  0  0  0  0  0
    0.5775   -0.9508   -0.3253 H   0  0  0  0  0  0  0  0  0  0  0  0
   -2.2957   -0.2900    0.4657 H   0  0  0  0  0  0  0  0  0  0  0  0
   -1.5545   -1.8518    0.7980 H   0  0  0  0  0  0  0  0  0  0  0  0
    0.2248   -0.7056    2.1614 H   0  0  0  0  0  0  0  0  0  0  0  0
   -0.5525    0.8483    1.8492 H   0  0  0  0  0  0  0  0  0  0  0  0
   -1.8546   -1.5361    3.2637 H   0  0  0  0  0  0  0  0  0  0  0  0
   -2.6528    0.0021    2.9333 H   0  0  0  0  0  0  0  0  0  0  0  0
   -0.1585   -0.3707    4.7016 H   0  0  0  0  0  0  0  0  0  0  0  0
   -0.9425    1.1985    4.3509 H   0  0  0  0  0  0  0  0  0  0  0  0
   -1.8628    0.5300    6.3145 H   0  0  0  0  0  0  0  0  0  0  0  0
   -1.9768   -1.0696    5.8895 H   0  0  0  0  0  0  0  0  0  0  0  0
   -3.0165    0.0410    5.2271 H   0  0  0  0  0  0  0  0  0  0  0  0
   -1.1005   -0.6035   -2.8985 N   0  0  0  0  0  0  0  0  0  0  0  0
   -1.5698   -1.1336   -4.1564 C   0  0  2  0  0  0  0  0  0  0  0  0
   -1.3468   -0.0729   -5.2263 C   0  0  0  0  0  0  0  0  0  0  0  0
   -1.2355    1.1244   -4.9709 O   0  0  0  0  0  0  0  0  0  0  0  0
   -3.0368   -1.5268   -4.0784 C   0  0  0  0  0  0  0  0  0  0  0  0
   -0.8964    0.3891   -2.8296 H   0  0  0  0  0  0  0  0  0  0  0  0
   -0.9545   -2.0123   -4.3786 H   0  0  0  0  0  0  0  0  0  0  0  0
   -3.6689   -0.6593   -3.8565 H   0  0  0  0  0  0  0  0  0  0  0  0
   -3.3836   -1.9551   -5.0245 H   0  0  0  0  0  0  0  0  0  0  0  0
   -3.2001   -2.2678   -3.2884 H   0  0  0  0  0  0  0  0  0  0  0  0
   -1.3296   -0.6154   -6.5036 N   0  0  0  0  0  0  0  0  0  0  0  0
   -1.1459    0.1881   -7.6896 C   0  0  0  0  0  0  0  0  0  0  0  0
   -1.4104   -1.6212   -6.6203 H   0  0  0  0  0  0  0  0  0  0  0  0
   -2.1274    0.4861   -8.0868 H   0  0  0  0  0  0  0  0  0  0  0  0
   -0.5645    1.0870   -7.4368 H   0  0  0  0  0  0  0  0  0  0  0  0
   -0.6055   -0.3968   -8.4485 H   0  0  0  0  0  0  0  0  0  0  0  0
  1  3  1  0  0  0  0
  1  7  1  0  0  0  0
  1  2  2  0  0  0  0
 40 41  1  0  0  0  0
 41 49  1  0  0  0  0
 41 42  2  0  0  0  0
  8  9  1  0  0  0  0
  9 17  1  0  0  0  0
  9 10  2  0  0  0  0
 18 19  1  0  0  0  0
 19 39  1  0  0  0  0
 19 20  2  0  0  0  0
 40 43  1  0  0  0  0
  8 11  1  0  0  0  0
 49 50  1  0  0  0  0
 22 23  1  0  0  0  0
 21 22  1  0  0  0  0
 23 24  1  0  0  0  0
 18 21  1  0  0  0  0
 24 25  1  0  0  0  0
 39 40  1  0  0  0  0
  7  8  1  0  0  0  0
 17 18  1  0  0  0  0
  3  4  1  0  0  0  0
  3  5  1  0  0  0  0
  3  6  1  0  0  0  0
 43 46  1  0  0  0  0
 43 47  1  0  0  0  0
 43 48  1  0  0  0  0
 11 14  1  0  0  0  0
 11 15  1  0  0  0  0
 11 16  1  0  0  0  0
 50 52  1  0  0  0  0
 50 53  1  0  0  0  0
 50 54  1  0  0  0  0
 22 30  1  0  0  0  0
 22 31  1  0  0  0  0
 23 32  1  0  0  0  0
 23 33  1  0  0  0  0
 21 28  1  0  0  0  0
 21 29  1  0  0  0  0
 24 34  1  0  0  0  0
 24 35  1  0  0  0  0
 40 45  1  0  0  0  0
  8 13  1  0  0  0  0
 18 27  1  0  0  0  0
 49 51  1  0  0  0  0
  7 12  1  0  0  0  0
 39 44  1  0  0  0  0
 17 26  1  0  0  0  0
 25 36  1  0  0  0  0
 25 37  1  0  0  0  0
 25 38  1  0  0  0  0
M  CHG  1  25   1
M  END
$$$$

  -OEChem-05262214473D

 54 53  0     1  0  0  0  0  0999 V2000
    2.6714    2.8829   -3.0005 C   0  0  0  0  0  0  0  0  0  0  0  0
    3.1741    2.4398   -1.9745 O   0  0  0  0  0  0  0  0  0  0  0  0
    3.5527    3.3077   -4.1279 C   0  0  0  0  0  0  0  0  0  0  0  0
    3.8407    4.3691   -4.0597 H   0  0  0  0  0  0  0  0  0  0  0  0
    4.5024    2.7495   -4.1526 H   0  0  0  0  0  0  0  0  0  0  0  0
    3.1208    3.1887   -5.1345 H   0  0  0  0  0  0  0  0  0  0  0  0
    1.3174    3.0407   -3.2467 N   0  0  0  0  0  0  0  0  0  0  0  0
    0.2944    2.6927   -2.2960 C   0  0  2  0  0  0  0  0  0  0  0  0
    0.2976    1.1783   -2.1349 C   0  0  0  0  0  0  0  0  0  0  0  0
    0.7500    0.4142   -2.9850 O   0  0  0  0  0  0  0  0  0  0  0  0
   -1.0710    3.1886   -2.7460 C   0  0  0  0  0  0  0  0  0  0  0  0
    1.0312    3.4224   -4.1464 H   0  0  0  0  0  0  0  0  0  0  0  0
    0.5725    3.1622   -1.3461 H   0  0  0  0  0  0  0  0  0  0  0  0
   -1.3666    2.7292   -3.6963 H   0  0  0  0  0  0  0  0  0  0  0  0
   -1.8434    2.9482   -2.0082 H   0  0  0  0  0  0  0  0  0  0  0  0
   -1.0632    4.2744   -2.8901 H   0  0  0  0  0  0  0  0  0  0  0  0
   -0.3037    0.7742   -0.9484 N   0  0  0  0  0  0  0  0  0  0  0  0
   -0.4352   -0.6095   -0.5718 C   0  0  2  0  0  0  0  0  0  0  0  0
   -0.9188   -1.4045   -1.7803 C   0  0  0  0  0  0  0  0  0  0  0  0
   -1.3974   -2.5335   -1.6919 O   0  0  0  0  0  0  0  0  0  0  0  0
   -1.3354   -0.7863    0.6568 C   0  0  0  0  0  0  0  0  0  0  0  0
   -0.7394   -0.2267    1.9552 C   0  0  0  0  0  0  0  0  0  0  0  0
   -1.6795   -0.4601    3.1401 C   0  0  0  0  0  0  0  0  0  0  0  0
   -1.0965    0.1177    4.4213 C   0  0  0  0  0  0  0  0  0  0  0  0
   -2.0492   -0.1096    5.5344 N   0  3  0  0  0  0  0  0  0  0  0  0
   -0.6336    1.4811   -0.2948 H   0  0  0  0  0  0  0  0  0  0  0  0
    0.5775   -0.9508   -0.3253 H   0  0  0  0  0  0  0  0  0  0  0  0
   -2.2957   -0.2900    0.4657 H   0  0  0  0  0  0  0  0  0  0  0  0
   -1.5545   -1.8518    0.7980 H   0  0  0  0  0  0  0  0  0  0  0  0
    0.2248   -0.7056    2.1614 H   0  0  0  0  0  0  0  0  0  0  0  0
   -0.5525    0.8483    1.8492 H   0  0  0  0  0  0  0  0  0  0  0  0
   -1.8546   -1.5361    3.2637 H   0  0  0  0  0  0  0  0  0  0  0  0
   -2.6528    0.0021    2.9333 H   0  0  0  0  0  0  0  0  0  0  0  0
   -0.1585   -0.3707    4.7016 H   0  0  0  0  0  0  0  0  0  0  0  0
   -0.9425    1.1985    4.3509 H   0  0  0  0  0  0  0  0  0  0  0  0
   -1.8628    0.5300    6.3145 H   0  0  0  0  0  0  0  0  0  0  0  0
   -1.9768   -1.0696    5.8895 H   0  0  0  0  0  0  0  0  0  0  0  0
   -3.0165    0.0410    5.2271 H   0  0  0  0  0  0  0  0  0  0  0  0
   -0.7849   -0.6946   -2.9648 N   0  0  0  0  0  0  0  0  0  0  0  0
   -1.1926   -1.2389   -4.2381 C   0  0  2  0  0  0  0  0  0  0  0  0
   -0.6177   -0.3519   -5.3345 C   0  0  0  0  0  0  0  0  0  0  0  0
   -0.2899    0.8181   -5.1478 O   0  0  0  0  0  0  0  0  0  0  0  0
   -2.7073   -1.3223   -4.3447 C   0  0  0  0  0  0  0  0  0  0  0  0
   -0.3866    0.2392   -2.9351 H   0  0  0  0  0  0  0  0  0  0  0  0
   -0.7532   -2.2399   -4.3094 H   0  0  0  0  0  0  0  0  0  0  0  0
   -3.1653   -0.3289   -4.2754 H   0  0  0  0  0  0  0  0  0  0  0  0
   -3.0142   -1.7618   -5.2996 H   0  0  0  0  0  0  0  0  0  0  0  0
   -3.1216   -1.9364   -3.5378 H   0  0  0  0  0  0  0  0  0  0  0  0
   -0.5540   -1.0072   -6.5562 N   0  0  0  0  0  0  0  0  0  0  0  0
   -0.0568   -0.3743   -7.7555 C   0  0  0  0  0  0  0  0  0  0  0  0
   -0.8295   -1.9831   -6.6147 H   0  0  0  0  0  0  0  0  0  0  0  0
   -0.8952    0.0739   -8.3088 H   0  0  0  0  0  0  0  0  0  0  0  0
    0.6643    0.4107   -7.4837 H   0  0  0  0  0  0  0  0  0  0  0  0
    0.4397   -1.1253   -8.3875 H   0  0  0  0  0  0  0  0  0  0  0  0
  1  3  1  0  0  0  0
  1  7  1  0  0  0  0
  1  2  2  0  0  0  0
 40 41  1  0  0  0  0
 41 49  1  0  0  0  0
 41 42  2  0  0  0  0
  8  9  1  0  0  0  0
  9 17  1  0  0  0  0
  9 10  2  0  0  0  0
 18 19  1  0  0  0  0
 19 39  1  0  0  0  0
 19 20  2  0  0  0  0
 40 43  1  0  0  0  0
  8 11  1  0  0  0  0
 49 50  1  0  0  0  0
 22 23  1  0  0  0  0
 21 22  1  0  0  0  0
 23 24  1  0  0  0  0
 18 21  1  0  0  0  0
 24 25  1  0  0  0  0
 39 40  1  0  0  0  0
  7  8  1  0  0  0  0
 17 18  1  0  0  0  0
  3  4  1  0  0  0  0
  3  5  1  0  0  0  0
  3  6  1  0  0  0  0
 43 46  1  0  0  0  0
 43 47  1  0  0  0  0
 43 48  1  0  0  0  0
 11 14  1  0  0  0  0
 11 15  1  0  0  0  0
 11 16  1  0  0  0  0
 50 52  1  0  0  0  0
 50 53  1  0  0  0  0
 50 54  1  0  0  0  0
 22 30  1  0  0  0  0
 22 31  1  0  0  0  0
 23 32  1  0  0  0  0
 23 33  1  0  0  0  0
 21 28  1  0  0  0  0
 21 29  1  0  0  0  0
 24 34  1  0  0  0  0
 24 35  1  0  0  0  0
 40 45  1  0  0  0  0
  8 13  1  0  0  0  0
 18 27  1  0  0  0  0
 49 51  1  0  0  0  0
  7 12  1  0  0  0  0
 39 44  1  0  0  0  0
 17 26  1  0  0  0  0
 25 36  1  0  0  0  0
 25 37  1  0  0  0  0
 25 38  1  0  0  0  0
M  CHG  1  25   1
M  END
$$$$

  -OEChem-05262214473D

 54 53  0     1  0  0  0  0  0999 V2000
    2.6714    2.8829   -3.0005 C   0  0  0  0  0  0  0  0  0  0  0  0
    3.1741    2.4398   -1.9745 O   0  0  0  0  0  0  0  0  0  0  0  0
    3.5527    3.3077   -4.1279 C   0  0  0  0  0  0  0  0  0  0  0  0
    3.8407    4.3691   -4.0597 H   0  0  0  0  0  0  0  0  0  0  0  0
    4.5024    2.7495   -4.1526 H   0  0  0  0  0  0  0  0  0  0  0  0
    3.1208    3.1887   -5.1345 H   0  0  0  0  0  0  0  0  0  0  0  0
    1.3174    3.0407   -3.2467 N   0  0  0  0  0  0  0  0  0  0  0  0
    0.2944    2.6927   -2.2960 C   0  0  2  0  0  0  0  0  0  0  0  0
    0.2976    1.1783   -2.1349 C   0  0  0  0  0  0  0  0  0  0  0  0
    0.7500    0.4142   -2.9850 O   0  0  0  0  0  0  0  0  0  0  0  0
   -1.0710    3.1886   -2.7460 C   0  0  0  0  0  0  0  0  0  0  0  0
    1.0312    3.4224   -4.1464 H   0  0  0  0  0  0  0  0  0  0  0  0
    0.5725    3.1622   -1.3461 H   0  0  0  0  0  0  0  0  0  0  0  0
   -1.3666    2.7292   -3.6963 H   0  0  0  0  0  0  0  0  0  0  0  0
   -1.8434    2.9482   -2.0082 H   0  0  0  0  0  0  0  0  0  0  0  0
   -1.0632    4.2744   -2.8901 H   0  0  0  0  0  0  0  0  0  0  0  0
   -0.3037    0.7742   -0.9484 N   0  0  0  0  0  0  0  0  0  0  0  0
   -0.4352   -0.6095   -0.5718 C   0  0  2  0  0  0  0  0  0  0  0  0
   -0.9188   -1.4045   -1.7803 C   0  0  0  0  0  0  0  0  0  0  0  0
   -1.6317   -2.4016   -1.6849 O   0  0  0  0  0  0  0  0  0  0  0  0
   -1.3354   -0.7863    0.6568 C   0  0  0  0  0  0  0  0  0  0  0  0
   -0.7394   -0.2267    1.9552 C   0  0  0  0  0  0  0  0  0  0  0  0
   -1.6795   -0.4601    3.1401 C   0  0  0  0  0  0  0  0  0  0  0  0
   -1.0965    0.1177    4.4213 C   0  0  0  0  0  0  0  0  0  0  0  0
   -2.0492   -0.1096    5.5344 N   0  3  0  0  0  0  0  0  0  0  0  0
   -0.6336    1.4811   -0.2948 H   0  0  0  0  0  0  0  0  0  0  0  0
    0.5775   -0.9508   -0.3253 H   0  0  0  0  0  0  0  0  0  0  0  0
   -2.2957   -0.2900    0.4657 H   0  0  0  0  0  0  0  0  0  0  0  0
   -1.5545   -1.8518    0.7980 H   0  0  0  0  0  0  0  0  0  0  0  0
    0.2248   -0.7056    2.1614 H   0  0  0  0  0  0  0  0  0  0  0  0
   -0.5525    0.8483    1.8492 H   0  0  0  0  0  0  0  0  0  0  0  0
   -1.8546   -1.5361    3.2637 H   0  0  0  0  0  0  0  0  0  0  0  0
   -2.6528    0.0021    2.9333 H   0  0  0  0  0  0  0  0  0  0  0  0
   -0.1585   -0.3707    4.7016 H   0  0  0  0  0  0  0  0  0  0  0  0
   -0.9425    1.1985    4.3509 H   0  0  0  0  0  0  0  0  0  0  0  0
   -1.8628    0.5300    6.3145 H   0  0  0  0  0  0  0  0  0  0  0  0
   -1.9768   -1.0696    5.8895 H   0  0  0  0  0  0  0  0  0  0  0  0
   -3.0165    0.0410    5.2271 H   0  0  0  0  0  0  0  0  0  0  0  0
   -0.4898   -0.8529   -2.9788 N   0  0  0  0  0  0  0  0  0  0  0  0
   -0.8387   -1.4247   -4.2574 C   0  0  2  0  0  0  0  0  0  0  0  0
    0.0440   -0.7798   -5.3178 C   0  0  0  0  0  0  0  0  0  0  0  0
    0.5846    0.3137   -5.1660 O   0  0  0  0  0  0  0  0  0  0  0  0
   -2.3111   -1.2142   -4.5744 C   0  0  0  0  0  0  0  0  0  0  0  0
    0.0893   -0.0187   -2.9558 H   0  0  0  0  0  0  0  0  0  0  0  0
   -0.6147   -2.4953   -4.1968 H   0  0  0  0  0  0  0  0  0  0  0  0
   -2.5546   -0.1474   -4.6391 H   0  0  0  0  0  0  0  0  0  0  0  0
   -2.5806   -1.6734   -5.5313 H   0  0  0  0  0  0  0  0  0  0  0  0
   -2.9441   -1.6529   -3.7954 H   0  0  0  0  0  0  0  0  0  0  0  0
    0.1220   -1.5490   -6.4703 N   0  0  0  0  0  0  0  0  0  0  0  0
    0.8888   -1.1462   -7.6261 C   0  0  0  0  0  0  0  0  0  0  0  0
   -0.3433   -2.4514   -6.5013 H   0  0  0  0  0  0  0  0  0  0  0  0
    0.2404   -0.5951   -8.3231 H   0  0  0  0  0  0  0  0  0  0  0  0
    1.7188   -0.4984   -7.3076 H   0  0  0  0  0  0  0  0  0  0  0  0
    1.2917   -2.0384   -8.1277 H   0  0  0  0  0  0  0  0  0  0  0  0
  1  3  1  0  0  0  0
  1  7  1  0  0  0  0
  1  2  2  0  0  0  0
 40 41  1  0  0  0  0
 41 49  1  0  0  0  0
 41 42  2  0  0  0  0
  8  9  1  0  0  0  0
  9 17  1  0  0  0  0
  9 10  2  0  0  0  0
 18 19  1  0  0  0  0
 19 39  1  0  0  0  0
 19 20  2  0  0  0  0
 40 43  1  0  0  0  0
  8 11  1  0  0  0  0
 49 50  1  0  0  0  0
 22 23  1  0  0  0  0
 21 22  1  0  0  0  0
 23 24  1  0  0  0  0
 18 21  1  0  0  0  0
 24 25  1  0  0  0  0
 39 40  1  0  0  0  0
  7  8  1  0  0  0  0
 17 18  1  0  0  0  0
  3  4  1  0  0  0  0
  3  5  1  0  0  0  0
  3  6  1  0  0  0  0
 43 46  1  0  0  0  0
 43 47  1  0  0  0  0
 43 48  1  0  0  0  0
 11 14  1  0  0  0  0
 11 15  1  0  0  0  0
 11 16  1  0  0  0  0
 50 52  1  0  0  0  0
 50 53  1  0  0  0  0
 50 54  1  0  0  0  0
 22 30  1  0  0  0  0
 22 31  1  0  0  0  0
 23 32  1  0  0  0  0
 23 33  1  0  0  0  0
 21 28  1  0  0  0  0
 21 29  1  0  0  0  0
 24 34  1  0  0  0  0
 24 35  1  0  0  0  0
 40 45  1  0  0  0  0
  8 13  1  0  0  0  0
 18 27  1  0  0  0  0
 49 51  1  0  0  0  0
  7 12  1  0  0  0  0
 39 44  1  0  0  0  0
 17 26  1  0  0  0  0
 25 36  1  0  0  0  0
 25 37  1  0  0  0  0
 25 38  1  0  0  0  0
M  CHG  1  25   1
M  END
$$$$

  -OEChem-05262214473D

 54 53  0     1  0  0  0  0  0999 V2000
    2.6714    2.8829   -3.0005 C   0  0  0  0  0  0  0  0  0  0  0  0
    3.1741    2.4398   -1.9745 O   0  0  0  0  0  0  0  0  0  0  0  0
    3.5527    3.3077   -4.1279 C   0  0  0  0  0  0  0  0  0  0  0  0
    3.8407    4.3691   -4.0597 H   0  0  0  0  0  0  0  0  0  0  0  0
    4.5024    2.7495   -4.1526 H   0  0  0  0  0  0  0  0  0  0  0  0
    3.1208    3.1887   -5.1345 H   0  0  0  0  0  0  0  0  0  0  0  0
    1.3174    3.0407   -3.2467 N   0  0  0  0  0  0  0  0  0  0  0  0
    0.2944    2.6927   -2.2960 C   0  0  2  0  0  0  0  0  0  0  0  0
    0.2976    1.1783   -2.1349 C   0  0  0  0  0  0  0  0  0  0  0  0
    0.7500    0.4142   -2.9850 O   0  0  0  0  0  0  0  0  0  0  0  0
   -1.0710    3.1886   -2.7460 C   0  0  0  0  0  0  0  0  0  0  0  0
    1.0312    3.4224   -4.1464 H   0  0  0  0  0  0  0  0  0  0  0  0
    0.5725    3.1622   -1.3461 H   0  0  0  0  0  0  0  0  0  0  0  0
   -1.3666    2.7292   -3.6963 H   0  0  0  0  0  0  0  0  0  0  0  0
   -1.8434    2.9482   -2.0082 H   0  0  0  0  0  0  0  0  0  0  0  0
   -1.0632    4.2744   -2.8901 H   0  0  0  0  0  0  0  0  0  0  0  0
   -0.3037    0.7742   -0.9484 N   0  0  0  0  0  0  0  0  0  0  0  0
   -0.4352   -0.6095   -0.5718 C   0  0  2  0  0  0  0  0  0  0  0  0
   -0.9188   -1.4045   -1.7803 C   0  0  0  0  0  0  0  0  0  0  0  0
   -1.8320   -2.2255   -1.7206 O   0  0  0  0  0  0  0  0  0  0  0  0
   -1.3354   -0.7863    0.6568 C   0  0  0  0  0  0  0  0  0  0  0  0
   -0.7394   -0.2267    1.9552 C   0  0  0  0  0  0  0  0  0  0  0  0
   -1.6795   -0.4601    3.1401 C   0  0  0  0  0  0  0  0  0  0  0  0
   -1.0965    0.1177    4.4213 C   0  0  0  0  0  0  0  0  0  0  0  0
   -2.0492   -0.1096    5.5344 N   0  3  0  0  0  0  0  0  0  0  0  0
   -0.6336    1.4811   -0.2948 H   0  0  0  0  0  0  0  0  0  0  0  0
    0.5775   -0.9508   -0.3253 H   0  0  0  0  0  0  0  0  0  0  0  0
   -2.2957   -0.2900    0.4657 H   0  0  0  0  0  0  0  0  0  0  0  0
   -1.5545   -1.8518    0.7980 H   0  0  0  0  0  0  0  0  0  0  0  0
    0.2248   -0.7056    2.1614 H   0  0  0  0  0  0  0  0  0  0  0  0
   -0.5525    0.8483    1.8492 H   0  0  0  0  0  0  0  0  0  0  0  0
   -1.8546   -1.5361    3.2637 H   0  0  0  0  0  0  0  0  0  0  0  0
   -2.6528    0.0021    2.9333 H   0  0  0  0  0  0  0  0  0  0  0  0
   -0.1585   -0.3707    4.7016 H   0  0  0  0  0  0  0  0  0  0  0  0
   -0.9425    1.1985    4.3509 H   0  0  0  0  0  0  0  0  0  0  0  0
   -1.8628    0.5300    6.3145 H   0  0  0  0  0  0  0  0  0  0  0  0
   -1.9768   -1.0696    5.8895 H   0  0  0  0  0  0  0  0  0  0  0  0
   -3.0165    0.0410    5.2271 H   0  0  0  0  0  0  0  0  0  0  0  0
   -0.2352   -1.0673   -2.9396 N   0  0  0  0  0  0  0  0  0  0  0  0
   -0.5325   -1.6784   -4.2131 C   0  0  2  0  0  0  0  0  0  0  0  0
    0.5930   -1.3274   -5.1773 C   0  0  0  0  0  0  0  0  0  0  0  0
    1.3284   -0.3543   -5.0242 O   0  0  0  0  0  0  0  0  0  0  0  0
   -1.8753   -1.2099   -4.7516 C   0  0  0  0  0  0  0  0  0  0  0  0
    0.4989   -0.3672   -2.8905 H   0  0  0  0  0  0  0  0  0  0  0  0
   -0.5486   -2.7612   -4.0483 H   0  0  0  0  0  0  0  0  0  0  0  0
   -1.8784   -0.1273   -4.9230 H   0  0  0  0  0  0  0  0  0  0  0  0
   -2.1124   -1.6959   -5.7038 H   0  0  0  0  0  0  0  0  0  0  0  0
   -2.6797   -1.4365   -4.0435 H   0  0  0  0  0  0  0  0  0  0  0  0
    0.6522   -2.2039   -6.2517 N   0  0  0  0  0  0  0  0  0  0  0  0
    1.6264   -2.0751   -7.3101 C   0  0  0  0  0  0  0  0  0  0  0  0
    0.0150   -2.9940   -6.2876 H   0  0  0  0  0  0  0  0  0  0  0  0
    1.2021   -1.4754   -8.1288 H   0  0  0  0  0  0  0  0  0  0  0  0
    2.5273   -1.5783   -6.9207 H   0  0  0  0  0  0  0  0  0  0  0  0
    1.8924   -3.0738   -7.6870 H   0  0  0  0  0  0  0  0  0  0  0  0
  1  3  1  0  0  0  0
  1  7  1  0  0  0  0
  1  2  2  0  0  0  0
 40 41  1  0  0  0  0
 41 49  1  0  0  0  0
 41 42  2  0  0  0  0
  8  9  1  0  0  0  0
  9 17  1  0  0  0  0
  9 10  2  0  0  0  0
 18 19  1  0  0  0  0
 19 39  1  0  0  0  0
 19 20  2  0  0  0  0
 40 43  1  0  0  0  0
  8 11  1  0  0  0  0
 49 50  1  0  0  0  0
 22 23  1  0  0  0  0
 21 22  1  0  0  0  0
 23 24  1  0  0  0  0
 18 21  1  0  0  0  0
 24 25  1  0  0  0  0
 39 40  1  0  0  0  0
  7  8  1  0  0  0  0
 17 18  1  0  0  0  0
  3  4  1  0  0  0  0
  3  5  1  0  0  0  0
  3  6  1  0  0  0  0
 43 46  1  0  0  0  0
 43 47  1  0  0  0  0
 43 48  1  0  0  0  0
 11 14  1  0  0  0  0
 11 15  1  0  0  0  0
 11 16  1  0  0  0  0
 50 52  1  0  0  0  0
 50 53  1  0  0  0  0
 50 54  1  0  0  0  0
 22 30  1  0  0  0  0
 22 31  1  0  0  0  0
 23 32  1  0  0  0  0
 23 33  1  0  0  0  0
 21 28  1  0  0  0  0
 21 29  1  0  0  0  0
 24 34  1  0  0  0  0
 24 35  1  0  0  0  0
 40 45  1  0  0  0  0
  8 13  1  0  0  0  0
 18 27  1  0  0  0  0
 49 51  1  0  0  0  0
  7 12  1  0  0  0  0
 39 44  1  0  0  0  0
 17 26  1  0  0  0  0
 25 36  1  0  0  0  0
 25 37  1  0  0  0  0
 25 38  1  0  0  0  0
M  CHG  1  25   1
M  END
$$$$

  -OEChem-05262214473D

 54 53  0     1  0  0  0  0  0999 V2000
    2.6714    2.8829   -3.0005 C   0  0  0  0  0  0  0  0  0  0  0  0
    3.1741    2.4398   -1.9745 O   0  0  0  0  0  0  0  0  0  0  0  0
    3.5527    3.3077   -4.1279 C   0  0  0  0  0  0  0  0  0  0  0  0
    3.8407    4.3691   -4.0597 H   0  0  0  0  0  0  0  0  0  0  0  0
    4.5024    2.7495   -4.1526 H   0  0  0  0  0  0  0  0  0  0  0  0
    3.1208    3.1887   -5.1345 H   0  0  0  0  0  0  0  0  0  0  0  0
    1.3174    3.0407   -3.2467 N   0  0  0  0  0  0  0  0  0  0  0  0
    0.2944    2.6927   -2.2960 C   0  0  2  0  0  0  0  0  0  0  0  0
    0.2976    1.1783   -2.1349 C   0  0  0  0  0  0  0  0  0  0  0  0
    0.7500    0.4142   -2.9850 O   0  0  0  0  0  0  0  0  0  0  0  0
   -1.0710    3.1886   -2.7460 C   0  0  0  0  0  0  0  0  0  0  0  0
    1.0312    3.4224   -4.1464 H   0  0  0  0  0  0  0  0  0  0  0  0
    0.5725    3.1622   -1.3461 H   0  0  0  0  0  0  0  0  0  0  0  0
   -1.3666    2.7292   -3.6963 H   0  0  0  0  0  0  0  0  0  0  0  0
   -1.8434    2.9482   -2.0082 H   0  0  0  0  0  0  0  0  0  0  0  0
   -1.0632    4.2744   -2.8901 H   0  0  0  0  0  0  0  0  0  0  0  0
   -0.3037    0.7742   -0.9484 N   0  0  0  0  0  0  0  0  0  0  0  0
   -0.4352   -0.6095   -0.5718 C   0  0  2  0  0  0  0  0  0  0  0  0
   -0.9188   -1.4045   -1.7803 C   0  0  0  0  0  0  0  0  0  0  0  0
   -1.9845   -2.0173   -1.7966 O   0  0  0  0  0  0  0  0  0  0  0  0
   -1.3354   -0.7863    0.6568 C   0  0  0  0  0  0  0  0  0  0  0  0
   -0.7394   -0.2267    1.9552 C   0  0  0  0  0  0  0  0  0  0  0  0
   -1.6795   -0.4601    3.1401 C   0  0  0  0  0  0  0  0  0  0  0  0
   -1.0965    0.1177    4.4213 C   0  0  0  0  0  0  0  0  0  0  0  0
   -2.0492   -0.1096    5.5344 N   0  3  0  0  0  0  0  0  0  0  0  0
   -0.6336    1.4811   -0.2948 H   0  0  0  0  0  0  0  0  0  0  0  0
    0.5775   -0.9508   -0.3253 H   0  0  0  0  0  0  0  0  0  0  0  0
   -2.2957   -0.2900    0.4657 H   0  0  0  0  0  0  0  0  0  0  0  0
   -1.5545   -1.8518    0.7980 H   0  0  0  0  0  0  0  0  0  0  0  0
    0.2248   -0.7056    2.1614 H   0  0  0  0  0  0  0  0  0  0  0  0
   -0.5525    0.8483    1.8492 H   0  0  0  0  0  0  0  0  0  0  0  0
   -1.8546   -1.5361    3.2637 H   0  0  0  0  0  0  0  0  0  0  0  0
   -2.6528    0.0021    2.9333 H   0  0  0  0  0  0  0  0  0  0  0  0
   -0.1585   -0.3707    4.7016 H   0  0  0  0  0  0  0  0  0  0  0  0
   -0.9425    1.1985    4.3509 H   0  0  0  0  0  0  0  0  0  0  0  0
   -1.8628    0.5300    6.3145 H   0  0  0  0  0  0  0  0  0  0  0  0
   -1.9768   -1.0696    5.8895 H   0  0  0  0  0  0  0  0  0  0  0  0
   -3.0165    0.0410    5.2271 H   0  0  0  0  0  0  0  0  0  0  0  0
   -0.0387   -1.3235   -2.8497 N   0  0  0  0  0  0  0  0  0  0  0  0
   -0.2946   -1.9825   -4.1082 C   0  0  2  0  0  0  0  0  0  0  0  0
    0.9922   -1.9574   -4.9225 C   0  0  0  0  0  0  0  0  0  0  0  0
    1.8906   -1.1403   -4.7321 O   0  0  0  0  0  0  0  0  0  0  0  0
   -1.4296   -1.3096   -4.8644 C   0  0  0  0  0  0  0  0  0  0  0  0
    0.8143   -0.7824   -2.7435 H   0  0  0  0  0  0  0  0  0  0  0  0
   -0.5592   -3.0194   -3.8742 H   0  0  0  0  0  0  0  0  0  0  0  0
   -1.1828   -0.2697   -5.1077 H   0  0  0  0  0  0  0  0  0  0  0  0
   -1.6415   -1.8278   -5.8055 H   0  0  0  0  0  0  0  0  0  0  0  0
   -2.3465   -1.3021   -4.2653 H   0  0  0  0  0  0  0  0  0  0  0  0
    1.0006   -2.9272   -5.9152 N   0  0  0  0  0  0  0  0  0  0  0  0
    2.1058   -3.0977   -6.8292 C   0  0  0  0  0  0  0  0  0  0  0  0
    0.2209   -3.5741   -5.9884 H   0  0  0  0  0  0  0  0  0  0  0  0
    1.9243   -2.5070   -7.7392 H   0  0  0  0  0  0  0  0  0  0  0  0
    3.0345   -2.7555   -6.3492 H   0  0  0  0  0  0  0  0  0  0  0  0
    2.2008   -4.1609   -7.0952 H   0  0  0  0  0  0  0  0  0  0  0  0
  1  3  1  0  0  0  0
  1  7  1  0  0  0  0
  1  2  2  0  0  0  0
 40 41  1  0  0  0  0
 41 49  1  0  0  0  0
 41 42  2  0  0  0  0
  8  9  1  0  0  0  0
  9 17  1  0  0  0  0
  9 10  2  0  0  0  0
 18 19  1  0  0  0  0
 19 39  1  0  0  0  0
 19 20  2  0  0  0  0
 40 43  1  0  0  0  0
  8 11  1  0  0  0  0
 49 50  1  0  0  0  0
 22 23  1  0  0  0  0
 21 22  1  0  0  0  0
 23 24  1  0  0  0  0
 18 21  1  0  0  0  0
 24 25  1  0  0  0  0
 39 40  1  0  0  0  0
  7  8  1  0  0  0  0
 17 18  1  0  0  0  0
  3  4  1  0  0  0  0
  3  5  1  0  0  0  0
  3  6  1  0  0  0  0
 43 46  1  0  0  0  0
 43 47  1  0  0  0  0
 43 48  1  0  0  0  0
 11 14  1  0  0  0  0
 11 15  1  0  0  0  0
 11 16  1  0  0  0  0
 50 52  1  0  0  0  0
 50 53  1  0  0  0  0
 50 54  1  0  0  0  0
 22 30  1  0  0  0  0
 22 31  1  0  0  0  0
 23 32  1  0  0  0  0
 23 33  1  0  0  0  0
 21 28  1  0  0  0  0
 21 29  1  0  0  0  0
 24 34  1  0  0  0  0
 24 35  1  0  0  0  0
 40 45  1  0  0  0  0
  8 13  1  0  0  0  0
 18 27  1  0  0  0  0
 49 51  1  0  0  0  0
  7 12  1  0  0  0  0
 39 44  1  0  0  0  0
 17 26  1  0  0  0  0
 25 36  1  0  0  0  0
 25 37  1  0  0  0  0
 25 38  1  0  0  0  0
M  CHG  1  25   1
M  END
$$$$

  -OEChem-05262214473D

 54 53  0     1  0  0  0  0  0999 V2000
    2.6714    2.8829   -3.0005 C   0  0  0  0  0  0  0  0  0  0  0  0
    3.1741    2.4398   -1.9745 O   0  0  0  0  0  0  0  0  0  0  0  0
    3.5527    3.3077   -4.1279 C   0  0  0  0  0  0  0  0  0  0  0  0
    3.8407    4.3691   -4.0597 H   0  0  0  0  0  0  0  0  0  0  0  0
    4.5024    2.7495   -4.1526 H   0  0  0  0  0  0  0  0  0  0  0  0
    3.1208    3.1887   -5.1345 H   0  0  0  0  0  0  0  0  0  0  0  0
    1.3174    3.0407   -3.2467 N   0  0  0  0  0  0  0  0  0  0  0  0
    0.2944    2.6927   -2.2960 C   0  0  2  0  0  0  0  0  0  0  0  0
    0.2976    1.1783   -2.1349 C   0  0  0  0  0  0  0  0  0  0  0  0
    0.7500    0.4142   -2.9850 O   0  0  0  0  0  0  0  0  0  0  0  0
   -1.0710    3.1886   -2.7460 C   0  0  0  0  0  0  0  0  0  0  0  0
    1.0312    3.4224   -4.1464 H   0  0  0  0  0  0  0  0  0  0  0  0
    0.5725    3.1622   -1.3461 H   0  0  0  0  0  0  0  0  0  0  0  0
   -1.3666    2.7292   -3.6963 H   0  0  0  0  0  0  0  0  0  0  0  0
   -1.8434    2.9482   -2.0082 H   0  0  0  0  0  0  0  0  0  0  0  0
   -1.0632    4.2744   -2.8901 H   0  0  0  0  0  0  0  0  0  0  0  0
   -0.3037    0.7742   -0.9484 N   0  0  0  0  0  0  0  0  0  0  0  0
   -0.4352   -0.6095   -0.5718 C   0  0  2  0  0  0  0  0  0  0  0  0
   -0.9188   -1.4045   -1.7803 C   0  0  0  0  0  0  0  0  0  0  0  0
   -2.0789   -1.7911   -1.9076 O   0  0  0  0  0  0  0  0  0  0  0  0
   -1.3354   -0.7863    0.6568 C   0  0  0  0  0  0  0  0  0  0  0  0
   -0.7394   -0.2267    1.9552 C   0  0  0  0  0  0  0  0  0  0  0  0
   -1.6795   -0.4601    3.1401 C   0  0  0  0  0  0  0  0  0  0  0  0
   -1.0965    0.1177    4.4213 C   0  0  0  0  0  0  0  0  0  0  0  0
   -2.0492   -0.1096    5.5344 N   0  3  0  0  0  0  0  0  0  0  0  0
   -0.6336    1.4811   -0.2948 H   0  0  0  0  0  0  0  0  0  0  0  0
    0.5775   -0.9508   -0.3253 H   0  0  0  0  0  0  0  0  0  0  0  0
   -2.2957   -0.2900    0.4657 H   0  0  0  0  0  0  0  0  0  0  0  0
   -1.5545   -1.8518    0.7980 H   0  0  0  0  0  0  0  0  0  0  0  0
    0.2248   -0.7056    2.1614 H   0  0  0  0  0  0  0  0  0  0  0  0
   -0.5525    0.8483    1.8492 H   0  0  0  0  0  0  0  0  0  0  0  0
   -1.8546   -1.5361    3.2637 H   0  0  0  0  0  0  0  0  0  0  0  0
   -2.6528    0.0021    2.9333 H   0  0  0  0  0  0  0  0  0  0  0  0
   -0.1585   -0.3707    4.7016 H   0  0  0  0  0  0  0  0  0  0  0  0
   -0.9425    1.1985    4.3509 H   0  0  0  0  0  0  0  0  0  0  0  0
   -1.8628    0.5300    6.3145 H   0  0  0  0  0  0  0  0  0  0  0  0
   -1.9768   -1.0696    5.8895 H   0  0  0  0  0  0  0  0  0  0  0  0
   -3.0165    0.0410    5.2271 H   0  0  0  0  0  0  0  0  0  0  0  0
    0.0865   -1.6039   -2.7154 N   0  0  0  0  0  0  0  0  0  0  0  0
   -0.1414   -2.3165   -3.9499 C   0  0  2  0  0  0  0  0  0  0  0  0
    1.2141   -2.6269   -4.5709 C   0  0  0  0  0  0  0  0  0  0  0  0
    2.2331   -1.9910   -4.3095 O   0  0  0  0  0  0  0  0  0  0  0  0
   -1.0043   -1.5066   -4.9050 C   0  0  0  0  0  0  0  0  0  0  0  0
    1.0139   -1.2361   -2.5250 H   0  0  0  0  0  0  0  0  0  0  0  0
   -0.6459   -3.2524   -3.6862 H   0  0  0  0  0  0  0  0  0  0  0  0
   -0.5152   -0.5652   -5.1805 H   0  0  0  0  0  0  0  0  0  0  0  0
   -1.2000   -2.0602   -5.8293 H   0  0  0  0  0  0  0  0  0  0  0  0
   -1.9672   -1.2589   -4.4455 H   0  0  0  0  0  0  0  0  0  0  0  0
    1.1434   -3.6698   -5.4839 N   0  0  0  0  0  0  0  0  0  0  0  0
    2.2943   -4.1443   -6.2161 C   0  0  0  0  0  0  0  0  0  0  0  0
    0.2605   -4.1522   -5.6240 H   0  0  0  0  0  0  0  0  0  0  0  0
    2.3577   -3.6195   -7.1808 H   0  0  0  0  0  0  0  0  0  0  0  0
    3.2060   -3.9496   -5.6322 H   0  0  0  0  0  0  0  0  0  0  0  0
    2.1960   -5.2256   -6.3928 H   0  0  0  0  0  0  0  0  0  0  0  0
  1  3  1  0  0  0  0
  1  7  1  0  0  0  0
  1  2  2  0  0  0  0
 40 41  1  0  0  0  0
 41 49  1  0  0  0  0
 41 42  2  0  0  0  0
  8  9  1  0  0  0  0
  9 17  1  0  0  0  0
  9 10  2  0  0  0  0
 18 19  1  0  0  0  0
 19 39  1  0  0  0  0
 19 20  2  0  0  0  0
 40 43  1  0  0  0  0
  8 11  1  0  0  0  0
 49 50  1  0  0  0  0
 22 23  1  0  0  0  0
 21 22  1  0  0  0  0
 23 24  1  0  0  0  0
 18 21  1  0  0  0  0
 24 25  1  0  0  0  0
 39 40  1  0  0  0  0
  7  8  1  0  0  0  0
 17 18  1  0  0  0  0
  3  4  1  0  0  0  0
  3  5  1  0  0  0  0
  3  6  1  0  0  0  0
 43 46  1  0  0  0  0
 43 47  1  0  0  0  0
 43 48  1  0  0  0  0
 11 14  1  0  0  0  0
 11 15  1  0  0  0  0
 11 16  1  0  0  0  0
 50 52  1  0  0  0  0
 50 53  1  0  0  0  0
 50 54  1  0  0  0  0
 22 30  1  0  0  0  0
 22 31  1  0  0  0  0
 23 32  1  0  0  0  0
 23 33  1  0  0  0  0
 21 28  1  0  0  0  0
 21 29  1  0  0  0  0
 24 34  1  0  0  0  0
 24 35  1  0  0  0  0
 40 45  1  0  0  0  0
  8 13  1  0  0  0  0
 18 27  1  0  0  0  0
 49 51  1  0  0  0  0
  7 12  1  0  0  0  0
 39 44  1  0  0  0  0
 17 26  1  0  0  0  0
 25 36  1  0  0  0  0
 25 37  1  0  0  0  0
 25 38  1  0  0  0  0
M  CHG  1  25   1
M  END
$$$$

  -OEChem-05262214473D

 54 53  0     1  0  0  0  0  0999 V2000
    2.6714    2.8829   -3.0005 C   0  0  0  0  0  0  0  0  0  0  0  0
    3.1741    2.4398   -1.9745 O   0  0  0  0  0  0  0  0  0  0  0  0
    3.5527    3.3077   -4.1279 C   0  0  0  0  0  0  0  0  0  0  0  0
    3.8407    4.3691   -4.0597 H   0  0  0  0  0  0  0  0  0  0  0  0
    4.5024    2.7495   -4.1526 H   0  0  0  0  0  0  0  0  0  0  0  0
    3.1208    3.1887   -5.1345 H   0  0  0  0  0  0  0  0  0  0  0  0
    1.3174    3.0407   -3.2467 N   0  0  0  0  0  0  0  0  0  0  0  0
    0.2944    2.6927   -2.2960 C   0  0  2  0  0  0  0  0  0  0  0  0
    0.2976    1.1783   -2.1349 C   0  0  0  0  0  0  0  0  0  0  0  0
    0.7500    0.4142   -2.9850 O   0  0  0  0  0  0  0  0  0  0  0  0
   -1.0710    3.1886   -2.7460 C   0  0  0  0  0  0  0  0  0  0  0  0
    1.0312    3.4224   -4.1464 H   0  0  0  0  0  0  0  0  0  0  0  0
    0.5725    3.1622   -1.3461 H   0  0  0  0  0  0  0  0  0  0  0  0
   -1.3666    2.7292   -3.6963 H   0  0  0  0  0  0  0  0  0  0  0  0
   -1.8434    2.9482   -2.0082 H   0  0  0  0  0  0  0  0  0  0  0  0
   -1.0632    4.2744   -2.8901 H   0  0  0  0  0  0  0  0  0  0  0  0
   -0.3037    0.7742   -0.9484 N   0  0  0  0  0  0  0  0  0  0  0  0
   -0.4352   -0.6095   -0.5718 C   0  0  2  0  0  0  0  0  0  0  0  0
   -0.9188   -1.4045   -1.7803 C   0  0  0  0  0  0  0  0  0  0  0  0
   -2.1087   -1.5624   -2.0461 O   0  0  0  0  0  0  0  0  0  0  0  0
   -1.3354   -0.7863    0.6568 C   0  0  0  0  0  0  0  0  0  0  0  0
   -0.7394   -0.2267    1.9552 C   0  0  0  0  0  0  0  0  0  0  0  0
   -1.6795   -0.4601    3.1401 C   0  0  0  0  0  0  0  0  0  0  0  0
   -1.0965    0.1177    4.4213 C   0  0  0  0  0  0  0  0  0  0  0  0
   -2.0492   -0.1096    5.5344 N   0  3  0  0  0  0  0  0  0  0  0  0
   -0.6336    1.4811   -0.2948 H   0  0  0  0  0  0  0  0  0  0  0  0
    0.5775   -0.9508   -0.3253 H   0  0  0  0  0  0  0  0  0  0  0  0
   -2.2957   -0.2900    0.4657 H   0  0  0  0  0  0  0  0  0  0  0  0
   -1.5545   -1.8518    0.7980 H   0  0  0  0  0  0  0  0  0  0  0  0
    0.2248   -0.7056    2.1614 H   0  0  0  0  0  0  0  0  0  0  0  0
   -0.5525    0.8483    1.8492 H   0  0  0  0  0  0  0  0  0  0  0  0
   -1.8546   -1.5361    3.2637 H   0  0  0  0  0  0  0  0  0  0  0  0
   -2.6528    0.0021    2.9333 H   0  0  0  0  0  0  0  0  0  0  0  0
   -0.1585   -0.3707    4.7016 H   0  0  0  0  0  0  0  0  0  0  0  0
   -0.9425    1.1985    4.3509 H   0  0  0  0  0  0  0  0  0  0  0  0
   -1.8628    0.5300    6.3145 H   0  0  0  0  0  0  0  0  0  0  0  0
   -1.9768   -1.0696    5.8895 H   0  0  0  0  0  0  0  0  0  0  0  0
   -3.0165    0.0410    5.2271 H   0  0  0  0  0  0  0  0  0  0  0  0
    0.1319   -1.8893   -2.5457 N   0  0  0  0  0  0  0  0  0  0  0  0
   -0.0833   -2.6575   -3.7488 C   0  0  2  0  0  0  0  0  0  0  0  0
    1.2438   -3.2902   -4.1464 C   0  0  0  0  0  0  0  0  0  0  0  0
    2.3325   -2.8482   -3.7853 O   0  0  0  0  0  0  0  0  0  0  0  0
   -0.6284   -1.7875   -4.8707 C   0  0  0  0  0  0  0  0  0  0  0  0
    1.0843   -1.6973   -2.2497 H   0  0  0  0  0  0  0  0  0  0  0  0
   -0.8028   -3.4442   -3.4973 H   0  0  0  0  0  0  0  0  0  0  0  0
    0.0789   -0.9934   -5.1365 H   0  0  0  0  0  0  0  0  0  0  0  0
   -0.8179   -2.3771   -5.7737 H   0  0  0  0  0  0  0  0  0  0  0  0
   -1.5677   -1.3096   -4.5721 H   0  0  0  0  0  0  0  0  0  0  0  0
    1.0708   -4.3809   -4.9870 N   0  0  0  0  0  0  0  0  0  0  0  0
    2.1790   -5.1436   -5.5126 C   0  0  0  0  0  0  0  0  0  0  0  0
    0.1311   -4.6887   -5.2192 H   0  0  0  0  0  0  0  0  0  0  0  0
    2.4730   -4.7372   -6.4916 H   0  0  0  0  0  0  0  0  0  0  0  0
    3.0300   -5.0794   -4.8185 H   0  0  0  0  0  0  0  0  0  0  0  0
    1.8782   -6.1954   -5.6276 H   0  0  0  0  0  0  0  0  0  0  0  0
  1  3  1  0  0  0  0
  1  7  1  0  0  0  0
  1  2  2  0  0  0  0
 40 41  1  0  0  0  0
 41 49  1  0  0  0  0
 41 42  2  0  0  0  0
  8  9  1  0  0  0  0
  9 17  1  0  0  0  0
  9 10  2  0  0  0  0
 18 19  1  0  0  0  0
 19 39  1  0  0  0  0
 19 20  2  0  0  0  0
 40 43  1  0  0  0  0
  8 11  1  0  0  0  0
 49 50  1  0  0  0  0
 22 23  1  0  0  0  0
 21 22  1  0  0  0  0
 23 24  1  0  0  0  0
 18 21  1  0  0  0  0
 24 25  1  0  0  0  0
 39 40  1  0  0  0  0
  7  8  1  0  0  0  0
 17 18  1  0  0  0  0
  3  4  1  0  0  0  0
  3  5  1  0  0  0  0
  3  6  1  0  0  0  0
 43 46  1  0  0  0  0
 43 47  1  0  0  0  0
 43 48  1  0  0  0  0
 11 14  1  0  0  0  0
 11 15  1  0  0  0  0
 11 16  1  0  0  0  0
 50 52  1  0  0  0  0
 50 53  1  0  0  0  0
 50 54  1  0  0  0  0
 22 30  1  0  0  0  0
 22 31  1  0  0  0  0
 23 32  1  0  0  0  0
 23 33  1  0  0  0  0
 21 28  1  0  0  0  0
 21 29  1  0  0  0  0
 24 34  1  0  0  0  0
 24 35  1  0  0  0  0
 40 45  1  0  0  0  0
  8 13  1  0  0  0  0
 18 27  1  0  0  0  0
 49 51  1  0  0  0  0
  7 12  1  0  0  0  0
 39 44  1  0  0  0  0
 17 26  1  0  0  0  0
 25 36  1  0  0  0  0
 25 37  1  0  0  0  0
 25 38  1  0  0  0  0
M  CHG  1  25   1
M  END
$$$$

  -OEChem-05262214473D

 54 53  0     1  0  0  0  0  0999 V2000
    2.6714    2.8829   -3.0005 C   0  0  0  0  0  0  0  0  0  0  0  0
    3.1741    2.4398   -1.9745 O   0  0  0  0  0  0  0  0  0  0  0  0
    3.5527    3.3077   -4.1279 C   0  0  0  0  0  0  0  0  0  0  0  0
    3.8407    4.3691   -4.0597 H   0  0  0  0  0  0  0  0  0  0  0  0
    4.5024    2.7495   -4.1526 H   0  0  0  0  0  0  0  0  0  0  0  0
    3.1208    3.1887   -5.1345 H   0  0  0  0  0  0  0  0  0  0  0  0
    1.3174    3.0407   -3.2467 N   0  0  0  0  0  0  0  0  0  0  0  0
    0.2944    2.6927   -2.2960 C   0  0  2  0  0  0  0  0  0  0  0  0
    0.2976    1.1783   -2.1349 C   0  0  0  0  0  0  0  0  0  0  0  0
    0.7500    0.4142   -2.9850 O   0  0  0  0  0  0  0  0  0  0  0  0
   -1.0710    3.1886   -2.7460 C   0  0  0  0  0  0  0  0  0  0  0  0
    1.0312    3.4224   -4.1464 H   0  0  0  0  0  0  0  0  0  0  0  0
    0.5725    3.1622   -1.3461 H   0  0  0  0  0  0  0  0  0  0  0  0
   -1.3666    2.7292   -3.6963 H   0  0  0  0  0  0  0  0  0  0  0  0
   -1.8434    2.9482   -2.0082 H   0  0  0  0  0  0  0  0  0  0  0  0
   -1.0632    4.2744   -2.8901 H   0  0  0  0  0  0  0  0  0  0  0  0
   -0.3037    0.7742   -0.9484 N   0  0  0  0  0  0  0  0  0  0  0  0
   -0.4352   -0.6095   -0.5718 C   0  0  2  0  0  0  0  0  0  0  0  0
   -0.9188   -1.4045   -1.7803 C   0  0  0  0  0  0  0  0  0  0  0  0
   -2.0719   -1.3467   -2.2027 O   0  0  0  0  0  0  0  0  0  0  0  0
   -1.3354   -0.7863    0.6568 C   0  0  0  0  0  0  0  0  0  0  0  0
   -0.7394   -0.2267    1.9552 C   0  0  0  0  0  0  0  0  0  0  0  0
   -1.6795   -0.4601    3.1401 C   0  0  0  0  0  0  0  0  0  0  0  0
   -1.0965    0.1177    4.4213 C   0  0  0  0  0  0  0  0  0  0  0  0
   -2.0492   -0.1096    5.5344 N   0  3  0  0  0  0  0  0  0  0  0  0
   -0.6336    1.4811   -0.2948 H   0  0  0  0  0  0  0  0  0  0  0  0
    0.5775   -0.9508   -0.3253 H   0  0  0  0  0  0  0  0  0  0  0  0
   -2.2957   -0.2900    0.4657 H   0  0  0  0  0  0  0  0  0  0  0  0
   -1.5545   -1.8518    0.7980 H   0  0  0  0  0  0  0  0  0  0  0  0
    0.2248   -0.7056    2.1614 H   0  0  0  0  0  0  0  0  0  0  0  0
   -0.5525    0.8483    1.8492 H   0  0  0  0  0  0  0  0  0  0  0  0
   -1.8546   -1.5361    3.2637 H   0  0  0  0  0  0  0  0  0  0  0  0
   -2.6528    0.0021    2.9333 H   0  0  0  0  0  0  0  0  0  0  0  0
   -0.1585   -0.3707    4.7016 H   0  0  0  0  0  0  0  0  0  0  0  0
   -0.9425    1.1985    4.3509 H   0  0  0  0  0  0  0  0  0  0  0  0
   -1.8628    0.5300    6.3145 H   0  0  0  0  0  0  0  0  0  0  0  0
   -1.9768   -1.0696    5.8895 H   0  0  0  0  0  0  0  0  0  0  0  0
   -3.0165    0.0410    5.2271 H   0  0  0  0  0  0  0  0  0  0  0  0
    0.0942   -2.1604   -2.3523 N   0  0  0  0  0  0  0  0  0  0  0  0
   -0.1242   -2.9823   -3.5187 C   0  0  2  0  0  0  0  0  0  0  0  0
    1.0791   -3.9022   -3.6779 C   0  0  0  0  0  0  0  0  0  0  0  0
    2.1820   -3.6536   -3.1953 O   0  0  0  0  0  0  0  0  0  0  0  0
   -0.3275   -2.1330   -4.7638 C   0  0  0  0  0  0  0  0  0  0  0  0
    1.0205   -2.1347   -1.9364 H   0  0  0  0  0  0  0  0  0  0  0  0
   -1.0192   -3.5818   -3.3201 H   0  0  0  0  0  0  0  0  0  0  0  0
    0.5590   -1.5252   -4.9788 H   0  0  0  0  0  0  0  0  0  0  0  0
   -0.5214   -2.7570   -5.6424 H   0  0  0  0  0  0  0  0  0  0  0  0
   -1.1751   -1.4510   -4.6362 H   0  0  0  0  0  0  0  0  0  0  0  0
    0.7879   -5.0121   -4.4585 N   0  0  0  0  0  0  0  0  0  0  0  0
    1.7678   -6.0274   -4.7665 C   0  0  0  0  0  0  0  0  0  0  0  0
   -0.1586   -5.1472   -4.8016 H   0  0  0  0  0  0  0  0  0  0  0  0
    2.2621   -5.7839   -5.7186 H   0  0  0  0  0  0  0  0  0  0  0  0
    2.5186   -6.0679   -3.9636 H   0  0  0  0  0  0  0  0  0  0  0  0
    1.2691   -7.0042   -4.8518 H   0  0  0  0  0  0  0  0  0  0  0  0
  1  3  1  0  0  0  0
  1  7  1  0  0  0  0
  1  2  2  0  0  0  0
 40 41  1  0  0  0  0
 41 49  1  0  0  0  0
 41 42  2  0  0  0  0
  8  9  1  0  0  0  0
  9 17  1  0  0  0  0
  9 10  2  0  0  0  0
 18 19  1  0  0  0  0
 19 39  1  0  0  0  0
 19 20  2  0  0  0  0
 40 43  1  0  0  0  0
  8 11  1  0  0  0  0
 49 50  1  0  0  0  0
 22 23  1  0  0  0  0
 21 22  1  0  0  0  0
 23 24  1  0  0  0  0
 18 21  1  0  0  0  0
 24 25  1  0  0  0  0
 39 40  1  0  0  0  0
  7  8  1  0  0  0  0
 17 18  1  0  0  0  0
  3  4  1  0  0  0  0
  3  5  1  0  0  0  0
  3  6  1  0  0  0  0
 43 46  1  0  0  0  0
 43 47  1  0  0  0  0
 43 48  1  0  0  0  0
 11 14  1  0  0  0  0
 11 15  1  0  0  0  0
 11 16  1  0  0  0  0
 50 52  1  0  0  0  0
 50 53  1  0  0  0  0
 50 54  1  0  0  0  0
 22 30  1  0  0  0  0
 22 31  1  0  0  0  0
 23 32  1  0  0  0  0
 23 33  1  0  0  0  0
 21 28  1  0  0  0  0
 21 29  1  0  0  0  0
 24 34  1  0  0  0  0
 24 35  1  0  0  0  0
 40 45  1  0  0  0  0
  8 13  1  0  0  0  0
 18 27  1  0  0  0  0
 49 51  1  0  0  0  0
  7 12  1  0  0  0  0
 39 44  1  0  0  0  0
 17 26  1  0  0  0  0
 25 36  1  0  0  0  0
 25 37  1  0  0  0  0
 25 38  1  0  0  0  0
M  CHG  1  25   1
M  END
$$$$

  -OEChem-05262214473D

 54 53  0     1  0  0  0  0  0999 V2000
    2.6714    2.8829   -3.0005 C   0  0  0  0  0  0  0  0  0  0  0  0
    3.1741    2.4398   -1.9745 O   0  0  0  0  0  0  0  0  0  0  0  0
    3.5527    3.3077   -4.1279 C   0  0  0  0  0  0  0  0  0  0  0  0
    3.8407    4.3691   -4.0597 H   0  0  0  0  0  0  0  0  0  0  0  0
    4.5024    2.7495   -4.1526 H   0  0  0  0  0  0  0  0  0  0  0  0
    3.1208    3.1887   -5.1345 H   0  0  0  0  0  0  0  0  0  0  0  0
    1.3174    3.0407   -3.2467 N   0  0  0  0  0  0  0  0  0  0  0  0
    0.2944    2.6927   -2.2960 C   0  0  2  0  0  0  0  0  0  0  0  0
    0.2976    1.1783   -2.1349 C   0  0  0  0  0  0  0  0  0  0  0  0
    0.7500    0.4142   -2.9850 O   0  0  0  0  0  0  0  0  0  0  0  0
   -1.0710    3.1886   -2.7460 C   0  0  0  0  0  0  0  0  0  0  0  0
    1.0312    3.4224   -4.1464 H   0  0  0  0  0  0  0  0  0  0  0  0
    0.5725    3.1622   -1.3461 H   0  0  0  0  0  0  0  0  0  0  0  0
   -1.3666    2.7292   -3.6963 H   0  0  0  0  0  0  0  0  0  0  0  0
   -1.8434    2.9482   -2.0082 H   0  0  0  0  0  0  0  0  0  0  0  0
   -1.0632    4.2744   -2.8901 H   0  0  0  0  0  0  0  0  0  0  0  0
   -0.3037    0.7742   -0.9484 N   0  0  0  0  0  0  0  0  0  0  0  0
   -0.4352   -0.6095   -0.5718 C   0  0  2  0  0  0  0  0  0  0  0  0
   -0.9188   -1.4045   -1.7803 C   0  0  0  0  0  0  0  0  0  0  0  0
   -1.9710   -1.1588   -2.3668 O   0  0  0  0  0  0  0  0  0  0  0  0
   -1.3354   -0.7863    0.6568 C   0  0  0  0  0  0  0  0  0  0  0  0
   -0.7394   -0.2267    1.9552 C   0  0  0  0  0  0  0  0  0  0  0  0
   -1.6795   -0.4601    3.1401 C   0  0  0  0  0  0  0  0  0  0  0  0
   -1.0965    0.1177    4.4213 C   0  0  0  0  0  0  0  0  0  0  0  0
   -2.0492   -0.1096    5.5344 N   0  3  0  0  0  0  0  0  0  0  0  0
   -0.6336    1.4811   -0.2948 H   0  0  0  0  0  0  0  0  0  0  0  0
    0.5775   -0.9508   -0.3253 H   0  0  0  0  0  0  0  0  0  0  0  0
   -2.2957   -0.2900    0.4657 H   0  0  0  0  0  0  0  0  0  0  0  0
   -1.5545   -1.8518    0.7980 H   0  0  0  0  0  0  0  0  0  0  0  0
    0.2248   -0.7056    2.1614 H   0  0  0  0  0  0  0  0  0  0  0  0
   -0.5525    0.8483    1.8492 H   0  0  0  0  0  0  0  0  0  0  0  0
   -1.8546   -1.5361    3.2637 H   0  0  0  0  0  0  0  0  0  0  0  0
   -2.6528    0.0021    2.9333 H   0  0  0  0  0  0  0  0  0  0  0  0
   -0.1585   -0.3707    4.7016 H   0  0  0  0  0  0  0  0  0  0  0  0
   -0.9425    1.1985    4.3509 H   0  0  0  0  0  0  0  0  0  0  0  0
   -1.8628    0.5300    6.3145 H   0  0  0  0  0  0  0  0  0  0  0  0
   -1.9768   -1.0696    5.8895 H   0  0  0  0  0  0  0  0  0  0  0  0
   -3.0165    0.0410    5.2271 H   0  0  0  0  0  0  0  0  0  0  0  0
   -0.0238   -2.3987   -2.1483 N   0  0  0  0  0  0  0  0  0  0  0  0
   -0.2613   -3.2687   -3.2754 C   0  0  2  0  0  0  0  0  0  0  0  0
    0.7314   -4.4211   -3.1973 C   0  0  0  0  0  0  0  0  0  0  0  0
    1.7919   -4.3522   -2.5795 O   0  0  0  0  0  0  0  0  0  0  0  0
   -0.1222   -2.5197   -4.5916 C   0  0  0  0  0  0  0  0  0  0  0  0
    0.8269   -2.5183   -1.6066 H   0  0  0  0  0  0  0  0  0  0  0  0
   -1.2803   -3.6558   -3.1670 H   0  0  0  0  0  0  0  0  0  0  0  0
    0.8924   -2.1245   -4.7180 H   0  0  0  0  0  0  0  0  0  0  0  0
   -0.3306   -3.1741   -5.4444 H   0  0  0  0  0  0  0  0  0  0  0  0
   -0.8162   -1.6733   -4.6336 H   0  0  0  0  0  0  0  0  0  0  0  0
    0.3139   -5.5205   -3.9344 N   0  0  0  0  0  0  0  0  0  0  0  0
    1.0887   -6.7356   -4.0289 C   0  0  0  0  0  0  0  0  0  0  0  0
   -0.5887   -5.4965   -4.3998 H   0  0  0  0  0  0  0  0  0  0  0  0
    1.7394   -6.6882   -4.9145 H   0  0  0  0  0  0  0  0  0  0  0  0
    1.7065   -6.8476   -3.1257 H   0  0  0  0  0  0  0  0  0  0  0  0
    0.4103   -7.5969   -4.1182 H   0  0  0  0  0  0  0  0  0  0  0  0
  1  3  1  0  0  0  0
  1  7  1  0  0  0  0
  1  2  2  0  0  0  0
 40 41  1  0  0  0  0
 41 49  1  0  0  0  0
 41 42  2  0  0  0  0
  8  9  1  0  0  0  0
  9 17  1  0  0  0  0
  9 10  2  0  0  0  0
 18 19  1  0  0  0  0
 19 39  1  0  0  0  0
 19 20  2  0  0  0  0
 40 43  1  0  0  0  0
  8 11  1  0  0  0  0
 49 50  1  0  0  0  0
 22 23  1  0  0  0  0
 21 22  1  0  0  0  0
 23 24  1  0  0  0  0
 18 21  1  0  0  0  0
 24 25  1  0  0  0  0
 39 40  1  0  0  0  0
  7  8  1  0  0  0  0
 17 18  1  0  0  0  0
  3  4  1  0  0  0  0
  3  5  1  0  0  0  0
  3  6  1  0  0  0  0
 43 46  1  0  0  0  0
 43 47  1  0  0  0  0
 43 48  1  0  0  0  0
 11 14  1  0  0  0  0
 11 15  1  0  0  0  0
 11 16  1  0  0  0  0
 50 52  1  0  0  0  0
 50 53  1  0  0  0  0
 50 54  1  0  0  0  0
 22 30  1  0  0  0  0
 22 31  1  0  0  0  0
 23 32  1  0  0  0  0
 23 33  1  0  0  0  0
 21 28  1  0  0  0  0
 21 29  1  0  0  0  0
 24 34  1  0  0  0  0
 24 35  1  0  0  0  0
 40 45  1  0  0  0  0
  8 13  1  0  0  0  0
 18 27  1  0  0  0  0
 49 51  1  0  0  0  0
  7 12  1  0  0  0  0
 39 44  1  0  0  0  0
 17 26  1  0  0  0  0
 25 36  1  0  0  0  0
 25 37  1  0  0  0  0
 25 38  1  0  0  0  0
M  CHG  1  25   1
M  END
$$$$

  -OEChem-05262214473D

 54 53  0     1  0  0  0  0  0999 V2000
    2.6714    2.8829   -3.0005 C   0  0  0  0  0  0  0  0  0  0  0  0
    3.1741    2.4398   -1.9745 O   0  0  0  0  0  0  0  0  0  0  0  0
    3.5527    3.3077   -4.1279 C   0  0  0  0  0  0  0  0  0  0  0  0
    3.8407    4.3691   -4.0597 H   0  0  0  0  0  0  0  0  0  0  0  0
    4.5024    2.7495   -4.1526 H   0  0  0  0  0  0  0  0  0  0  0  0
    3.1208    3.1887   -5.1345 H   0  0  0  0  0  0  0  0  0  0  0  0
    1.3174    3.0407   -3.2467 N   0  0  0  0  0  0  0  0  0  0  0  0
    0.2944    2.6927   -2.2960 C   0  0  2  0  0  0  0  0  0  0  0  0
    0.2976    1.1783   -2.1349 C   0  0  0  0  0  0  0  0  0  0  0  0
    0.7500    0.4142   -2.9850 O   0  0  0  0  0  0  0  0  0  0  0  0
   -1.0710    3.1886   -2.7460 C   0  0  0  0  0  0  0  0  0  0  0  0
    1.0312    3.4224   -4.1464 H   0  0  0  0  0  0  0  0  0  0  0  0
    0.5725    3.1622   -1.3461 H   0  0  0  0  0  0  0  0  0  0  0  0
   -1.3666    2.7292   -3.6963 H   0  0  0  0  0  0  0  0  0  0  0  0
   -1.8434    2.9482   -2.0082 H   0  0  0  0  0  0  0  0  0  0  0  0
   -1.0632    4.2744   -2.8901 H   0  0  0  0  0  0  0  0  0  0  0  0
   -0.3037    0.7742   -0.9484 N   0  0  0  0  0  0  0  0  0  0  0  0
   -0.4352   -0.6095   -0.5718 C   0  0  2  0  0  0  0  0  0  0  0  0
   -0.9188   -1.4045   -1.7803 C   0  0  0  0  0  0  0  0  0  0  0  0
   -1.8129   -1.0114   -2.5270 O   0  0  0  0  0  0  0  0  0  0  0  0
   -1.3354   -0.7863    0.6568 C   0  0  0  0  0  0  0  0  0  0  0  0
   -0.7394   -0.2267    1.9552 C   0  0  0  0  0  0  0  0  0  0  0  0
   -1.6795   -0.4601    3.1401 C   0  0  0  0  0  0  0  0  0  0  0  0
   -1.0965    0.1177    4.4213 C   0  0  0  0  0  0  0  0  0  0  0  0
   -2.0492   -0.1096    5.5344 N   0  3  0  0  0  0  0  0  0  0  0  0
   -0.6336    1.4811   -0.2948 H   0  0  0  0  0  0  0  0  0  0  0  0
    0.5775   -0.9508   -0.3253 H   0  0  0  0  0  0  0  0  0  0  0  0
   -2.2957   -0.2900    0.4657 H   0  0  0  0  0  0  0  0  0  0  0  0
   -1.5545   -1.8518    0.7980 H   0  0  0  0  0  0  0  0  0  0  0  0
    0.2248   -0.7056    2.1614 H   0  0  0  0  0  0  0  0  0  0  0  0
   -0.5525    0.8483    1.8492 H   0  0  0  0  0  0  0  0  0  0  0  0
   -1.8546   -1.5361    3.2637 H   0  0  0  0  0  0  0  0  0  0  0  0
   -2.6528    0.0021    2.9333 H   0  0  0  0  0  0  0  0  0  0  0  0
   -0.1585   -0.3707    4.7016 H   0  0  0  0  0  0  0  0  0  0  0  0
   -0.9425    1.1985    4.3509 H   0  0  0  0  0  0  0  0  0  0  0  0
   -1.8628    0.5300    6.3145 H   0  0  0  0  0  0  0  0  0  0  0  0
   -1.9768   -1.0696    5.8895 H   0  0  0  0  0  0  0  0  0  0  0  0
   -3.0165    0.0410    5.2271 H   0  0  0  0  0  0  0  0  0  0  0  0
   -0.2142   -2.5879   -1.9476 N   0  0  0  0  0  0  0  0  0  0  0  0
   -0.4853   -3.4973   -3.0353 C   0  0  2  0  0  0  0  0  0  0  0  0
    0.2243   -4.8116   -2.7375 C   0  0  0  0  0  0  0  0  0  0  0  0
    1.1887   -4.8965   -1.9800 O   0  0  0  0  0  0  0  0  0  0  0  0
   -0.0263   -2.9212   -4.3658 C   0  0  0  0  0  0  0  0  0  0  0  0
    0.5168   -2.8222   -1.2826 H   0  0  0  0  0  0  0  0  0  0  0  0
   -1.5684   -3.6611   -3.0482 H   0  0  0  0  0  0  0  0  0  0  0  0
    1.0563   -2.7503   -4.3719 H   0  0  0  0  0  0  0  0  0  0  0  0
   -0.2585   -3.5997   -5.1933 H   0  0  0  0  0  0  0  0  0  0  0  0
   -0.5154   -1.9614   -4.5644 H   0  0  0  0  0  0  0  0  0  0  0  0
   -0.3190   -5.8712   -3.4503 N   0  0  0  0  0  0  0  0  0  0  0  0
    0.1880   -7.2199   -3.3498 C   0  0  0  0  0  0  0  0  0  0  0  0
   -1.1300   -5.7126   -4.0409 H   0  0  0  0  0  0  0  0  0  0  0  0
    0.9407   -7.3886   -4.1341 H   0  0  0  0  0  0  0  0  0  0  0  0
    0.6492   -7.3654   -2.3618 H   0  0  0  0  0  0  0  0  0  0  0  0
   -0.6398   -7.9331   -3.4768 H   0  0  0  0  0  0  0  0  0  0  0  0
  1  3  1  0  0  0  0
  1  7  1  0  0  0  0
  1  2  2  0  0  0  0
 40 41  1  0  0  0  0
 41 49  1  0  0  0  0
 41 42  2  0  0  0  0
  8  9  1  0  0  0  0
  9 17  1  0  0  0  0
  9 10  2  0  0  0  0
 18 19  1  0  0  0  0
 19 39  1  0  0  0  0
 19 20  2  0  0  0  0
 40 43  1  0  0  0  0
  8 11  1  0  0  0  0
 49 50  1  0  0  0  0
 22 23  1  0  0  0  0
 21 22  1  0  0  0  0
 23 24  1  0  0  0  0
 18 21  1  0  0  0  0
 24 25  1  0  0  0  0
 39 40  1  0  0  0  0
  7  8  1  0  0  0  0
 17 18  1  0  0  0  0
  3  4  1  0  0  0  0
  3  5  1  0  0  0  0
  3  6  1  0  0  0  0
 43 46  1  0  0  0  0
 43 47  1  0  0  0  0
 43 48  1  0  0  0  0
 11 14  1  0  0  0  0
 11 15  1  0  0  0  0
 11 16  1  0  0  0  0
 50 52  1  0  0  0  0
 50 53  1  0  0  0  0
 50 54  1  0  0  0  0
 22 30  1  0  0  0  0
 22 31  1  0  0  0  0
 23 32  1  0  0  0  0
 23 33  1  0  0  0  0
 21 28  1  0  0  0  0
 21 29  1  0  0  0  0
 24 34  1  0  0  0  0
 24 35  1  0  0  0  0
 40 45  1  0  0  0  0
  8 13  1  0  0  0  0
 18 27  1  0  0  0  0
 49 51  1  0  0  0  0
  7 12  1  0  0  0  0
 39 44  1  0  0  0  0
 17 26  1  0  0  0  0
 25 36  1  0  0  0  0
 25 37  1  0  0  0  0
 25 38  1  0  0  0  0
M  CHG  1  25   1
M  END
$$$$

  -OEChem-05262214473D

 54 53  0     1  0  0  0  0  0999 V2000
    2.6714    2.8829   -3.0005 C   0  0  0  0  0  0  0  0  0  0  0  0
    3.1741    2.4398   -1.9745 O   0  0  0  0  0  0  0  0  0  0  0  0
    3.5527    3.3077   -4.1279 C   0  0  0  0  0  0  0  0  0  0  0  0
    3.8407    4.3691   -4.0597 H   0  0  0  0  0  0  0  0  0  0  0  0
    4.5024    2.7495   -4.1526 H   0  0  0  0  0  0  0  0  0  0  0  0
    3.1208    3.1887   -5.1345 H   0  0  0  0  0  0  0  0  0  0  0  0
    1.3174    3.0407   -3.2467 N   0  0  0  0  0  0  0  0  0  0  0  0
    0.2944    2.6927   -2.2960 C   0  0  2  0  0  0  0  0  0  0  0  0
    0.2976    1.1783   -2.1349 C   0  0  0  0  0  0  0  0  0  0  0  0
    0.7500    0.4142   -2.9850 O   0  0  0  0  0  0  0  0  0  0  0  0
   -1.0710    3.1886   -2.7460 C   0  0  0  0  0  0  0  0  0  0  0  0
    1.0312    3.4224   -4.1464 H   0  0  0  0  0  0  0  0  0  0  0  0
    0.5725    3.1622   -1.3461 H   0  0  0  0  0  0  0  0  0  0  0  0
   -1.3666    2.7292   -3.6963 H   0  0  0  0  0  0  0  0  0  0  0  0
   -1.8434    2.9482   -2.0082 H   0  0  0  0  0  0  0  0  0  0  0  0
   -1.0632    4.2744   -2.8901 H   0  0  0  0  0  0  0  0  0  0  0  0
   -0.3037    0.7742   -0.9484 N   0  0  0  0  0  0  0  0  0  0  0  0
   -0.4352   -0.6095   -0.5718 C   0  0  2  0  0  0  0  0  0  0  0  0
   -0.9188   -1.4045   -1.7803 C   0  0  0  0  0  0  0  0  0  0  0  0
   -1.6084   -0.9146   -2.6725 O   0  0  0  0  0  0  0  0  0  0  0  0
   -1.3354   -0.7863    0.6568 C   0  0  0  0  0  0  0  0  0  0  0  0
   -0.7394   -0.2267    1.9552 C   0  0  0  0  0  0  0  0  0  0  0  0
   -1.6795   -0.4601    3.1401 C   0  0  0  0  0  0  0  0  0  0  0  0
   -1.0965    0.1177    4.4213 C   0  0  0  0  0  0  0  0  0  0  0  0
   -2.0492   -0.1096    5.5344 N   0  3  0  0  0  0  0  0  0  0  0  0
   -0.6336    1.4811   -0.2948 H   0  0  0  0  0  0  0  0  0  0  0  0
    0.5775   -0.9508   -0.3253 H   0  0  0  0  0  0  0  0  0  0  0  0
   -2.2957   -0.2900    0.4657 H   0  0  0  0  0  0  0  0  0  0  0  0
   -1.5545   -1.8518    0.7980 H   0  0  0  0  0  0  0  0  0  0  0  0
    0.2248   -0.7056    2.1614 H   0  0  0  0  0  0  0  0  0  0  0  0
   -0.5525    0.8483    1.8492 H   0  0  0  0  0  0  0  0  0  0  0  0
   -1.8546   -1.5361    3.2637 H   0  0  0  0  0  0  0  0  0  0  0  0
   -2.6528    0.0021    2.9333 H   0  0  0  0  0  0  0  0  0  0  0  0
   -0.1585   -0.3707    4.7016 H   0  0  0  0  0  0  0  0  0  0  0  0
   -0.9425    1.1985    4.3509 H   0  0  0  0  0  0  0  0  0  0  0  0
   -1.8628    0.5300    6.3145 H   0  0  0  0  0  0  0  0  0  0  0  0
   -1.9768   -1.0696    5.8895 H   0  0  0  0  0  0  0  0  0  0  0  0
   -3.0165    0.0410    5.2271 H   0  0  0  0  0  0  0  0  0  0  0  0
   -0.4640   -2.7151   -1.7640 N   0  0  0  0  0  0  0  0  0  0  0  0
   -0.7810   -3.6525   -2.8149 C   0  0  2  0  0  0  0  0  0  0  0  0
   -0.4077   -5.0470   -2.3297 C   0  0  0  0  0  0  0  0  0  0  0  0
    0.4136   -5.2494   -1.4377 O   0  0  0  0  0  0  0  0  0  0  0  0
   -0.0466   -3.3101   -4.1018 C   0  0  0  0  0  0  0  0  0  0  0  0
    0.1112   -3.0254   -0.9865 H   0  0  0  0  0  0  0  0  0  0  0  0
   -1.8638   -3.5975   -2.9718 H   0  0  0  0  0  0  0  0  0  0  0  0
    1.0397   -3.3599   -3.9641 H   0  0  0  0  0  0  0  0  0  0  0  0
   -0.3100   -4.0051   -4.9060 H   0  0  0  0  0  0  0  0  0  0  0  0
   -0.2934   -2.2957   -4.4333 H   0  0  0  0  0  0  0  0  0  0  0  0
   -1.0675   -6.0406   -3.0394 N   0  0  0  0  0  0  0  0  0  0  0  0
   -0.8729   -7.4472   -2.7757 C   0  0  0  0  0  0  0  0  0  0  0  0
   -1.7456   -5.7809   -3.7496 H   0  0  0  0  0  0  0  0  0  0  0  0
   -0.0797   -7.8372   -3.4306 H   0  0  0  0  0  0  0  0  0  0  0  0
   -0.5814   -7.5861   -1.7242 H   0  0  0  0  0  0  0  0  0  0  0  0
   -1.8095   -7.9898   -2.9713 H   0  0  0  0  0  0  0  0  0  0  0  0
  1  3  1  0  0  0  0
  1  7  1  0  0  0  0
  1  2  2  0  0  0  0
 40 41  1  0  0  0  0
 41 49  1  0  0  0  0
 41 42  2  0  0  0  0
  8  9  1  0  0  0  0
  9 17  1  0  0  0  0
  9 10  2  0  0  0  0
 18 19  1  0  0  0  0
 19 39  1  0  0  0  0
 19 20  2  0  0  0  0
 40 43  1  0  0  0  0
  8 11  1  0  0  0  0
 49 50  1  0  0  0  0
 22 23  1  0  0  0  0
 21 22  1  0  0  0  0
 23 24  1  0  0  0  0
 18 21  1  0  0  0  0
 24 25  1  0  0  0  0
 39 40  1  0  0  0  0
  7  8  1  0  0  0  0
 17 18  1  0  0  0  0
  3  4  1  0  0  0  0
  3  5  1  0  0  0  0
  3  6  1  0  0  0  0
 43 46  1  0  0  0  0
 43 47  1  0  0  0  0
 43 48  1  0  0  0  0
 11 14  1  0  0  0  0
 11 15  1  0  0  0  0
 11 16  1  0  0  0  0
 50 52  1  0  0  0  0
 50 53  1  0  0  0  0
 50 54  1  0  0  0  0
 22 30  1  0  0  0  0
 22 31  1  0  0  0  0
 23 32  1  0  0  0  0
 23 33  1  0  0  0  0
 21 28  1  0  0  0  0
 21 29  1  0  0  0  0
 24 34  1  0  0  0  0
 24 35  1  0  0  0  0
 40 45  1  0  0  0  0
  8 13  1  0  0  0  0
 18 27  1  0  0  0  0
 49 51  1  0  0  0  0
  7 12  1  0  0  0  0
 39 44  1  0  0  0  0
 17 26  1  0  0  0  0
 25 36  1  0  0  0  0
 25 37  1  0  0  0  0
 25 38  1  0  0  0  0
M  CHG  1  25   1
M  END
$$$$

  -OEChem-05262214473D

 54 53  0     1  0  0  0  0  0999 V2000
    2.6714    2.8829   -3.0005 C   0  0  0  0  0  0  0  0  0  0  0  0
    3.1741    2.4398   -1.9745 O   0  0  0  0  0  0  0  0  0  0  0  0
    3.5527    3.3077   -4.1279 C   0  0  0  0  0  0  0  0  0  0  0  0
    3.8407    4.3691   -4.0597 H   0  0  0  0  0  0  0  0  0  0  0  0
    4.5024    2.7495   -4.1526 H   0  0  0  0  0  0  0  0  0  0  0  0
    3.1208    3.1887   -5.1345 H   0  0  0  0  0  0  0  0  0  0  0  0
    1.3174    3.0407   -3.2467 N   0  0  0  0  0  0  0  0  0  0  0  0
    0.2944    2.6927   -2.2960 C   0  0  2  0  0  0  0  0  0  0  0  0
    0.2976    1.1783   -2.1349 C   0  0  0  0  0  0  0  0  0  0  0  0
    0.7500    0.4142   -2.9850 O   0  0  0  0  0  0  0  0  0  0  0  0
   -1.0710    3.1886   -2.7460 C   0  0  0  0  0  0  0  0  0  0  0  0
    1.0312    3.4224   -4.1464 H   0  0  0  0  0  0  0  0  0  0  0  0
    0.5725    3.1622   -1.3461 H   0  0  0  0  0  0  0  0  0  0  0  0
   -1.3666    2.7292   -3.6963 H   0  0  0  0  0  0  0  0  0  0  0  0
   -1.8434    2.9482   -2.0082 H   0  0  0  0  0  0  0  0  0  0  0  0
   -1.0632    4.2744   -2.8901 H   0  0  0  0  0  0  0  0  0  0  0  0
   -0.3037    0.7742   -0.9484 N   0  0  0  0  0  0  0  0  0  0  0  0
   -0.4352   -0.6095   -0.5718 C   0  0  2  0  0  0  0  0  0  0  0  0
   -0.9188   -1.4045   -1.7803 C   0  0  0  0  0  0  0  0  0  0  0  0
   -1.3713   -0.8751   -2.7934 O   0  0  0  0  0  0  0  0  0  0  0  0
   -1.3354   -0.7863    0.6568 C   0  0  0  0  0  0  0  0  0  0  0  0
   -0.7394   -0.2267    1.9552 C   0  0  0  0  0  0  0  0  0  0  0  0
   -1.6795   -0.4601    3.1401 C   0  0  0  0  0  0  0  0  0  0  0  0
   -1.0965    0.1177    4.4213 C   0  0  0  0  0  0  0  0  0  0  0  0
   -2.0492   -0.1096    5.5344 N   0  3  0  0  0  0  0  0  0  0  0  0
   -0.6336    1.4811   -0.2948 H   0  0  0  0  0  0  0  0  0  0  0  0
    0.5775   -0.9508   -0.3253 H   0  0  0  0  0  0  0  0  0  0  0  0
   -2.2957   -0.2900    0.4657 H   0  0  0  0  0  0  0  0  0  0  0  0
   -1.5545   -1.8518    0.7980 H   0  0  0  0  0  0  0  0  0  0  0  0
    0.2248   -0.7056    2.1614 H   0  0  0  0  0  0  0  0  0  0  0  0
   -0.5525    0.8483    1.8492 H   0  0  0  0  0  0  0  0  0  0  0  0
   -1.8546   -1.5361    3.2637 H   0  0  0  0  0  0  0  0  0  0  0  0
   -2.6528    0.0021    2.9333 H   0  0  0  0  0  0  0  0  0  0  0  0
   -0.1585   -0.3707    4.7016 H   0  0  0  0  0  0  0  0  0  0  0  0
   -0.9425    1.1985    4.3509 H   0  0  0  0  0  0  0  0  0  0  0  0
   -1.8628    0.5300    6.3145 H   0  0  0  0  0  0  0  0  0  0  0  0
   -1.9768   -1.0696    5.8895 H   0  0  0  0  0  0  0  0  0  0  0  0
   -3.0165    0.0410    5.2271 H   0  0  0  0  0  0  0  0  0  0  0  0
   -0.7562   -2.7718   -1.6098 N   0  0  0  0  0  0  0  0  0  0  0  0
   -1.1281   -3.7237   -2.6292 C   0  0  2  0  0  0  0  0  0  0  0  0
   -1.1214   -5.1114   -2.0017 C   0  0  0  0  0  0  0  0  0  0  0  0
   -0.4806   -5.3868   -0.9894 O   0  0  0  0  0  0  0  0  0  0  0  0
   -0.1815   -3.6600   -3.8177 C   0  0  0  0  0  0  0  0  0  0  0  0
   -0.3622   -3.1143   -0.7386 H   0  0  0  0  0  0  0  0  0  0  0  0
   -2.1463   -3.4692   -2.9432 H   0  0  0  0  0  0  0  0  0  0  0  0
    0.8436   -3.9120   -3.5225 H   0  0  0  0  0  0  0  0  0  0  0  0
   -0.4817   -4.3625   -4.6021 H   0  0  0  0  0  0  0  0  0  0  0  0
   -0.1651   -2.6534   -4.2493 H   0  0  0  0  0  0  0  0  0  0  0  0
   -1.8807   -6.0169   -2.7295 N   0  0  0  0  0  0  0  0  0  0  0  0
   -2.0217   -7.4021   -2.3456 C   0  0  0  0  0  0  0  0  0  0  0  0
   -2.3935   -5.6967   -3.5457 H   0  0  0  0  0  0  0  0  0  0  0  0
   -1.2523   -8.0036   -2.8519 H   0  0  0  0  0  0  0  0  0  0  0  0
   -1.9012   -7.4946   -1.2562 H   0  0  0  0  0  0  0  0  0  0  0  0
   -3.0192   -7.7633   -2.6362 H   0  0  0  0  0  0  0  0  0  0  0  0
  1  3  1  0  0  0  0
  1  7  1  0  0  0  0
  1  2  2  0  0  0  0
 40 41  1  0  0  0  0
 41 49  1  0  0  0  0
 41 42  2  0  0  0  0
  8  9  1  0  0  0  0
  9 17  1  0  0  0  0
  9 10  2  0  0  0  0
 18 19  1  0  0  0  0
 19 39  1  0  0  0  0
 19 20  2  0  0  0  0
 40 43  1  0  0  0  0
  8 11  1  0  0  0  0
 49 50  1  0  0  0  0
 22 23  1  0  0  0  0
 21 22  1  0  0  0  0
 23 24  1  0  0  0  0
 18 21  1  0  0  0  0
 24 25  1  0  0  0  0
 39 40  1  0  0  0  0
  7  8  1  0  0  0  0
 17 18  1  0  0  0  0
  3  4  1  0  0  0  0
  3  5  1  0  0  0  0
  3  6  1  0  0  0  0
 43 46  1  0  0  0  0
 43 47  1  0  0  0  0
 43 48  1  0  0  0  0
 11 14  1  0  0  0  0
 11 15  1  0  0  0  0
 11 16  1  0  0  0  0
 50 52  1  0  0  0  0
 50 53  1  0  0  0  0
 50 54  1  0  0  0  0
 22 30  1  0  0  0  0
 22 31  1  0  0  0  0
 23 32  1  0  0  0  0
 23 33  1  0  0  0  0
 21 28  1  0  0  0  0
 21 29  1  0  0  0  0
 24 34  1  0  0  0  0
 24 35  1  0  0  0  0
 40 45  1  0  0  0  0
  8 13  1  0  0  0  0
 18 27  1  0  0  0  0
 49 51  1  0  0  0  0
  7 12  1  0  0  0  0
 39 44  1  0  0  0  0
 17 26  1  0  0  0  0
 25 36  1  0  0  0  0
 25 37  1  0  0  0  0
 25 38  1  0  0  0  0
M  CHG  1  25   1
M  END
$$$$

  -OEChem-05262214473D

 54 53  0     1  0  0  0  0  0999 V2000
    2.6714    2.8829   -3.0005 C   0  0  0  0  0  0  0  0  0  0  0  0
    3.1741    2.4398   -1.9745 O   0  0  0  0  0  0  0  0  0  0  0  0
    3.5527    3.3077   -4.1279 C   0  0  0  0  0  0  0  0  0  0  0  0
    3.8407    4.3691   -4.0597 H   0  0  0  0  0  0  0  0  0  0  0  0
    4.5024    2.7495   -4.1526 H   0  0  0  0  0  0  0  0  0  0  0  0
    3.1208    3.1887   -5.1345 H   0  0  0  0  0  0  0  0  0  0  0  0
    1.3174    3.0407   -3.2467 N   0  0  0  0  0  0  0  0  0  0  0  0
    0.2944    2.6927   -2.2960 C   0  0  2  0  0  0  0  0  0  0  0  0
    0.2976    1.1783   -2.1349 C   0  0  0  0  0  0  0  0  0  0  0  0
    0.7500    0.4142   -2.9850 O   0  0  0  0  0  0  0  0  0  0  0  0
   -1.0710    3.1886   -2.7460 C   0  0  0  0  0  0  0  0  0  0  0  0
    1.0312    3.4224   -4.1464 H   0  0  0  0  0  0  0  0  0  0  0  0
    0.5725    3.1622   -1.3461 H   0  0  0  0  0  0  0  0  0  0  0  0
   -1.3666    2.7292   -3.6963 H   0  0  0  0  0  0  0  0  0  0  0  0
   -1.8434    2.9482   -2.0082 H   0  0  0  0  0  0  0  0  0  0  0  0
   -1.0632    4.2744   -2.8901 H   0  0  0  0  0  0  0  0  0  0  0  0
   -0.3037    0.7742   -0.9484 N   0  0  0  0  0  0  0  0  0  0  0  0
   -0.4352   -0.6095   -0.5718 C   0  0  2  0  0  0  0  0  0  0  0  0
   -0.5496   -1.4548   -1.8362 C   0  0  0  0  0  0  0  0  0  0  0  0
   -0.5000   -0.9777   -2.9682 O   0  0  0  0  0  0  0  0  0  0  0  0
   -1.6000   -0.8309    0.4003 C   0  0  0  0  0  0  0  0  0  0  0  0
   -1.3844   -0.2111    1.7872 C   0  0  0  0  0  0  0  0  0  0  0  0
   -2.5733   -0.4924    2.7091 C   0  0  0  0  0  0  0  0  0  0  0  0
   -2.3670    0.1444    4.0755 C   0  0  0  0  0  0  0  0  0  0  0  0
   -3.5506   -0.1329    4.9244 N   0  3  0  0  0  0  0  0  0  0  0  0
   -0.6336    1.4811   -0.2948 H   0  0  0  0  0  0  0  0  0  0  0  0
    0.5038   -0.8746   -0.0711 H   0  0  0  0  0  0  0  0  0  0  0  0
   -2.5124   -0.4066   -0.0387 H   0  0  0  0  0  0  0  0  0  0  0  0
   -1.7781   -1.9070    0.5171 H   0  0  0  0  0  0  0  0  0  0  0  0
   -0.4732   -0.6175    2.2414 H   0  0  0  0  0  0  0  0  0  0  0  0
   -1.2469    0.8727    1.6963 H   0  0  0  0  0  0  0  0  0  0  0  0
   -2.7037   -1.5761    2.8199 H   0  0  0  0  0  0  0  0  0  0  0  0
   -3.4920   -0.1033    2.2527 H   0  0  0  0  0  0  0  0  0  0  0  0
   -1.4990   -0.2723    4.5951 H   0  0  0  0  0  0  0  0  0  0  0  0
   -2.2706    1.2322    4.0107 H   0  0  0  0  0  0  0  0  0  0  0  0
   -3.6065    0.5300    5.7053 H   0  0  0  0  0  0  0  0  0  0  0  0
   -3.5071   -1.0798    5.3170 H   0  0  0  0  0  0  0  0  0  0  0  0
   -4.4182   -0.0556    4.3822 H   0  0  0  0  0  0  0  0  0  0  0  0
   -0.6801   -2.8071   -1.5548 N   0  0  0  0  0  0  0  0  0  0  0  0
   -0.7880   -3.8023   -2.5948 C   0  0  2  0  0  0  0  0  0  0  0  0
   -1.2354   -5.1082   -1.9515 C   0  0  0  0  0  0  0  0  0  0  0  0
   -1.0725   -5.3590   -0.7591 O   0  0  0  0  0  0  0  0  0  0  0  0
    0.5323   -3.9819   -3.3279 C   0  0  0  0  0  0  0  0  0  0  0  0
   -0.7004   -3.1069   -0.5846 H   0  0  0  0  0  0  0  0  0  0  0  0
   -1.5605   -3.4526   -3.2883 H   0  0  0  0  0  0  0  0  0  0  0  0
    1.3186   -4.3319   -2.6492 H   0  0  0  0  0  0  0  0  0  0  0  0
    0.4413   -4.7163   -4.1350 H   0  0  0  0  0  0  0  0  0  0  0  0
    0.8675   -3.0350   -3.7647 H   0  0  0  0  0  0  0  0  0  0  0  0
   -1.7991   -5.9783   -2.8742 N   0  0  0  0  0  0  0  0  0  0  0  0
   -2.2898   -7.2876   -2.5125 C   0  0  0  0  0  0  0  0  0  0  0  0
   -1.9115   -5.6798   -3.8386 H   0  0  0  0  0  0  0  0  0  0  0  0
   -1.4919   -8.0312   -2.6552 H   0  0  0  0  0  0  0  0  0  0  0  0
   -2.6025   -7.2834   -1.4579 H   0  0  0  0  0  0  0  0  0  0  0  0
   -3.1493   -7.5455   -3.1487 H   0  0  0  0  0  0  0  0  0  0  0  0
  1  3  1  0  0  0  0
  1  7  1  0  0  0  0
  1  2  2  0  0  0  0
 40 41  1  0  0  0  0
 41 49  1  0  0  0  0
 41 42  2  0  0  0  0
  8  9  1  0  0  0  0
  9 17  1  0  0  0  0
  9 10  2  0  0  0  0
 18 19  1  0  0  0  0
 19 39  1  0  0  0  0
 19 20  2  0  0  0  0
 40 43  1  0  0  0  0
  8 11  1  0  0  0  0
 49 50  1  0  0  0  0
 22 23  1  0  0  0  0
 21 22  1  0  0  0  0
 23 24  1  0  0  0  0
 18 21  1  0  0  0  0
 24 25  1  0  0  0  0
 39 40  1  0  0  0  0
  7  8  1  0  0  0  0
 17 18  1  0  0  0  0
  3  4  1  0  0  0  0
  3  5  1  0  0  0  0
  3  6  1  0  0  0  0
 43 46  1  0  0  0  0
 43 47  1  0  0  0  0
 43 48  1  0  0  0  0
 11 14  1  0  0  0  0
 11 15  1  0  0  0  0
 11 16  1  0  0  0  0
 50 52  1  0  0  0  0
 50 53  1  0  0  0  0
 50 54  1  0  0  0  0
 22 30  1  0  0  0  0
 22 31  1  0  0  0  0
 23 32  1  0  0  0  0
 23 33  1  0  0  0  0
 21 28  1  0  0  0  0
 21 29  1  0  0  0  0
 24 34  1  0  0  0  0
 24 35  1  0  0  0  0
 40 45  1  0  0  0  0
  8 13  1  0  0  0  0
 18 27  1  0  0  0  0
 49 51  1  0  0  0  0
  7 12  1  0  0  0  0
 39 44  1  0  0  0  0
 17 26  1  0  0  0  0
 25 36  1  0  0  0  0
 25 37  1  0  0  0  0
 25 38  1  0  0  0  0
M  CHG  1  25   1
M  END
$$$$

  -OEChem-05262214473D

 54 53  0     1  0  0  0  0  0999 V2000
    2.6714    2.8829   -3.0005 C   0  0  0  0  0  0  0  0  0  0  0  0
    3.1741    2.4398   -1.9745 O   0  0  0  0  0  0  0  0  0  0  0  0
    3.5527    3.3077   -4.1279 C   0  0  0  0  0  0  0  0  0  0  0  0
    3.8407    4.3691   -4.0597 H   0  0  0  0  0  0  0  0  0  0  0  0
    4.5024    2.7495   -4.1526 H   0  0  0  0  0  0  0  0  0  0  0  0
    3.1208    3.1887   -5.1345 H   0  0  0  0  0  0  0  0  0  0  0  0
    1.3174    3.0407   -3.2467 N   0  0  0  0  0  0  0  0  0  0  0  0
    0.2944    2.6927   -2.2960 C   0  0  2  0  0  0  0  0  0  0  0  0
    0.2976    1.1783   -2.1349 C   0  0  0  0  0  0  0  0  0  0  0  0
    0.7500    0.4142   -2.9850 O   0  0  0  0  0  0  0  0  0  0  0  0
   -1.0710    3.1886   -2.7460 C   0  0  0  0  0  0  0  0  0  0  0  0
    1.0312    3.4224   -4.1464 H   0  0  0  0  0  0  0  0  0  0  0  0
    0.5725    3.1622   -1.3461 H   0  0  0  0  0  0  0  0  0  0  0  0
   -1.3666    2.7292   -3.6963 H   0  0  0  0  0  0  0  0  0  0  0  0
   -1.8434    2.9482   -2.0082 H   0  0  0  0  0  0  0  0  0  0  0  0
   -1.0632    4.2744   -2.8901 H   0  0  0  0  0  0  0  0  0  0  0  0
   -0.3037    0.7742   -0.9484 N   0  0  0  0  0  0  0  0  0  0  0  0
   -0.4352   -0.6095   -0.5718 C   0  0  2  0  0  0  0  0  0  0  0  0
   -0.5496   -1.4548   -1.8362 C   0  0  0  0  0  0  0  0  0  0  0  0
   -0.2387   -1.0392   -2.9507 O   0  0  0  0  0  0  0  0  0  0  0  0
   -1.6000   -0.8309    0.4003 C   0  0  0  0  0  0  0  0  0  0  0  0
   -1.3844   -0.2111    1.7872 C   0  0  0  0  0  0  0  0  0  0  0  0
   -2.5733   -0.4924    2.7091 C   0  0  0  0  0  0  0  0  0  0  0  0
   -2.3670    0.1444    4.0755 C   0  0  0  0  0  0  0  0  0  0  0  0
   -3.5506   -0.1329    4.9244 N   0  3  0  0  0  0  0  0  0  0  0  0
   -0.6336    1.4811   -0.2948 H   0  0  0  0  0  0  0  0  0  0  0  0
    0.5038   -0.8746   -0.0711 H   0  0  0  0  0  0  0  0  0  0  0  0
   -2.5124   -0.4066   -0.0387 H   0  0  0  0  0  0  0  0  0  0  0  0
   -1.7781   -1.9070    0.5171 H   0  0  0  0  0  0  0  0  0  0  0  0
   -0.4732   -0.6175    2.2414 H   0  0  0  0  0  0  0  0  0  0  0  0
   -1.2469    0.8727    1.6963 H   0  0  0  0  0  0  0  0  0  0  0  0
   -2.7037   -1.5761    2.8199 H   0  0  0  0  0  0  0  0  0  0  0  0
   -3.4920   -0.1033    2.2527 H   0  0  0  0  0  0  0  0  0  0  0  0
   -1.4990   -0.2723    4.5951 H   0  0  0  0  0  0  0  0  0  0  0  0
   -2.2706    1.2322    4.0107 H   0  0  0  0  0  0  0  0  0  0  0  0
   -3.6065    0.5300    5.7053 H   0  0  0  0  0  0  0  0  0  0  0  0
   -3.5071   -1.0798    5.3170 H   0  0  0  0  0  0  0  0  0  0  0  0
   -4.4182   -0.0556    4.3822 H   0  0  0  0  0  0  0  0  0  0  0  0
   -1.0075   -2.7375   -1.5717 N   0  0  0  0  0  0  0  0  0  0  0  0
   -1.1797   -3.7227   -2.6126 C   0  0  2  0  0  0  0  0  0  0  0  0
   -1.9849   -4.8799   -2.0364 C   0  0  0  0  0  0  0  0  0  0  0  0
   -2.0502   -5.1176   -0.8321 O   0  0  0  0  0  0  0  0  0  0  0  0
    0.1607   -4.2051   -3.1451 C   0  0  0  0  0  0  0  0  0  0  0  0
   -1.2290   -2.9918   -0.6137 H   0  0  0  0  0  0  0  0  0  0  0  0
   -1.7525   -3.2409   -3.4125 H   0  0  0  0  0  0  0  0  0  0  0  0
    0.7489   -4.6907   -2.3578 H   0  0  0  0  0  0  0  0  0  0  0  0
    0.0282   -4.9311   -3.9540 H   0  0  0  0  0  0  0  0  0  0  0  0
    0.7507   -3.3673   -3.5319 H   0  0  0  0  0  0  0  0  0  0  0  0
   -2.5870   -5.6416   -3.0281 N   0  0  0  0  0  0  0  0  0  0  0  0
   -3.3950   -6.8027   -2.7368 C   0  0  0  0  0  0  0  0  0  0  0  0
   -2.4948   -5.3600   -3.9997 H   0  0  0  0  0  0  0  0  0  0  0  0
   -2.7645   -7.7038   -2.7590 H   0  0  0  0  0  0  0  0  0  0  0  0
   -3.8452   -6.6949   -1.7389 H   0  0  0  0  0  0  0  0  0  0  0  0
   -4.1911   -6.8937   -3.4903 H   0  0  0  0  0  0  0  0  0  0  0  0
  1  3  1  0  0  0  0
  1  7  1  0  0  0  0
  1  2  2  0  0  0  0
 40 41  1  0  0  0  0
 41 49  1  0  0  0  0
 41 42  2  0  0  0  0
  8  9  1  0  0  0  0
  9 17  1  0  0  0  0
  9 10  2  0  0  0  0
 18 19  1  0  0  0  0
 19 39  1  0  0  0  0
 19 20  2  0  0  0  0
 40 43  1  0  0  0  0
  8 11  1  0  0  0  0
 49 50  1  0  0  0  0
 22 23  1  0  0  0  0
 21 22  1  0  0  0  0
 23 24  1  0  0  0  0
 18 21  1  0  0  0  0
 24 25  1  0  0  0  0
 39 40  1  0  0  0  0
  7  8  1  0  0  0  0
 17 18  1  0  0  0  0
  3  4  1  0  0  0  0
  3  5  1  0  0  0  0
  3  6  1  0  0  0  0
 43 46  1  0  0  0  0
 43 47  1  0  0  0  0
 43 48  1  0  0  0  0
 11 14  1  0  0  0  0
 11 15  1  0  0  0  0
 11 16  1  0  0  0  0
 50 52  1  0  0  0  0
 50 53  1  0  0  0  0
 50 54  1  0  0  0  0
 22 30  1  0  0  0  0
 22 31  1  0  0  0  0
 23 32  1  0  0  0  0
 23 33  1  0  0  0  0
 21 28  1  0  0  0  0
 21 29  1  0  0  0  0
 24 34  1  0  0  0  0
 24 35  1  0  0  0  0
 40 45  1  0  0  0  0
  8 13  1  0  0  0  0
 18 27  1  0  0  0  0
 49 51  1  0  0  0  0
  7 12  1  0  0  0  0
 39 44  1  0  0  0  0
 17 26  1  0  0  0  0
 25 36  1  0  0  0  0
 25 37  1  0  0  0  0
 25 38  1  0  0  0  0
M  CHG  1  25   1
M  END
$$$$

  -OEChem-05262214473D

 54 53  0     1  0  0  0  0  0999 V2000
    2.6714    2.8829   -3.0005 C   0  0  0  0  0  0  0  0  0  0  0  0
    3.1741    2.4398   -1.9745 O   0  0  0  0  0  0  0  0  0  0  0  0
    3.5527    3.3077   -4.1279 C   0  0  0  0  0  0  0  0  0  0  0  0
    3.8407    4.3691   -4.0597 H   0  0  0  0  0  0  0  0  0  0  0  0
    4.5024    2.7495   -4.1526 H   0  0  0  0  0  0  0  0  0  0  0  0
    3.1208    3.1887   -5.1345 H   0  0  0  0  0  0  0  0  0  0  0  0
    1.3174    3.0407   -3.2467 N   0  0  0  0  0  0  0  0  0  0  0  0
    0.2944    2.6927   -2.2960 C   0  0  2  0  0  0  0  0  0  0  0  0
    0.2976    1.1783   -2.1349 C   0  0  0  0  0  0  0  0  0  0  0  0
    0.7500    0.4142   -2.9850 O   0  0  0  0  0  0  0  0  0  0  0  0
   -1.0710    3.1886   -2.7460 C   0  0  0  0  0  0  0  0  0  0  0  0
    1.0312    3.4224   -4.1464 H   0  0  0  0  0  0  0  0  0  0  0  0
    0.5725    3.1622   -1.3461 H   0  0  0  0  0  0  0  0  0  0  0  0
   -1.3666    2.7292   -3.6963 H   0  0  0  0  0  0  0  0  0  0  0  0
   -1.8434    2.9482   -2.0082 H   0  0  0  0  0  0  0  0  0  0  0  0
   -1.0632    4.2744   -2.8901 H   0  0  0  0  0  0  0  0  0  0  0  0
   -0.3037    0.7742   -0.9484 N   0  0  0  0  0  0  0  0  0  0  0  0
   -0.4352   -0.6095   -0.5718 C   0  0  2  0  0  0  0  0  0  0  0  0
   -0.5496   -1.4548   -1.8362 C   0  0  0  0  0  0  0  0  0  0  0  0
   -0.0019   -1.1544   -2.8951 O   0  0  0  0  0  0  0  0  0  0  0  0
   -1.6000   -0.8309    0.4003 C   0  0  0  0  0  0  0  0  0  0  0  0
   -1.3844   -0.2111    1.7872 C   0  0  0  0  0  0  0  0  0  0  0  0
   -2.5733   -0.4924    2.7091 C   0  0  0  0  0  0  0  0  0  0  0  0
   -2.3670    0.1444    4.0755 C   0  0  0  0  0  0  0  0  0  0  0  0
   -3.5506   -0.1329    4.9244 N   0  3  0  0  0  0  0  0  0  0  0  0
   -0.6336    1.4811   -0.2948 H   0  0  0  0  0  0  0  0  0  0  0  0
    0.5038   -0.8746   -0.0711 H   0  0  0  0  0  0  0  0  0  0  0  0
   -2.5124   -0.4066   -0.0387 H   0  0  0  0  0  0  0  0  0  0  0  0
   -1.7781   -1.9070    0.5171 H   0  0  0  0  0  0  0  0  0  0  0  0
   -0.4732   -0.6175    2.2414 H   0  0  0  0  0  0  0  0  0  0  0  0
   -1.2469    0.8727    1.6963 H   0  0  0  0  0  0  0  0  0  0  0  0
   -2.7037   -1.5761    2.8199 H   0  0  0  0  0  0  0  0  0  0  0  0
   -3.4920   -0.1033    2.2527 H   0  0  0  0  0  0  0  0  0  0  0  0
   -1.4990   -0.2723    4.5951 H   0  0  0  0  0  0  0  0  0  0  0  0
   -2.2706    1.2322    4.0107 H   0  0  0  0  0  0  0  0  0  0  0  0
   -3.6065    0.5300    5.7053 H   0  0  0  0  0  0  0  0  0  0  0  0
   -3.5071   -1.0798    5.3170 H   0  0  0  0  0  0  0  0  0  0  0  0
   -4.4182   -0.0556    4.3822 H   0  0  0  0  0  0  0  0  0  0  0  0
   -1.3064   -2.6003   -1.6364 N   0  0  0  0  0  0  0  0  0  0  0  0
   -1.5384   -3.5621   -2.6876 C   0  0  2  0  0  0  0  0  0  0  0  0
   -2.6477   -4.5001   -2.2304 C   0  0  0  0  0  0  0  0  0  0  0  0
   -2.9323   -4.6761   -1.0475 O   0  0  0  0  0  0  0  0  0  0  0  0
   -0.2724   -4.3375   -3.0174 C   0  0  0  0  0  0  0  0  0  0  0  0
   -1.7107   -2.7679   -0.7199 H   0  0  0  0  0  0  0  0  0  0  0  0
   -1.8747   -2.9976   -3.5641 H   0  0  0  0  0  0  0  0  0  0  0  0
    0.0798   -4.9093   -2.1511 H   0  0  0  0  0  0  0  0  0  0  0  0
   -0.4428   -5.0464   -3.8343 H   0  0  0  0  0  0  0  0  0  0  0  0
    0.5333   -3.6587   -3.3174 H   0  0  0  0  0  0  0  0  0  0  0  0
   -3.2537   -5.1503   -3.2963 N   0  0  0  0  0  0  0  0  0  0  0  0
   -4.3263   -6.1016   -3.1213 C   0  0  0  0  0  0  0  0  0  0  0  0
   -2.9665   -4.9290   -4.2451 H   0  0  0  0  0  0  0  0  0  0  0  0
   -3.9086   -7.1165   -3.0482 H   0  0  0  0  0  0  0  0  0  0  0  0
   -4.8790   -5.8654   -2.2001 H   0  0  0  0  0  0  0  0  0  0  0  0
   -5.0086   -6.0471   -3.9824 H   0  0  0  0  0  0  0  0  0  0  0  0
  1  3  1  0  0  0  0
  1  7  1  0  0  0  0
  1  2  2  0  0  0  0
 40 41  1  0  0  0  0
 41 49  1  0  0  0  0
 41 42  2  0  0  0  0
  8  9  1  0  0  0  0
  9 17  1  0  0  0  0
  9 10  2  0  0  0  0
 18 19  1  0  0  0  0
 19 39  1  0  0  0  0
 19 20  2  0  0  0  0
 40 43  1  0  0  0  0
  8 11  1  0  0  0  0
 49 50  1  0  0  0  0
 22 23  1  0  0  0  0
 21 22  1  0  0  0  0
 23 24  1  0  0  0  0
 18 21  1  0  0  0  0
 24 25  1  0  0  0  0
 39 40  1  0  0  0  0
  7  8  1  0  0  0  0
 17 18  1  0  0  0  0
  3  4  1  0  0  0  0
  3  5  1  0  0  0  0
  3  6  1  0  0  0  0
 43 46  1  0  0  0  0
 43 47  1  0  0  0  0
 43 48  1  0  0  0  0
 11 14  1  0  0  0  0
 11 15  1  0  0  0  0
 11 16  1  0  0  0  0
 50 52  1  0  0  0  0
 50 53  1  0  0  0  0
 50 54  1  0  0  0  0
 22 30  1  0  0  0  0
 22 31  1  0  0  0  0
 23 32  1  0  0  0  0
 23 33  1  0  0  0  0
 21 28  1  0  0  0  0
 21 29  1  0  0  0  0
 24 34  1  0  0  0  0
 24 35  1  0  0  0  0
 40 45  1  0  0  0  0
  8 13  1  0  0  0  0
 18 27  1  0  0  0  0
 49 51  1  0  0  0  0
  7 12  1  0  0  0  0
 39 44  1  0  0  0  0
 17 26  1  0  0  0  0
 25 36  1  0  0  0  0
 25 37  1  0  0  0  0
 25 38  1  0  0  0  0
M  CHG  1  25   1
M  END
$$$$

  -OEChem-05262214473D

 54 53  0     1  0  0  0  0  0999 V2000
    2.6714    2.8829   -3.0005 C   0  0  0  0  0  0  0  0  0  0  0  0
    3.1741    2.4398   -1.9745 O   0  0  0  0  0  0  0  0  0  0  0  0
    3.5527    3.3077   -4.1279 C   0  0  0  0  0  0  0  0  0  0  0  0
    3.8407    4.3691   -4.0597 H   0  0  0  0  0  0  0  0  0  0  0  0
    4.5024    2.7495   -4.1526 H   0  0  0  0  0  0  0  0  0  0  0  0
    3.1208    3.1887   -5.1345 H   0  0  0  0  0  0  0  0  0  0  0  0
    1.3174    3.0407   -3.2467 N   0  0  0  0  0  0  0  0  0  0  0  0
    0.2944    2.6927   -2.2960 C   0  0  2  0  0  0  0  0  0  0  0  0
    0.2976    1.1783   -2.1349 C   0  0  0  0  0  0  0  0  0  0  0  0
    0.7500    0.4142   -2.9850 O   0  0  0  0  0  0  0  0  0  0  0  0
   -1.0710    3.1886   -2.7460 C   0  0  0  0  0  0  0  0  0  0  0  0
    1.0312    3.4224   -4.1464 H   0  0  0  0  0  0  0  0  0  0  0  0
    0.5725    3.1622   -1.3461 H   0  0  0  0  0  0  0  0  0  0  0  0
   -1.3666    2.7292   -3.6963 H   0  0  0  0  0  0  0  0  0  0  0  0
   -1.8434    2.9482   -2.0082 H   0  0  0  0  0  0  0  0  0  0  0  0
   -1.0632    4.2744   -2.8901 H   0  0  0  0  0  0  0  0  0  0  0  0
   -0.3037    0.7742   -0.9484 N   0  0  0  0  0  0  0  0  0  0  0  0
   -0.4352   -0.6095   -0.5718 C   0  0  2  0  0  0  0  0  0  0  0  0
   -0.5496   -1.4548   -1.8362 C   0  0  0  0  0  0  0  0  0  0  0  0
    0.1940   -1.3153   -2.8052 O   0  0  0  0  0  0  0  0  0  0  0  0
   -1.6000   -0.8309    0.4003 C   0  0  0  0  0  0  0  0  0  0  0  0
   -1.3844   -0.2111    1.7872 C   0  0  0  0  0  0  0  0  0  0  0  0
   -2.5733   -0.4924    2.7091 C   0  0  0  0  0  0  0  0  0  0  0  0
   -2.3670    0.1444    4.0755 C   0  0  0  0  0  0  0  0  0  0  0  0
   -3.5506   -0.1329    4.9244 N   0  3  0  0  0  0  0  0  0  0  0  0
   -0.6336    1.4811   -0.2948 H   0  0  0  0  0  0  0  0  0  0  0  0
    0.5038   -0.8746   -0.0711 H   0  0  0  0  0  0  0  0  0  0  0  0
   -2.5124   -0.4066   -0.0387 H   0  0  0  0  0  0  0  0  0  0  0  0
   -1.7781   -1.9070    0.5171 H   0  0  0  0  0  0  0  0  0  0  0  0
   -0.4732   -0.6175    2.2414 H   0  0  0  0  0  0  0  0  0  0  0  0
   -1.2469    0.8727    1.6963 H   0  0  0  0  0  0  0  0  0  0  0  0
   -2.7037   -1.5761    2.8199 H   0  0  0  0  0  0  0  0  0  0  0  0
   -3.4920   -0.1033    2.2527 H   0  0  0  0  0  0  0  0  0  0  0  0
   -1.4990   -0.2723    4.5951 H   0  0  0  0  0  0  0  0  0  0  0  0
   -2.2706    1.2322    4.0107 H   0  0  0  0  0  0  0  0  0  0  0  0
   -3.6065    0.5300    5.7053 H   0  0  0  0  0  0  0  0  0  0  0  0
   -3.5071   -1.0798    5.3170 H   0  0  0  0  0  0  0  0  0  0  0  0
   -4.4182   -0.0556    4.3822 H   0  0  0  0  0  0  0  0  0  0  0  0
   -1.5564   -2.4050   -1.7444 N   0  0  0  0  0  0  0  0  0  0  0  0
   -1.8396   -3.3314   -2.8145 C   0  0  2  0  0  0  0  0  0  0  0  0
   -3.1786   -3.9948   -2.5202 C   0  0  0  0  0  0  0  0  0  0  0  0
   -3.6587   -4.0645   -1.3907 O   0  0  0  0  0  0  0  0  0  0  0  0
   -0.7374   -4.3699   -2.9537 C   0  0  0  0  0  0  0  0  0  0  0  0
   -2.1127   -2.4503   -0.8959 H   0  0  0  0  0  0  0  0  0  0  0  0
   -1.9188   -2.7393   -3.7328 H   0  0  0  0  0  0  0  0  0  0  0  0
   -0.6431   -4.9730   -2.0432 H   0  0  0  0  0  0  0  0  0  0  0  0
   -0.9397   -5.0544   -3.7840 H   0  0  0  0  0  0  0  0  0  0  0  0
    0.2300   -3.8894   -3.1357 H   0  0  0  0  0  0  0  0  0  0  0  0
   -3.7538   -4.5379   -3.6605 N   0  0  0  0  0  0  0  0  0  0  0  0
   -5.0203   -5.2319   -3.6400 C   0  0  0  0  0  0  0  0  0  0  0  0
   -3.2945   -4.4163   -4.5583 H   0  0  0  0  0  0  0  0  0  0  0  0
   -4.8463   -6.3094   -3.5031 H   0  0  0  0  0  0  0  0  0  0  0  0
   -5.6334   -4.8513   -2.8099 H   0  0  0  0  0  0  0  0  0  0  0  0
   -5.5460   -5.0635   -4.5914 H   0  0  0  0  0  0  0  0  0  0  0  0
  1  3  1  0  0  0  0
  1  7  1  0  0  0  0
  1  2  2  0  0  0  0
 40 41  1  0  0  0  0
 41 49  1  0  0  0  0
 41 42  2  0  0  0  0
  8  9  1  0  0  0  0
  9 17  1  0  0  0  0
  9 10  2  0  0  0  0
 18 19  1  0  0  0  0
 19 39  1  0  0  0  0
 19 20  2  0  0  0  0
 40 43  1  0  0  0  0
  8 11  1  0  0  0  0
 49 50  1  0  0  0  0
 22 23  1  0  0  0  0
 21 22  1  0  0  0  0
 23 24  1  0  0  0  0
 18 21  1  0  0  0  0
 24 25  1  0  0  0  0
 39 40  1  0  0  0  0
  7  8  1  0  0  0  0
 17 18  1  0  0  0  0
  3  4  1  0  0  0  0
  3  5  1  0  0  0  0
  3  6  1  0  0  0  0
 43 46  1  0  0  0  0
 43 47  1  0  0  0  0
 43 48  1  0  0  0  0
 11 14  1  0  0  0  0
 11 15  1  0  0  0  0
 11 16  1  0  0  0  0
 50 52  1  0  0  0  0
 50 53  1  0  0  0  0
 50 54  1  0  0  0  0
 22 30  1  0  0  0  0
 22 31  1  0  0  0  0
 23 32  1  0  0  0  0
 23 33  1  0  0  0  0
 21 28  1  0  0  0  0
 21 29  1  0  0  0  0
 24 34  1  0  0  0  0
 24 35  1  0  0  0  0
 40 45  1  0  0  0  0
  8 13  1  0  0  0  0
 18 27  1  0  0  0  0
 49 51  1  0  0  0  0
  7 12  1  0  0  0  0
 39 44  1  0  0  0  0
 17 26  1  0  0  0  0
 25 36  1  0  0  0  0
 25 37  1  0  0  0  0
 25 38  1  0  0  0  0
M  CHG  1  25   1
M  END
$$$$

  -OEChem-05262214473D

 54 53  0     1  0  0  0  0  0999 V2000
    2.6714    2.8829   -3.0005 C   0  0  0  0  0  0  0  0  0  0  0  0
    3.1741    2.4398   -1.9745 O   0  0  0  0  0  0  0  0  0  0  0  0
    3.5527    3.3077   -4.1279 C   0  0  0  0  0  0  0  0  0  0  0  0
    3.8407    4.3691   -4.0597 H   0  0  0  0  0  0  0  0  0  0  0  0
    4.5024    2.7495   -4.1526 H   0  0  0  0  0  0  0  0  0  0  0  0
    3.1208    3.1887   -5.1345 H   0  0  0  0  0  0  0  0  0  0  0  0
    1.3174    3.0407   -3.2467 N   0  0  0  0  0  0  0  0  0  0  0  0
    0.2944    2.6927   -2.2960 C   0  0  2  0  0  0  0  0  0  0  0  0
    0.2976    1.1783   -2.1349 C   0  0  0  0  0  0  0  0  0  0  0  0
    0.7500    0.4142   -2.9850 O   0  0  0  0  0  0  0  0  0  0  0  0
   -1.0710    3.1886   -2.7460 C   0  0  0  0  0  0  0  0  0  0  0  0
    1.0312    3.4224   -4.1464 H   0  0  0  0  0  0  0  0  0  0  0  0
    0.5725    3.1622   -1.3461 H   0  0  0  0  0  0  0  0  0  0  0  0
   -1.3666    2.7292   -3.6963 H   0  0  0  0  0  0  0  0  0  0  0  0
   -1.8434    2.9482   -2.0082 H   0  0  0  0  0  0  0  0  0  0  0  0
   -1.0632    4.2744   -2.8901 H   0  0  0  0  0  0  0  0  0  0  0  0
   -0.3037    0.7742   -0.9484 N   0  0  0  0  0  0  0  0  0  0  0  0
   -0.4352   -0.6095   -0.5718 C   0  0  2  0  0  0  0  0  0  0  0  0
   -0.5496   -1.4548   -1.8362 C   0  0  0  0  0  0  0  0  0  0  0  0
    0.3359   -1.5110   -2.6872 O   0  0  0  0  0  0  0  0  0  0  0  0
   -1.6000   -0.8309    0.4003 C   0  0  0  0  0  0  0  0  0  0  0  0
   -1.3844   -0.2111    1.7872 C   0  0  0  0  0  0  0  0  0  0  0  0
   -2.5733   -0.4924    2.7091 C   0  0  0  0  0  0  0  0  0  0  0  0
   -2.3670    0.1444    4.0755 C   0  0  0  0  0  0  0  0  0  0  0  0
   -3.5506   -0.1329    4.9244 N   0  3  0  0  0  0  0  0  0  0  0  0
   -0.6336    1.4811   -0.2948 H   0  0  0  0  0  0  0  0  0  0  0  0
    0.5038   -0.8746   -0.0711 H   0  0  0  0  0  0  0  0  0  0  0  0
   -2.5124   -0.4066   -0.0387 H   0  0  0  0  0  0  0  0  0  0  0  0
   -1.7781   -1.9070    0.5171 H   0  0  0  0  0  0  0  0  0  0  0  0
   -0.4732   -0.6175    2.2414 H   0  0  0  0  0  0  0  0  0  0  0  0
   -1.2469    0.8727    1.6963 H   0  0  0  0  0  0  0  0  0  0  0  0
   -2.7037   -1.5761    2.8199 H   0  0  0  0  0  0  0  0  0  0  0  0
   -3.4920   -0.1033    2.2527 H   0  0  0  0  0  0  0  0  0  0  0  0
   -1.4990   -0.2723    4.5951 H   0  0  0  0  0  0  0  0  0  0  0  0
   -2.2706    1.2322    4.0107 H   0  0  0  0  0  0  0  0  0  0  0  0
   -3.6065    0.5300    5.7053 H   0  0  0  0  0  0  0  0  0  0  0  0
   -3.5071   -1.0798    5.3170 H   0  0  0  0  0  0  0  0  0  0  0  0
   -4.4182   -0.0556    4.3822 H   0  0  0  0  0  0  0  0  0  0  0  0
   -1.7404   -2.1648   -1.8884 N   0  0  0  0  0  0  0  0  0  0  0  0
   -2.0629   -3.0465   -2.9849 C   0  0  2  0  0  0  0  0  0  0  0  0
   -3.5414   -3.3985   -2.8861 C   0  0  0  0  0  0  0  0  0  0  0  0
   -4.1799   -3.3246   -1.8383 O   0  0  0  0  0  0  0  0  0  0  0  0
   -1.2027   -4.3002   -2.9582 C   0  0  0  0  0  0  0  0  0  0  0  0
   -2.4076   -2.0606   -1.1297 H   0  0  0  0  0  0  0  0  0  0  0  0
   -1.8818   -2.4836   -3.9071 H   0  0  0  0  0  0  0  0  0  0  0  0
   -1.3705   -4.8772   -2.0415 H   0  0  0  0  0  0  0  0  0  0  0  0
   -1.4286   -4.9546   -3.8066 H   0  0  0  0  0  0  0  0  0  0  0  0
   -0.1386   -4.0437   -2.9993 H   0  0  0  0  0  0  0  0  0  0  0  0
   -4.0533   -3.8461   -4.0959 N   0  0  0  0  0  0  0  0  0  0  0  0
   -5.4296   -4.2531   -4.2574 C   0  0  0  0  0  0  0  0  0  0  0  0
   -3.4564   -3.8568   -4.9177 H   0  0  0  0  0  0  0  0  0  0  0  0
   -5.5136   -5.3375   -4.0926 H   0  0  0  0  0  0  0  0  0  0  0  0
   -6.0571   -3.7216   -3.5268 H   0  0  0  0  0  0  0  0  0  0  0  0
   -5.7667   -4.0100   -5.2758 H   0  0  0  0  0  0  0  0  0  0  0  0
  1  3  1  0  0  0  0
  1  7  1  0  0  0  0
  1  2  2  0  0  0  0
 40 41  1  0  0  0  0
 41 49  1  0  0  0  0
 41 42  2  0  0  0  0
  8  9  1  0  0  0  0
  9 17  1  0  0  0  0
  9 10  2  0  0  0  0
 18 19  1  0  0  0  0
 19 39  1  0  0  0  0
 19 20  2  0  0  0  0
 40 43  1  0  0  0  0
  8 11  1  0  0  0  0
 49 50  1  0  0  0  0
 22 23  1  0  0  0  0
 21 22  1  0  0  0  0
 23 24  1  0  0  0  0
 18 21  1  0  0  0  0
 24 25  1  0  0  0  0
 39 40  1  0  0  0  0
  7  8  1  0  0  0  0
 17 18  1  0  0  0  0
  3  4  1  0  0  0  0
  3  5  1  0  0  0  0
  3  6  1  0  0  0  0
 43 46  1  0  0  0  0
 43 47  1  0  0  0  0
 43 48  1  0  0  0  0
 11 14  1  0  0  0  0
 11 15  1  0  0  0  0
 11 16  1  0  0  0  0
 50 52  1  0  0  0  0
 50 53  1  0  0  0  0
 50 54  1  0  0  0  0
 22 30  1  0  0  0  0
 22 31  1  0  0  0  0
 23 32  1  0  0  0  0
 23 33  1  0  0  0  0
 21 28  1  0  0  0  0
 21 29  1  0  0  0  0
 24 34  1  0  0  0  0
 24 35  1  0  0  0  0
 40 45  1  0  0  0  0
  8 13  1  0  0  0  0
 18 27  1  0  0  0  0
 49 51  1  0  0  0  0
  7 12  1  0  0  0  0
 39 44  1  0  0  0  0
 17 26  1  0  0  0  0
 25 36  1  0  0  0  0
 25 37  1  0  0  0  0
 25 38  1  0  0  0  0
M  CHG  1  25   1
M  END
$$$$

  -OEChem-05262214473D

 54 53  0     1  0  0  0  0  0999 V2000
    2.6714    2.8829   -3.0005 C   0  0  0  0  0  0  0  0  0  0  0  0
    3.1741    2.4398   -1.9745 O   0  0  0  0  0  0  0  0  0  0  0  0
    3.5527    3.3077   -4.1279 C   0  0  0  0  0  0  0  0  0  0  0  0
    3.8407    4.3691   -4.0597 H   0  0  0  0  0  0  0  0  0  0  0  0
    4.5024    2.7495   -4.1526 H   0  0  0  0  0  0  0  0  0  0  0  0
    3.1208    3.1887   -5.1345 H   0  0  0  0  0  0  0  0  0  0  0  0
    1.3174    3.0407   -3.2467 N   0  0  0  0  0  0  0  0  0  0  0  0
    0.2944    2.6927   -2.2960 C   0  0  2  0  0  0  0  0  0  0  0  0
    0.2976    1.1783   -2.1349 C   0  0  0  0  0  0  0  0  0  0  0  0
    0.7500    0.4142   -2.9850 O   0  0  0  0  0  0  0  0  0  0  0  0
   -1.0710    3.1886   -2.7460 C   0  0  0  0  0  0  0  0  0  0  0  0
    1.0312    3.4224   -4.1464 H   0  0  0  0  0  0  0  0  0  0  0  0
    0.5725    3.1622   -1.3461 H   0  0  0  0  0  0  0  0  0  0  0  0
   -1.3666    2.7292   -3.6963 H   0  0  0  0  0  0  0  0  0  0  0  0
   -1.8434    2.9482   -2.0082 H   0  0  0  0  0  0  0  0  0  0  0  0
   -1.0632    4.2744   -2.8901 H   0  0  0  0  0  0  0  0  0  0  0  0
   -0.3037    0.7742   -0.9484 N   0  0  0  0  0  0  0  0  0  0  0  0
   -0.4352   -0.6095   -0.5718 C   0  0  2  0  0  0  0  0  0  0  0  0
   -0.5496   -1.4548   -1.8362 C   0  0  0  0  0  0  0  0  0  0  0  0
    0.4141   -1.7283   -2.5490 O   0  0  0  0  0  0  0  0  0  0  0  0
   -1.6000   -0.8309    0.4003 C   0  0  0  0  0  0  0  0  0  0  0  0
   -1.3844   -0.2111    1.7872 C   0  0  0  0  0  0  0  0  0  0  0  0
   -2.5733   -0.4924    2.7091 C   0  0  0  0  0  0  0  0  0  0  0  0
   -2.3670    0.1444    4.0755 C   0  0  0  0  0  0  0  0  0  0  0  0
   -3.5506   -0.1329    4.9244 N   0  3  0  0  0  0  0  0  0  0  0  0
   -0.6336    1.4811   -0.2948 H   0  0  0  0  0  0  0  0  0  0  0  0
    0.5038   -0.8746   -0.0711 H   0  0  0  0  0  0  0  0  0  0  0  0
   -2.5124   -0.4066   -0.0387 H   0  0  0  0  0  0  0  0  0  0  0  0
   -1.7781   -1.9070    0.5171 H   0  0  0  0  0  0  0  0  0  0  0  0
   -0.4732   -0.6175    2.2414 H   0  0  0  0  0  0  0  0  0  0  0  0
   -1.2469    0.8727    1.6963 H   0  0  0  0  0  0  0  0  0  0  0  0
   -2.7037   -1.5761    2.8199 H   0  0  0  0  0  0  0  0  0  0  0  0
   -3.4920   -0.1033    2.2527 H   0  0  0  0  0  0  0  0  0  0  0  0
   -1.4990   -0.2723    4.5951 H   0  0  0  0  0  0  0  0  0  0  0  0
   -2.2706    1.2322    4.0107 H   0  0  0  0  0  0  0  0  0  0  0  0
   -3.6065    0.5300    5.7053 H   0  0  0  0  0  0  0  0  0  0  0  0
   -3.5071   -1.0798    5.3170 H   0  0  0  0  0  0  0  0  0  0  0  0
   -4.4182   -0.0556    4.3822 H   0  0  0  0  0  0  0  0  0  0  0  0
   -1.8460   -1.8960   -2.0585 N   0  0  0  0  0  0  0  0  0  0  0  0
   -2.1931   -2.7266   -3.1870 C   0  0  2  0  0  0  0  0  0  0  0  0
   -3.7114   -2.7518   -3.3031 C   0  0  0  0  0  0  0  0  0  0  0  0
   -4.4605   -2.5068   -2.3597 O   0  0  0  0  0  0  0  0  0  0  0  0
   -1.6365   -4.1332   -3.0306 C   0  0  0  0  0  0  0  0  0  0  0  0
   -2.5754   -1.6255   -1.4055 H   0  0  0  0  0  0  0  0  0  0  0  0
   -1.7662   -2.2480   -4.0751 H   0  0  0  0  0  0  0  0  0  0  0  0
   -2.0528   -4.6286   -2.1460 H   0  0  0  0  0  0  0  0  0  0  0  0
   -1.8762   -4.7537   -3.9004 H   0  0  0  0  0  0  0  0  0  0  0  0
   -0.5472   -4.1109   -2.9174 H   0  0  0  0  0  0  0  0  0  0  0  0
   -4.1316   -3.1221   -4.5729 N   0  0  0  0  0  0  0  0  0  0  0  0
   -5.5264   -3.2318   -4.9315 C   0  0  0  0  0  0  0  0  0  0  0  0
   -3.4411   -3.2886   -5.2990 H   0  0  0  0  0  0  0  0  0  0  0  0
   -5.8650   -4.2669   -4.7766 H   0  0  0  0  0  0  0  0  0  0  0  0
   -6.1211   -2.5535   -4.3020 H   0  0  0  0  0  0  0  0  0  0  0  0
   -5.6556   -2.9583   -5.9890 H   0  0  0  0  0  0  0  0  0  0  0  0
  1  3  1  0  0  0  0
  1  7  1  0  0  0  0
  1  2  2  0  0  0  0
 40 41  1  0  0  0  0
 41 49  1  0  0  0  0
 41 42  2  0  0  0  0
  8  9  1  0  0  0  0
  9 17  1  0  0  0  0
  9 10  2  0  0  0  0
 18 19  1  0  0  0  0
 19 39  1  0  0  0  0
 19 20  2  0  0  0  0
 40 43  1  0  0  0  0
  8 11  1  0  0  0  0
 49 50  1  0  0  0  0
 22 23  1  0  0  0  0
 21 22  1  0  0  0  0
 23 24  1  0  0  0  0
 18 21  1  0  0  0  0
 24 25  1  0  0  0  0
 39 40  1  0  0  0  0
  7  8  1  0  0  0  0
 17 18  1  0  0  0  0
  3  4  1  0  0  0  0
  3  5  1  0  0  0  0
  3  6  1  0  0  0  0
 43 46  1  0  0  0  0
 43 47  1  0  0  0  0
 43 48  1  0  0  0  0
 11 14  1  0  0  0  0
 11 15  1  0  0  0  0
 11 16  1  0  0  0  0
 50 52  1  0  0  0  0
 50 53  1  0  0  0  0
 50 54  1  0  0  0  0
 22 30  1  0  0  0  0
 22 31  1  0  0  0  0
 23 32  1  0  0  0  0
 23 33  1  0  0  0  0
 21 28  1  0  0  0  0
 21 29  1  0  0  0  0
 24 34  1  0  0  0  0
 24 35  1  0  0  0  0
 40 45  1  0  0  0  0
  8 13  1  0  0  0  0
 18 27  1  0  0  0  0
 49 51  1  0  0  0  0
  7 12  1  0  0  0  0
 39 44  1  0  0  0  0
 17 26  1  0  0  0  0
 25 36  1  0  0  0  0
 25 37  1  0  0  0  0
 25 38  1  0  0  0  0
M  CHG  1  25   1
M  END
$$$$

  -OEChem-05262214473D

 54 53  0     1  0  0  0  0  0999 V2000
    2.6714    2.8829   -3.0005 C   0  0  0  0  0  0  0  0  0  0  0  0
    3.1741    2.4398   -1.9745 O   0  0  0  0  0  0  0  0  0  0  0  0
    3.5527    3.3077   -4.1279 C   0  0  0  0  0  0  0  0  0  0  0  0
    3.8407    4.3691   -4.0597 H   0  0  0  0  0  0  0  0  0  0  0  0
    4.5024    2.7495   -4.1526 H   0  0  0  0  0  0  0  0  0  0  0  0
    3.1208    3.1887   -5.1345 H   0  0  0  0  0  0  0  0  0  0  0  0
    1.3174    3.0407   -3.2467 N   0  0  0  0  0  0  0  0  0  0  0  0
    0.2944    2.6927   -2.2960 C   0  0  2  0  0  0  0  0  0  0  0  0
    0.2976    1.1783   -2.1349 C   0  0  0  0  0  0  0  0  0  0  0  0
    0.7500    0.4142   -2.9850 O   0  0  0  0  0  0  0  0  0  0  0  0
   -1.0710    3.1886   -2.7460 C   0  0  0  0  0  0  0  0  0  0  0  0
    1.0312    3.4224   -4.1464 H   0  0  0  0  0  0  0  0  0  0  0  0
    0.5725    3.1622   -1.3461 H   0  0  0  0  0  0  0  0  0  0  0  0
   -1.3666    2.7292   -3.6963 H   0  0  0  0  0  0  0  0  0  0  0  0
   -1.8434    2.9482   -2.0082 H   0  0  0  0  0  0  0  0  0  0  0  0
   -1.0632    4.2744   -2.8901 H   0  0  0  0  0  0  0  0  0  0  0  0
   -0.3037    0.7742   -0.9484 N   0  0  0  0  0  0  0  0  0  0  0  0
   -0.4352   -0.6095   -0.5718 C   0  0  2  0  0  0  0  0  0  0  0  0
   -0.5496   -1.4548   -1.8362 C   0  0  0  0  0  0  0  0  0  0  0  0
    0.4231   -1.9522   -2.4001 O   0  0  0  0  0  0  0  0  0  0  0  0
   -1.6000   -0.8309    0.4003 C   0  0  0  0  0  0  0  0  0  0  0  0
   -1.3844   -0.2111    1.7872 C   0  0  0  0  0  0  0  0  0  0  0  0
   -2.5733   -0.4924    2.7091 C   0  0  0  0  0  0  0  0  0  0  0  0
   -2.3670    0.1444    4.0755 C   0  0  0  0  0  0  0  0  0  0  0  0
   -3.5506   -0.1329    4.9244 N   0  3  0  0  0  0  0  0  0  0  0  0
   -0.6336    1.4811   -0.2948 H   0  0  0  0  0  0  0  0  0  0  0  0
    0.5038   -0.8746   -0.0711 H   0  0  0  0  0  0  0  0  0  0  0  0
   -2.5124   -0.4066   -0.0387 H   0  0  0  0  0  0  0  0  0  0  0  0
   -1.7781   -1.9070    0.5171 H   0  0  0  0  0  0  0  0  0  0  0  0
   -0.4732   -0.6175    2.2414 H   0  0  0  0  0  0  0  0  0  0  0  0
   -1.2469    0.8727    1.6963 H   0  0  0  0  0  0  0  0  0  0  0  0
   -2.7037   -1.5761    2.8199 H   0  0  0  0  0  0  0  0  0  0  0  0
   -3.4920   -0.1033    2.2527 H   0  0  0  0  0  0  0  0  0  0  0  0
   -1.4990   -0.2723    4.5951 H   0  0  0  0  0  0  0  0  0  0  0  0
   -2.2706    1.2322    4.0107 H   0  0  0  0  0  0  0  0  0  0  0  0
   -3.6065    0.5300    5.7053 H   0  0  0  0  0  0  0  0  0  0  0  0
   -3.5071   -1.0798    5.3170 H   0  0  0  0  0  0  0  0  0  0  0  0
   -4.4182   -0.0556    4.3822 H   0  0  0  0  0  0  0  0  0  0  0  0
   -1.8660   -1.6171   -2.2432 N   0  0  0  0  0  0  0  0  0  0  0  0
   -2.2211   -2.3936   -3.4070 C   0  0  2  0  0  0  0  0  0  0  0  0
   -3.6771   -2.0987   -3.7429 C   0  0  0  0  0  0  0  0  0  0  0  0
   -4.4812   -1.6667   -2.9195 O   0  0  0  0  0  0  0  0  0  0  0  0
   -2.0093   -3.8802   -3.1661 C   0  0  0  0  0  0  0  0  0  0  0  0
   -2.6045   -1.1746   -1.7043 H   0  0  0  0  0  0  0  0  0  0  0  0
   -1.5798   -2.0485   -4.2253 H   0  0  0  0  0  0  0  0  0  0  0  0
   -2.6435   -4.2442   -2.3496 H   0  0  0  0  0  0  0  0  0  0  0  0
   -2.2520   -4.4654   -4.0592 H   0  0  0  0  0  0  0  0  0  0  0  0
   -0.9681   -4.0866   -2.8956 H   0  0  0  0  0  0  0  0  0  0  0  0
   -3.9836   -2.4152   -5.0589 N   0  0  0  0  0  0  0  0  0  0  0  0
   -5.3041   -2.2376   -5.6163 C   0  0  0  0  0  0  0  0  0  0  0  0
   -3.2498   -2.7504   -5.6762 H   0  0  0  0  0  0  0  0  0  0  0  0
   -5.8767   -3.1707   -5.5084 H   0  0  0  0  0  0  0  0  0  0  0  0
   -5.8211   -1.4265   -5.0826 H   0  0  0  0  0  0  0  0  0  0  0  0
   -5.2204   -1.9801   -6.6824 H   0  0  0  0  0  0  0  0  0  0  0  0
  1  3  1  0  0  0  0
  1  7  1  0  0  0  0
  1  2  2  0  0  0  0
 40 41  1  0  0  0  0
 41 49  1  0  0  0  0
 41 42  2  0  0  0  0
  8  9  1  0  0  0  0
  9 17  1  0  0  0  0
  9 10  2  0  0  0  0
 18 19  1  0  0  0  0
 19 39  1  0  0  0  0
 19 20  2  0  0  0  0
 40 43  1  0  0  0  0
  8 11  1  0  0  0  0
 49 50  1  0  0  0  0
 22 23  1  0  0  0  0
 21 22  1  0  0  0  0
 23 24  1  0  0  0  0
 18 21  1  0  0  0  0
 24 25  1  0  0  0  0
 39 40  1  0  0  0  0
  7  8  1  0  0  0  0
 17 18  1  0  0  0  0
  3  4  1  0  0  0  0
  3  5  1  0  0  0  0
  3  6  1  0  0  0  0
 43 46  1  0  0  0  0
 43 47  1  0  0  0  0
 43 48  1  0  0  0  0
 11 14  1  0  0  0  0
 11 15  1  0  0  0  0
 11 16  1  0  0  0  0
 50 52  1  0  0  0  0
 50 53  1  0  0  0  0
 50 54  1  0  0  0  0
 22 30  1  0  0  0  0
 22 31  1  0  0  0  0
 23 32  1  0  0  0  0
 23 33  1  0  0  0  0
 21 28  1  0  0  0  0
 21 29  1  0  0  0  0
 24 34  1  0  0  0  0
 24 35  1  0  0  0  0
 40 45  1  0  0  0  0
  8 13  1  0  0  0  0
 18 27  1  0  0  0  0
 49 51  1  0  0  0  0
  7 12  1  0  0  0  0
 39 44  1  0  0  0  0
 17 26  1  0  0  0  0
 25 36  1  0  0  0  0
 25 37  1  0  0  0  0
 25 38  1  0  0  0  0
M  CHG  1  25   1
M  END
$$$$

  -OEChem-05262214473D

 54 53  0     1  0  0  0  0  0999 V2000
    2.6714    2.8829   -3.0005 C   0  0  0  0  0  0  0  0  0  0  0  0
    3.1741    2.4398   -1.9745 O   0  0  0  0  0  0  0  0  0  0  0  0
    3.5527    3.3077   -4.1279 C   0  0  0  0  0  0  0  0  0  0  0  0
    3.8407    4.3691   -4.0597 H   0  0  0  0  0  0  0  0  0  0  0  0
    4.5024    2.7495   -4.1526 H   0  0  0  0  0  0  0  0  0  0  0  0
    3.1208    3.1887   -5.1345 H   0  0  0  0  0  0  0  0  0  0  0  0
    1.3174    3.0407   -3.2467 N   0  0  0  0  0  0  0  0  0  0  0  0
    0.2944    2.6927   -2.2960 C   0  0  2  0  0  0  0  0  0  0  0  0
    0.2976    1.1783   -2.1349 C   0  0  0  0  0  0  0  0  0  0  0  0
    0.7500    0.4142   -2.9850 O   0  0  0  0  0  0  0  0  0  0  0  0
   -1.0710    3.1886   -2.7460 C   0  0  0  0  0  0  0  0  0  0  0  0
    1.0312    3.4224   -4.1464 H   0  0  0  0  0  0  0  0  0  0  0  0
    0.5725    3.1622   -1.3461 H   0  0  0  0  0  0  0  0  0  0  0  0
   -1.3666    2.7292   -3.6963 H   0  0  0  0  0  0  0  0  0  0  0  0
   -1.8434    2.9482   -2.0082 H   0  0  0  0  0  0  0  0  0  0  0  0
   -1.0632    4.2744   -2.8901 H   0  0  0  0  0  0  0  0  0  0  0  0
   -0.3037    0.7742   -0.9484 N   0  0  0  0  0  0  0  0  0  0  0  0
   -0.4352   -0.6095   -0.5718 C   0  0  2  0  0  0  0  0  0  0  0  0
   -0.5496   -1.4548   -1.8362 C   0  0  0  0  0  0  0  0  0  0  0  0
    0.3624   -2.1675   -2.2506 O   0  0  0  0  0  0  0  0  0  0  0  0
   -1.6000   -0.8309    0.4003 C   0  0  0  0  0  0  0  0  0  0  0  0
   -1.3844   -0.2111    1.7872 C   0  0  0  0  0  0  0  0  0  0  0  0
   -2.5733   -0.4924    2.7091 C   0  0  0  0  0  0  0  0  0  0  0  0
   -2.3670    0.1444    4.0755 C   0  0  0  0  0  0  0  0  0  0  0  0
   -3.5506   -0.1329    4.9244 N   0  3  0  0  0  0  0  0  0  0  0  0
   -0.6336    1.4811   -0.2948 H   0  0  0  0  0  0  0  0  0  0  0  0
    0.5038   -0.8746   -0.0711 H   0  0  0  0  0  0  0  0  0  0  0  0
   -2.5124   -0.4066   -0.0387 H   0  0  0  0  0  0  0  0  0  0  0  0
   -1.7781   -1.9070    0.5171 H   0  0  0  0  0  0  0  0  0  0  0  0
   -0.4732   -0.6175    2.2414 H   0  0  0  0  0  0  0  0  0  0  0  0
   -1.2469    0.8727    1.6963 H   0  0  0  0  0  0  0  0  0  0  0  0
   -2.7037   -1.5761    2.8199 H   0  0  0  0  0  0  0  0  0  0  0  0
   -3.4920   -0.1033    2.2527 H   0  0  0  0  0  0  0  0  0  0  0  0
   -1.4990   -0.2723    4.5951 H   0  0  0  0  0  0  0  0  0  0  0  0
   -2.2706    1.2322    4.0107 H   0  0  0  0  0  0  0  0  0  0  0  0
   -3.6065    0.5300    5.7053 H   0  0  0  0  0  0  0  0  0  0  0  0
   -3.5071   -1.0798    5.3170 H   0  0  0  0  0  0  0  0  0  0  0  0
   -4.4182   -0.0556    4.3822 H   0  0  0  0  0  0  0  0  0  0  0  0
   -1.7989   -1.3469   -2.4299 N   0  0  0  0  0  0  0  0  0  0  0  0
   -2.1452   -2.0703   -3.6301 C   0  0  2  0  0  0  0  0  0  0  0  0
   -3.4407   -1.4837   -4.1754 C   0  0  0  0  0  0  0  0  0  0  0  0
   -4.2406   -0.8617   -3.4795 O   0  0  0  0  0  0  0  0  0  0  0  0
   -2.2957   -3.5584   -3.3553 C   0  0  0  0  0  0  0  0  0  0  0  0
   -2.4930   -0.7386   -2.0059 H   0  0  0  0  0  0  0  0  0  0  0  0
   -1.3355   -1.8986   -4.3476 H   0  0  0  0  0  0  0  0  0  0  0  0
   -3.1025   -3.7500   -2.6385 H   0  0  0  0  0  0  0  0  0  0  0  0
   -2.5303   -4.1094   -4.2720 H   0  0  0  0  0  0  0  0  0  0  0  0
   -1.3726   -3.9724   -2.9353 H   0  0  0  0  0  0  0  0  0  0  0  0
   -3.6192   -1.7736   -5.5209 N   0  0  0  0  0  0  0  0  0  0  0  0
   -4.7778   -1.3383   -6.2651 C   0  0  0  0  0  0  0  0  0  0  0  0
   -2.8954   -2.2789   -6.0234 H   0  0  0  0  0  0  0  0  0  0  0  0
   -5.5478   -2.1235   -6.2383 H   0  0  0  0  0  0  0  0  0  0  0  0
   -5.1776   -0.4174   -5.8155 H   0  0  0  0  0  0  0  0  0  0  0  0
   -4.4906   -1.1421   -7.3087 H   0  0  0  0  0  0  0  0  0  0  0  0
  1  3  1  0  0  0  0
  1  7  1  0  0  0  0
  1  2  2  0  0  0  0
 40 41  1  0  0  0  0
 41 49  1  0  0  0  0
 41 42  2  0  0  0  0
  8  9  1  0  0  0  0
  9 17  1  0  0  0  0
  9 10  2  0  0  0  0
 18 19  1  0  0  0  0
 19 39  1  0  0  0  0
 19 20  2  0  0  0  0
 40 43  1  0  0  0  0
  8 11  1  0  0  0  0
 49 50  1  0  0  0  0
 22 23  1  0  0  0  0
 21 22  1  0  0  0  0
 23 24  1  0  0  0  0
 18 21  1  0  0  0  0
 24 25  1  0  0  0  0
 39 40  1  0  0  0  0
  7  8  1  0  0  0  0
 17 18  1  0  0  0  0
  3  4  1  0  0  0  0
  3  5  1  0  0  0  0
  3  6  1  0  0  0  0
 43 46  1  0  0  0  0
 43 47  1  0  0  0  0
 43 48  1  0  0  0  0
 11 14  1  0  0  0  0
 11 15  1  0  0  0  0
 11 16  1  0  0  0  0
 50 52  1  0  0  0  0
 50 53  1  0  0  0  0
 50 54  1  0  0  0  0
 22 30  1  0  0  0  0
 22 31  1  0  0  0  0
 23 32  1  0  0  0  0
 23 33  1  0  0  0  0
 21 28  1  0  0  0  0
 21 29  1  0  0  0  0
 24 34  1  0  0  0  0
 24 35  1  0  0  0  0
 40 45  1  0  0  0  0
  8 13  1  0  0  0  0
 18 27  1  0  0  0  0
 49 51  1  0  0  0  0
  7 12  1  0  0  0  0
 39 44  1  0  0  0  0
 17 26  1  0  0  0  0
 25 36  1  0  0  0  0
 25 37  1  0  0  0  0
 25 38  1  0  0  0  0
M  CHG  1  25   1
M  END
$$$$

  -OEChem-05262214473D

 54 53  0     1  0  0  0  0  0999 V2000
    2.6714    2.8829   -3.0005 C   0  0  0  0  0  0  0  0  0  0  0  0
    3.1741    2.4398   -1.9745 O   0  0  0  0  0  0  0  0  0  0  0  0
    3.5527    3.3077   -4.1279 C   0  0  0  0  0  0  0  0  0  0  0  0
    3.8407    4.3691   -4.0597 H   0  0  0  0  0  0  0  0  0  0  0  0
    4.5024    2.7495   -4.1526 H   0  0  0  0  0  0  0  0  0  0  0  0
    3.1208    3.1887   -5.1345 H   0  0  0  0  0  0  0  0  0  0  0  0
    1.3174    3.0407   -3.2467 N   0  0  0  0  0  0  0  0  0  0  0  0
    0.2944    2.6927   -2.2960 C   0  0  2  0  0  0  0  0  0  0  0  0
    0.2976    1.1783   -2.1349 C   0  0  0  0  0  0  0  0  0  0  0  0
    0.7500    0.4142   -2.9850 O   0  0  0  0  0  0  0  0  0  0  0  0
   -1.0710    3.1886   -2.7460 C   0  0  0  0  0  0  0  0  0  0  0  0
    1.0312    3.4224   -4.1464 H   0  0  0  0  0  0  0  0  0  0  0  0
    0.5725    3.1622   -1.3461 H   0  0  0  0  0  0  0  0  0  0  0  0
   -1.3666    2.7292   -3.6963 H   0  0  0  0  0  0  0  0  0  0  0  0
   -1.8434    2.9482   -2.0082 H   0  0  0  0  0  0  0  0  0  0  0  0
   -1.0632    4.2744   -2.8901 H   0  0  0  0  0  0  0  0  0  0  0  0
   -0.3037    0.7742   -0.9484 N   0  0  0  0  0  0  0  0  0  0  0  0
   -0.4352   -0.6095   -0.5718 C   0  0  2  0  0  0  0  0  0  0  0  0
   -0.5496   -1.4548   -1.8362 C   0  0  0  0  0  0  0  0  0  0  0  0
    0.2362   -2.3596   -2.1108 O   0  0  0  0  0  0  0  0  0  0  0  0
   -1.6000   -0.8309    0.4003 C   0  0  0  0  0  0  0  0  0  0  0  0
   -1.3844   -0.2111    1.7872 C   0  0  0  0  0  0  0  0  0  0  0  0
   -2.5733   -0.4924    2.7091 C   0  0  0  0  0  0  0  0  0  0  0  0
   -2.3670    0.1444    4.0755 C   0  0  0  0  0  0  0  0  0  0  0  0
   -3.5506   -0.1329    4.9244 N   0  3  0  0  0  0  0  0  0  0  0  0
   -0.6336    1.4811   -0.2948 H   0  0  0  0  0  0  0  0  0  0  0  0
    0.5038   -0.8746   -0.0711 H   0  0  0  0  0  0  0  0  0  0  0  0
   -2.5124   -0.4066   -0.0387 H   0  0  0  0  0  0  0  0  0  0  0  0
   -1.7781   -1.9070    0.5171 H   0  0  0  0  0  0  0  0  0  0  0  0
   -0.4732   -0.6175    2.2414 H   0  0  0  0  0  0  0  0  0  0  0  0
   -1.2469    0.8727    1.6963 H   0  0  0  0  0  0  0  0  0  0  0  0
   -2.7037   -1.5761    2.8199 H   0  0  0  0  0  0  0  0  0  0  0  0
   -3.4920   -0.1033    2.2527 H   0  0  0  0  0  0  0  0  0  0  0  0
   -1.4990   -0.2723    4.5951 H   0  0  0  0  0  0  0  0  0  0  0  0
   -2.2706    1.2322    4.0107 H   0  0  0  0  0  0  0  0  0  0  0  0
   -3.6065    0.5300    5.7053 H   0  0  0  0  0  0  0  0  0  0  0  0
   -3.5071   -1.0798    5.3170 H   0  0  0  0  0  0  0  0  0  0  0  0
   -4.4182   -0.0556    4.3822 H   0  0  0  0  0  0  0  0  0  0  0  0
   -1.6493   -1.1040   -2.6058 N   0  0  0  0  0  0  0  0  0  0  0  0
   -1.9706   -1.7785   -3.8410 C   0  0  2  0  0  0  0  0  0  0  0  0
   -3.0184   -0.9488   -4.5712 C   0  0  0  0  0  0  0  0  0  0  0  0
   -3.7552   -0.1466   -4.0015 O   0  0  0  0  0  0  0  0  0  0  0  0
   -2.4761   -3.1898   -3.5854 C   0  0  0  0  0  0  0  0  0  0  0  0
   -2.2485   -0.3473   -2.2896 H   0  0  0  0  0  0  0  0  0  0  0  0
   -1.0497   -1.8087   -4.4336 H   0  0  0  0  0  0  0  0  0  0  0  0
   -3.3983   -3.1799   -2.9929 H   0  0  0  0  0  0  0  0  0  0  0  0
   -2.6923   -3.7100   -4.5244 H   0  0  0  0  0  0  0  0  0  0  0  0
   -1.7331   -3.7761   -3.0340 H   0  0  0  0  0  0  0  0  0  0  0  0
   -3.0632   -1.2410   -5.9272 N   0  0  0  0  0  0  0  0  0  0  0  0
   -3.9835   -0.5951   -6.8339 C   0  0  0  0  0  0  0  0  0  0  0  0
   -2.4021   -1.9062   -6.3172 H   0  0  0  0  0  0  0  0  0  0  0  0
   -4.9007   -1.1967   -6.9165 H   0  0  0  0  0  0  0  0  0  0  0  0
   -4.2343    0.4050   -6.4507 H   0  0  0  0  0  0  0  0  0  0  0  0
   -3.5161   -0.5013   -7.8252 H   0  0  0  0  0  0  0  0  0  0  0  0
  1  3  1  0  0  0  0
  1  7  1  0  0  0  0
  1  2  2  0  0  0  0
 40 41  1  0  0  0  0
 41 49  1  0  0  0  0
 41 42  2  0  0  0  0
  8  9  1  0  0  0  0
  9 17  1  0  0  0  0
  9 10  2  0  0  0  0
 18 19  1  0  0  0  0
 19 39  1  0  0  0  0
 19 20  2  0  0  0  0
 40 43  1  0  0  0  0
  8 11  1  0  0  0  0
 49 50  1  0  0  0  0
 22 23  1  0  0  0  0
 21 22  1  0  0  0  0
 23 24  1  0  0  0  0
 18 21  1  0  0  0  0
 24 25  1  0  0  0  0
 39 40  1  0  0  0  0
  7  8  1  0  0  0  0
 17 18  1  0  0  0  0
  3  4  1  0  0  0  0
  3  5  1  0  0  0  0
  3  6  1  0  0  0  0
 43 46  1  0  0  0  0
 43 47  1  0  0  0  0
 43 48  1  0  0  0  0
 11 14  1  0  0  0  0
 11 15  1  0  0  0  0
 11 16  1  0  0  0  0
 50 52  1  0  0  0  0
 50 53  1  0  0  0  0
 50 54  1  0  0  0  0
 22 30  1  0  0  0  0
 22 31  1  0  0  0  0
 23 32  1  0  0  0  0
 23 33  1  0  0  0  0
 21 28  1  0  0  0  0
 21 29  1  0  0  0  0
 24 34  1  0  0  0  0
 24 35  1  0  0  0  0
 40 45  1  0  0  0  0
  8 13  1  0  0  0  0
 18 27  1  0  0  0  0
 49 51  1  0  0  0  0
  7 12  1  0  0  0  0
 39 44  1  0  0  0  0
 17 26  1  0  0  0  0
 25 36  1  0  0  0  0
 25 37  1  0  0  0  0
 25 38  1  0  0  0  0
M  CHG  1  25   1
M  END
$$$$

  -OEChem-05262214473D

 54 53  0     1  0  0  0  0  0999 V2000
    2.6714    2.8829   -3.0005 C   0  0  0  0  0  0  0  0  0  0  0  0
    3.1741    2.4398   -1.9745 O   0  0  0  0  0  0  0  0  0  0  0  0
    3.5527    3.3077   -4.1279 C   0  0  0  0  0  0  0  0  0  0  0  0
    3.8407    4.3691   -4.0597 H   0  0  0  0  0  0  0  0  0  0  0  0
    4.5024    2.7495   -4.1526 H   0  0  0  0  0  0  0  0  0  0  0  0
    3.1208    3.1887   -5.1345 H   0  0  0  0  0  0  0  0  0  0  0  0
    1.3174    3.0407   -3.2467 N   0  0  0  0  0  0  0  0  0  0  0  0
    0.2944    2.6927   -2.2960 C   0  0  2  0  0  0  0  0  0  0  0  0
    0.2976    1.1783   -2.1349 C   0  0  0  0  0  0  0  0  0  0  0  0
    0.7500    0.4142   -2.9850 O   0  0  0  0  0  0  0  0  0  0  0  0
   -1.0710    3.1886   -2.7460 C   0  0  0  0  0  0  0  0  0  0  0  0
    1.0312    3.4224   -4.1464 H   0  0  0  0  0  0  0  0  0  0  0  0
    0.5725    3.1622   -1.3461 H   0  0  0  0  0  0  0  0  0  0  0  0
   -1.3666    2.7292   -3.6963 H   0  0  0  0  0  0  0  0  0  0  0  0
   -1.8434    2.9482   -2.0082 H   0  0  0  0  0  0  0  0  0  0  0  0
   -1.0632    4.2744   -2.8901 H   0  0  0  0  0  0  0  0  0  0  0  0
   -0.3037    0.7742   -0.9484 N   0  0  0  0  0  0  0  0  0  0  0  0
   -0.4352   -0.6095   -0.5718 C   0  0  2  0  0  0  0  0  0  0  0  0
   -0.5496   -1.4548   -1.8362 C   0  0  0  0  0  0  0  0  0  0  0  0
    0.0529   -2.5154   -1.9901 O   0  0  0  0  0  0  0  0  0  0  0  0
   -1.6000   -0.8309    0.4003 C   0  0  0  0  0  0  0  0  0  0  0  0
   -1.3844   -0.2111    1.7872 C   0  0  0  0  0  0  0  0  0  0  0  0
   -2.5733   -0.4924    2.7091 C   0  0  0  0  0  0  0  0  0  0  0  0
   -2.3670    0.1444    4.0755 C   0  0  0  0  0  0  0  0  0  0  0  0
   -3.5506   -0.1329    4.9244 N   0  3  0  0  0  0  0  0  0  0  0  0
   -0.6336    1.4811   -0.2948 H   0  0  0  0  0  0  0  0  0  0  0  0
    0.5038   -0.8746   -0.0711 H   0  0  0  0  0  0  0  0  0  0  0  0
   -2.5124   -0.4066   -0.0387 H   0  0  0  0  0  0  0  0  0  0  0  0
   -1.7781   -1.9070    0.5171 H   0  0  0  0  0  0  0  0  0  0  0  0
   -0.4732   -0.6175    2.2414 H   0  0  0  0  0  0  0  0  0  0  0  0
   -1.2469    0.8727    1.6963 H   0  0  0  0  0  0  0  0  0  0  0  0
   -2.7037   -1.5761    2.8199 H   0  0  0  0  0  0  0  0  0  0  0  0
   -3.4920   -0.1033    2.2527 H   0  0  0  0  0  0  0  0  0  0  0  0
   -1.4990   -0.2723    4.5951 H   0  0  0  0  0  0  0  0  0  0  0  0
   -2.2706    1.2322    4.0107 H   0  0  0  0  0  0  0  0  0  0  0  0
   -3.6065    0.5300    5.7053 H   0  0  0  0  0  0  0  0  0  0  0  0
   -3.5071   -1.0798    5.3170 H   0  0  0  0  0  0  0  0  0  0  0  0
   -4.4182   -0.0556    4.3822 H   0  0  0  0  0  0  0  0  0  0  0  0
   -1.4275   -0.9049   -2.7590 N   0  0  0  0  0  0  0  0  0  0  0  0
   -1.7090   -1.5383   -4.0252 C   0  0  2  0  0  0  0  0  0  0  0  0
   -2.4389   -0.5305   -4.9033 C   0  0  0  0  0  0  0  0  0  0  0  0
   -3.0581    0.4298   -4.4499 O   0  0  0  0  0  0  0  0  0  0  0  0
   -2.5383   -2.7996   -3.8407 C   0  0  0  0  0  0  0  0  0  0  0  0
   -1.8876   -0.0272   -2.5363 H   0  0  0  0  0  0  0  0  0  0  0  0
   -0.7421   -1.7848   -4.4774 H   0  0  0  0  0  0  0  0  0  0  0  0
   -3.5108   -2.5725   -3.3888 H   0  0  0  0  0  0  0  0  0  0  0  0
   -2.7268   -3.2943   -4.7992 H   0  0  0  0  0  0  0  0  0  0  0  0
   -2.0251   -3.5110   -3.1848 H   0  0  0  0  0  0  0  0  0  0  0  0
   -2.3537   -0.8537   -6.2503 N   0  0  0  0  0  0  0  0  0  0  0  0
   -2.9751   -0.0587   -7.2837 C   0  0  0  0  0  0  0  0  0  0  0  0
   -1.8035   -1.6578   -6.5374 H   0  0  0  0  0  0  0  0  0  0  0  0
   -3.9795   -0.4535   -7.4966 H   0  0  0  0  0  0  0  0  0  0  0  0
   -3.0557    0.9847   -6.9448 H   0  0  0  0  0  0  0  0  0  0  0  0
   -2.3633   -0.1015   -8.1968 H   0  0  0  0  0  0  0  0  0  0  0  0
  1  3  1  0  0  0  0
  1  7  1  0  0  0  0
  1  2  2  0  0  0  0
 40 41  1  0  0  0  0
 41 49  1  0  0  0  0
 41 42  2  0  0  0  0
  8  9  1  0  0  0  0
  9 17  1  0  0  0  0
  9 10  2  0  0  0  0
 18 19  1  0  0  0  0
 19 39  1  0  0  0  0
 19 20  2  0  0  0  0
 40 43  1  0  0  0  0
  8 11  1  0  0  0  0
 49 50  1  0  0  0  0
 22 23  1  0  0  0  0
 21 22  1  0  0  0  0
 23 24  1  0  0  0  0
 18 21  1  0  0  0  0
 24 25  1  0  0  0  0
 39 40  1  0  0  0  0
  7  8  1  0  0  0  0
 17 18  1  0  0  0  0
  3  4  1  0  0  0  0
  3  5  1  0  0  0  0
  3  6  1  0  0  0  0
 43 46  1  0  0  0  0
 43 47  1  0  0  0  0
 43 48  1  0  0  0  0
 11 14  1  0  0  0  0
 11 15  1  0  0  0  0
 11 16  1  0  0  0  0
 50 52  1  0  0  0  0
 50 53  1  0  0  0  0
 50 54  1  0  0  0  0
 22 30  1  0  0  0  0
 22 31  1  0  0  0  0
 23 32  1  0  0  0  0
 23 33  1  0  0  0  0
 21 28  1  0  0  0  0
 21 29  1  0  0  0  0
 24 34  1  0  0  0  0
 24 35  1  0  0  0  0
 40 45  1  0  0  0  0
  8 13  1  0  0  0  0
 18 27  1  0  0  0  0
 49 51  1  0  0  0  0
  7 12  1  0  0  0  0
 39 44  1  0  0  0  0
 17 26  1  0  0  0  0
 25 36  1  0  0  0  0
 25 37  1  0  0  0  0
 25 38  1  0  0  0  0
M  CHG  1  25   1
M  END
$$$$

  -OEChem-05262214473D

 54 53  0     1  0  0  0  0  0999 V2000
    2.6714    2.8829   -3.0005 C   0  0  0  0  0  0  0  0  0  0  0  0
    3.1741    2.4398   -1.9745 O   0  0  0  0  0  0  0  0  0  0  0  0
    3.5527    3.3077   -4.1279 C   0  0  0  0  0  0  0  0  0  0  0  0
    3.8407    4.3691   -4.0597 H   0  0  0  0  0  0  0  0  0  0  0  0
    4.5024    2.7495   -4.1526 H   0  0  0  0  0  0  0  0  0  0  0  0
    3.1208    3.1887   -5.1345 H   0  0  0  0  0  0  0  0  0  0  0  0
    1.3174    3.0407   -3.2467 N   0  0  0  0  0  0  0  0  0  0  0  0
    0.2944    2.6927   -2.2960 C   0  0  2  0  0  0  0  0  0  0  0  0
    0.2976    1.1783   -2.1349 C   0  0  0  0  0  0  0  0  0  0  0  0
    0.7500    0.4142   -2.9850 O   0  0  0  0  0  0  0  0  0  0  0  0
   -1.0710    3.1886   -2.7460 C   0  0  0  0  0  0  0  0  0  0  0  0
    1.0312    3.4224   -4.1464 H   0  0  0  0  0  0  0  0  0  0  0  0
    0.5725    3.1622   -1.3461 H   0  0  0  0  0  0  0  0  0  0  0  0
   -1.3666    2.7292   -3.6963 H   0  0  0  0  0  0  0  0  0  0  0  0
   -1.8434    2.9482   -2.0082 H   0  0  0  0  0  0  0  0  0  0  0  0
   -1.0632    4.2744   -2.8901 H   0  0  0  0  0  0  0  0  0  0  0  0
   -0.3037    0.7742   -0.9484 N   0  0  0  0  0  0  0  0  0  0  0  0
   -0.4352   -0.6095   -0.5718 C   0  0  2  0  0  0  0  0  0  0  0  0
   -0.5496   -1.4548   -1.8362 C   0  0  0  0  0  0  0  0  0  0  0  0
   -0.1748   -2.6241   -1.8968 O   0  0  0  0  0  0  0  0  0  0  0  0
   -1.6000   -0.8309    0.4003 C   0  0  0  0  0  0  0  0  0  0  0  0
   -1.3844   -0.2111    1.7872 C   0  0  0  0  0  0  0  0  0  0  0  0
   -2.5733   -0.4924    2.7091 C   0  0  0  0  0  0  0  0  0  0  0  0
   -2.3670    0.1444    4.0755 C   0  0  0  0  0  0  0  0  0  0  0  0
   -3.5506   -0.1329    4.9244 N   0  3  0  0  0  0  0  0  0  0  0  0
   -0.6336    1.4811   -0.2948 H   0  0  0  0  0  0  0  0  0  0  0  0
    0.5038   -0.8746   -0.0711 H   0  0  0  0  0  0  0  0  0  0  0  0
   -2.5124   -0.4066   -0.0387 H   0  0  0  0  0  0  0  0  0  0  0  0
   -1.7781   -1.9070    0.5171 H   0  0  0  0  0  0  0  0  0  0  0  0
   -0.4732   -0.6175    2.2414 H   0  0  0  0  0  0  0  0  0  0  0  0
   -1.2469    0.8727    1.6963 H   0  0  0  0  0  0  0  0  0  0  0  0
   -2.7037   -1.5761    2.8199 H   0  0  0  0  0  0  0  0  0  0  0  0
   -3.4920   -0.1033    2.2527 H   0  0  0  0  0  0  0  0  0  0  0  0
   -1.4990   -0.2723    4.5951 H   0  0  0  0  0  0  0  0  0  0  0  0
   -2.2706    1.2322    4.0107 H   0  0  0  0  0  0  0  0  0  0  0  0
   -3.6065    0.5300    5.7053 H   0  0  0  0  0  0  0  0  0  0  0  0
   -3.5071   -1.0798    5.3170 H   0  0  0  0  0  0  0  0  0  0  0  0
   -4.4182   -0.0556    4.3822 H   0  0  0  0  0  0  0  0  0  0  0  0
   -1.1486   -0.7631   -2.8791 N   0  0  0  0  0  0  0  0  0  0  0  0
   -1.3784   -1.3659   -4.1704 C   0  0  2  0  0  0  0  0  0  0  0  0
   -1.7418   -0.2571   -5.1491 C   0  0  0  0  0  0  0  0  0  0  0  0
   -2.1966    0.8283   -4.7943 O   0  0  0  0  0  0  0  0  0  0  0  0
   -2.4781   -2.4142   -4.1038 C   0  0  0  0  0  0  0  0  0  0  0  0
   -1.4350    0.1997   -2.7289 H   0  0  0  0  0  0  0  0  0  0  0  0
   -0.4336   -1.8285   -4.4760 H   0  0  0  0  0  0  0  0  0  0  0  0
   -3.4324   -1.9694   -3.7991 H   0  0  0  0  0  0  0  0  0  0  0  0
   -2.6315   -2.8907   -5.0777 H   0  0  0  0  0  0  0  0  0  0  0  0
   -2.2285   -3.1953   -3.3775 H   0  0  0  0  0  0  0  0  0  0  0  0
   -1.5389   -0.6381   -6.4681 N   0  0  0  0  0  0  0  0  0  0  0  0
   -1.8215    0.2343   -7.5839 C   0  0  0  0  0  0  0  0  0  0  0  0
   -1.1404   -1.5506   -6.6691 H   0  0  0  0  0  0  0  0  0  0  0  0
   -2.8470    0.0554   -7.9393 H   0  0  0  0  0  0  0  0  0  0  0  0
   -1.7219    1.2821   -7.2643 H   0  0  0  0  0  0  0  0  0  0  0  0
   -1.1106    0.0301   -8.3981 H   0  0  0  0  0  0  0  0  0  0  0  0
  1  3  1  0  0  0  0
  1  7  1  0  0  0  0
  1  2  2  0  0  0  0
 40 41  1  0  0  0  0
 41 49  1  0  0  0  0
 41 42  2  0  0  0  0
  8  9  1  0  0  0  0
  9 17  1  0  0  0  0
  9 10  2  0  0  0  0
 18 19  1  0  0  0  0
 19 39  1  0  0  0  0
 19 20  2  0  0  0  0
 40 43  1  0  0  0  0
  8 11  1  0  0  0  0
 49 50  1  0  0  0  0
 22 23  1  0  0  0  0
 21 22  1  0  0  0  0
 23 24  1  0  0  0  0
 18 21  1  0  0  0  0
 24 25  1  0  0  0  0
 39 40  1  0  0  0  0
  7  8  1  0  0  0  0
 17 18  1  0  0  0  0
  3  4  1  0  0  0  0
  3  5  1  0  0  0  0
  3  6  1  0  0  0  0
 43 46  1  0  0  0  0
 43 47  1  0  0  0  0
 43 48  1  0  0  0  0
 11 14  1  0  0  0  0
 11 15  1  0  0  0  0
 11 16  1  0  0  0  0
 50 52  1  0  0  0  0
 50 53  1  0  0  0  0
 50 54  1  0  0  0  0
 22 30  1  0  0  0  0
 22 31  1  0  0  0  0
 23 32  1  0  0  0  0
 23 33  1  0  0  0  0
 21 28  1  0  0  0  0
 21 29  1  0  0  0  0
 24 34  1  0  0  0  0
 24 35  1  0  0  0  0
 40 45  1  0  0  0  0
  8 13  1  0  0  0  0
 18 27  1  0  0  0  0
 49 51  1  0  0  0  0
  7 12  1  0  0  0  0
 39 44  1  0  0  0  0
 17 26  1  0  0  0  0
 25 36  1  0  0  0  0
 25 37  1  0  0  0  0
 25 38  1  0  0  0  0
M  CHG  1  25   1
M  END
$$$$

  -OEChem-05262214473D

 54 53  0     1  0  0  0  0  0999 V2000
    2.6714    2.8829   -3.0005 C   0  0  0  0  0  0  0  0  0  0  0  0
    3.1741    2.4398   -1.9745 O   0  0  0  0  0  0  0  0  0  0  0  0
    3.5527    3.3077   -4.1279 C   0  0  0  0  0  0  0  0  0  0  0  0
    3.8407    4.3691   -4.0597 H   0  0  0  0  0  0  0  0  0  0  0  0
    4.5024    2.7495   -4.1526 H   0  0  0  0  0  0  0  0  0  0  0  0
    3.1208    3.1887   -5.1345 H   0  0  0  0  0  0  0  0  0  0  0  0
    1.3174    3.0407   -3.2467 N   0  0  0  0  0  0  0  0  0  0  0  0
    0.2944    2.6927   -2.2960 C   0  0  2  0  0  0  0  0  0  0  0  0
    0.2976    1.1783   -2.1349 C   0  0  0  0  0  0  0  0  0  0  0  0
    0.7500    0.4142   -2.9850 O   0  0  0  0  0  0  0  0  0  0  0  0
   -1.0710    3.1886   -2.7460 C   0  0  0  0  0  0  0  0  0  0  0  0
    1.0312    3.4224   -4.1464 H   0  0  0  0  0  0  0  0  0  0  0  0
    0.5725    3.1622   -1.3461 H   0  0  0  0  0  0  0  0  0  0  0  0
   -1.3666    2.7292   -3.6963 H   0  0  0  0  0  0  0  0  0  0  0  0
   -1.8434    2.9482   -2.0082 H   0  0  0  0  0  0  0  0  0  0  0  0
   -1.0632    4.2744   -2.8901 H   0  0  0  0  0  0  0  0  0  0  0  0
   -0.3037    0.7742   -0.9484 N   0  0  0  0  0  0  0  0  0  0  0  0
   -0.4352   -0.6095   -0.5718 C   0  0  2  0  0  0  0  0  0  0  0  0
   -0.5496   -1.4548   -1.8362 C   0  0  0  0  0  0  0  0  0  0  0  0
   -0.4314   -2.6785   -1.8372 O   0  0  0  0  0  0  0  0  0  0  0  0
   -1.6000   -0.8309    0.4003 C   0  0  0  0  0  0  0  0  0  0  0  0
   -1.3844   -0.2111    1.7872 C   0  0  0  0  0  0  0  0  0  0  0  0
   -2.5733   -0.4924    2.7091 C   0  0  0  0  0  0  0  0  0  0  0  0
   -2.3670    0.1444    4.0755 C   0  0  0  0  0  0  0  0  0  0  0  0
   -3.5506   -0.1329    4.9244 N   0  3  0  0  0  0  0  0  0  0  0  0
   -0.6336    1.4811   -0.2948 H   0  0  0  0  0  0  0  0  0  0  0  0
    0.5038   -0.8746   -0.0711 H   0  0  0  0  0  0  0  0  0  0  0  0
   -2.5124   -0.4066   -0.0387 H   0  0  0  0  0  0  0  0  0  0  0  0
   -1.7781   -1.9070    0.5171 H   0  0  0  0  0  0  0  0  0  0  0  0
   -0.4732   -0.6175    2.2414 H   0  0  0  0  0  0  0  0  0  0  0  0
   -1.2469    0.8727    1.6963 H   0  0  0  0  0  0  0  0  0  0  0  0
   -2.7037   -1.5761    2.8199 H   0  0  0  0  0  0  0  0  0  0  0  0
   -3.4920   -0.1033    2.2527 H   0  0  0  0  0  0  0  0  0  0  0  0
   -1.4990   -0.2723    4.5951 H   0  0  0  0  0  0  0  0  0  0  0  0
   -2.2706    1.2322    4.0107 H   0  0  0  0  0  0  0  0  0  0  0  0
   -3.6065    0.5300    5.7053 H   0  0  0  0  0  0  0  0  0  0  0  0
   -3.5071   -1.0798    5.3170 H   0  0  0  0  0  0  0  0  0  0  0  0
   -4.4182   -0.0556    4.3822 H   0  0  0  0  0  0  0  0  0  0  0  0
   -0.8315   -0.6883   -2.9577 N   0  0  0  0  0  0  0  0  0  0  0  0
   -1.0012   -1.2732   -4.2665 C   0  0  2  0  0  0  0  0  0  0  0  0
   -0.9745   -0.1474   -5.2918 C   0  0  0  0  0  0  0  0  0  0  0  0
   -1.2297    1.0218   -5.0111 O   0  0  0  0  0  0  0  0  0  0  0  0
   -2.2995   -2.0600   -4.3568 C   0  0  0  0  0  0  0  0  0  0  0  0
   -0.9215    0.3181   -2.8545 H   0  0  0  0  0  0  0  0  0  0  0  0
   -0.1451   -1.9370   -4.4296 H   0  0  0  0  0  0  0  0  0  0  0  0
   -3.1685   -1.4116   -4.1959 H   0  0  0  0  0  0  0  0  0  0  0  0
   -2.4129   -2.5267   -5.3408 H   0  0  0  0  0  0  0  0  0  0  0  0
   -2.3297   -2.8504   -3.5990 H   0  0  0  0  0  0  0  0  0  0  0  0
   -0.6744   -0.6089   -6.5658 N   0  0  0  0  0  0  0  0  0  0  0  0
   -0.6013    0.2640   -7.7141 C   0  0  0  0  0  0  0  0  0  0  0  0
   -0.4581   -1.5918   -6.7032 H   0  0  0  0  0  0  0  0  0  0  0  0
   -1.5805    0.2955   -8.2144 H   0  0  0  0  0  0  0  0  0  0  0  0
   -0.3239    1.2771   -7.3874 H   0  0  0  0  0  0  0  0  0  0  0  0
    0.1565   -0.1154   -8.4154 H   0  0  0  0  0  0  0  0  0  0  0  0
  1  3  1  0  0  0  0
  1  7  1  0  0  0  0
  1  2  2  0  0  0  0
 40 41  1  0  0  0  0
 41 49  1  0  0  0  0
 41 42  2  0  0  0  0
  8  9  1  0  0  0  0
  9 17  1  0  0  0  0
  9 10  2  0  0  0  0
 18 19  1  0  0  0  0
 19 39  1  0  0  0  0
 19 20  2  0  0  0  0
 40 43  1  0  0  0  0
  8 11  1  0  0  0  0
 49 50  1  0  0  0  0
 22 23  1  0  0  0  0
 21 22  1  0  0  0  0
 23 24  1  0  0  0  0
 18 21  1  0  0  0  0
 24 25  1  0  0  0  0
 39 40  1  0  0  0  0
  7  8  1  0  0  0  0
 17 18  1  0  0  0  0
  3  4  1  0  0  0  0
  3  5  1  0  0  0  0
  3  6  1  0  0  0  0
 43 46  1  0  0  0  0
 43 47  1  0  0  0  0
 43 48  1  0  0  0  0
 11 14  1  0  0  0  0
 11 15  1  0  0  0  0
 11 16  1  0  0  0  0
 50 52  1  0  0  0  0
 50 53  1  0  0  0  0
 50 54  1  0  0  0  0
 22 30  1  0  0  0  0
 22 31  1  0  0  0  0
 23 32  1  0  0  0  0
 23 33  1  0  0  0  0
 21 28  1  0  0  0  0
 21 29  1  0  0  0  0
 24 34  1  0  0  0  0
 24 35  1  0  0  0  0
 40 45  1  0  0  0  0
  8 13  1  0  0  0  0
 18 27  1  0  0  0  0
 49 51  1  0  0  0  0
  7 12  1  0  0  0  0
 39 44  1  0  0  0  0
 17 26  1  0  0  0  0
 25 36  1  0  0  0  0
 25 37  1  0  0  0  0
 25 38  1  0  0  0  0
M  CHG  1  25   1
M  END
$$$$

  -OEChem-05262214473D

 54 53  0     1  0  0  0  0  0999 V2000
    2.6714    2.8829   -3.0005 C   0  0  0  0  0  0  0  0  0  0  0  0
    3.1741    2.4398   -1.9745 O   0  0  0  0  0  0  0  0  0  0  0  0
    3.5527    3.3077   -4.1279 C   0  0  0  0  0  0  0  0  0  0  0  0
    3.8407    4.3691   -4.0597 H   0  0  0  0  0  0  0  0  0  0  0  0
    4.5024    2.7495   -4.1526 H   0  0  0  0  0  0  0  0  0  0  0  0
    3.1208    3.1887   -5.1345 H   0  0  0  0  0  0  0  0  0  0  0  0
    1.3174    3.0407   -3.2467 N   0  0  0  0  0  0  0  0  0  0  0  0
    0.2944    2.6927   -2.2960 C   0  0  2  0  0  0  0  0  0  0  0  0
    0.2976    1.1783   -2.1349 C   0  0  0  0  0  0  0  0  0  0  0  0
    0.7500    0.4142   -2.9850 O   0  0  0  0  0  0  0  0  0  0  0  0
   -1.0710    3.1886   -2.7460 C   0  0  0  0  0  0  0  0  0  0  0  0
    1.0312    3.4224   -4.1464 H   0  0  0  0  0  0  0  0  0  0  0  0
    0.5725    3.1622   -1.3461 H   0  0  0  0  0  0  0  0  0  0  0  0
   -1.3666    2.7292   -3.6963 H   0  0  0  0  0  0  0  0  0  0  0  0
   -1.8434    2.9482   -2.0082 H   0  0  0  0  0  0  0  0  0  0  0  0
   -1.0632    4.2744   -2.8901 H   0  0  0  0  0  0  0  0  0  0  0  0
   -0.3037    0.7742   -0.9484 N   0  0  0  0  0  0  0  0  0  0  0  0
   -0.4352   -0.6095   -0.5718 C   0  0  2  0  0  0  0  0  0  0  0  0
   -0.5496   -1.4548   -1.8362 C   0  0  0  0  0  0  0  0  0  0  0  0
   -0.6996   -2.6749   -1.8154 O   0  0  0  0  0  0  0  0  0  0  0  0
   -1.6000   -0.8309    0.4003 C   0  0  0  0  0  0  0  0  0  0  0  0
   -1.3844   -0.2111    1.7872 C   0  0  0  0  0  0  0  0  0  0  0  0
   -2.5733   -0.4924    2.7091 C   0  0  0  0  0  0  0  0  0  0  0  0
   -2.3670    0.1444    4.0755 C   0  0  0  0  0  0  0  0  0  0  0  0
   -3.5506   -0.1329    4.9244 N   0  3  0  0  0  0  0  0  0  0  0  0
   -0.6336    1.4811   -0.2948 H   0  0  0  0  0  0  0  0  0  0  0  0
    0.5038   -0.8746   -0.0711 H   0  0  0  0  0  0  0  0  0  0  0  0
   -2.5124   -0.4066   -0.0387 H   0  0  0  0  0  0  0  0  0  0  0  0
   -1.7781   -1.9070    0.5171 H   0  0  0  0  0  0  0  0  0  0  0  0
   -0.4732   -0.6175    2.2414 H   0  0  0  0  0  0  0  0  0  0  0  0
   -1.2469    0.8727    1.6963 H   0  0  0  0  0  0  0  0  0  0  0  0
   -2.7037   -1.5761    2.8199 H   0  0  0  0  0  0  0  0  0  0  0  0
   -3.4920   -0.1033    2.2527 H   0  0  0  0  0  0  0  0  0  0  0  0
   -1.4990   -0.2723    4.5951 H   0  0  0  0  0  0  0  0  0  0  0  0
   -2.2706    1.2322    4.0107 H   0  0  0  0  0  0  0  0  0  0  0  0
   -3.6065    0.5300    5.7053 H   0  0  0  0  0  0  0  0  0  0  0  0
   -3.5071   -1.0798    5.3170 H   0  0  0  0  0  0  0  0  0  0  0  0
   -4.4182   -0.0556    4.3822 H   0  0  0  0  0  0  0  0  0  0  0  0
   -0.4979   -0.6856   -2.9897 N   0  0  0  0  0  0  0  0  0  0  0  0
   -0.6032   -1.2665   -4.3070 C   0  0  2  0  0  0  0  0  0  0  0  0
   -0.1893   -0.2089   -5.3218 C   0  0  0  0  0  0  0  0  0  0  0  0
   -0.2231    0.9970   -5.0855 O   0  0  0  0  0  0  0  0  0  0  0  0
   -2.0146   -1.7611   -4.5824 C   0  0  0  0  0  0  0  0  0  0  0  0
   -0.3821    0.3198   -2.9044 H   0  0  0  0  0  0  0  0  0  0  0  0
    0.1036   -2.1027   -4.3413 H   0  0  0  0  0  0  0  0  0  0  0  0
   -2.7369   -0.9372   -4.5522 H   0  0  0  0  0  0  0  0  0  0  0  0
   -2.0860   -2.2271   -5.5707 H   0  0  0  0  0  0  0  0  0  0  0  0
   -2.3217   -2.4998   -3.8341 H   0  0  0  0  0  0  0  0  0  0  0  0
    0.1810   -0.7681   -6.5368 N   0  0  0  0  0  0  0  0  0  0  0  0
    0.6024    0.0284   -7.6655 C   0  0  0  0  0  0  0  0  0  0  0  0
    0.1971   -1.7787   -6.6375 H   0  0  0  0  0  0  0  0  0  0  0  0
   -0.2661    0.2503   -8.3030 H   0  0  0  0  0  0  0  0  0  0  0  0
    1.0430    0.9699   -7.3056 H   0  0  0  0  0  0  0  0  0  0  0  0
    1.3517   -0.5282   -8.2475 H   0  0  0  0  0  0  0  0  0  0  0  0
  1  3  1  0  0  0  0
  1  7  1  0  0  0  0
  1  2  2  0  0  0  0
 40 41  1  0  0  0  0
 41 49  1  0  0  0  0
 41 42  2  0  0  0  0
  8  9  1  0  0  0  0
  9 17  1  0  0  0  0
  9 10  2  0  0  0  0
 18 19  1  0  0  0  0
 19 39  1  0  0  0  0
 19 20  2  0  0  0  0
 40 43  1  0  0  0  0
  8 11  1  0  0  0  0
 49 50  1  0  0  0  0
 22 23  1  0  0  0  0
 21 22  1  0  0  0  0
 23 24  1  0  0  0  0
 18 21  1  0  0  0  0
 24 25  1  0  0  0  0
 39 40  1  0  0  0  0
  7  8  1  0  0  0  0
 17 18  1  0  0  0  0
  3  4  1  0  0  0  0
  3  5  1  0  0  0  0
  3  6  1  0  0  0  0
 43 46  1  0  0  0  0
 43 47  1  0  0  0  0
 43 48  1  0  0  0  0
 11 14  1  0  0  0  0
 11 15  1  0  0  0  0
 11 16  1  0  0  0  0
 50 52  1  0  0  0  0
 50 53  1  0  0  0  0
 50 54  1  0  0  0  0
 22 30  1  0  0  0  0
 22 31  1  0  0  0  0
 23 32  1  0  0  0  0
 23 33  1  0  0  0  0
 21 28  1  0  0  0  0
 21 29  1  0  0  0  0
 24 34  1  0  0  0  0
 24 35  1  0  0  0  0
 40 45  1  0  0  0  0
  8 13  1  0  0  0  0
 18 27  1  0  0  0  0
 49 51  1  0  0  0  0
  7 12  1  0  0  0  0
 39 44  1  0  0  0  0
 17 26  1  0  0  0  0
 25 36  1  0  0  0  0
 25 37  1  0  0  0  0
 25 38  1  0  0  0  0
M  CHG  1  25   1
M  END
$$$$

  -OEChem-05262214473D

 54 53  0     1  0  0  0  0  0999 V2000
    2.6714    2.8829   -3.0005 C   0  0  0  0  0  0  0  0  0  0  0  0
    3.1741    2.4398   -1.9745 O   0  0  0  0  0  0  0  0  0  0  0  0
    3.5527    3.3077   -4.1279 C   0  0  0  0  0  0  0  0  0  0  0  0
    3.8407    4.3691   -4.0597 H   0  0  0  0  0  0  0  0  0  0  0  0
    4.5024    2.7495   -4.1526 H   0  0  0  0  0  0  0  0  0  0  0  0
    3.1208    3.1887   -5.1345 H   0  0  0  0  0  0  0  0  0  0  0  0
    1.3174    3.0407   -3.2467 N   0  0  0  0  0  0  0  0  0  0  0  0
    0.2944    2.6927   -2.2960 C   0  0  2  0  0  0  0  0  0  0  0  0
    0.2976    1.1783   -2.1349 C   0  0  0  0  0  0  0  0  0  0  0  0
    0.7500    0.4142   -2.9850 O   0  0  0  0  0  0  0  0  0  0  0  0
   -1.0710    3.1886   -2.7460 C   0  0  0  0  0  0  0  0  0  0  0  0
    1.0312    3.4224   -4.1464 H   0  0  0  0  0  0  0  0  0  0  0  0
    0.5725    3.1622   -1.3461 H   0  0  0  0  0  0  0  0  0  0  0  0
   -1.3666    2.7292   -3.6963 H   0  0  0  0  0  0  0  0  0  0  0  0
   -1.8434    2.9482   -2.0082 H   0  0  0  0  0  0  0  0  0  0  0  0
   -1.0632    4.2744   -2.8901 H   0  0  0  0  0  0  0  0  0  0  0  0
   -0.3037    0.7742   -0.9484 N   0  0  0  0  0  0  0  0  0  0  0  0
   -0.4352   -0.6095   -0.5718 C   0  0  2  0  0  0  0  0  0  0  0  0
   -0.5496   -1.4548   -1.8362 C   0  0  0  0  0  0  0  0  0  0  0  0
   -0.9609   -2.6134   -1.8329 O   0  0  0  0  0  0  0  0  0  0  0  0
   -1.6000   -0.8309    0.4003 C   0  0  0  0  0  0  0  0  0  0  0  0
   -1.3844   -0.2111    1.7872 C   0  0  0  0  0  0  0  0  0  0  0  0
   -2.5733   -0.4924    2.7091 C   0  0  0  0  0  0  0  0  0  0  0  0
   -2.3670    0.1444    4.0755 C   0  0  0  0  0  0  0  0  0  0  0  0
   -3.5506   -0.1329    4.9244 N   0  3  0  0  0  0  0  0  0  0  0  0
   -0.6336    1.4811   -0.2948 H   0  0  0  0  0  0  0  0  0  0  0  0
    0.5038   -0.8746   -0.0711 H   0  0  0  0  0  0  0  0  0  0  0  0
   -2.5124   -0.4066   -0.0387 H   0  0  0  0  0  0  0  0  0  0  0  0
   -1.7781   -1.9070    0.5171 H   0  0  0  0  0  0  0  0  0  0  0  0
   -0.4732   -0.6175    2.2414 H   0  0  0  0  0  0  0  0  0  0  0  0
   -1.2469    0.8727    1.6963 H   0  0  0  0  0  0  0  0  0  0  0  0
   -2.7037   -1.5761    2.8199 H   0  0  0  0  0  0  0  0  0  0  0  0
   -3.4920   -0.1033    2.2527 H   0  0  0  0  0  0  0  0  0  0  0  0
   -1.4990   -0.2723    4.5951 H   0  0  0  0  0  0  0  0  0  0  0  0
   -2.2706    1.2322    4.0107 H   0  0  0  0  0  0  0  0  0  0  0  0
   -3.6065    0.5300    5.7053 H   0  0  0  0  0  0  0  0  0  0  0  0
   -3.5071   -1.0798    5.3170 H   0  0  0  0  0  0  0  0  0  0  0  0
   -4.4182   -0.0556    4.3822 H   0  0  0  0  0  0  0  0  0  0  0  0
   -0.1705   -0.7552   -2.9728 N   0  0  0  0  0  0  0  0  0  0  0  0
   -0.2115   -1.3461   -4.2892 C   0  0  2  0  0  0  0  0  0  0  0  0
    0.5601   -0.4373   -5.2368 C   0  0  0  0  0  0  0  0  0  0  0  0
    0.7546    0.7556   -5.0125 O   0  0  0  0  0  0  0  0  0  0  0  0
   -1.6430   -1.5379   -4.7652 C   0  0  0  0  0  0  0  0  0  0  0  0
    0.1465    0.2048   -2.8753 H   0  0  0  0  0  0  0  0  0  0  0  0
    0.2956   -2.3145   -4.2171 H   0  0  0  0  0  0  0  0  0  0  0  0
   -2.1671   -0.5784   -4.8436 H   0  0  0  0  0  0  0  0  0  0  0  0
   -1.6729   -2.0123   -5.7517 H   0  0  0  0  0  0  0  0  0  0  0  0
   -2.2049   -2.1675   -4.0668 H   0  0  0  0  0  0  0  0  0  0  0  0
    0.9689   -1.1048   -6.3829 N   0  0  0  0  0  0  0  0  0  0  0  0
    1.7076   -0.4565   -7.4412 C   0  0  0  0  0  0  0  0  0  0  0  0
    0.7804   -2.0985   -6.4764 H   0  0  0  0  0  0  0  0  0  0  0  0
    1.0065   -0.0771   -8.1992 H   0  0  0  0  0  0  0  0  0  0  0  0
    2.2857    0.3815   -7.0245 H   0  0  0  0  0  0  0  0  0  0  0  0
    2.3936   -1.1800   -7.9059 H   0  0  0  0  0  0  0  0  0  0  0  0
  1  3  1  0  0  0  0
  1  7  1  0  0  0  0
  1  2  2  0  0  0  0
 40 41  1  0  0  0  0
 41 49  1  0  0  0  0
 41 42  2  0  0  0  0
  8  9  1  0  0  0  0
  9 17  1  0  0  0  0
  9 10  2  0  0  0  0
 18 19  1  0  0  0  0
 19 39  1  0  0  0  0
 19 20  2  0  0  0  0
 40 43  1  0  0  0  0
  8 11  1  0  0  0  0
 49 50  1  0  0  0  0
 22 23  1  0  0  0  0
 21 22  1  0  0  0  0
 23 24  1  0  0  0  0
 18 21  1  0  0  0  0
 24 25  1  0  0  0  0
 39 40  1  0  0  0  0
  7  8  1  0  0  0  0
 17 18  1  0  0  0  0
  3  4  1  0  0  0  0
  3  5  1  0  0  0  0
  3  6  1  0  0  0  0
 43 46  1  0  0  0  0
 43 47  1  0  0  0  0
 43 48  1  0  0  0  0
 11 14  1  0  0  0  0
 11 15  1  0  0  0  0
 11 16  1  0  0  0  0
 50 52  1  0  0  0  0
 50 53  1  0  0  0  0
 50 54  1  0  0  0  0
 22 30  1  0  0  0  0
 22 31  1  0  0  0  0
 23 32  1  0  0  0  0
 23 33  1  0  0  0  0
 21 28  1  0  0  0  0
 21 29  1  0  0  0  0
 24 34  1  0  0  0  0
 24 35  1  0  0  0  0
 40 45  1  0  0  0  0
  8 13  1  0  0  0  0
 18 27  1  0  0  0  0
 49 51  1  0  0  0  0
  7 12  1  0  0  0  0
 39 44  1  0  0  0  0
 17 26  1  0  0  0  0
 25 36  1  0  0  0  0
 25 37  1  0  0  0  0
 25 38  1  0  0  0  0
M  CHG  1  25   1
M  END
$$$$

  -OEChem-05262214473D

 54 53  0     1  0  0  0  0  0999 V2000
    2.6714    2.8829   -3.0005 C   0  0  0  0  0  0  0  0  0  0  0  0
    3.1741    2.4398   -1.9745 O   0  0  0  0  0  0  0  0  0  0  0  0
    3.5527    3.3077   -4.1279 C   0  0  0  0  0  0  0  0  0  0  0  0
    3.8407    4.3691   -4.0597 H   0  0  0  0  0  0  0  0  0  0  0  0
    4.5024    2.7495   -4.1526 H   0  0  0  0  0  0  0  0  0  0  0  0
    3.1208    3.1887   -5.1345 H   0  0  0  0  0  0  0  0  0  0  0  0
    1.3174    3.0407   -3.2467 N   0  0  0  0  0  0  0  0  0  0  0  0
    0.2944    2.6927   -2.2960 C   0  0  2  0  0  0  0  0  0  0  0  0
    0.2976    1.1783   -2.1349 C   0  0  0  0  0  0  0  0  0  0  0  0
    0.7500    0.4142   -2.9850 O   0  0  0  0  0  0  0  0  0  0  0  0
   -1.0710    3.1886   -2.7460 C   0  0  0  0  0  0  0  0  0  0  0  0
    1.0312    3.4224   -4.1464 H   0  0  0  0  0  0  0  0  0  0  0  0
    0.5725    3.1622   -1.3461 H   0  0  0  0  0  0  0  0  0  0  0  0
   -1.3666    2.7292   -3.6963 H   0  0  0  0  0  0  0  0  0  0  0  0
   -1.8434    2.9482   -2.0082 H   0  0  0  0  0  0  0  0  0  0  0  0
   -1.0632    4.2744   -2.8901 H   0  0  0  0  0  0  0  0  0  0  0  0
   -0.3037    0.7742   -0.9484 N   0  0  0  0  0  0  0  0  0  0  0  0
   -0.4352   -0.6095   -0.5718 C   0  0  2  0  0  0  0  0  0  0  0  0
   -0.5496   -1.4548   -1.8362 C   0  0  0  0  0  0  0  0  0  0  0  0
   -1.1977   -2.4982   -1.8885 O   0  0  0  0  0  0  0  0  0  0  0  0
   -1.6000   -0.8309    0.4003 C   0  0  0  0  0  0  0  0  0  0  0  0
   -1.3844   -0.2111    1.7872 C   0  0  0  0  0  0  0  0  0  0  0  0
   -2.5733   -0.4924    2.7091 C   0  0  0  0  0  0  0  0  0  0  0  0
   -2.3670    0.1444    4.0755 C   0  0  0  0  0  0  0  0  0  0  0  0
   -3.5506   -0.1329    4.9244 N   0  3  0  0  0  0  0  0  0  0  0  0
   -0.6336    1.4811   -0.2948 H   0  0  0  0  0  0  0  0  0  0  0  0
    0.5038   -0.8746   -0.0711 H   0  0  0  0  0  0  0  0  0  0  0  0
   -2.5124   -0.4066   -0.0387 H   0  0  0  0  0  0  0  0  0  0  0  0
   -1.7781   -1.9070    0.5171 H   0  0  0  0  0  0  0  0  0  0  0  0
   -0.4732   -0.6175    2.2414 H   0  0  0  0  0  0  0  0  0  0  0  0
   -1.2469    0.8727    1.6963 H   0  0  0  0  0  0  0  0  0  0  0  0
   -2.7037   -1.5761    2.8199 H   0  0  0  0  0  0  0  0  0  0  0  0
   -3.4920   -0.1033    2.2527 H   0  0  0  0  0  0  0  0  0  0  0  0
   -1.4990   -0.2723    4.5951 H   0  0  0  0  0  0  0  0  0  0  0  0
   -2.2706    1.2322    4.0107 H   0  0  0  0  0  0  0  0  0  0  0  0
   -3.6065    0.5300    5.7053 H   0  0  0  0  0  0  0  0  0  0  0  0
   -3.5071   -1.0798    5.3170 H   0  0  0  0  0  0  0  0  0  0  0  0
   -4.4182   -0.0556    4.3822 H   0  0  0  0  0  0  0  0  0  0  0  0
    0.1284   -0.8924   -2.9081 N   0  0  0  0  0  0  0  0  0  0  0  0
    0.1472   -1.5067   -4.2142 C   0  0  2  0  0  0  0  0  0  0  0  0
    1.2229   -0.8170   -5.0429 C   0  0  0  0  0  0  0  0  0  0  0  0
    1.6367    0.3141   -4.7971 O   0  0  0  0  0  0  0  0  0  0  0  0
   -1.2100   -1.4056   -4.8929 C   0  0  0  0  0  0  0  0  0  0  0  0
    0.6282   -0.0192   -2.7691 H   0  0  0  0  0  0  0  0  0  0  0  0
    0.4178   -2.5578   -4.0655 H   0  0  0  0  0  0  0  0  0  0  0  0
   -1.4980   -0.3598   -5.0503 H   0  0  0  0  0  0  0  0  0  0  0  0
   -1.2019   -1.8970   -5.8714 H   0  0  0  0  0  0  0  0  0  0  0  0
   -1.9875   -1.8760   -4.2814 H   0  0  0  0  0  0  0  0  0  0  0  0
    1.6356   -1.5961   -6.1147 N   0  0  0  0  0  0  0  0  0  0  0  0
    2.6389   -1.1576   -7.0566 C   0  0  0  0  0  0  0  0  0  0  0  0
    1.2521   -2.5295   -6.2309 H   0  0  0  0  0  0  0  0  0  0  0  0
    2.1507   -0.6643   -7.9100 H   0  0  0  0  0  0  0  0  0  0  0  0
    3.3195   -0.4481   -6.5634 H   0  0  0  0  0  0  0  0  0  0  0  0
    3.2110   -2.0266   -7.4138 H   0  0  0  0  0  0  0  0  0  0  0  0
  1  3  1  0  0  0  0
  1  7  1  0  0  0  0
  1  2  2  0  0  0  0
 40 41  1  0  0  0  0
 41 49  1  0  0  0  0
 41 42  2  0  0  0  0
  8  9  1  0  0  0  0
  9 17  1  0  0  0  0
  9 10  2  0  0  0  0
 18 19  1  0  0  0  0
 19 39  1  0  0  0  0
 19 20  2  0  0  0  0
 40 43  1  0  0  0  0
  8 11  1  0  0  0  0
 49 50  1  0  0  0  0
 22 23  1  0  0  0  0
 21 22  1  0  0  0  0
 23 24  1  0  0  0  0
 18 21  1  0  0  0  0
 24 25  1  0  0  0  0
 39 40  1  0  0  0  0
  7  8  1  0  0  0  0
 17 18  1  0  0  0  0
  3  4  1  0  0  0  0
  3  5  1  0  0  0  0
  3  6  1  0  0  0  0
 43 46  1  0  0  0  0
 43 47  1  0  0  0  0
 43 48  1  0  0  0  0
 11 14  1  0  0  0  0
 11 15  1  0  0  0  0
 11 16  1  0  0  0  0
 50 52  1  0  0  0  0
 50 53  1  0  0  0  0
 50 54  1  0  0  0  0
 22 30  1  0  0  0  0
 22 31  1  0  0  0  0
 23 32  1  0  0  0  0
 23 33  1  0  0  0  0
 21 28  1  0  0  0  0
 21 29  1  0  0  0  0
 24 34  1  0  0  0  0
 24 35  1  0  0  0  0
 40 45  1  0  0  0  0
  8 13  1  0  0  0  0
 18 27  1  0  0  0  0
 49 51  1  0  0  0  0
  7 12  1  0  0  0  0
 39 44  1  0  0  0  0
 17 26  1  0  0  0  0
 25 36  1  0  0  0  0
 25 37  1  0  0  0  0
 25 38  1  0  0  0  0
M  CHG  1  25   1
M  END
$$$$

  -OEChem-05262214473D

 54 53  0     1  0  0  0  0  0999 V2000
    2.6714    2.8829   -3.0005 C   0  0  0  0  0  0  0  0  0  0  0  0
    3.1741    2.4398   -1.9745 O   0  0  0  0  0  0  0  0  0  0  0  0
    3.5527    3.3077   -4.1279 C   0  0  0  0  0  0  0  0  0  0  0  0
    3.8407    4.3691   -4.0597 H   0  0  0  0  0  0  0  0  0  0  0  0
    4.5024    2.7495   -4.1526 H   0  0  0  0  0  0  0  0  0  0  0  0
    3.1208    3.1887   -5.1345 H   0  0  0  0  0  0  0  0  0  0  0  0
    1.3174    3.0407   -3.2467 N   0  0  0  0  0  0  0  0  0  0  0  0
    0.2944    2.6927   -2.2960 C   0  0  2  0  0  0  0  0  0  0  0  0
    0.2976    1.1783   -2.1349 C   0  0  0  0  0  0  0  0  0  0  0  0
    0.7500    0.4142   -2.9850 O   0  0  0  0  0  0  0  0  0  0  0  0
   -1.0710    3.1886   -2.7460 C   0  0  0  0  0  0  0  0  0  0  0  0
    1.0312    3.4224   -4.1464 H   0  0  0  0  0  0  0  0  0  0  0  0
    0.5725    3.1622   -1.3461 H   0  0  0  0  0  0  0  0  0  0  0  0
   -1.3666    2.7292   -3.6963 H   0  0  0  0  0  0  0  0  0  0  0  0
   -1.8434    2.9482   -2.0082 H   0  0  0  0  0  0  0  0  0  0  0  0
   -1.0632    4.2744   -2.8901 H   0  0  0  0  0  0  0  0  0  0  0  0
   -0.3037    0.7742   -0.9484 N   0  0  0  0  0  0  0  0  0  0  0  0
   -0.4352   -0.6095   -0.5718 C   0  0  2  0  0  0  0  0  0  0  0  0
   -0.5496   -1.4548   -1.8362 C   0  0  0  0  0  0  0  0  0  0  0  0
   -1.3937   -2.3373   -1.9784 O   0  0  0  0  0  0  0  0  0  0  0  0
   -1.6000   -0.8309    0.4003 C   0  0  0  0  0  0  0  0  0  0  0  0
   -1.3844   -0.2111    1.7872 C   0  0  0  0  0  0  0  0  0  0  0  0
   -2.5733   -0.4924    2.7091 C   0  0  0  0  0  0  0  0  0  0  0  0
   -2.3670    0.1444    4.0755 C   0  0  0  0  0  0  0  0  0  0  0  0
   -3.5506   -0.1329    4.9244 N   0  3  0  0  0  0  0  0  0  0  0  0
   -0.6336    1.4811   -0.2948 H   0  0  0  0  0  0  0  0  0  0  0  0
    0.5038   -0.8746   -0.0711 H   0  0  0  0  0  0  0  0  0  0  0  0
   -2.5124   -0.4066   -0.0387 H   0  0  0  0  0  0  0  0  0  0  0  0
   -1.7781   -1.9070    0.5171 H   0  0  0  0  0  0  0  0  0  0  0  0
   -0.4732   -0.6175    2.2414 H   0  0  0  0  0  0  0  0  0  0  0  0
   -1.2469    0.8727    1.6963 H   0  0  0  0  0  0  0  0  0  0  0  0
   -2.7037   -1.5761    2.8199 H   0  0  0  0  0  0  0  0  0  0  0  0
   -3.4920   -0.1033    2.2527 H   0  0  0  0  0  0  0  0  0  0  0  0
   -1.4990   -0.2723    4.5951 H   0  0  0  0  0  0  0  0  0  0  0  0
   -2.2706    1.2322    4.0107 H   0  0  0  0  0  0  0  0  0  0  0  0
   -3.6065    0.5300    5.7053 H   0  0  0  0  0  0  0  0  0  0  0  0
   -3.5071   -1.0798    5.3170 H   0  0  0  0  0  0  0  0  0  0  0  0
   -4.4182   -0.0556    4.3822 H   0  0  0  0  0  0  0  0  0  0  0  0
    0.3784   -1.0877   -2.8001 N   0  0  0  0  0  0  0  0  0  0  0  0
    0.4485   -1.7374   -4.0872 C   0  0  2  0  0  0  0  0  0  0  0  0
    1.7538   -1.3223   -4.7531 C   0  0  0  0  0  0  0  0  0  0  0  0
    2.3632   -0.2975   -4.4539 O   0  0  0  0  0  0  0  0  0  0  0  0
   -0.7450   -1.3731   -4.9566 C   0  0  0  0  0  0  0  0  0  0  0  0
    1.0302   -0.3368   -2.5931 H   0  0  0  0  0  0  0  0  0  0  0  0
    0.4619   -2.8160   -3.8968 H   0  0  0  0  0  0  0  0  0  0  0  0
   -0.7751   -0.2961   -5.1582 H   0  0  0  0  0  0  0  0  0  0  0  0
   -0.7050   -1.8890   -5.9216 H   0  0  0  0  0  0  0  0  0  0  0  0
   -1.6842   -1.6453   -4.4630 H   0  0  0  0  0  0  0  0  0  0  0  0
    2.1358   -2.2085   -5.7505 N   0  0  0  0  0  0  0  0  0  0  0  0
    3.3328   -2.0272   -6.5380 C   0  0  0  0  0  0  0  0  0  0  0  0
    1.5801   -3.0422   -5.9178 H   0  0  0  0  0  0  0  0  0  0  0  0
    3.0883   -1.4715   -7.4552 H   0  0  0  0  0  0  0  0  0  0  0  0
    4.0739   -1.4622   -5.9536 H   0  0  0  0  0  0  0  0  0  0  0  0
    3.7484   -3.0102   -6.8048 H   0  0  0  0  0  0  0  0  0  0  0  0
  1  3  1  0  0  0  0
  1  7  1  0  0  0  0
  1  2  2  0  0  0  0
 40 41  1  0  0  0  0
 41 49  1  0  0  0  0
 41 42  2  0  0  0  0
  8  9  1  0  0  0  0
  9 17  1  0  0  0  0
  9 10  2  0  0  0  0
 18 19  1  0  0  0  0
 19 39  1  0  0  0  0
 19 20  2  0  0  0  0
 40 43  1  0  0  0  0
  8 11  1  0  0  0  0
 49 50  1  0  0  0  0
 22 23  1  0  0  0  0
 21 22  1  0  0  0  0
 23 24  1  0  0  0  0
 18 21  1  0  0  0  0
 24 25  1  0  0  0  0
 39 40  1  0  0  0  0
  7  8  1  0  0  0  0
 17 18  1  0  0  0  0
  3  4  1  0  0  0  0
  3  5  1  0  0  0  0
  3  6  1  0  0  0  0
 43 46  1  0  0  0  0
 43 47  1  0  0  0  0
 43 48  1  0  0  0  0
 11 14  1  0  0  0  0
 11 15  1  0  0  0  0
 11 16  1  0  0  0  0
 50 52  1  0  0  0  0
 50 53  1  0  0  0  0
 50 54  1  0  0  0  0
 22 30  1  0  0  0  0
 22 31  1  0  0  0  0
 23 32  1  0  0  0  0
 23 33  1  0  0  0  0
 21 28  1  0  0  0  0
 21 29  1  0  0  0  0
 24 34  1  0  0  0  0
 24 35  1  0  0  0  0
 40 45  1  0  0  0  0
  8 13  1  0  0  0  0
 18 27  1  0  0  0  0
 49 51  1  0  0  0  0
  7 12  1  0  0  0  0
 39 44  1  0  0  0  0
 17 26  1  0  0  0  0
 25 36  1  0  0  0  0
 25 37  1  0  0  0  0
 25 38  1  0  0  0  0
M  CHG  1  25   1
M  END
$$$$

  -OEChem-05262214473D

 54 53  0     1  0  0  0  0  0999 V2000
    2.6714    2.8829   -3.0005 C   0  0  0  0  0  0  0  0  0  0  0  0
    3.1741    2.4398   -1.9745 O   0  0  0  0  0  0  0  0  0  0  0  0
    3.5527    3.3077   -4.1279 C   0  0  0  0  0  0  0  0  0  0  0  0
    3.8407    4.3691   -4.0597 H   0  0  0  0  0  0  0  0  0  0  0  0
    4.5024    2.7495   -4.1526 H   0  0  0  0  0  0  0  0  0  0  0  0
    3.1208    3.1887   -5.1345 H   0  0  0  0  0  0  0  0  0  0  0  0
    1.3174    3.0407   -3.2467 N   0  0  0  0  0  0  0  0  0  0  0  0
    0.2944    2.6927   -2.2960 C   0  0  2  0  0  0  0  0  0  0  0  0
    0.2976    1.1783   -2.1349 C   0  0  0  0  0  0  0  0  0  0  0  0
    0.7500    0.4142   -2.9850 O   0  0  0  0  0  0  0  0  0  0  0  0
   -1.0710    3.1886   -2.7460 C   0  0  0  0  0  0  0  0  0  0  0  0
    1.0312    3.4224   -4.1464 H   0  0  0  0  0  0  0  0  0  0  0  0
    0.5725    3.1622   -1.3461 H   0  0  0  0  0  0  0  0  0  0  0  0
   -1.3666    2.7292   -3.6963 H   0  0  0  0  0  0  0  0  0  0  0  0
   -1.8434    2.9482   -2.0082 H   0  0  0  0  0  0  0  0  0  0  0  0
   -1.0632    4.2744   -2.8901 H   0  0  0  0  0  0  0  0  0  0  0  0
   -0.3037    0.7742   -0.9484 N   0  0  0  0  0  0  0  0  0  0  0  0
   -0.4352   -0.6095   -0.5718 C   0  0  2  0  0  0  0  0  0  0  0  0
   -0.5496   -1.4548   -1.8362 C   0  0  0  0  0  0  0  0  0  0  0  0
   -1.5356   -2.1415   -2.0964 O   0  0  0  0  0  0  0  0  0  0  0  0
   -1.6000   -0.8309    0.4003 C   0  0  0  0  0  0  0  0  0  0  0  0
   -1.3844   -0.2111    1.7872 C   0  0  0  0  0  0  0  0  0  0  0  0
   -2.5733   -0.4924    2.7091 C   0  0  0  0  0  0  0  0  0  0  0  0
   -2.3670    0.1444    4.0755 C   0  0  0  0  0  0  0  0  0  0  0  0
   -3.5506   -0.1329    4.9244 N   0  3  0  0  0  0  0  0  0  0  0  0
   -0.6336    1.4811   -0.2948 H   0  0  0  0  0  0  0  0  0  0  0  0
    0.5038   -0.8746   -0.0711 H   0  0  0  0  0  0  0  0  0  0  0  0
   -2.5124   -0.4066   -0.0387 H   0  0  0  0  0  0  0  0  0  0  0  0
   -1.7781   -1.9070    0.5171 H   0  0  0  0  0  0  0  0  0  0  0  0
   -0.4732   -0.6175    2.2414 H   0  0  0  0  0  0  0  0  0  0  0  0
   -1.2469    0.8727    1.6963 H   0  0  0  0  0  0  0  0  0  0  0  0
   -2.7037   -1.5761    2.8199 H   0  0  0  0  0  0  0  0  0  0  0  0
   -3.4920   -0.1033    2.2527 H   0  0  0  0  0  0  0  0  0  0  0  0
   -1.4990   -0.2723    4.5951 H   0  0  0  0  0  0  0  0  0  0  0  0
   -2.2706    1.2322    4.0107 H   0  0  0  0  0  0  0  0  0  0  0  0
   -3.6065    0.5300    5.7053 H   0  0  0  0  0  0  0  0  0  0  0  0
   -3.5071   -1.0798    5.3170 H   0  0  0  0  0  0  0  0  0  0  0  0
   -4.4182   -0.0556    4.3822 H   0  0  0  0  0  0  0  0  0  0  0  0
    0.5625   -1.3280   -2.6561 N   0  0  0  0  0  0  0  0  0  0  0  0
    0.6718   -2.0223   -3.9169 C   0  0  2  0  0  0  0  0  0  0  0  0
    2.1166   -1.9186   -4.3872 C   0  0  0  0  0  0  0  0  0  0  0  0
    2.8844   -1.0374   -4.0064 O   0  0  0  0  0  0  0  0  0  0  0  0
   -0.2797   -1.4428   -4.9521 C   0  0  0  0  0  0  0  0  0  0  0  0
    1.3251   -0.7264   -2.3593 H   0  0  0  0  0  0  0  0  0  0  0  0
    0.4248   -3.0717   -3.7225 H   0  0  0  0  0  0  0  0  0  0  0  0
   -0.0478   -0.3919   -5.1599 H   0  0  0  0  0  0  0  0  0  0  0  0
   -0.2161   -1.9888   -5.8991 H   0  0  0  0  0  0  0  0  0  0  0  0
   -1.3156   -1.4911   -4.5995 H   0  0  0  0  0  0  0  0  0  0  0  0
    2.4352   -2.9003   -5.3151 N   0  0  0  0  0  0  0  0  0  0  0  0
    3.7422   -3.0061   -5.9206 C   0  0  0  0  0  0  0  0  0  0  0  0
    1.7420   -3.6017   -5.5583 H   0  0  0  0  0  0  0  0  0  0  0  0
    3.7556   -2.4434   -6.8657 H   0  0  0  0  0  0  0  0  0  0  0  0
    4.4976   -2.5918   -5.2367 H   0  0  0  0  0  0  0  0  0  0  0  0
    3.9691   -4.0637   -6.1204 H   0  0  0  0  0  0  0  0  0  0  0  0
  1  3  1  0  0  0  0
  1  7  1  0  0  0  0
  1  2  2  0  0  0  0
 40 41  1  0  0  0  0
 41 49  1  0  0  0  0
 41 42  2  0  0  0  0
  8  9  1  0  0  0  0
  9 17  1  0  0  0  0
  9 10  2  0  0  0  0
 18 19  1  0  0  0  0
 19 39  1  0  0  0  0
 19 20  2  0  0  0  0
 40 43  1  0  0  0  0
  8 11  1  0  0  0  0
 49 50  1  0  0  0  0
 22 23  1  0  0  0  0
 21 22  1  0  0  0  0
 23 24  1  0  0  0  0
 18 21  1  0  0  0  0
 24 25  1  0  0  0  0
 39 40  1  0  0  0  0
  7  8  1  0  0  0  0
 17 18  1  0  0  0  0
  3  4  1  0  0  0  0
  3  5  1  0  0  0  0
  3  6  1  0  0  0  0
 43 46  1  0  0  0  0
 43 47  1  0  0  0  0
 43 48  1  0  0  0  0
 11 14  1  0  0  0  0
 11 15  1  0  0  0  0
 11 16  1  0  0  0  0
 50 52  1  0  0  0  0
 50 53  1  0  0  0  0
 50 54  1  0  0  0  0
 22 30  1  0  0  0  0
 22 31  1  0  0  0  0
 23 32  1  0  0  0  0
 23 33  1  0  0  0  0
 21 28  1  0  0  0  0
 21 29  1  0  0  0  0
 24 34  1  0  0  0  0
 24 35  1  0  0  0  0
 40 45  1  0  0  0  0
  8 13  1  0  0  0  0
 18 27  1  0  0  0  0
 49 51  1  0  0  0  0
  7 12  1  0  0  0  0
 39 44  1  0  0  0  0
 17 26  1  0  0  0  0
 25 36  1  0  0  0  0
 25 37  1  0  0  0  0
 25 38  1  0  0  0  0
M  CHG  1  25   1
M  END
$$$$

  -OEChem-05262214473D

 54 53  0     1  0  0  0  0  0999 V2000
    2.6714    2.8829   -3.0005 C   0  0  0  0  0  0  0  0  0  0  0  0
    3.1741    2.4398   -1.9745 O   0  0  0  0  0  0  0  0  0  0  0  0
    3.5527    3.3077   -4.1279 C   0  0  0  0  0  0  0  0  0  0  0  0
    3.8407    4.3691   -4.0597 H   0  0  0  0  0  0  0  0  0  0  0  0
    4.5024    2.7495   -4.1526 H   0  0  0  0  0  0  0  0  0  0  0  0
    3.1208    3.1887   -5.1345 H   0  0  0  0  0  0  0  0  0  0  0  0
    1.3174    3.0407   -3.2467 N   0  0  0  0  0  0  0  0  0  0  0  0
    0.2944    2.6927   -2.2960 C   0  0  2  0  0  0  0  0  0  0  0  0
    0.2976    1.1783   -2.1349 C   0  0  0  0  0  0  0  0  0  0  0  0
    0.7500    0.4142   -2.9850 O   0  0  0  0  0  0  0  0  0  0  0  0
   -1.0710    3.1886   -2.7460 C   0  0  0  0  0  0  0  0  0  0  0  0
    1.0312    3.4224   -4.1464 H   0  0  0  0  0  0  0  0  0  0  0  0
    0.5725    3.1622   -1.3461 H   0  0  0  0  0  0  0  0  0  0  0  0
   -1.3666    2.7292   -3.6963 H   0  0  0  0  0  0  0  0  0  0  0  0
   -1.8434    2.9482   -2.0082 H   0  0  0  0  0  0  0  0  0  0  0  0
   -1.0632    4.2744   -2.8901 H   0  0  0  0  0  0  0  0  0  0  0  0
   -0.3037    0.7742   -0.9484 N   0  0  0  0  0  0  0  0  0  0  0  0
   -0.4352   -0.6095   -0.5718 C   0  0  2  0  0  0  0  0  0  0  0  0
   -0.5496   -1.4548   -1.8362 C   0  0  0  0  0  0  0  0  0  0  0  0
   -1.6137   -1.9243   -2.2346 O   0  0  0  0  0  0  0  0  0  0  0  0
   -1.6000   -0.8309    0.4003 C   0  0  0  0  0  0  0  0  0  0  0  0
   -1.3844   -0.2111    1.7872 C   0  0  0  0  0  0  0  0  0  0  0  0
   -2.5733   -0.4924    2.7091 C   0  0  0  0  0  0  0  0  0  0  0  0
   -2.3670    0.1444    4.0755 C   0  0  0  0  0  0  0  0  0  0  0  0
   -3.5506   -0.1329    4.9244 N   0  3  0  0  0  0  0  0  0  0  0  0
   -0.6336    1.4811   -0.2948 H   0  0  0  0  0  0  0  0  0  0  0  0
    0.5038   -0.8746   -0.0711 H   0  0  0  0  0  0  0  0  0  0  0  0
   -2.5124   -0.4066   -0.0387 H   0  0  0  0  0  0  0  0  0  0  0  0
   -1.7781   -1.9070    0.5171 H   0  0  0  0  0  0  0  0  0  0  0  0
   -0.4732   -0.6175    2.2414 H   0  0  0  0  0  0  0  0  0  0  0  0
   -1.2469    0.8727    1.6963 H   0  0  0  0  0  0  0  0  0  0  0  0
   -2.7037   -1.5761    2.8199 H   0  0  0  0  0  0  0  0  0  0  0  0
   -3.4920   -0.1033    2.2527 H   0  0  0  0  0  0  0  0  0  0  0  0
   -1.4990   -0.2723    4.5951 H   0  0  0  0  0  0  0  0  0  0  0  0
   -2.2706    1.2322    4.0107 H   0  0  0  0  0  0  0  0  0  0  0  0
   -3.6065    0.5300    5.7053 H   0  0  0  0  0  0  0  0  0  0  0  0
   -3.5071   -1.0798    5.3170 H   0  0  0  0  0  0  0  0  0  0  0  0
   -4.4182   -0.0556    4.3822 H   0  0  0  0  0  0  0  0  0  0  0  0
    0.6681   -1.5967   -2.4860 N   0  0  0  0  0  0  0  0  0  0  0  0
    0.8019   -2.3422   -3.7148 C   0  0  2  0  0  0  0  0  0  0  0  0
    2.2867   -2.5654   -3.9701 C   0  0  0  0  0  0  0  0  0  0  0  0
    3.1649   -1.8552   -3.4849 O   0  0  0  0  0  0  0  0  0  0  0  0
    0.1541   -1.6099   -4.8796 C   0  0  0  0  0  0  0  0  0  0  0  0
    1.4928   -1.1615   -2.0836 H   0  0  0  0  0  0  0  0  0  0  0  0
    0.3092   -3.3074   -3.5545 H   0  0  0  0  0  0  0  0  0  0  0  0
    0.6345   -0.6404   -5.0554 H   0  0  0  0  0  0  0  0  0  0  0  0
    0.2315   -2.1897   -5.8052 H   0  0  0  0  0  0  0  0  0  0  0  0
   -0.9070   -1.4238   -4.6814 H   0  0  0  0  0  0  0  0  0  0  0  0
    2.5136   -3.6243   -4.8381 N   0  0  0  0  0  0  0  0  0  0  0  0
    3.8390   -4.0274   -5.2465 C   0  0  0  0  0  0  0  0  0  0  0  0
    1.7267   -4.1700   -5.1770 H   0  0  0  0  0  0  0  0  0  0  0  0
    4.1070   -3.5140   -6.1817 H   0  0  0  0  0  0  0  0  0  0  0  0
    4.5616   -3.7599   -4.4615 H   0  0  0  0  0  0  0  0  0  0  0  0
    3.8580   -5.1154   -5.4072 H   0  0  0  0  0  0  0  0  0  0  0  0
  1  3  1  0  0  0  0
  1  7  1  0  0  0  0
  1  2  2  0  0  0  0
 40 41  1  0  0  0  0
 41 49  1  0  0  0  0
 41 42  2  0  0  0  0
  8  9  1  0  0  0  0
  9 17  1  0  0  0  0
  9 10  2  0  0  0  0
 18 19  1  0  0  0  0
 19 39  1  0  0  0  0
 19 20  2  0  0  0  0
 40 43  1  0  0  0  0
  8 11  1  0  0  0  0
 49 50  1  0  0  0  0
 22 23  1  0  0  0  0
 21 22  1  0  0  0  0
 23 24  1  0  0  0  0
 18 21  1  0  0  0  0
 24 25  1  0  0  0  0
 39 40  1  0  0  0  0
  7  8  1  0  0  0  0
 17 18  1  0  0  0  0
  3  4  1  0  0  0  0
  3  5  1  0  0  0  0
  3  6  1  0  0  0  0
 43 46  1  0  0  0  0
 43 47  1  0  0  0  0
 43 48  1  0  0  0  0
 11 14  1  0  0  0  0
 11 15  1  0  0  0  0
 11 16  1  0  0  0  0
 50 52  1  0  0  0  0
 50 53  1  0  0  0  0
 50 54  1  0  0  0  0
 22 30  1  0  0  0  0
 22 31  1  0  0  0  0
 23 32  1  0  0  0  0
 23 33  1  0  0  0  0
 21 28  1  0  0  0  0
 21 29  1  0  0  0  0
 24 34  1  0  0  0  0
 24 35  1  0  0  0  0
 40 45  1  0  0  0  0
  8 13  1  0  0  0  0
 18 27  1  0  0  0  0
 49 51  1  0  0  0  0
  7 12  1  0  0  0  0
 39 44  1  0  0  0  0
 17 26  1  0  0  0  0
 25 36  1  0  0  0  0
 25 37  1  0  0  0  0
 25 38  1  0  0  0  0
M  CHG  1  25   1
M  END
$$$$

  -OEChem-05262214473D

 54 53  0     1  0  0  0  0  0999 V2000
    2.6714    2.8829   -3.0005 C   0  0  0  0  0  0  0  0  0  0  0  0
    3.1741    2.4398   -1.9745 O   0  0  0  0  0  0  0  0  0  0  0  0
    3.5527    3.3077   -4.1279 C   0  0  0  0  0  0  0  0  0  0  0  0
    3.8407    4.3691   -4.0597 H   0  0  0  0  0  0  0  0  0  0  0  0
    4.5024    2.7495   -4.1526 H   0  0  0  0  0  0  0  0  0  0  0  0
    3.1208    3.1887   -5.1345 H   0  0  0  0  0  0  0  0  0  0  0  0
    1.3174    3.0407   -3.2467 N   0  0  0  0  0  0  0  0  0  0  0  0
    0.2944    2.6927   -2.2960 C   0  0  2  0  0  0  0  0  0  0  0  0
    0.2976    1.1783   -2.1349 C   0  0  0  0  0  0  0  0  0  0  0  0
    0.7500    0.4142   -2.9850 O   0  0  0  0  0  0  0  0  0  0  0  0
   -1.0710    3.1886   -2.7460 C   0  0  0  0  0  0  0  0  0  0  0  0
    1.0312    3.4224   -4.1464 H   0  0  0  0  0  0  0  0  0  0  0  0
    0.5725    3.1622   -1.3461 H   0  0  0  0  0  0  0  0  0  0  0  0
   -1.3666    2.7292   -3.6963 H   0  0  0  0  0  0  0  0  0  0  0  0
   -1.8434    2.9482   -2.0082 H   0  0  0  0  0  0  0  0  0  0  0  0
   -1.0632    4.2744   -2.8901 H   0  0  0  0  0  0  0  0  0  0  0  0
   -0.3037    0.7742   -0.9484 N   0  0  0  0  0  0  0  0  0  0  0  0
   -0.4352   -0.6095   -0.5718 C   0  0  2  0  0  0  0  0  0  0  0  0
   -0.5496   -1.4548   -1.8362 C   0  0  0  0  0  0  0  0  0  0  0  0
   -1.6227   -1.7004   -2.3835 O   0  0  0  0  0  0  0  0  0  0  0  0
   -1.6000   -0.8309    0.4003 C   0  0  0  0  0  0  0  0  0  0  0  0
   -1.3844   -0.2111    1.7872 C   0  0  0  0  0  0  0  0  0  0  0  0
   -2.5733   -0.4924    2.7091 C   0  0  0  0  0  0  0  0  0  0  0  0
   -2.3670    0.1444    4.0755 C   0  0  0  0  0  0  0  0  0  0  0  0
   -3.5506   -0.1329    4.9244 N   0  3  0  0  0  0  0  0  0  0  0  0
   -0.6336    1.4811   -0.2948 H   0  0  0  0  0  0  0  0  0  0  0  0
    0.5038   -0.8746   -0.0711 H   0  0  0  0  0  0  0  0  0  0  0  0
   -2.5124   -0.4066   -0.0387 H   0  0  0  0  0  0  0  0  0  0  0  0
   -1.7781   -1.9070    0.5171 H   0  0  0  0  0  0  0  0  0  0  0  0
   -0.4732   -0.6175    2.2414 H   0  0  0  0  0  0  0  0  0  0  0  0
   -1.2469    0.8727    1.6963 H   0  0  0  0  0  0  0  0  0  0  0  0
   -2.7037   -1.5761    2.8199 H   0  0  0  0  0  0  0  0  0  0  0  0
   -3.4920   -0.1033    2.2527 H   0  0  0  0  0  0  0  0  0  0  0  0
   -1.4990   -0.2723    4.5951 H   0  0  0  0  0  0  0  0  0  0  0  0
   -2.2706    1.2322    4.0107 H   0  0  0  0  0  0  0  0  0  0  0  0
   -3.6065    0.5300    5.7053 H   0  0  0  0  0  0  0  0  0  0  0  0
   -3.5071   -1.0798    5.3170 H   0  0  0  0  0  0  0  0  0  0  0  0
   -4.4182   -0.0556    4.3822 H   0  0  0  0  0  0  0  0  0  0  0  0
    0.6880   -1.8757   -2.3013 N   0  0  0  0  0  0  0  0  0  0  0  0
    0.8300   -2.6751   -3.4947 C   0  0  2  0  0  0  0  0  0  0  0  0
    2.2523   -3.2185   -3.5304 C   0  0  0  0  0  0  0  0  0  0  0  0
    3.1856   -2.6952   -2.9252 O   0  0  0  0  0  0  0  0  0  0  0  0
    0.5269   -1.8629   -4.7442 C   0  0  0  0  0  0  0  0  0  0  0  0
    1.5219   -1.6124   -1.7847 H   0  0  0  0  0  0  0  0  0  0  0  0
    0.1229   -3.5069   -3.4042 H   0  0  0  0  0  0  0  0  0  0  0  0
    1.2253   -1.0249   -4.8518 H   0  0  0  0  0  0  0  0  0  0  0  0
    0.6073   -2.4780   -5.6465 H   0  0  0  0  0  0  0  0  0  0  0  0
   -0.4860   -1.4482   -4.7032 H   0  0  0  0  0  0  0  0  0  0  0  0
    2.3655   -4.3312   -4.3521 N   0  0  0  0  0  0  0  0  0  0  0  0
    3.6167   -5.0215   -4.5617 C   0  0  0  0  0  0  0  0  0  0  0  0
    1.5354   -4.7081   -4.7999 H   0  0  0  0  0  0  0  0  0  0  0  0
    4.1187   -4.6102   -5.4498 H   0  0  0  0  0  0  0  0  0  0  0  0
    4.2616   -4.8869   -3.6808 H   0  0  0  0  0  0  0  0  0  0  0  0
    3.4228   -6.0936   -4.7138 H   0  0  0  0  0  0  0  0  0  0  0  0
  1  3  1  0  0  0  0
  1  7  1  0  0  0  0
  1  2  2  0  0  0  0
 40 41  1  0  0  0  0
 41 49  1  0  0  0  0
 41 42  2  0  0  0  0
  8  9  1  0  0  0  0
  9 17  1  0  0  0  0
  9 10  2  0  0  0  0
 18 19  1  0  0  0  0
 19 39  1  0  0  0  0
 19 20  2  0  0  0  0
 40 43  1  0  0  0  0
  8 11  1  0  0  0  0
 49 50  1  0  0  0  0
 22 23  1  0  0  0  0
 21 22  1  0  0  0  0
 23 24  1  0  0  0  0
 18 21  1  0  0  0  0
 24 25  1  0  0  0  0
 39 40  1  0  0  0  0
  7  8  1  0  0  0  0
 17 18  1  0  0  0  0
  3  4  1  0  0  0  0
  3  5  1  0  0  0  0
  3  6  1  0  0  0  0
 43 46  1  0  0  0  0
 43 47  1  0  0  0  0
 43 48  1  0  0  0  0
 11 14  1  0  0  0  0
 11 15  1  0  0  0  0
 11 16  1  0  0  0  0
 50 52  1  0  0  0  0
 50 53  1  0  0  0  0
 50 54  1  0  0  0  0
 22 30  1  0  0  0  0
 22 31  1  0  0  0  0
 23 32  1  0  0  0  0
 23 33  1  0  0  0  0
 21 28  1  0  0  0  0
 21 29  1  0  0  0  0
 24 34  1  0  0  0  0
 24 35  1  0  0  0  0
 40 45  1  0  0  0  0
  8 13  1  0  0  0  0
 18 27  1  0  0  0  0
 49 51  1  0  0  0  0
  7 12  1  0  0  0  0
 39 44  1  0  0  0  0
 17 26  1  0  0  0  0
 25 36  1  0  0  0  0
 25 37  1  0  0  0  0
 25 38  1  0  0  0  0
M  CHG  1  25   1
M  END
$$$$

  -OEChem-05262214473D

 54 53  0     1  0  0  0  0  0999 V2000
    2.6714    2.8829   -3.0005 C   0  0  0  0  0  0  0  0  0  0  0  0
    3.1741    2.4398   -1.9745 O   0  0  0  0  0  0  0  0  0  0  0  0
    3.5527    3.3077   -4.1279 C   0  0  0  0  0  0  0  0  0  0  0  0
    3.8407    4.3691   -4.0597 H   0  0  0  0  0  0  0  0  0  0  0  0
    4.5024    2.7495   -4.1526 H   0  0  0  0  0  0  0  0  0  0  0  0
    3.1208    3.1887   -5.1345 H   0  0  0  0  0  0  0  0  0  0  0  0
    1.3174    3.0407   -3.2467 N   0  0  0  0  0  0  0  0  0  0  0  0
    0.2944    2.6927   -2.2960 C   0  0  2  0  0  0  0  0  0  0  0  0
    0.2976    1.1783   -2.1349 C   0  0  0  0  0  0  0  0  0  0  0  0
    0.7500    0.4142   -2.9850 O   0  0  0  0  0  0  0  0  0  0  0  0
   -1.0710    3.1886   -2.7460 C   0  0  0  0  0  0  0  0  0  0  0  0
    1.0312    3.4224   -4.1464 H   0  0  0  0  0  0  0  0  0  0  0  0
    0.5725    3.1622   -1.3461 H   0  0  0  0  0  0  0  0  0  0  0  0
   -1.3666    2.7292   -3.6963 H   0  0  0  0  0  0  0  0  0  0  0  0
   -1.8434    2.9482   -2.0082 H   0  0  0  0  0  0  0  0  0  0  0  0
   -1.0632    4.2744   -2.8901 H   0  0  0  0  0  0  0  0  0  0  0  0
   -0.3037    0.7742   -0.9484 N   0  0  0  0  0  0  0  0  0  0  0  0
   -0.4352   -0.6095   -0.5718 C   0  0  2  0  0  0  0  0  0  0  0  0
   -0.5496   -1.4548   -1.8362 C   0  0  0  0  0  0  0  0  0  0  0  0
   -1.5620   -1.4850   -2.5329 O   0  0  0  0  0  0  0  0  0  0  0  0
   -1.6000   -0.8309    0.4003 C   0  0  0  0  0  0  0  0  0  0  0  0
   -1.3844   -0.2111    1.7872 C   0  0  0  0  0  0  0  0  0  0  0  0
   -2.5733   -0.4924    2.7091 C   0  0  0  0  0  0  0  0  0  0  0  0
   -2.3670    0.1444    4.0755 C   0  0  0  0  0  0  0  0  0  0  0  0
   -3.5506   -0.1329    4.9244 N   0  3  0  0  0  0  0  0  0  0  0  0
   -0.6336    1.4811   -0.2948 H   0  0  0  0  0  0  0  0  0  0  0  0
    0.5038   -0.8746   -0.0711 H   0  0  0  0  0  0  0  0  0  0  0  0
   -2.5124   -0.4066   -0.0387 H   0  0  0  0  0  0  0  0  0  0  0  0
   -1.7781   -1.9070    0.5171 H   0  0  0  0  0  0  0  0  0  0  0  0
   -0.4732   -0.6175    2.2414 H   0  0  0  0  0  0  0  0  0  0  0  0
   -1.2469    0.8727    1.6963 H   0  0  0  0  0  0  0  0  0  0  0  0
   -2.7037   -1.5761    2.8199 H   0  0  0  0  0  0  0  0  0  0  0  0
   -3.4920   -0.1033    2.2527 H   0  0  0  0  0  0  0  0  0  0  0  0
   -1.4990   -0.2723    4.5951 H   0  0  0  0  0  0  0  0  0  0  0  0
   -2.2706    1.2322    4.0107 H   0  0  0  0  0  0  0  0  0  0  0  0
   -3.6065    0.5300    5.7053 H   0  0  0  0  0  0  0  0  0  0  0  0
   -3.5071   -1.0798    5.3170 H   0  0  0  0  0  0  0  0  0  0  0  0
   -4.4182   -0.0556    4.3822 H   0  0  0  0  0  0  0  0  0  0  0  0
    0.6209   -2.1458   -2.1146 N   0  0  0  0  0  0  0  0  0  0  0  0
    0.7541   -2.9985   -3.2717 C   0  0  2  0  0  0  0  0  0  0  0  0
    2.0159   -3.8334   -3.0979 C   0  0  0  0  0  0  0  0  0  0  0  0
    2.9450   -3.5002   -2.3652 O   0  0  0  0  0  0  0  0  0  0  0  0
    0.8133   -2.1846   -4.5549 C   0  0  0  0  0  0  0  0  0  0  0  0
    1.4104   -2.0484   -1.4831 H   0  0  0  0  0  0  0  0  0  0  0  0
   -0.1215   -3.6567   -3.2819 H   0  0  0  0  0  0  0  0  0  0  0  0
    1.6842   -1.5191   -4.5629 H   0  0  0  0  0  0  0  0  0  0  0  0
    0.8856   -2.8340   -5.4337 H   0  0  0  0  0  0  0  0  0  0  0  0
   -0.0816   -1.5624   -4.6634 H   0  0  0  0  0  0  0  0  0  0  0  0
    2.0011   -4.9728   -3.8901 N   0  0  0  0  0  0  0  0  0  0  0  0
    3.0904   -5.9209   -3.9128 C   0  0  0  0  0  0  0  0  0  0  0  0
    1.1810   -5.1796   -4.4526 H   0  0  0  0  0  0  0  0  0  0  0  0
    3.7898   -5.6574   -4.7199 H   0  0  0  0  0  0  0  0  0  0  0  0
    3.6181   -5.8960   -2.9480 H   0  0  0  0  0  0  0  0  0  0  0  0
    2.6931   -6.9316   -4.0875 H   0  0  0  0  0  0  0  0  0  0  0  0
  1  3  1  0  0  0  0
  1  7  1  0  0  0  0
  1  2  2  0  0  0  0
 40 41  1  0  0  0  0
 41 49  1  0  0  0  0
 41 42  2  0  0  0  0
  8  9  1  0  0  0  0
  9 17  1  0  0  0  0
  9 10  2  0  0  0  0
 18 19  1  0  0  0  0
 19 39  1  0  0  0  0
 19 20  2  0  0  0  0
 40 43  1  0  0  0  0
  8 11  1  0  0  0  0
 49 50  1  0  0  0  0
 22 23  1  0  0  0  0
 21 22  1  0  0  0  0
 23 24  1  0  0  0  0
 18 21  1  0  0  0  0
 24 25  1  0  0  0  0
 39 40  1  0  0  0  0
  7  8  1  0  0  0  0
 17 18  1  0  0  0  0
  3  4  1  0  0  0  0
  3  5  1  0  0  0  0
  3  6  1  0  0  0  0
 43 46  1  0  0  0  0
 43 47  1  0  0  0  0
 43 48  1  0  0  0  0
 11 14  1  0  0  0  0
 11 15  1  0  0  0  0
 11 16  1  0  0  0  0
 50 52  1  0  0  0  0
 50 53  1  0  0  0  0
 50 54  1  0  0  0  0
 22 30  1  0  0  0  0
 22 31  1  0  0  0  0
 23 32  1  0  0  0  0
 23 33  1  0  0  0  0
 21 28  1  0  0  0  0
 21 29  1  0  0  0  0
 24 34  1  0  0  0  0
 24 35  1  0  0  0  0
 40 45  1  0  0  0  0
  8 13  1  0  0  0  0
 18 27  1  0  0  0  0
 49 51  1  0  0  0  0
  7 12  1  0  0  0  0
 39 44  1  0  0  0  0
 17 26  1  0  0  0  0
 25 36  1  0  0  0  0
 25 37  1  0  0  0  0
 25 38  1  0  0  0  0
M  CHG  1  25   1
M  END
$$$$

  -OEChem-05262214473D

 54 53  0     1  0  0  0  0  0999 V2000
    2.6714    2.8829   -3.0005 C   0  0  0  0  0  0  0  0  0  0  0  0
    3.1741    2.4398   -1.9745 O   0  0  0  0  0  0  0  0  0  0  0  0
    3.5527    3.3077   -4.1279 C   0  0  0  0  0  0  0  0  0  0  0  0
    3.8407    4.3691   -4.0597 H   0  0  0  0  0  0  0  0  0  0  0  0
    4.5024    2.7495   -4.1526 H   0  0  0  0  0  0  0  0  0  0  0  0
    3.1208    3.1887   -5.1345 H   0  0  0  0  0  0  0  0  0  0  0  0
    1.3174    3.0407   -3.2467 N   0  0  0  0  0  0  0  0  0  0  0  0
    0.2944    2.6927   -2.2960 C   0  0  2  0  0  0  0  0  0  0  0  0
    0.2976    1.1783   -2.1349 C   0  0  0  0  0  0  0  0  0  0  0  0
    0.7500    0.4142   -2.9850 O   0  0  0  0  0  0  0  0  0  0  0  0
   -1.0710    3.1886   -2.7460 C   0  0  0  0  0  0  0  0  0  0  0  0
    1.0312    3.4224   -4.1464 H   0  0  0  0  0  0  0  0  0  0  0  0
    0.5725    3.1622   -1.3461 H   0  0  0  0  0  0  0  0  0  0  0  0
   -1.3666    2.7292   -3.6963 H   0  0  0  0  0  0  0  0  0  0  0  0
   -1.8434    2.9482   -2.0082 H   0  0  0  0  0  0  0  0  0  0  0  0
   -1.0632    4.2744   -2.8901 H   0  0  0  0  0  0  0  0  0  0  0  0
   -0.3037    0.7742   -0.9484 N   0  0  0  0  0  0  0  0  0  0  0  0
   -0.4352   -0.6095   -0.5718 C   0  0  2  0  0  0  0  0  0  0  0  0
   -0.5496   -1.4548   -1.8362 C   0  0  0  0  0  0  0  0  0  0  0  0
   -1.4358   -1.2929   -2.6728 O   0  0  0  0  0  0  0  0  0  0  0  0
   -1.6000   -0.8309    0.4003 C   0  0  0  0  0  0  0  0  0  0  0  0
   -1.3844   -0.2111    1.7872 C   0  0  0  0  0  0  0  0  0  0  0  0
   -2.5733   -0.4924    2.7091 C   0  0  0  0  0  0  0  0  0  0  0  0
   -2.3670    0.1444    4.0755 C   0  0  0  0  0  0  0  0  0  0  0  0
   -3.5506   -0.1329    4.9244 N   0  3  0  0  0  0  0  0  0  0  0  0
   -0.6336    1.4811   -0.2948 H   0  0  0  0  0  0  0  0  0  0  0  0
    0.5038   -0.8746   -0.0711 H   0  0  0  0  0  0  0  0  0  0  0  0
   -2.5124   -0.4066   -0.0387 H   0  0  0  0  0  0  0  0  0  0  0  0
   -1.7781   -1.9070    0.5171 H   0  0  0  0  0  0  0  0  0  0  0  0
   -0.4732   -0.6175    2.2414 H   0  0  0  0  0  0  0  0  0  0  0  0
   -1.2469    0.8727    1.6963 H   0  0  0  0  0  0  0  0  0  0  0  0
   -2.7037   -1.5761    2.8199 H   0  0  0  0  0  0  0  0  0  0  0  0
   -3.4920   -0.1033    2.2527 H   0  0  0  0  0  0  0  0  0  0  0  0
   -1.4990   -0.2723    4.5951 H   0  0  0  0  0  0  0  0  0  0  0  0
   -2.2706    1.2322    4.0107 H   0  0  0  0  0  0  0  0  0  0  0  0
   -3.6065    0.5300    5.7053 H   0  0  0  0  0  0  0  0  0  0  0  0
   -3.5071   -1.0798    5.3170 H   0  0  0  0  0  0  0  0  0  0  0  0
   -4.4182   -0.0556    4.3822 H   0  0  0  0  0  0  0  0  0  0  0  0
    0.4713   -2.3887   -1.9387 N   0  0  0  0  0  0  0  0  0  0  0  0
    0.5794   -3.2903   -3.0608 C   0  0  2  0  0  0  0  0  0  0  0  0
    1.5936   -4.3683   -2.7020 C   0  0  0  0  0  0  0  0  0  0  0  0
    2.4597   -4.2153   -1.8432 O   0  0  0  0  0  0  0  0  0  0  0  0
    0.9938   -2.5532   -4.3248 C   0  0  0  0  0  0  0  0  0  0  0  0
    1.1659   -2.4398   -1.1994 H   0  0  0  0  0  0  0  0  0  0  0  0
   -0.4072   -3.7467   -3.1960 H   0  0  0  0  0  0  0  0  0  0  0  0
    1.9800   -2.0892   -4.2085 H   0  0  0  0  0  0  0  0  0  0  0  0
    1.0475   -3.2335   -5.1812 H   0  0  0  0  0  0  0  0  0  0  0  0
    0.2789   -1.7587   -4.5648 H   0  0  0  0  0  0  0  0  0  0  0  0
    1.4452   -5.5054   -3.4838 N   0  0  0  0  0  0  0  0  0  0  0  0
    2.2960   -6.6641   -3.3441 C   0  0  0  0  0  0  0  0  0  0  0  0
    0.6877   -5.5523   -4.1589 H   0  0  0  0  0  0  0  0  0  0  0  0
    3.1427   -6.5842   -4.0418 H   0  0  0  0  0  0  0  0  0  0  0  0
    2.6748   -6.7184   -2.3128 H   0  0  0  0  0  0  0  0  0  0  0  0
    1.7185   -7.5724   -3.5710 H   0  0  0  0  0  0  0  0  0  0  0  0
  1  3  1  0  0  0  0
  1  7  1  0  0  0  0
  1  2  2  0  0  0  0
 40 41  1  0  0  0  0
 41 49  1  0  0  0  0
 41 42  2  0  0  0  0
  8  9  1  0  0  0  0
  9 17  1  0  0  0  0
  9 10  2  0  0  0  0
 18 19  1  0  0  0  0
 19 39  1  0  0  0  0
 19 20  2  0  0  0  0
 40 43  1  0  0  0  0
  8 11  1  0  0  0  0
 49 50  1  0  0  0  0
 22 23  1  0  0  0  0
 21 22  1  0  0  0  0
 23 24  1  0  0  0  0
 18 21  1  0  0  0  0
 24 25  1  0  0  0  0
 39 40  1  0  0  0  0
  7  8  1  0  0  0  0
 17 18  1  0  0  0  0
  3  4  1  0  0  0  0
  3  5  1  0  0  0  0
  3  6  1  0  0  0  0
 43 46  1  0  0  0  0
 43 47  1  0  0  0  0
 43 48  1  0  0  0  0
 11 14  1  0  0  0  0
 11 15  1  0  0  0  0
 11 16  1  0  0  0  0
 50 52  1  0  0  0  0
 50 53  1  0  0  0  0
 50 54  1  0  0  0  0
 22 30  1  0  0  0  0
 22 31  1  0  0  0  0
 23 32  1  0  0  0  0
 23 33  1  0  0  0  0
 21 28  1  0  0  0  0
 21 29  1  0  0  0  0
 24 34  1  0  0  0  0
 24 35  1  0  0  0  0
 40 45  1  0  0  0  0
  8 13  1  0  0  0  0
 18 27  1  0  0  0  0
 49 51  1  0  0  0  0
  7 12  1  0  0  0  0
 39 44  1  0  0  0  0
 17 26  1  0  0  0  0
 25 36  1  0  0  0  0
 25 37  1  0  0  0  0
 25 38  1  0  0  0  0
M  CHG  1  25   1
M  END
$$$$

  -OEChem-05262214473D

 54 53  0     1  0  0  0  0  0999 V2000
    2.6714    2.8829   -3.0005 C   0  0  0  0  0  0  0  0  0  0  0  0
    3.1741    2.4398   -1.9745 O   0  0  0  0  0  0  0  0  0  0  0  0
    3.5527    3.3077   -4.1279 C   0  0  0  0  0  0  0  0  0  0  0  0
    3.8407    4.3691   -4.0597 H   0  0  0  0  0  0  0  0  0  0  0  0
    4.5024    2.7495   -4.1526 H   0  0  0  0  0  0  0  0  0  0  0  0
    3.1208    3.1887   -5.1345 H   0  0  0  0  0  0  0  0  0  0  0  0
    1.3174    3.0407   -3.2467 N   0  0  0  0  0  0  0  0  0  0  0  0
    0.2944    2.6927   -2.2960 C   0  0  2  0  0  0  0  0  0  0  0  0
    0.2976    1.1783   -2.1349 C   0  0  0  0  0  0  0  0  0  0  0  0
    0.7500    0.4142   -2.9850 O   0  0  0  0  0  0  0  0  0  0  0  0
   -1.0710    3.1886   -2.7460 C   0  0  0  0  0  0  0  0  0  0  0  0
    1.0312    3.4224   -4.1464 H   0  0  0  0  0  0  0  0  0  0  0  0
    0.5725    3.1622   -1.3461 H   0  0  0  0  0  0  0  0  0  0  0  0
   -1.3666    2.7292   -3.6963 H   0  0  0  0  0  0  0  0  0  0  0  0
   -1.8434    2.9482   -2.0082 H   0  0  0  0  0  0  0  0  0  0  0  0
   -1.0632    4.2744   -2.8901 H   0  0  0  0  0  0  0  0  0  0  0  0
   -0.3037    0.7742   -0.9484 N   0  0  0  0  0  0  0  0  0  0  0  0
   -0.4352   -0.6095   -0.5718 C   0  0  2  0  0  0  0  0  0  0  0  0
   -0.5496   -1.4548   -1.8362 C   0  0  0  0  0  0  0  0  0  0  0  0
   -1.2526   -1.1372   -2.7935 O   0  0  0  0  0  0  0  0  0  0  0  0
   -1.6000   -0.8309    0.4003 C   0  0  0  0  0  0  0  0  0  0  0  0
   -1.3844   -0.2111    1.7872 C   0  0  0  0  0  0  0  0  0  0  0  0
   -2.5733   -0.4924    2.7091 C   0  0  0  0  0  0  0  0  0  0  0  0
   -2.3670    0.1444    4.0755 C   0  0  0  0  0  0  0  0  0  0  0  0
   -3.5506   -0.1329    4.9244 N   0  3  0  0  0  0  0  0  0  0  0  0
   -0.6336    1.4811   -0.2948 H   0  0  0  0  0  0  0  0  0  0  0  0
    0.5038   -0.8746   -0.0711 H   0  0  0  0  0  0  0  0  0  0  0  0
   -2.5124   -0.4066   -0.0387 H   0  0  0  0  0  0  0  0  0  0  0  0
   -1.7781   -1.9070    0.5171 H   0  0  0  0  0  0  0  0  0  0  0  0
   -0.4732   -0.6175    2.2414 H   0  0  0  0  0  0  0  0  0  0  0  0
   -1.2469    0.8727    1.6963 H   0  0  0  0  0  0  0  0  0  0  0  0
   -2.7037   -1.5761    2.8199 H   0  0  0  0  0  0  0  0  0  0  0  0
   -3.4920   -0.1033    2.2527 H   0  0  0  0  0  0  0  0  0  0  0  0
   -1.4990   -0.2723    4.5951 H   0  0  0  0  0  0  0  0  0  0  0  0
   -2.2706    1.2322    4.0107 H   0  0  0  0  0  0  0  0  0  0  0  0
   -3.6065    0.5300    5.7053 H   0  0  0  0  0  0  0  0  0  0  0  0
   -3.5071   -1.0798    5.3170 H   0  0  0  0  0  0  0  0  0  0  0  0
   -4.4182   -0.0556    4.3822 H   0  0  0  0  0  0  0  0  0  0  0  0
    0.2495   -2.5879   -1.7855 N   0  0  0  0  0  0  0  0  0  0  0  0
    0.3178   -3.5305   -2.8766 C   0  0  2  0  0  0  0  0  0  0  0  0
    1.0141   -4.7867   -2.3699 C   0  0  0  0  0  0  0  0  0  0  0  0
    1.7625   -4.7918   -1.3947 O   0  0  0  0  0  0  0  0  0  0  0  0
    1.0560   -2.9435   -4.0695 C   0  0  0  0  0  0  0  0  0  0  0  0
    0.8051   -2.7598   -0.9528 H   0  0  0  0  0  0  0  0  0  0  0  0
   -0.7148   -3.7706   -3.1522 H   0  0  0  0  0  0  0  0  0  0  0  0
    2.0926   -2.6966   -3.8126 H   0  0  0  0  0  0  0  0  0  0  0  0
    1.0821   -3.6491   -4.9064 H   0  0  0  0  0  0  0  0  0  0  0  0
    0.5709   -2.0238   -4.4140 H   0  0  0  0  0  0  0  0  0  0  0  0
    0.7356   -5.8927   -3.1607 N   0  0  0  0  0  0  0  0  0  0  0  0
    1.2877   -7.2005   -2.8943 C   0  0  0  0  0  0  0  0  0  0  0  0
    0.0891   -5.8007   -3.9387 H   0  0  0  0  0  0  0  0  0  0  0  0
    2.2215   -7.3274   -3.4616 H   0  0  0  0  0  0  0  0  0  0  0  0
    1.4962   -7.2981   -1.8186 H   0  0  0  0  0  0  0  0  0  0  0  0
    0.5657   -7.9722   -3.1994 H   0  0  0  0  0  0  0  0  0  0  0  0
  1  3  1  0  0  0  0
  1  7  1  0  0  0  0
  1  2  2  0  0  0  0
 40 41  1  0  0  0  0
 41 49  1  0  0  0  0
 41 42  2  0  0  0  0
  8  9  1  0  0  0  0
  9 17  1  0  0  0  0
  9 10  2  0  0  0  0
 18 19  1  0  0  0  0
 19 39  1  0  0  0  0
 19 20  2  0  0  0  0
 40 43  1  0  0  0  0
  8 11  1  0  0  0  0
 49 50  1  0  0  0  0
 22 23  1  0  0  0  0
 21 22  1  0  0  0  0
 23 24  1  0  0  0  0
 18 21  1  0  0  0  0
 24 25  1  0  0  0  0
 39 40  1  0  0  0  0
  7  8  1  0  0  0  0
 17 18  1  0  0  0  0
  3  4  1  0  0  0  0
  3  5  1  0  0  0  0
  3  6  1  0  0  0  0
 43 46  1  0  0  0  0
 43 47  1  0  0  0  0
 43 48  1  0  0  0  0
 11 14  1  0  0  0  0
 11 15  1  0  0  0  0
 11 16  1  0  0  0  0
 50 52  1  0  0  0  0
 50 53  1  0  0  0  0
 50 54  1  0  0  0  0
 22 30  1  0  0  0  0
 22 31  1  0  0  0  0
 23 32  1  0  0  0  0
 23 33  1  0  0  0  0
 21 28  1  0  0  0  0
 21 29  1  0  0  0  0
 24 34  1  0  0  0  0
 24 35  1  0  0  0  0
 40 45  1  0  0  0  0
  8 13  1  0  0  0  0
 18 27  1  0  0  0  0
 49 51  1  0  0  0  0
  7 12  1  0  0  0  0
 39 44  1  0  0  0  0
 17 26  1  0  0  0  0
 25 36  1  0  0  0  0
 25 37  1  0  0  0  0
 25 38  1  0  0  0  0
M  CHG  1  25   1
M  END
$$$$

  -OEChem-05262214473D

 54 53  0     1  0  0  0  0  0999 V2000
    2.6714    2.8829   -3.0005 C   0  0  0  0  0  0  0  0  0  0  0  0
    3.1741    2.4398   -1.9745 O   0  0  0  0  0  0  0  0  0  0  0  0
    3.5527    3.3077   -4.1279 C   0  0  0  0  0  0  0  0  0  0  0  0
    3.8407    4.3691   -4.0597 H   0  0  0  0  0  0  0  0  0  0  0  0
    4.5024    2.7495   -4.1526 H   0  0  0  0  0  0  0  0  0  0  0  0
    3.1208    3.1887   -5.1345 H   0  0  0  0  0  0  0  0  0  0  0  0
    1.3174    3.0407   -3.2467 N   0  0  0  0  0  0  0  0  0  0  0  0
    0.2944    2.6927   -2.2960 C   0  0  2  0  0  0  0  0  0  0  0  0
    0.2976    1.1783   -2.1349 C   0  0  0  0  0  0  0  0  0  0  0  0
    0.7500    0.4142   -2.9850 O   0  0  0  0  0  0  0  0  0  0  0  0
   -1.0710    3.1886   -2.7460 C   0  0  0  0  0  0  0  0  0  0  0  0
    1.0312    3.4224   -4.1464 H   0  0  0  0  0  0  0  0  0  0  0  0
    0.5725    3.1622   -1.3461 H   0  0  0  0  0  0  0  0  0  0  0  0
   -1.3666    2.7292   -3.6963 H   0  0  0  0  0  0  0  0  0  0  0  0
   -1.8434    2.9482   -2.0082 H   0  0  0  0  0  0  0  0  0  0  0  0
   -1.0632    4.2744   -2.8901 H   0  0  0  0  0  0  0  0  0  0  0  0
   -0.3037    0.7742   -0.9484 N   0  0  0  0  0  0  0  0  0  0  0  0
   -0.4352   -0.6095   -0.5718 C   0  0  2  0  0  0  0  0  0  0  0  0
   -0.5496   -1.4548   -1.8362 C   0  0  0  0  0  0  0  0  0  0  0  0
   -1.0248   -1.0284   -2.8868 O   0  0  0  0  0  0  0  0  0  0  0  0
   -1.6000   -0.8309    0.4003 C   0  0  0  0  0  0  0  0  0  0  0  0
   -1.3844   -0.2111    1.7872 C   0  0  0  0  0  0  0  0  0  0  0  0
   -2.5733   -0.4924    2.7091 C   0  0  0  0  0  0  0  0  0  0  0  0
   -2.3670    0.1444    4.0755 C   0  0  0  0  0  0  0  0  0  0  0  0
   -3.5506   -0.1329    4.9244 N   0  3  0  0  0  0  0  0  0  0  0  0
   -0.6336    1.4811   -0.2948 H   0  0  0  0  0  0  0  0  0  0  0  0
    0.5038   -0.8746   -0.0711 H   0  0  0  0  0  0  0  0  0  0  0  0
   -2.5124   -0.4066   -0.0387 H   0  0  0  0  0  0  0  0  0  0  0  0
   -1.7781   -1.9070    0.5171 H   0  0  0  0  0  0  0  0  0  0  0  0
   -0.4732   -0.6175    2.2414 H   0  0  0  0  0  0  0  0  0  0  0  0
   -1.2469    0.8727    1.6963 H   0  0  0  0  0  0  0  0  0  0  0  0
   -2.7037   -1.5761    2.8199 H   0  0  0  0  0  0  0  0  0  0  0  0
   -3.4920   -0.1033    2.2527 H   0  0  0  0  0  0  0  0  0  0  0  0
   -1.4990   -0.2723    4.5951 H   0  0  0  0  0  0  0  0  0  0  0  0
   -2.2706    1.2322    4.0107 H   0  0  0  0  0  0  0  0  0  0  0  0
   -3.6065    0.5300    5.7053 H   0  0  0  0  0  0  0  0  0  0  0  0
   -3.5071   -1.0798    5.3170 H   0  0  0  0  0  0  0  0  0  0  0  0
   -4.4182   -0.0556    4.3822 H   0  0  0  0  0  0  0  0  0  0  0  0
   -0.0294   -2.7297   -1.6654 N   0  0  0  0  0  0  0  0  0  0  0  0
   -0.0128   -3.7028   -2.7314 C   0  0  2  0  0  0  0  0  0  0  0  0
    0.3170   -5.0600   -2.1241 C   0  0  0  0  0  0  0  0  0  0  0  0
    0.9011   -5.1903   -1.0504 O   0  0  0  0  0  0  0  0  0  0  0  0
    0.9957   -3.3288   -3.8065 C   0  0  0  0  0  0  0  0  0  0  0  0
    0.3525   -2.9868   -0.7601 H   0  0  0  0  0  0  0  0  0  0  0  0
   -1.0234   -3.7268   -3.1535 H   0  0  0  0  0  0  0  0  0  0  0  0
    2.0142   -3.2997   -3.4023 H   0  0  0  0  0  0  0  0  0  0  0  0
    0.9868   -4.0527   -4.6280 H   0  0  0  0  0  0  0  0  0  0  0  0
    0.7744   -2.3395   -4.2213 H   0  0  0  0  0  0  0  0  0  0  0  0
   -0.0792   -6.1083   -2.9429 N   0  0  0  0  0  0  0  0  0  0  0  0
    0.1341   -7.4935   -2.5940 C   0  0  0  0  0  0  0  0  0  0  0  0
   -0.5740   -5.9079   -3.8070 H   0  0  0  0  0  0  0  0  0  0  0  0
    1.0890   -7.8363   -3.0189 H   0  0  0  0  0  0  0  0  0  0  0  0
    0.1624   -7.5956   -1.4991 H   0  0  0  0  0  0  0  0  0  0  0  0
   -0.6870   -8.1038   -2.9981 H   0  0  0  0  0  0  0  0  0  0  0  0
  1  3  1  0  0  0  0
  1  7  1  0  0  0  0
  1  2  2  0  0  0  0
 40 41  1  0  0  0  0
 41 49  1  0  0  0  0
 41 42  2  0  0  0  0
  8  9  1  0  0  0  0
  9 17  1  0  0  0  0
  9 10  2  0  0  0  0
 18 19  1  0  0  0  0
 19 39  1  0  0  0  0
 19 20  2  0  0  0  0
 40 43  1  0  0  0  0
  8 11  1  0  0  0  0
 49 50  1  0  0  0  0
 22 23  1  0  0  0  0
 21 22  1  0  0  0  0
 23 24  1  0  0  0  0
 18 21  1  0  0  0  0
 24 25  1  0  0  0  0
 39 40  1  0  0  0  0
  7  8  1  0  0  0  0
 17 18  1  0  0  0  0
  3  4  1  0  0  0  0
  3  5  1  0  0  0  0
  3  6  1  0  0  0  0
 43 46  1  0  0  0  0
 43 47  1  0  0  0  0
 43 48  1  0  0  0  0
 11 14  1  0  0  0  0
 11 15  1  0  0  0  0
 11 16  1  0  0  0  0
 50 52  1  0  0  0  0
 50 53  1  0  0  0  0
 50 54  1  0  0  0  0
 22 30  1  0  0  0  0
 22 31  1  0  0  0  0
 23 32  1  0  0  0  0
 23 33  1  0  0  0  0
 21 28  1  0  0  0  0
 21 29  1  0  0  0  0
 24 34  1  0  0  0  0
 24 35  1  0  0  0  0
 40 45  1  0  0  0  0
  8 13  1  0  0  0  0
 18 27  1  0  0  0  0
 49 51  1  0  0  0  0
  7 12  1  0  0  0  0
 39 44  1  0  0  0  0
 17 26  1  0  0  0  0
 25 36  1  0  0  0  0
 25 37  1  0  0  0  0
 25 38  1  0  0  0  0
M  CHG  1  25   1
M  END
$$$$

  -OEChem-05262214473D

 54 53  0     1  0  0  0  0  0999 V2000
    2.6714    2.8829   -3.0005 C   0  0  0  0  0  0  0  0  0  0  0  0
    3.1741    2.4398   -1.9745 O   0  0  0  0  0  0  0  0  0  0  0  0
    3.5527    3.3077   -4.1279 C   0  0  0  0  0  0  0  0  0  0  0  0
    3.8407    4.3691   -4.0597 H   0  0  0  0  0  0  0  0  0  0  0  0
    4.5024    2.7495   -4.1526 H   0  0  0  0  0  0  0  0  0  0  0  0
    3.1208    3.1887   -5.1345 H   0  0  0  0  0  0  0  0  0  0  0  0
    1.3174    3.0407   -3.2467 N   0  0  0  0  0  0  0  0  0  0  0  0
    0.2944    2.6927   -2.2960 C   0  0  2  0  0  0  0  0  0  0  0  0
    0.2976    1.1783   -2.1349 C   0  0  0  0  0  0  0  0  0  0  0  0
    0.7500    0.4142   -2.9850 O   0  0  0  0  0  0  0  0  0  0  0  0
   -1.0710    3.1886   -2.7460 C   0  0  0  0  0  0  0  0  0  0  0  0
    1.0312    3.4224   -4.1464 H   0  0  0  0  0  0  0  0  0  0  0  0
    0.5725    3.1622   -1.3461 H   0  0  0  0  0  0  0  0  0  0  0  0
   -1.3666    2.7292   -3.6963 H   0  0  0  0  0  0  0  0  0  0  0  0
   -1.8434    2.9482   -2.0082 H   0  0  0  0  0  0  0  0  0  0  0  0
   -1.0632    4.2744   -2.8901 H   0  0  0  0  0  0  0  0  0  0  0  0
   -0.3037    0.7742   -0.9484 N   0  0  0  0  0  0  0  0  0  0  0  0
   -0.4352   -0.6095   -0.5718 C   0  0  2  0  0  0  0  0  0  0  0  0
   -0.5496   -1.4548   -1.8362 C   0  0  0  0  0  0  0  0  0  0  0  0
   -0.7682   -0.9740   -2.9464 O   0  0  0  0  0  0  0  0  0  0  0  0
   -1.6000   -0.8309    0.4003 C   0  0  0  0  0  0  0  0  0  0  0  0
   -1.3844   -0.2111    1.7872 C   0  0  0  0  0  0  0  0  0  0  0  0
   -2.5733   -0.4924    2.7091 C   0  0  0  0  0  0  0  0  0  0  0  0
   -2.3670    0.1444    4.0755 C   0  0  0  0  0  0  0  0  0  0  0  0
   -3.5506   -0.1329    4.9244 N   0  3  0  0  0  0  0  0  0  0  0  0
   -0.6336    1.4811   -0.2948 H   0  0  0  0  0  0  0  0  0  0  0  0
    0.5038   -0.8746   -0.0711 H   0  0  0  0  0  0  0  0  0  0  0  0
   -2.5124   -0.4066   -0.0387 H   0  0  0  0  0  0  0  0  0  0  0  0
   -1.7781   -1.9070    0.5171 H   0  0  0  0  0  0  0  0  0  0  0  0
   -0.4732   -0.6175    2.2414 H   0  0  0  0  0  0  0  0  0  0  0  0
   -1.2469    0.8727    1.6963 H   0  0  0  0  0  0  0  0  0  0  0  0
   -2.7037   -1.5761    2.8199 H   0  0  0  0  0  0  0  0  0  0  0  0
   -3.4920   -0.1033    2.2527 H   0  0  0  0  0  0  0  0  0  0  0  0
   -1.4990   -0.2723    4.5951 H   0  0  0  0  0  0  0  0  0  0  0  0
   -2.2706    1.2322    4.0107 H   0  0  0  0  0  0  0  0  0  0  0  0
   -3.6065    0.5300    5.7053 H   0  0  0  0  0  0  0  0  0  0  0  0
   -3.5071   -1.0798    5.3170 H   0  0  0  0  0  0  0  0  0  0  0  0
   -4.4182   -0.0556    4.3822 H   0  0  0  0  0  0  0  0  0  0  0  0
   -0.3465   -2.8044   -1.5868 N   0  0  0  0  0  0  0  0  0  0  0  0
   -0.3900   -3.7956   -2.6353 C   0  0  2  0  0  0  0  0  0  0  0  0
   -0.4503   -5.1697   -1.9814 C   0  0  0  0  0  0  0  0  0  0  0  0
   -0.0659   -5.3838   -0.8336 O   0  0  0  0  0  0  0  0  0  0  0  0
    0.8171   -3.6830   -3.5535 C   0  0  0  0  0  0  0  0  0  0  0  0
   -0.1610   -3.1051   -0.6345 H   0  0  0  0  0  0  0  0  0  0  0  0
   -1.3118   -3.6184   -3.1999 H   0  0  0  0  0  0  0  0  0  0  0  0
    1.7502   -3.8575   -3.0055 H   0  0  0  0  0  0  0  0  0  0  0  0
    0.7682   -4.4167   -4.3648 H   0  0  0  0  0  0  0  0  0  0  0  0
    0.8755   -2.6844   -3.9998 H   0  0  0  0  0  0  0  0  0  0  0  0
   -0.9437   -6.1375   -2.8452 N   0  0  0  0  0  0  0  0  0  0  0  0
   -1.0861   -7.5232   -2.4638 C   0  0  0  0  0  0  0  0  0  0  0  0
   -1.2563   -5.8667   -3.7729 H   0  0  0  0  0  0  0  0  0  0  0  0
   -0.1775   -8.0764   -2.7439 H   0  0  0  0  0  0  0  0  0  0  0  0
   -1.2356   -7.5906   -1.3761 H   0  0  0  0  0  0  0  0  0  0  0  0
   -1.9541   -7.9583   -2.9808 H   0  0  0  0  0  0  0  0  0  0  0  0
  1  3  1  0  0  0  0
  1  7  1  0  0  0  0
  1  2  2  0  0  0  0
 40 41  1  0  0  0  0
 41 49  1  0  0  0  0
 41 42  2  0  0  0  0
  8  9  1  0  0  0  0
  9 17  1  0  0  0  0
  9 10  2  0  0  0  0
 18 19  1  0  0  0  0
 19 39  1  0  0  0  0
 19 20  2  0  0  0  0
 40 43  1  0  0  0  0
  8 11  1  0  0  0  0
 49 50  1  0  0  0  0
 22 23  1  0  0  0  0
 21 22  1  0  0  0  0
 23 24  1  0  0  0  0
 18 21  1  0  0  0  0
 24 25  1  0  0  0  0
 39 40  1  0  0  0  0
  7  8  1  0  0  0  0
 17 18  1  0  0  0  0
  3  4  1  0  0  0  0
  3  5  1  0  0  0  0
  3  6  1  0  0  0  0
 43 46  1  0  0  0  0
 43 47  1  0  0  0  0
 43 48  1  0  0  0  0
 11 14  1  0  0  0  0
 11 15  1  0  0  0  0
 11 16  1  0  0  0  0
 50 52  1  0  0  0  0
 50 53  1  0  0  0  0
 50 54  1  0  0  0  0
 22 30  1  0  0  0  0
 22 31  1  0  0  0  0
 23 32  1  0  0  0  0
 23 33  1  0  0  0  0
 21 28  1  0  0  0  0
 21 29  1  0  0  0  0
 24 34  1  0  0  0  0
 24 35  1  0  0  0  0
 40 45  1  0  0  0  0
  8 13  1  0  0  0  0
 18 27  1  0  0  0  0
 49 51  1  0  0  0  0
  7 12  1  0  0  0  0
 39 44  1  0  0  0  0
 17 26  1  0  0  0  0
 25 36  1  0  0  0  0
 25 37  1  0  0  0  0
 25 38  1  0  0  0  0
M  CHG  1  25   1
M  END
$$$$

  -OEChem-05262214473D

 54 53  0     1  0  0  0  0  0999 V2000
    2.6714    2.8829   -3.0005 C   0  0  0  0  0  0  0  0  0  0  0  0
    3.1741    2.4398   -1.9745 O   0  0  0  0  0  0  0  0  0  0  0  0
    3.5527    3.3077   -4.1279 C   0  0  0  0  0  0  0  0  0  0  0  0
    3.8407    4.3691   -4.0597 H   0  0  0  0  0  0  0  0  0  0  0  0
    4.5024    2.7495   -4.1526 H   0  0  0  0  0  0  0  0  0  0  0  0
    3.1208    3.1887   -5.1345 H   0  0  0  0  0  0  0  0  0  0  0  0
    1.3174    3.0407   -3.2467 N   0  0  0  0  0  0  0  0  0  0  0  0
    0.2944    2.6927   -2.2960 C   0  0  2  0  0  0  0  0  0  0  0  0
    0.2976    1.1783   -2.1349 C   0  0  0  0  0  0  0  0  0  0  0  0
    0.7500    0.4142   -2.9850 O   0  0  0  0  0  0  0  0  0  0  0  0
   -1.0710    3.1886   -2.7460 C   0  0  0  0  0  0  0  0  0  0  0  0
    1.0312    3.4224   -4.1464 H   0  0  0  0  0  0  0  0  0  0  0  0
    0.5725    3.1622   -1.3461 H   0  0  0  0  0  0  0  0  0  0  0  0
   -1.3666    2.7292   -3.6963 H   0  0  0  0  0  0  0  0  0  0  0  0
   -1.8434    2.9482   -2.0082 H   0  0  0  0  0  0  0  0  0  0  0  0
   -1.0632    4.2744   -2.8901 H   0  0  0  0  0  0  0  0  0  0  0  0
   -0.3037    0.7742   -0.9484 N   0  0  0  0  0  0  0  0  0  0  0  0
   -0.4352   -0.6095   -0.5718 C   0  0  2  0  0  0  0  0  0  0  0  0
   -0.1756   -1.4797   -1.7972 C   0  0  0  0  0  0  0  0  0  0  0  0
    0.1239   -1.0175   -2.8963 O   0  0  0  0  0  0  0  0  0  0  0  0
   -1.7889   -0.8979    0.0879 C   0  0  0  0  0  0  0  0  0  0  0  0
   -1.9667   -0.2436    1.4642 C   0  0  0  0  0  0  0  0  0  0  0  0
   -3.3272   -0.5943    2.0712 C   0  0  0  0  0  0  0  0  0  0  0  0
   -3.5100    0.0760    3.4248 C   0  0  0  0  0  0  0  0  0  0  0  0
   -4.8475   -0.2714    3.9623 N   0  3  0  0  0  0  0  0  0  0  0  0
   -0.6336    1.4811   -0.2948 H   0  0  0  0  0  0  0  0  0  0  0  0
    0.3643   -0.8000    0.1543 H   0  0  0  0  0  0  0  0  0  0  0  0
   -2.5884   -0.5459   -0.5770 H   0  0  0  0  0  0  0  0  0  0  0  0
   -1.9205   -1.9821    0.1915 H   0  0  0  0  0  0  0  0  0  0  0  0
   -1.1733   -0.5777    2.1429 H   0  0  0  0  0  0  0  0  0  0  0  0
   -1.8813    0.8457    1.3754 H   0  0  0  0  0  0  0  0  0  0  0  0
   -3.4108   -1.6827    2.1811 H   0  0  0  0  0  0  0  0  0  0  0  0
   -4.1262   -0.2780    1.3890 H   0  0  0  0  0  0  0  0  0  0  0  0
   -2.7741   -0.2704    4.1566 H   0  0  0  0  0  0  0  0  0  0  0  0
   -3.4711    1.1668    3.3509 H   0  0  0  0  0  0  0  0  0  0  0  0
   -5.1392    0.3976    4.6833 H   0  0  0  0  0  0  0  0  0  0  0  0
   -4.8422   -1.2069    4.3838 H   0  0  0  0  0  0  0  0  0  0  0  0
   -5.5555   -0.2638    3.2198 H   0  0  0  0  0  0  0  0  0  0  0  0
   -0.2844   -2.8335   -1.5135 N   0  0  0  0  0  0  0  0  0  0  0  0
   -0.0648   -3.8494   -2.5152 C   0  0  2  0  0  0  0  0  0  0  0  0
   -0.5731   -5.1738   -1.9612 C   0  0  0  0  0  0  0  0  0  0  0  0
   -0.6970   -5.3944   -0.7582 O   0  0  0  0  0  0  0  0  0  0  0  0
    1.4054   -3.9463   -2.8920 C   0  0  0  0  0  0  0  0  0  0  0  0
   -0.5268   -3.1193   -0.5695 H   0  0  0  0  0  0  0  0  0  0  0  0
   -0.6608   -3.5657   -3.3894 H   0  0  0  0  0  0  0  0  0  0  0  0
    2.0185   -4.2296   -2.0287 H   0  0  0  0  0  0  0  0  0  0  0  0
    1.5663   -4.6974   -3.6723 H   0  0  0  0  0  0  0  0  0  0  0  0
    1.7770   -2.9847   -3.2623 H   0  0  0  0  0  0  0  0  0  0  0  0
   -0.8312   -6.0954   -2.9663 N   0  0  0  0  0  0  0  0  0  0  0  0
   -1.3110   -7.4305   -2.6955 C   0  0  0  0  0  0  0  0  0  0  0  0
   -0.7186   -5.8201   -3.9375 H   0  0  0  0  0  0  0  0  0  0  0  0
   -0.4563   -8.1179   -2.6120 H   0  0  0  0  0  0  0  0  0  0  0  0
   -1.8765   -7.4324   -1.7520 H   0  0  0  0  0  0  0  0  0  0  0  0
   -1.9660   -7.7581   -3.5163 H   0  0  0  0  0  0  0  0  0  0  0  0
  1  3  1  0  0  0  0
  1  7  1  0  0  0  0
  1  2  2  0  0  0  0
 40 41  1  0  0  0  0
 41 49  1  0  0  0  0
 41 42  2  0  0  0  0
  8  9  1  0  0  0  0
  9 17  1  0  0  0  0
  9 10  2  0  0  0  0
 18 19  1  0  0  0  0
 19 39  1  0  0  0  0
 19 20  2  0  0  0  0
 40 43  1  0  0  0  0
  8 11  1  0  0  0  0
 49 50  1  0  0  0  0
 22 23  1  0  0  0  0
 21 22  1  0  0  0  0
 23 24  1  0  0  0  0
 18 21  1  0  0  0  0
 24 25  1  0  0  0  0
 39 40  1  0  0  0  0
  7  8  1  0  0  0  0
 17 18  1  0  0  0  0
  3  4  1  0  0  0  0
  3  5  1  0  0  0  0
  3  6  1  0  0  0  0
 43 46  1  0  0  0  0
 43 47  1  0  0  0  0
 43 48  1  0  0  0  0
 11 14  1  0  0  0  0
 11 15  1  0  0  0  0
 11 16  1  0  0  0  0
 50 52  1  0  0  0  0
 50 53  1  0  0  0  0
 50 54  1  0  0  0  0
 22 30  1  0  0  0  0
 22 31  1  0  0  0  0
 23 32  1  0  0  0  0
 23 33  1  0  0  0  0
 21 28  1  0  0  0  0
 21 29  1  0  0  0  0
 24 34  1  0  0  0  0
 24 35  1  0  0  0  0
 40 45  1  0  0  0  0
  8 13  1  0  0  0  0
 18 27  1  0  0  0  0
 49 51  1  0  0  0  0
  7 12  1  0  0  0  0
 39 44  1  0  0  0  0
 17 26  1  0  0  0  0
 25 36  1  0  0  0  0
 25 37  1  0  0  0  0
 25 38  1  0  0  0  0
M  CHG  1  25   1
M  END
$$$$

  -OEChem-05262214473D

 54 53  0     1  0  0  0  0  0999 V2000
    2.6714    2.8829   -3.0005 C   0  0  0  0  0  0  0  0  0  0  0  0
    3.1741    2.4398   -1.9745 O   0  0  0  0  0  0  0  0  0  0  0  0
    3.5527    3.3077   -4.1279 C   0  0  0  0  0  0  0  0  0  0  0  0
    3.8407    4.3691   -4.0597 H   0  0  0  0  0  0  0  0  0  0  0  0
    4.5024    2.7495   -4.1526 H   0  0  0  0  0  0  0  0  0  0  0  0
    3.1208    3.1887   -5.1345 H   0  0  0  0  0  0  0  0  0  0  0  0
    1.3174    3.0407   -3.2467 N   0  0  0  0  0  0  0  0  0  0  0  0
    0.2944    2.6927   -2.2960 C   0  0  2  0  0  0  0  0  0  0  0  0
    0.2976    1.1783   -2.1349 C   0  0  0  0  0  0  0  0  0  0  0  0
    0.7500    0.4142   -2.9850 O   0  0  0  0  0  0  0  0  0  0  0  0
   -1.0710    3.1886   -2.7460 C   0  0  0  0  0  0  0  0  0  0  0  0
    1.0312    3.4224   -4.1464 H   0  0  0  0  0  0  0  0  0  0  0  0
    0.5725    3.1622   -1.3461 H   0  0  0  0  0  0  0  0  0  0  0  0
   -1.3666    2.7292   -3.6963 H   0  0  0  0  0  0  0  0  0  0  0  0
   -1.8434    2.9482   -2.0082 H   0  0  0  0  0  0  0  0  0  0  0  0
   -1.0632    4.2744   -2.8901 H   0  0  0  0  0  0  0  0  0  0  0  0
   -0.3037    0.7742   -0.9484 N   0  0  0  0  0  0  0  0  0  0  0  0
   -0.4352   -0.6095   -0.5718 C   0  0  2  0  0  0  0  0  0  0  0  0
   -0.1756   -1.4797   -1.7972 C   0  0  0  0  0  0  0  0  0  0  0  0
    0.3760   -1.0601   -2.8126 O   0  0  0  0  0  0  0  0  0  0  0  0
   -1.7889   -0.8979    0.0879 C   0  0  0  0  0  0  0  0  0  0  0  0
   -1.9667   -0.2436    1.4642 C   0  0  0  0  0  0  0  0  0  0  0  0
   -3.3272   -0.5943    2.0712 C   0  0  0  0  0  0  0  0  0  0  0  0
   -3.5100    0.0760    3.4248 C   0  0  0  0  0  0  0  0  0  0  0  0
   -4.8475   -0.2714    3.9623 N   0  3  0  0  0  0  0  0  0  0  0  0
   -0.6336    1.4811   -0.2948 H   0  0  0  0  0  0  0  0  0  0  0  0
    0.3643   -0.8000    0.1543 H   0  0  0  0  0  0  0  0  0  0  0  0
   -2.5884   -0.5459   -0.5770 H   0  0  0  0  0  0  0  0  0  0  0  0
   -1.9205   -1.9821    0.1915 H   0  0  0  0  0  0  0  0  0  0  0  0
   -1.1733   -0.5777    2.1429 H   0  0  0  0  0  0  0  0  0  0  0  0
   -1.8813    0.8457    1.3754 H   0  0  0  0  0  0  0  0  0  0  0  0
   -3.4108   -1.6827    2.1811 H   0  0  0  0  0  0  0  0  0  0  0  0
   -4.1262   -0.2780    1.3890 H   0  0  0  0  0  0  0  0  0  0  0  0
   -2.7741   -0.2704    4.1566 H   0  0  0  0  0  0  0  0  0  0  0  0
   -3.4711    1.1668    3.3509 H   0  0  0  0  0  0  0  0  0  0  0  0
   -5.1392    0.3976    4.6833 H   0  0  0  0  0  0  0  0  0  0  0  0
   -4.8422   -1.2069    4.3838 H   0  0  0  0  0  0  0  0  0  0  0  0
   -5.5555   -0.2638    3.2198 H   0  0  0  0  0  0  0  0  0  0  0  0
   -0.6010   -2.7875   -1.6133 N   0  0  0  0  0  0  0  0  0  0  0  0
   -0.4439   -3.7979   -2.6321 C   0  0  2  0  0  0  0  0  0  0  0  0
   -1.2909   -5.0003   -2.2365 C   0  0  0  0  0  0  0  0  0  0  0  0
   -1.6391   -5.2238   -1.0790 O   0  0  0  0  0  0  0  0  0  0  0  0
    1.0151   -4.1924   -2.7999 C   0  0  0  0  0  0  0  0  0  0  0  0
   -1.0377   -3.0423   -0.7324 H   0  0  0  0  0  0  0  0  0  0  0  0
   -0.8291   -3.3700   -3.5641 H   0  0  0  0  0  0  0  0  0  0  0  0
    1.4185   -4.6233   -1.8762 H   0  0  0  0  0  0  0  0  0  0  0  0
    1.1360   -4.9381   -3.5926 H   0  0  0  0  0  0  0  0  0  0  0  0
    1.6276   -3.3209   -3.0552 H   0  0  0  0  0  0  0  0  0  0  0  0
   -1.5759   -5.8175   -3.3214 N   0  0  0  0  0  0  0  0  0  0  0  0
   -2.3542   -7.0283   -3.2022 C   0  0  0  0  0  0  0  0  0  0  0  0
   -1.2627   -5.5448   -4.2484 H   0  0  0  0  0  0  0  0  0  0  0  0
   -1.6812   -7.8829   -3.0385 H   0  0  0  0  0  0  0  0  0  0  0  0
   -3.0452   -6.9376   -2.3511 H   0  0  0  0  0  0  0  0  0  0  0  0
   -2.9296   -7.1867   -4.1263 H   0  0  0  0  0  0  0  0  0  0  0  0
  1  3  1  0  0  0  0
  1  7  1  0  0  0  0
  1  2  2  0  0  0  0
 40 41  1  0  0  0  0
 41 49  1  0  0  0  0
 41 42  2  0  0  0  0
  8  9  1  0  0  0  0
  9 17  1  0  0  0  0
  9 10  2  0  0  0  0
 18 19  1  0  0  0  0
 19 39  1  0  0  0  0
 19 20  2  0  0  0  0
 40 43  1  0  0  0  0
  8 11  1  0  0  0  0
 49 50  1  0  0  0  0
 22 23  1  0  0  0  0
 21 22  1  0  0  0  0
 23 24  1  0  0  0  0
 18 21  1  0  0  0  0
 24 25  1  0  0  0  0
 39 40  1  0  0  0  0
  7  8  1  0  0  0  0
 17 18  1  0  0  0  0
  3  4  1  0  0  0  0
  3  5  1  0  0  0  0
  3  6  1  0  0  0  0
 43 46  1  0  0  0  0
 43 47  1  0  0  0  0
 43 48  1  0  0  0  0
 11 14  1  0  0  0  0
 11 15  1  0  0  0  0
 11 16  1  0  0  0  0
 50 52  1  0  0  0  0
 50 53  1  0  0  0  0
 50 54  1  0  0  0  0
 22 30  1  0  0  0  0
 22 31  1  0  0  0  0
 23 32  1  0  0  0  0
 23 33  1  0  0  0  0
 21 28  1  0  0  0  0
 21 29  1  0  0  0  0
 24 34  1  0  0  0  0
 24 35  1  0  0  0  0
 40 45  1  0  0  0  0
  8 13  1  0  0  0  0
 18 27  1  0  0  0  0
 49 51  1  0  0  0  0
  7 12  1  0  0  0  0
 39 44  1  0  0  0  0
 17 26  1  0  0  0  0
 25 36  1  0  0  0  0
 25 37  1  0  0  0  0
 25 38  1  0  0  0  0
M  CHG  1  25   1
M  END
$$$$

  -OEChem-05262214473D

 54 53  0     1  0  0  0  0  0999 V2000
    2.6714    2.8829   -3.0005 C   0  0  0  0  0  0  0  0  0  0  0  0
    3.1741    2.4398   -1.9745 O   0  0  0  0  0  0  0  0  0  0  0  0
    3.5527    3.3077   -4.1279 C   0  0  0  0  0  0  0  0  0  0  0  0
    3.8407    4.3691   -4.0597 H   0  0  0  0  0  0  0  0  0  0  0  0
    4.5024    2.7495   -4.1526 H   0  0  0  0  0  0  0  0  0  0  0  0
    3.1208    3.1887   -5.1345 H   0  0  0  0  0  0  0  0  0  0  0  0
    1.3174    3.0407   -3.2467 N   0  0  0  0  0  0  0  0  0  0  0  0
    0.2944    2.6927   -2.2960 C   0  0  2  0  0  0  0  0  0  0  0  0
    0.2976    1.1783   -2.1349 C   0  0  0  0  0  0  0  0  0  0  0  0
    0.7500    0.4142   -2.9850 O   0  0  0  0  0  0  0  0  0  0  0  0
   -1.0710    3.1886   -2.7460 C   0  0  0  0  0  0  0  0  0  0  0  0
    1.0312    3.4224   -4.1464 H   0  0  0  0  0  0  0  0  0  0  0  0
    0.5725    3.1622   -1.3461 H   0  0  0  0  0  0  0  0  0  0  0  0
   -1.3666    2.7292   -3.6963 H   0  0  0  0  0  0  0  0  0  0  0  0
   -1.8434    2.9482   -2.0082 H   0  0  0  0  0  0  0  0  0  0  0  0
   -1.0632    4.2744   -2.8901 H   0  0  0  0  0  0  0  0  0  0  0  0
   -0.3037    0.7742   -0.9484 N   0  0  0  0  0  0  0  0  0  0  0  0
   -0.4352   -0.6095   -0.5718 C   0  0  2  0  0  0  0  0  0  0  0  0
   -0.1756   -1.4797   -1.7972 C   0  0  0  0  0  0  0  0  0  0  0  0
    0.5983   -1.1574   -2.6964 O   0  0  0  0  0  0  0  0  0  0  0  0
   -1.7889   -0.8979    0.0879 C   0  0  0  0  0  0  0  0  0  0  0  0
   -1.9667   -0.2436    1.4642 C   0  0  0  0  0  0  0  0  0  0  0  0
   -3.3272   -0.5943    2.0712 C   0  0  0  0  0  0  0  0  0  0  0  0
   -3.5100    0.0760    3.4248 C   0  0  0  0  0  0  0  0  0  0  0  0
   -4.8475   -0.2714    3.9623 N   0  3  0  0  0  0  0  0  0  0  0  0
   -0.6336    1.4811   -0.2948 H   0  0  0  0  0  0  0  0  0  0  0  0
    0.3643   -0.8000    0.1543 H   0  0  0  0  0  0  0  0  0  0  0  0
   -2.5884   -0.5459   -0.5770 H   0  0  0  0  0  0  0  0  0  0  0  0
   -1.9205   -1.9821    0.1915 H   0  0  0  0  0  0  0  0  0  0  0  0
   -1.1733   -0.5777    2.1429 H   0  0  0  0  0  0  0  0  0  0  0  0
   -1.8813    0.8457    1.3754 H   0  0  0  0  0  0  0  0  0  0  0  0
   -3.4108   -1.6827    2.1811 H   0  0  0  0  0  0  0  0  0  0  0  0
   -4.1262   -0.2780    1.3890 H   0  0  0  0  0  0  0  0  0  0  0  0
   -2.7741   -0.2704    4.1566 H   0  0  0  0  0  0  0  0  0  0  0  0
   -3.4711    1.1668    3.3509 H   0  0  0  0  0  0  0  0  0  0  0  0
   -5.1392    0.3976    4.6833 H   0  0  0  0  0  0  0  0  0  0  0  0
   -4.8422   -1.2069    4.3838 H   0  0  0  0  0  0  0  0  0  0  0  0
   -5.5555   -0.2638    3.2198 H   0  0  0  0  0  0  0  0  0  0  0  0
   -0.8826   -2.6728   -1.7544 N   0  0  0  0  0  0  0  0  0  0  0  0
   -0.7822   -3.6642   -2.7988 C   0  0  2  0  0  0  0  0  0  0  0  0
   -1.9074   -4.6713   -2.6009 C   0  0  0  0  0  0  0  0  0  0  0  0
   -2.4662   -4.8491   -1.5205 O   0  0  0  0  0  0  0  0  0  0  0  0
    0.5734   -4.3531   -2.7794 C   0  0  0  0  0  0  0  0  0  0  0  0
   -1.4911   -2.8546   -0.9618 H   0  0  0  0  0  0  0  0  0  0  0  0
   -0.9250   -3.1382   -3.7490 H   0  0  0  0  0  0  0  0  0  0  0  0
    0.7345   -4.8855   -1.8349 H   0  0  0  0  0  0  0  0  0  0  0  0
    0.6584   -5.0846   -3.5897 H   0  0  0  0  0  0  0  0  0  0  0  0
    1.3829   -3.6237   -2.8920 H   0  0  0  0  0  0  0  0  0  0  0  0
   -2.1850   -5.3787   -3.7622 N   0  0  0  0  0  0  0  0  0  0  0  0
   -3.2035   -6.4006   -3.8280 C   0  0  0  0  0  0  0  0  0  0  0  0
   -1.6851   -5.1520   -4.6169 H   0  0  0  0  0  0  0  0  0  0  0  0
   -2.7525   -7.3823   -3.6210 H   0  0  0  0  0  0  0  0  0  0  0  0
   -3.9826   -6.1902   -3.0806 H   0  0  0  0  0  0  0  0  0  0  0  0
   -3.6514   -6.4075   -4.8327 H   0  0  0  0  0  0  0  0  0  0  0  0
  1  3  1  0  0  0  0
  1  7  1  0  0  0  0
  1  2  2  0  0  0  0
 40 41  1  0  0  0  0
 41 49  1  0  0  0  0
 41 42  2  0  0  0  0
  8  9  1  0  0  0  0
  9 17  1  0  0  0  0
  9 10  2  0  0  0  0
 18 19  1  0  0  0  0
 19 39  1  0  0  0  0
 19 20  2  0  0  0  0
 40 43  1  0  0  0  0
  8 11  1  0  0  0  0
 49 50  1  0  0  0  0
 22 23  1  0  0  0  0
 21 22  1  0  0  0  0
 23 24  1  0  0  0  0
 18 21  1  0  0  0  0
 24 25  1  0  0  0  0
 39 40  1  0  0  0  0
  7  8  1  0  0  0  0
 17 18  1  0  0  0  0
  3  4  1  0  0  0  0
  3  5  1  0  0  0  0
  3  6  1  0  0  0  0
 43 46  1  0  0  0  0
 43 47  1  0  0  0  0
 43 48  1  0  0  0  0
 11 14  1  0  0  0  0
 11 15  1  0  0  0  0
 11 16  1  0  0  0  0
 50 52  1  0  0  0  0
 50 53  1  0  0  0  0
 50 54  1  0  0  0  0
 22 30  1  0  0  0  0
 22 31  1  0  0  0  0
 23 32  1  0  0  0  0
 23 33  1  0  0  0  0
 21 28  1  0  0  0  0
 21 29  1  0  0  0  0
 24 34  1  0  0  0  0
 24 35  1  0  0  0  0
 40 45  1  0  0  0  0
  8 13  1  0  0  0  0
 18 27  1  0  0  0  0
 49 51  1  0  0  0  0
  7 12  1  0  0  0  0
 39 44  1  0  0  0  0
 17 26  1  0  0  0  0
 25 36  1  0  0  0  0
 25 37  1  0  0  0  0
 25 38  1  0  0  0  0
M  CHG  1  25   1
M  END
$$$$

  -OEChem-05262214473D

 54 53  0     1  0  0  0  0  0999 V2000
    2.6714    2.8829   -3.0005 C   0  0  0  0  0  0  0  0  0  0  0  0
    3.1741    2.4398   -1.9745 O   0  0  0  0  0  0  0  0  0  0  0  0
    3.5527    3.3077   -4.1279 C   0  0  0  0  0  0  0  0  0  0  0  0
    3.8407    4.3691   -4.0597 H   0  0  0  0  0  0  0  0  0  0  0  0
    4.5024    2.7495   -4.1526 H   0  0  0  0  0  0  0  0  0  0  0  0
    3.1208    3.1887   -5.1345 H   0  0  0  0  0  0  0  0  0  0  0  0
    1.3174    3.0407   -3.2467 N   0  0  0  0  0  0  0  0  0  0  0  0
    0.2944    2.6927   -2.2960 C   0  0  2  0  0  0  0  0  0  0  0  0
    0.2976    1.1783   -2.1349 C   0  0  0  0  0  0  0  0  0  0  0  0
    0.7500    0.4142   -2.9850 O   0  0  0  0  0  0  0  0  0  0  0  0
   -1.0710    3.1886   -2.7460 C   0  0  0  0  0  0  0  0  0  0  0  0
    1.0312    3.4224   -4.1464 H   0  0  0  0  0  0  0  0  0  0  0  0
    0.5725    3.1622   -1.3461 H   0  0  0  0  0  0  0  0  0  0  0  0
   -1.3666    2.7292   -3.6963 H   0  0  0  0  0  0  0  0  0  0  0  0
   -1.8434    2.9482   -2.0082 H   0  0  0  0  0  0  0  0  0  0  0  0
   -1.0632    4.2744   -2.8901 H   0  0  0  0  0  0  0  0  0  0  0  0
   -0.3037    0.7742   -0.9484 N   0  0  0  0  0  0  0  0  0  0  0  0
   -0.4352   -0.6095   -0.5718 C   0  0  2  0  0  0  0  0  0  0  0  0
   -0.1756   -1.4797   -1.7972 C   0  0  0  0  0  0  0  0  0  0  0  0
    0.7757   -1.3027   -2.5556 O   0  0  0  0  0  0  0  0  0  0  0  0
   -1.7889   -0.8979    0.0879 C   0  0  0  0  0  0  0  0  0  0  0  0
   -1.9667   -0.2436    1.4642 C   0  0  0  0  0  0  0  0  0  0  0  0
   -3.3272   -0.5943    2.0712 C   0  0  0  0  0  0  0  0  0  0  0  0
   -3.5100    0.0760    3.4248 C   0  0  0  0  0  0  0  0  0  0  0  0
   -4.8475   -0.2714    3.9623 N   0  3  0  0  0  0  0  0  0  0  0  0
   -0.6336    1.4811   -0.2948 H   0  0  0  0  0  0  0  0  0  0  0  0
    0.3643   -0.8000    0.1543 H   0  0  0  0  0  0  0  0  0  0  0  0
   -2.5884   -0.5459   -0.5770 H   0  0  0  0  0  0  0  0  0  0  0  0
   -1.9205   -1.9821    0.1915 H   0  0  0  0  0  0  0  0  0  0  0  0
   -1.1733   -0.5777    2.1429 H   0  0  0  0  0  0  0  0  0  0  0  0
   -1.8813    0.8457    1.3754 H   0  0  0  0  0  0  0  0  0  0  0  0
   -3.4108   -1.6827    2.1811 H   0  0  0  0  0  0  0  0  0  0  0  0
   -4.1262   -0.2780    1.3890 H   0  0  0  0  0  0  0  0  0  0  0  0
   -2.7741   -0.2704    4.1566 H   0  0  0  0  0  0  0  0  0  0  0  0
   -3.4711    1.1668    3.3509 H   0  0  0  0  0  0  0  0  0  0  0  0
   -5.1392    0.3976    4.6833 H   0  0  0  0  0  0  0  0  0  0  0  0
   -4.8422   -1.2069    4.3838 H   0  0  0  0  0  0  0  0  0  0  0  0
   -5.5555   -0.2638    3.2198 H   0  0  0  0  0  0  0  0  0  0  0  0
   -1.1098   -2.4972   -1.9273 N   0  0  0  0  0  0  0  0  0  0  0  0
   -1.0566   -3.4574   -3.0038 C   0  0  2  0  0  0  0  0  0  0  0  0
   -2.3808   -4.2092   -3.0293 C   0  0  0  0  0  0  0  0  0  0  0  0
   -3.1220   -4.2956   -2.0525 O   0  0  0  0  0  0  0  0  0  0  0  0
    0.1103   -4.4173   -2.8319 C   0  0  0  0  0  0  0  0  0  0  0  0
   -1.8561   -2.5689   -1.2421 H   0  0  0  0  0  0  0  0  0  0  0  0
   -0.9423   -2.8863   -3.9316 H   0  0  0  0  0  0  0  0  0  0  0  0
    0.0133   -4.9984   -1.9075 H   0  0  0  0  0  0  0  0  0  0  0  0
    0.1663   -5.1269   -3.6640 H   0  0  0  0  0  0  0  0  0  0  0  0
    1.0594   -3.8725   -2.7838 H   0  0  0  0  0  0  0  0  0  0  0  0
   -2.6169   -4.8087   -4.2586 N   0  0  0  0  0  0  0  0  0  0  0  0
   -3.8008   -5.5901   -4.5302 C   0  0  0  0  0  0  0  0  0  0  0  0
   -1.9570   -4.6685   -5.0179 H   0  0  0  0  0  0  0  0  0  0  0  0
   -3.5972   -6.6505   -4.3198 H   0  0  0  0  0  0  0  0  0  0  0  0
   -4.6250   -5.2413   -3.8907 H   0  0  0  0  0  0  0  0  0  0  0  0
   -4.0823   -5.4737   -5.5872 H   0  0  0  0  0  0  0  0  0  0  0  0
  1  3  1  0  0  0  0
  1  7  1  0  0  0  0
  1  2  2  0  0  0  0
 40 41  1  0  0  0  0
 41 49  1  0  0  0  0
 41 42  2  0  0  0  0
  8  9  1  0  0  0  0
  9 17  1  0  0  0  0
  9 10  2  0  0  0  0
 18 19  1  0  0  0  0
 19 39  1  0  0  0  0
 19 20  2  0  0  0  0
 40 43  1  0  0  0  0
  8 11  1  0  0  0  0
 49 50  1  0  0  0  0
 22 23  1  0  0  0  0
 21 22  1  0  0  0  0
 23 24  1  0  0  0  0
 18 21  1  0  0  0  0
 24 25  1  0  0  0  0
 39 40  1  0  0  0  0
  7  8  1  0  0  0  0
 17 18  1  0  0  0  0
  3  4  1  0  0  0  0
  3  5  1  0  0  0  0
  3  6  1  0  0  0  0
 43 46  1  0  0  0  0
 43 47  1  0  0  0  0
 43 48  1  0  0  0  0
 11 14  1  0  0  0  0
 11 15  1  0  0  0  0
 11 16  1  0  0  0  0
 50 52  1  0  0  0  0
 50 53  1  0  0  0  0
 50 54  1  0  0  0  0
 22 30  1  0  0  0  0
 22 31  1  0  0  0  0
 23 32  1  0  0  0  0
 23 33  1  0  0  0  0
 21 28  1  0  0  0  0
 21 29  1  0  0  0  0
 24 34  1  0  0  0  0
 24 35  1  0  0  0  0
 40 45  1  0  0  0  0
  8 13  1  0  0  0  0
 18 27  1  0  0  0  0
 49 51  1  0  0  0  0
  7 12  1  0  0  0  0
 39 44  1  0  0  0  0
 17 26  1  0  0  0  0
 25 36  1  0  0  0  0
 25 37  1  0  0  0  0
 25 38  1  0  0  0  0
M  CHG  1  25   1
M  END
$$$$

  -OEChem-05262214473D

 54 53  0     1  0  0  0  0  0999 V2000
    2.6714    2.8829   -3.0005 C   0  0  0  0  0  0  0  0  0  0  0  0
    3.1741    2.4398   -1.9745 O   0  0  0  0  0  0  0  0  0  0  0  0
    3.5527    3.3077   -4.1279 C   0  0  0  0  0  0  0  0  0  0  0  0
    3.8407    4.3691   -4.0597 H   0  0  0  0  0  0  0  0  0  0  0  0
    4.5024    2.7495   -4.1526 H   0  0  0  0  0  0  0  0  0  0  0  0
    3.1208    3.1887   -5.1345 H   0  0  0  0  0  0  0  0  0  0  0  0
    1.3174    3.0407   -3.2467 N   0  0  0  0  0  0  0  0  0  0  0  0
    0.2944    2.6927   -2.2960 C   0  0  2  0  0  0  0  0  0  0  0  0
    0.2976    1.1783   -2.1349 C   0  0  0  0  0  0  0  0  0  0  0  0
    0.7500    0.4142   -2.9850 O   0  0  0  0  0  0  0  0  0  0  0  0
   -1.0710    3.1886   -2.7460 C   0  0  0  0  0  0  0  0  0  0  0  0
    1.0312    3.4224   -4.1464 H   0  0  0  0  0  0  0  0  0  0  0  0
    0.5725    3.1622   -1.3461 H   0  0  0  0  0  0  0  0  0  0  0  0
   -1.3666    2.7292   -3.6963 H   0  0  0  0  0  0  0  0  0  0  0  0
   -1.8434    2.9482   -2.0082 H   0  0  0  0  0  0  0  0  0  0  0  0
   -1.0632    4.2744   -2.8901 H   0  0  0  0  0  0  0  0  0  0  0  0
   -0.3037    0.7742   -0.9484 N   0  0  0  0  0  0  0  0  0  0  0  0
   -0.4352   -0.6095   -0.5718 C   0  0  2  0  0  0  0  0  0  0  0  0
   -0.1756   -1.4797   -1.7972 C   0  0  0  0  0  0  0  0  0  0  0  0
    0.8960   -1.4861   -2.3998 O   0  0  0  0  0  0  0  0  0  0  0  0
   -1.7889   -0.8979    0.0879 C   0  0  0  0  0  0  0  0  0  0  0  0
   -1.9667   -0.2436    1.4642 C   0  0  0  0  0  0  0  0  0  0  0  0
   -3.3272   -0.5943    2.0712 C   0  0  0  0  0  0  0  0  0  0  0  0
   -3.5100    0.0760    3.4248 C   0  0  0  0  0  0  0  0  0  0  0  0
   -4.8475   -0.2714    3.9623 N   0  3  0  0  0  0  0  0  0  0  0  0
   -0.6336    1.4811   -0.2948 H   0  0  0  0  0  0  0  0  0  0  0  0
    0.3643   -0.8000    0.1543 H   0  0  0  0  0  0  0  0  0  0  0  0
   -2.5884   -0.5459   -0.5770 H   0  0  0  0  0  0  0  0  0  0  0  0
   -1.9205   -1.9821    0.1915 H   0  0  0  0  0  0  0  0  0  0  0  0
   -1.1733   -0.5777    2.1429 H   0  0  0  0  0  0  0  0  0  0  0  0
   -1.8813    0.8457    1.3754 H   0  0  0  0  0  0  0  0  0  0  0  0
   -3.4108   -1.6827    2.1811 H   0  0  0  0  0  0  0  0  0  0  0  0
   -4.1262   -0.2780    1.3890 H   0  0  0  0  0  0  0  0  0  0  0  0
   -2.7741   -0.2704    4.1566 H   0  0  0  0  0  0  0  0  0  0  0  0
   -3.4711    1.1668    3.3509 H   0  0  0  0  0  0  0  0  0  0  0  0
   -5.1392    0.3976    4.6833 H   0  0  0  0  0  0  0  0  0  0  0  0
   -4.8422   -1.2069    4.3838 H   0  0  0  0  0  0  0  0  0  0  0  0
   -5.5555   -0.2638    3.2198 H   0  0  0  0  0  0  0  0  0  0  0  0
   -1.2673   -2.2728   -2.1200 N   0  0  0  0  0  0  0  0  0  0  0  0
   -1.2482   -3.1915   -3.2333 C   0  0  2  0  0  0  0  0  0  0  0  0
   -2.6786   -3.6456   -3.4927 C   0  0  0  0  0  0  0  0  0  0  0  0
   -3.5618   -3.6013   -2.6389 O   0  0  0  0  0  0  0  0  0  0  0  0
   -0.3426   -4.3808   -2.9538 C   0  0  0  0  0  0  0  0  0  0  0  0
   -2.1079   -2.2046   -1.5542 H   0  0  0  0  0  0  0  0  0  0  0  0
   -0.8795   -2.6313   -4.0994 H   0  0  0  0  0  0  0  0  0  0  0  0
   -0.6962   -4.9543   -2.0892 H   0  0  0  0  0  0  0  0  0  0  0  0
   -0.3069   -5.0622   -3.8102 H   0  0  0  0  0  0  0  0  0  0  0  0
    0.6792   -4.0504   -2.7381 H   0  0  0  0  0  0  0  0  0  0  0  0
   -2.8424   -4.1465   -4.7767 N   0  0  0  0  0  0  0  0  0  0  0  0
   -4.1056   -4.6521   -5.2610 C   0  0  0  0  0  0  0  0  0  0  0  0
   -2.0599   -4.1273   -5.4241 H   0  0  0  0  0  0  0  0  0  0  0  0
   -4.1577   -5.7371   -5.0873 H   0  0  0  0  0  0  0  0  0  0  0  0
   -4.9286   -4.1554   -4.7263 H   0  0  0  0  0  0  0  0  0  0  0  0
   -4.1929   -4.4488   -6.3386 H   0  0  0  0  0  0  0  0  0  0  0  0
  1  3  1  0  0  0  0
  1  7  1  0  0  0  0
  1  2  2  0  0  0  0
 40 41  1  0  0  0  0
 41 49  1  0  0  0  0
 41 42  2  0  0  0  0
  8  9  1  0  0  0  0
  9 17  1  0  0  0  0
  9 10  2  0  0  0  0
 18 19  1  0  0  0  0
 19 39  1  0  0  0  0
 19 20  2  0  0  0  0
 40 43  1  0  0  0  0
  8 11  1  0  0  0  0
 49 50  1  0  0  0  0
 22 23  1  0  0  0  0
 21 22  1  0  0  0  0
 23 24  1  0  0  0  0
 18 21  1  0  0  0  0
 24 25  1  0  0  0  0
 39 40  1  0  0  0  0
  7  8  1  0  0  0  0
 17 18  1  0  0  0  0
  3  4  1  0  0  0  0
  3  5  1  0  0  0  0
  3  6  1  0  0  0  0
 43 46  1  0  0  0  0
 43 47  1  0  0  0  0
 43 48  1  0  0  0  0
 11 14  1  0  0  0  0
 11 15  1  0  0  0  0
 11 16  1  0  0  0  0
 50 52  1  0  0  0  0
 50 53  1  0  0  0  0
 50 54  1  0  0  0  0
 22 30  1  0  0  0  0
 22 31  1  0  0  0  0
 23 32  1  0  0  0  0
 23 33  1  0  0  0  0
 21 28  1  0  0  0  0
 21 29  1  0  0  0  0
 24 34  1  0  0  0  0
 24 35  1  0  0  0  0
 40 45  1  0  0  0  0
  8 13  1  0  0  0  0
 18 27  1  0  0  0  0
 49 51  1  0  0  0  0
  7 12  1  0  0  0  0
 39 44  1  0  0  0  0
 17 26  1  0  0  0  0
 25 36  1  0  0  0  0
 25 37  1  0  0  0  0
 25 38  1  0  0  0  0
M  CHG  1  25   1
M  END
$$$$

  -OEChem-05262214473D

 54 53  0     1  0  0  0  0  0999 V2000
    2.6714    2.8829   -3.0005 C   0  0  0  0  0  0  0  0  0  0  0  0
    3.1741    2.4398   -1.9745 O   0  0  0  0  0  0  0  0  0  0  0  0
    3.5527    3.3077   -4.1279 C   0  0  0  0  0  0  0  0  0  0  0  0
    3.8407    4.3691   -4.0597 H   0  0  0  0  0  0  0  0  0  0  0  0
    4.5024    2.7495   -4.1526 H   0  0  0  0  0  0  0  0  0  0  0  0
    3.1208    3.1887   -5.1345 H   0  0  0  0  0  0  0  0  0  0  0  0
    1.3174    3.0407   -3.2467 N   0  0  0  0  0  0  0  0  0  0  0  0
    0.2944    2.6927   -2.2960 C   0  0  2  0  0  0  0  0  0  0  0  0
    0.2976    1.1783   -2.1349 C   0  0  0  0  0  0  0  0  0  0  0  0
    0.7500    0.4142   -2.9850 O   0  0  0  0  0  0  0  0  0  0  0  0
   -1.0710    3.1886   -2.7460 C   0  0  0  0  0  0  0  0  0  0  0  0
    1.0312    3.4224   -4.1464 H   0  0  0  0  0  0  0  0  0  0  0  0
    0.5725    3.1622   -1.3461 H   0  0  0  0  0  0  0  0  0  0  0  0
   -1.3666    2.7292   -3.6963 H   0  0  0  0  0  0  0  0  0  0  0  0
   -1.8434    2.9482   -2.0082 H   0  0  0  0  0  0  0  0  0  0  0  0
   -1.0632    4.2744   -2.8901 H   0  0  0  0  0  0  0  0  0  0  0  0
   -0.3037    0.7742   -0.9484 N   0  0  0  0  0  0  0  0  0  0  0  0
   -0.4352   -0.6095   -0.5718 C   0  0  2  0  0  0  0  0  0  0  0  0
   -0.1756   -1.4797   -1.7972 C   0  0  0  0  0  0  0  0  0  0  0  0
    0.9511   -1.6952   -2.2397 O   0  0  0  0  0  0  0  0  0  0  0  0
   -1.7889   -0.8979    0.0879 C   0  0  0  0  0  0  0  0  0  0  0  0
   -1.9667   -0.2436    1.4642 C   0  0  0  0  0  0  0  0  0  0  0  0
   -3.3272   -0.5943    2.0712 C   0  0  0  0  0  0  0  0  0  0  0  0
   -3.5100    0.0760    3.4248 C   0  0  0  0  0  0  0  0  0  0  0  0
   -4.8475   -0.2714    3.9623 N   0  3  0  0  0  0  0  0  0  0  0  0
   -0.6336    1.4811   -0.2948 H   0  0  0  0  0  0  0  0  0  0  0  0
    0.3643   -0.8000    0.1543 H   0  0  0  0  0  0  0  0  0  0  0  0
   -2.5884   -0.5459   -0.5770 H   0  0  0  0  0  0  0  0  0  0  0  0
   -1.9205   -1.9821    0.1915 H   0  0  0  0  0  0  0  0  0  0  0  0
   -1.1733   -0.5777    2.1429 H   0  0  0  0  0  0  0  0  0  0  0  0
   -1.8813    0.8457    1.3754 H   0  0  0  0  0  0  0  0  0  0  0  0
   -3.4108   -1.6827    2.1811 H   0  0  0  0  0  0  0  0  0  0  0  0
   -4.1262   -0.2780    1.3890 H   0  0  0  0  0  0  0  0  0  0  0  0
   -2.7741   -0.2704    4.1566 H   0  0  0  0  0  0  0  0  0  0  0  0
   -3.4711    1.1668    3.3509 H   0  0  0  0  0  0  0  0  0  0  0  0
   -5.1392    0.3976    4.6833 H   0  0  0  0  0  0  0  0  0  0  0  0
   -4.8422   -1.2069    4.3838 H   0  0  0  0  0  0  0  0  0  0  0  0
   -5.5555   -0.2638    3.2198 H   0  0  0  0  0  0  0  0  0  0  0  0
   -1.3442   -2.0148   -2.3196 N   0  0  0  0  0  0  0  0  0  0  0  0
   -1.3442   -2.8847   -3.4715 C   0  0  2  0  0  0  0  0  0  0  0  0
   -2.7807   -3.0189   -3.9595 C   0  0  0  0  0  0  0  0  0  0  0  0
   -3.7556   -2.8132   -3.2396 O   0  0  0  0  0  0  0  0  0  0  0  0
   -0.7545   -4.2459   -3.1369 C   0  0  0  0  0  0  0  0  0  0  0  0
   -2.2293   -1.7867   -1.8768 H   0  0  0  0  0  0  0  0  0  0  0  0
   -0.7411   -2.3906   -4.2410 H   0  0  0  0  0  0  0  0  0  0  0  0
   -1.3454   -4.7562   -2.3675 H   0  0  0  0  0  0  0  0  0  0  0  0
   -0.7290   -4.8949   -4.0185 H   0  0  0  0  0  0  0  0  0  0  0  0
    0.2683   -4.1451   -2.7579 H   0  0  0  0  0  0  0  0  0  0  0  0
   -2.8459   -3.4371   -5.2812 N   0  0  0  0  0  0  0  0  0  0  0  0
   -4.0970   -3.6505   -5.9706 C   0  0  0  0  0  0  0  0  0  0  0  0
   -1.9868   -3.5653   -5.8078 H   0  0  0  0  0  0  0  0  0  0  0  0
   -4.3959   -4.7045   -5.8712 H   0  0  0  0  0  0  0  0  0  0  0  0
   -4.8725   -3.0065   -5.5304 H   0  0  0  0  0  0  0  0  0  0  0  0
   -3.9757   -3.4028   -7.0355 H   0  0  0  0  0  0  0  0  0  0  0  0
  1  3  1  0  0  0  0
  1  7  1  0  0  0  0
  1  2  2  0  0  0  0
 40 41  1  0  0  0  0
 41 49  1  0  0  0  0
 41 42  2  0  0  0  0
  8  9  1  0  0  0  0
  9 17  1  0  0  0  0
  9 10  2  0  0  0  0
 18 19  1  0  0  0  0
 19 39  1  0  0  0  0
 19 20  2  0  0  0  0
 40 43  1  0  0  0  0
  8 11  1  0  0  0  0
 49 50  1  0  0  0  0
 22 23  1  0  0  0  0
 21 22  1  0  0  0  0
 23 24  1  0  0  0  0
 18 21  1  0  0  0  0
 24 25  1  0  0  0  0
 39 40  1  0  0  0  0
  7  8  1  0  0  0  0
 17 18  1  0  0  0  0
  3  4  1  0  0  0  0
  3  5  1  0  0  0  0
  3  6  1  0  0  0  0
 43 46  1  0  0  0  0
 43 47  1  0  0  0  0
 43 48  1  0  0  0  0
 11 14  1  0  0  0  0
 11 15  1  0  0  0  0
 11 16  1  0  0  0  0
 50 52  1  0  0  0  0
 50 53  1  0  0  0  0
 50 54  1  0  0  0  0
 22 30  1  0  0  0  0
 22 31  1  0  0  0  0
 23 32  1  0  0  0  0
 23 33  1  0  0  0  0
 21 28  1  0  0  0  0
 21 29  1  0  0  0  0
 24 34  1  0  0  0  0
 24 35  1  0  0  0  0
 40 45  1  0  0  0  0
  8 13  1  0  0  0  0
 18 27  1  0  0  0  0
 49 51  1  0  0  0  0
  7 12  1  0  0  0  0
 39 44  1  0  0  0  0
 17 26  1  0  0  0  0
 25 36  1  0  0  0  0
 25 37  1  0  0  0  0
 25 38  1  0  0  0  0
M  CHG  1  25   1
M  END
$$$$

  -OEChem-05262214473D

 54 53  0     1  0  0  0  0  0999 V2000
    2.6714    2.8829   -3.0005 C   0  0  0  0  0  0  0  0  0  0  0  0
    3.1741    2.4398   -1.9745 O   0  0  0  0  0  0  0  0  0  0  0  0
    3.5527    3.3077   -4.1279 C   0  0  0  0  0  0  0  0  0  0  0  0
    3.8407    4.3691   -4.0597 H   0  0  0  0  0  0  0  0  0  0  0  0
    4.5024    2.7495   -4.1526 H   0  0  0  0  0  0  0  0  0  0  0  0
    3.1208    3.1887   -5.1345 H   0  0  0  0  0  0  0  0  0  0  0  0
    1.3174    3.0407   -3.2467 N   0  0  0  0  0  0  0  0  0  0  0  0
    0.2944    2.6927   -2.2960 C   0  0  2  0  0  0  0  0  0  0  0  0
    0.2976    1.1783   -2.1349 C   0  0  0  0  0  0  0  0  0  0  0  0
    0.7500    0.4142   -2.9850 O   0  0  0  0  0  0  0  0  0  0  0  0
   -1.0710    3.1886   -2.7460 C   0  0  0  0  0  0  0  0  0  0  0  0
    1.0312    3.4224   -4.1464 H   0  0  0  0  0  0  0  0  0  0  0  0
    0.5725    3.1622   -1.3461 H   0  0  0  0  0  0  0  0  0  0  0  0
   -1.3666    2.7292   -3.6963 H   0  0  0  0  0  0  0  0  0  0  0  0
   -1.8434    2.9482   -2.0082 H   0  0  0  0  0  0  0  0  0  0  0  0
   -1.0632    4.2744   -2.8901 H   0  0  0  0  0  0  0  0  0  0  0  0
   -0.3037    0.7742   -0.9484 N   0  0  0  0  0  0  0  0  0  0  0  0
   -0.4352   -0.6095   -0.5718 C   0  0  2  0  0  0  0  0  0  0  0  0
   -0.1756   -1.4797   -1.7972 C   0  0  0  0  0  0  0  0  0  0  0  0
    0.9371   -1.9156   -2.0861 O   0  0  0  0  0  0  0  0  0  0  0  0
   -1.7889   -0.8979    0.0879 C   0  0  0  0  0  0  0  0  0  0  0  0
   -1.9667   -0.2436    1.4642 C   0  0  0  0  0  0  0  0  0  0  0  0
   -3.3272   -0.5943    2.0712 C   0  0  0  0  0  0  0  0  0  0  0  0
   -3.5100    0.0760    3.4248 C   0  0  0  0  0  0  0  0  0  0  0  0
   -4.8475   -0.2714    3.9623 N   0  3  0  0  0  0  0  0  0  0  0  0
   -0.6336    1.4811   -0.2948 H   0  0  0  0  0  0  0  0  0  0  0  0
    0.3643   -0.8000    0.1543 H   0  0  0  0  0  0  0  0  0  0  0  0
   -2.5884   -0.5459   -0.5770 H   0  0  0  0  0  0  0  0  0  0  0  0
   -1.9205   -1.9821    0.1915 H   0  0  0  0  0  0  0  0  0  0  0  0
   -1.1733   -0.5777    2.1429 H   0  0  0  0  0  0  0  0  0  0  0  0
   -1.8813    0.8457    1.3754 H   0  0  0  0  0  0  0  0  0  0  0  0
   -3.4108   -1.6827    2.1811 H   0  0  0  0  0  0  0  0  0  0  0  0
   -4.1262   -0.2780    1.3890 H   0  0  0  0  0  0  0  0  0  0  0  0
   -2.7741   -0.2704    4.1566 H   0  0  0  0  0  0  0  0  0  0  0  0
   -3.4711    1.1668    3.3509 H   0  0  0  0  0  0  0  0  0  0  0  0
   -5.1392    0.3976    4.6833 H   0  0  0  0  0  0  0  0  0  0  0  0
   -4.8422   -1.2069    4.3838 H   0  0  0  0  0  0  0  0  0  0  0  0
   -5.5555   -0.2638    3.2198 H   0  0  0  0  0  0  0  0  0  0  0  0
   -1.3354   -1.7407   -2.5124 N   0  0  0  0  0  0  0  0  0  0  0  0
   -1.3380   -2.5579   -3.7023 C   0  0  2  0  0  0  0  0  0  0  0  0
   -2.6800   -2.3717   -4.3978 C   0  0  0  0  0  0  0  0  0  0  0  0
   -3.6903   -1.9853   -3.8138 O   0  0  0  0  0  0  0  0  0  0  0  0
   -1.0973   -4.0220   -3.3686 C   0  0  0  0  0  0  0  0  0  0  0  0
   -2.2121   -1.3435   -2.1879 H   0  0  0  0  0  0  0  0  0  0  0  0
   -0.5365   -2.1807   -4.3467 H   0  0  0  0  0  0  0  0  0  0  0  0
   -1.8903   -4.4176   -2.7235 H   0  0  0  0  0  0  0  0  0  0  0  0
   -1.0711   -4.6363   -4.2746 H   0  0  0  0  0  0  0  0  0  0  0  0
   -0.1454   -4.1503   -2.8419 H   0  0  0  0  0  0  0  0  0  0  0  0
   -2.6273   -2.7289   -5.7379 N   0  0  0  0  0  0  0  0  0  0  0  0
   -3.7756   -2.6535   -6.6106 C   0  0  0  0  0  0  0  0  0  0  0  0
   -1.7426   -3.0206   -6.1428 H   0  0  0  0  0  0  0  0  0  0  0  0
   -4.2954   -3.6230   -6.6181 H   0  0  0  0  0  0  0  0  0  0  0  0
   -4.4608   -1.8730   -6.2482 H   0  0  0  0  0  0  0  0  0  0  0  0
   -3.4454   -2.4068   -7.6304 H   0  0  0  0  0  0  0  0  0  0  0  0
  1  3  1  0  0  0  0
  1  7  1  0  0  0  0
  1  2  2  0  0  0  0
 40 41  1  0  0  0  0
 41 49  1  0  0  0  0
 41 42  2  0  0  0  0
  8  9  1  0  0  0  0
  9 17  1  0  0  0  0
  9 10  2  0  0  0  0
 18 19  1  0  0  0  0
 19 39  1  0  0  0  0
 19 20  2  0  0  0  0
 40 43  1  0  0  0  0
  8 11  1  0  0  0  0
 49 50  1  0  0  0  0
 22 23  1  0  0  0  0
 21 22  1  0  0  0  0
 23 24  1  0  0  0  0
 18 21  1  0  0  0  0
 24 25  1  0  0  0  0
 39 40  1  0  0  0  0
  7  8  1  0  0  0  0
 17 18  1  0  0  0  0
  3  4  1  0  0  0  0
  3  5  1  0  0  0  0
  3  6  1  0  0  0  0
 43 46  1  0  0  0  0
 43 47  1  0  0  0  0
 43 48  1  0  0  0  0
 11 14  1  0  0  0  0
 11 15  1  0  0  0  0
 11 16  1  0  0  0  0
 50 52  1  0  0  0  0
 50 53  1  0  0  0  0
 50 54  1  0  0  0  0
 22 30  1  0  0  0  0
 22 31  1  0  0  0  0
 23 32  1  0  0  0  0
 23 33  1  0  0  0  0
 21 28  1  0  0  0  0
 21 29  1  0  0  0  0
 24 34  1  0  0  0  0
 24 35  1  0  0  0  0
 40 45  1  0  0  0  0
  8 13  1  0  0  0  0
 18 27  1  0  0  0  0
 49 51  1  0  0  0  0
  7 12  1  0  0  0  0
 39 44  1  0  0  0  0
 17 26  1  0  0  0  0
 25 36  1  0  0  0  0
 25 37  1  0  0  0  0
 25 38  1  0  0  0  0
M  CHG  1  25   1
M  END
$$$$

  -OEChem-05262214473D

 54 53  0     1  0  0  0  0  0999 V2000
    2.6714    2.8829   -3.0005 C   0  0  0  0  0  0  0  0  0  0  0  0
    3.1741    2.4398   -1.9745 O   0  0  0  0  0  0  0  0  0  0  0  0
    3.5527    3.3077   -4.1279 C   0  0  0  0  0  0  0  0  0  0  0  0
    3.8407    4.3691   -4.0597 H   0  0  0  0  0  0  0  0  0  0  0  0
    4.5024    2.7495   -4.1526 H   0  0  0  0  0  0  0  0  0  0  0  0
    3.1208    3.1887   -5.1345 H   0  0  0  0  0  0  0  0  0  0  0  0
    1.3174    3.0407   -3.2467 N   0  0  0  0  0  0  0  0  0  0  0  0
    0.2944    2.6927   -2.2960 C   0  0  2  0  0  0  0  0  0  0  0  0
    0.2976    1.1783   -2.1349 C   0  0  0  0  0  0  0  0  0  0  0  0
    0.7500    0.4142   -2.9850 O   0  0  0  0  0  0  0  0  0  0  0  0
   -1.0710    3.1886   -2.7460 C   0  0  0  0  0  0  0  0  0  0  0  0
    1.0312    3.4224   -4.1464 H   0  0  0  0  0  0  0  0  0  0  0  0
    0.5725    3.1622   -1.3461 H   0  0  0  0  0  0  0  0  0  0  0  0
   -1.3666    2.7292   -3.6963 H   0  0  0  0  0  0  0  0  0  0  0  0
   -1.8434    2.9482   -2.0082 H   0  0  0  0  0  0  0  0  0  0  0  0
   -1.0632    4.2744   -2.8901 H   0  0  0  0  0  0  0  0  0  0  0  0
   -0.3037    0.7742   -0.9484 N   0  0  0  0  0  0  0  0  0  0  0  0
   -0.4352   -0.6095   -0.5718 C   0  0  2  0  0  0  0  0  0  0  0  0
   -0.1756   -1.4797   -1.7972 C   0  0  0  0  0  0  0  0  0  0  0  0
    0.8551   -2.1324   -1.9495 O   0  0  0  0  0  0  0  0  0  0  0  0
   -1.7889   -0.8979    0.0879 C   0  0  0  0  0  0  0  0  0  0  0  0
   -1.9667   -0.2436    1.4642 C   0  0  0  0  0  0  0  0  0  0  0  0
   -3.3272   -0.5943    2.0712 C   0  0  0  0  0  0  0  0  0  0  0  0
   -3.5100    0.0760    3.4248 C   0  0  0  0  0  0  0  0  0  0  0  0
   -4.8475   -0.2714    3.9623 N   0  3  0  0  0  0  0  0  0  0  0  0
   -0.6336    1.4811   -0.2948 H   0  0  0  0  0  0  0  0  0  0  0  0
    0.3643   -0.8000    0.1543 H   0  0  0  0  0  0  0  0  0  0  0  0
   -2.5884   -0.5459   -0.5770 H   0  0  0  0  0  0  0  0  0  0  0  0
   -1.9205   -1.9821    0.1915 H   0  0  0  0  0  0  0  0  0  0  0  0
   -1.1733   -0.5777    2.1429 H   0  0  0  0  0  0  0  0  0  0  0  0
   -1.8813    0.8457    1.3754 H   0  0  0  0  0  0  0  0  0  0  0  0
   -3.4108   -1.6827    2.1811 H   0  0  0  0  0  0  0  0  0  0  0  0
   -4.1262   -0.2780    1.3890 H   0  0  0  0  0  0  0  0  0  0  0  0
   -2.7741   -0.2704    4.1566 H   0  0  0  0  0  0  0  0  0  0  0  0
   -3.4711    1.1668    3.3509 H   0  0  0  0  0  0  0  0  0  0  0  0
   -5.1392    0.3976    4.6833 H   0  0  0  0  0  0  0  0  0  0  0  0
   -4.8422   -1.2069    4.3838 H   0  0  0  0  0  0  0  0  0  0  0  0
   -5.5555   -0.2638    3.2198 H   0  0  0  0  0  0  0  0  0  0  0  0
   -1.2415   -1.4694   -2.6852 N   0  0  0  0  0  0  0  0  0  0  0  0
   -1.2299   -2.2334   -3.9099 C   0  0  2  0  0  0  0  0  0  0  0  0
   -2.3835   -1.7482   -4.7778 C   0  0  0  0  0  0  0  0  0  0  0  0
   -3.3702   -1.1738   -4.3223 O   0  0  0  0  0  0  0  0  0  0  0  0
   -1.3476   -3.7241   -3.6332 C   0  0  0  0  0  0  0  0  0  0  0  0
   -2.0573   -0.9053   -2.4663 H   0  0  0  0  0  0  0  0  0  0  0  0
   -0.2796   -2.0158   -4.4094 H   0  0  0  0  0  0  0  0  0  0  0  0
   -2.2935   -3.9615   -3.1329 H   0  0  0  0  0  0  0  0  0  0  0  0
   -1.3099   -4.3041   -4.5612 H   0  0  0  0  0  0  0  0  0  0  0  0
   -0.5337   -4.0655   -2.9844 H   0  0  0  0  0  0  0  0  0  0  0  0
   -2.2015   -2.0702   -6.1155 N   0  0  0  0  0  0  0  0  0  0  0  0
   -3.1634   -1.7292   -7.1374 C   0  0  0  0  0  0  0  0  0  0  0  0
   -1.3440   -2.5306   -6.4064 H   0  0  0  0  0  0  0  0  0  0  0  0
   -3.8632   -2.5663   -7.2770 H   0  0  0  0  0  0  0  0  0  0  0  0
   -3.7214   -0.8322   -6.8308 H   0  0  0  0  0  0  0  0  0  0  0  0
   -2.6383   -1.5289   -8.0830 H   0  0  0  0  0  0  0  0  0  0  0  0
  1  3  1  0  0  0  0
  1  7  1  0  0  0  0
  1  2  2  0  0  0  0
 40 41  1  0  0  0  0
 41 49  1  0  0  0  0
 41 42  2  0  0  0  0
  8  9  1  0  0  0  0
  9 17  1  0  0  0  0
  9 10  2  0  0  0  0
 18 19  1  0  0  0  0
 19 39  1  0  0  0  0
 19 20  2  0  0  0  0
 40 43  1  0  0  0  0
  8 11  1  0  0  0  0
 49 50  1  0  0  0  0
 22 23  1  0  0  0  0
 21 22  1  0  0  0  0
 23 24  1  0  0  0  0
 18 21  1  0  0  0  0
 24 25  1  0  0  0  0
 39 40  1  0  0  0  0
  7  8  1  0  0  0  0
 17 18  1  0  0  0  0
  3  4  1  0  0  0  0
  3  5  1  0  0  0  0
  3  6  1  0  0  0  0
 43 46  1  0  0  0  0
 43 47  1  0  0  0  0
 43 48  1  0  0  0  0
 11 14  1  0  0  0  0
 11 15  1  0  0  0  0
 11 16  1  0  0  0  0
 50 52  1  0  0  0  0
 50 53  1  0  0  0  0
 50 54  1  0  0  0  0
 22 30  1  0  0  0  0
 22 31  1  0  0  0  0
 23 32  1  0  0  0  0
 23 33  1  0  0  0  0
 21 28  1  0  0  0  0
 21 29  1  0  0  0  0
 24 34  1  0  0  0  0
 24 35  1  0  0  0  0
 40 45  1  0  0  0  0
  8 13  1  0  0  0  0
 18 27  1  0  0  0  0
 49 51  1  0  0  0  0
  7 12  1  0  0  0  0
 39 44  1  0  0  0  0
 17 26  1  0  0  0  0
 25 36  1  0  0  0  0
 25 37  1  0  0  0  0
 25 38  1  0  0  0  0
M  CHG  1  25   1
M  END
$$$$

  -OEChem-05262214473D

 54 53  0     1  0  0  0  0  0999 V2000
    2.6714    2.8829   -3.0005 C   0  0  0  0  0  0  0  0  0  0  0  0
    3.1741    2.4398   -1.9745 O   0  0  0  0  0  0  0  0  0  0  0  0
    3.5527    3.3077   -4.1279 C   0  0  0  0  0  0  0  0  0  0  0  0
    3.8407    4.3691   -4.0597 H   0  0  0  0  0  0  0  0  0  0  0  0
    4.5024    2.7495   -4.1526 H   0  0  0  0  0  0  0  0  0  0  0  0
    3.1208    3.1887   -5.1345 H   0  0  0  0  0  0  0  0  0  0  0  0
    1.3174    3.0407   -3.2467 N   0  0  0  0  0  0  0  0  0  0  0  0
    0.2944    2.6927   -2.2960 C   0  0  2  0  0  0  0  0  0  0  0  0
    0.2976    1.1783   -2.1349 C   0  0  0  0  0  0  0  0  0  0  0  0
    0.7500    0.4142   -2.9850 O   0  0  0  0  0  0  0  0  0  0  0  0
   -1.0710    3.1886   -2.7460 C   0  0  0  0  0  0  0  0  0  0  0  0
    1.0312    3.4224   -4.1464 H   0  0  0  0  0  0  0  0  0  0  0  0
    0.5725    3.1622   -1.3461 H   0  0  0  0  0  0  0  0  0  0  0  0
   -1.3666    2.7292   -3.6963 H   0  0  0  0  0  0  0  0  0  0  0  0
   -1.8434    2.9482   -2.0082 H   0  0  0  0  0  0  0  0  0  0  0  0
   -1.0632    4.2744   -2.8901 H   0  0  0  0  0  0  0  0  0  0  0  0
   -0.3037    0.7742   -0.9484 N   0  0  0  0  0  0  0  0  0  0  0  0
   -0.4352   -0.6095   -0.5718 C   0  0  2  0  0  0  0  0  0  0  0  0
   -0.1756   -1.4797   -1.7972 C   0  0  0  0  0  0  0  0  0  0  0  0
    0.7107   -2.3308   -1.8392 O   0  0  0  0  0  0  0  0  0  0  0  0
   -1.7889   -0.8979    0.0879 C   0  0  0  0  0  0  0  0  0  0  0  0
   -1.9667   -0.2436    1.4642 C   0  0  0  0  0  0  0  0  0  0  0  0
   -3.3272   -0.5943    2.0712 C   0  0  0  0  0  0  0  0  0  0  0  0
   -3.5100    0.0760    3.4248 C   0  0  0  0  0  0  0  0  0  0  0  0
   -4.8475   -0.2714    3.9623 N   0  3  0  0  0  0  0  0  0  0  0  0
   -0.6336    1.4811   -0.2948 H   0  0  0  0  0  0  0  0  0  0  0  0
    0.3643   -0.8000    0.1543 H   0  0  0  0  0  0  0  0  0  0  0  0
   -2.5884   -0.5459   -0.5770 H   0  0  0  0  0  0  0  0  0  0  0  0
   -1.9205   -1.9821    0.1915 H   0  0  0  0  0  0  0  0  0  0  0  0
   -1.1733   -0.5777    2.1429 H   0  0  0  0  0  0  0  0  0  0  0  0
   -1.8813    0.8457    1.3754 H   0  0  0  0  0  0  0  0  0  0  0  0
   -3.4108   -1.6827    2.1811 H   0  0  0  0  0  0  0  0  0  0  0  0
   -4.1262   -0.2780    1.3890 H   0  0  0  0  0  0  0  0  0  0  0  0
   -2.7741   -0.2704    4.1566 H   0  0  0  0  0  0  0  0  0  0  0  0
   -3.4711    1.1668    3.3509 H   0  0  0  0  0  0  0  0  0  0  0  0
   -5.1392    0.3976    4.6833 H   0  0  0  0  0  0  0  0  0  0  0  0
   -4.8422   -1.2069    4.3838 H   0  0  0  0  0  0  0  0  0  0  0  0
   -5.5555   -0.2638    3.2198 H   0  0  0  0  0  0  0  0  0  0  0  0
   -1.0688   -1.2192   -2.8263 N   0  0  0  0  0  0  0  0  0  0  0  0
   -1.0274   -1.9333   -4.0801 C   0  0  2  0  0  0  0  0  0  0  0  0
   -1.9113   -1.1908   -5.0736 C   0  0  0  0  0  0  0  0  0  0  0  0
   -2.8173   -0.4342   -4.7304 O   0  0  0  0  0  0  0  0  0  0  0  0
   -1.4883   -3.3728   -3.9126 C   0  0  0  0  0  0  0  0  0  0  0  0
   -1.7756   -0.5020   -2.6930 H   0  0  0  0  0  0  0  0  0  0  0  0
    0.0121   -1.9072   -4.4247 H   0  0  0  0  0  0  0  0  0  0  0  0
   -2.5278   -3.4190   -3.5678 H   0  0  0  0  0  0  0  0  0  0  0  0
   -1.4292   -3.9210   -4.8586 H   0  0  0  0  0  0  0  0  0  0  0  0
   -0.8701   -3.8967   -3.1756 H   0  0  0  0  0  0  0  0  0  0  0  0
   -1.5974   -1.5059   -6.3883 N   0  0  0  0  0  0  0  0  0  0  0  0
   -2.3021   -0.9404   -7.5151 C   0  0  0  0  0  0  0  0  0  0  0  0
   -0.8182   -2.1285   -6.5806 H   0  0  0  0  0  0  0  0  0  0  0  0
   -3.1288   -1.6064   -7.8030 H   0  0  0  0  0  0  0  0  0  0  0  0
   -2.7048    0.0452   -7.2384 H   0  0  0  0  0  0  0  0  0  0  0  0
   -1.6093   -0.8287   -8.3622 H   0  0  0  0  0  0  0  0  0  0  0  0
  1  3  1  0  0  0  0
  1  7  1  0  0  0  0
  1  2  2  0  0  0  0
 40 41  1  0  0  0  0
 41 49  1  0  0  0  0
 41 42  2  0  0  0  0
  8  9  1  0  0  0  0
  9 17  1  0  0  0  0
  9 10  2  0  0  0  0
 18 19  1  0  0  0  0
 19 39  1  0  0  0  0
 19 20  2  0  0  0  0
 40 43  1  0  0  0  0
  8 11  1  0  0  0  0
 49 50  1  0  0  0  0
 22 23  1  0  0  0  0
 21 22  1  0  0  0  0
 23 24  1  0  0  0  0
 18 21  1  0  0  0  0
 24 25  1  0  0  0  0
 39 40  1  0  0  0  0
  7  8  1  0  0  0  0
 17 18  1  0  0  0  0
  3  4  1  0  0  0  0
  3  5  1  0  0  0  0
  3  6  1  0  0  0  0
 43 46  1  0  0  0  0
 43 47  1  0  0  0  0
 43 48  1  0  0  0  0
 11 14  1  0  0  0  0
 11 15  1  0  0  0  0
 11 16  1  0  0  0  0
 50 52  1  0  0  0  0
 50 53  1  0  0  0  0
 50 54  1  0  0  0  0
 22 30  1  0  0  0  0
 22 31  1  0  0  0  0
 23 32  1  0  0  0  0
 23 33  1  0  0  0  0
 21 28  1  0  0  0  0
 21 29  1  0  0  0  0
 24 34  1  0  0  0  0
 24 35  1  0  0  0  0
 40 45  1  0  0  0  0
  8 13  1  0  0  0  0
 18 27  1  0  0  0  0
 49 51  1  0  0  0  0
  7 12  1  0  0  0  0
 39 44  1  0  0  0  0
 17 26  1  0  0  0  0
 25 36  1  0  0  0  0
 25 37  1  0  0  0  0
 25 38  1  0  0  0  0
M  CHG  1  25   1
M  END
$$$$

  -OEChem-05262214473D

 54 53  0     1  0  0  0  0  0999 V2000
    2.6714    2.8829   -3.0005 C   0  0  0  0  0  0  0  0  0  0  0  0
    3.1741    2.4398   -1.9745 O   0  0  0  0  0  0  0  0  0  0  0  0
    3.5527    3.3077   -4.1279 C   0  0  0  0  0  0  0  0  0  0  0  0
    3.8407    4.3691   -4.0597 H   0  0  0  0  0  0  0  0  0  0  0  0
    4.5024    2.7495   -4.1526 H   0  0  0  0  0  0  0  0  0  0  0  0
    3.1208    3.1887   -5.1345 H   0  0  0  0  0  0  0  0  0  0  0  0
    1.3174    3.0407   -3.2467 N   0  0  0  0  0  0  0  0  0  0  0  0
    0.2944    2.6927   -2.2960 C   0  0  2  0  0  0  0  0  0  0  0  0
    0.2976    1.1783   -2.1349 C   0  0  0  0  0  0  0  0  0  0  0  0
    0.7500    0.4142   -2.9850 O   0  0  0  0  0  0  0  0  0  0  0  0
   -1.0710    3.1886   -2.7460 C   0  0  0  0  0  0  0  0  0  0  0  0
    1.0312    3.4224   -4.1464 H   0  0  0  0  0  0  0  0  0  0  0  0
    0.5725    3.1622   -1.3461 H   0  0  0  0  0  0  0  0  0  0  0  0
   -1.3666    2.7292   -3.6963 H   0  0  0  0  0  0  0  0  0  0  0  0
   -1.8434    2.9482   -2.0082 H   0  0  0  0  0  0  0  0  0  0  0  0
   -1.0632    4.2744   -2.8901 H   0  0  0  0  0  0  0  0  0  0  0  0
   -0.3037    0.7742   -0.9484 N   0  0  0  0  0  0  0  0  0  0  0  0
   -0.4352   -0.6095   -0.5718 C   0  0  2  0  0  0  0  0  0  0  0  0
   -0.1756   -1.4797   -1.7972 C   0  0  0  0  0  0  0  0  0  0  0  0
    0.5136   -2.4973   -1.7627 O   0  0  0  0  0  0  0  0  0  0  0  0
   -1.7889   -0.8979    0.0879 C   0  0  0  0  0  0  0  0  0  0  0  0
   -1.9667   -0.2436    1.4642 C   0  0  0  0  0  0  0  0  0  0  0  0
   -3.3272   -0.5943    2.0712 C   0  0  0  0  0  0  0  0  0  0  0  0
   -3.5100    0.0760    3.4248 C   0  0  0  0  0  0  0  0  0  0  0  0
   -4.8475   -0.2714    3.9623 N   0  3  0  0  0  0  0  0  0  0  0  0
   -0.6336    1.4811   -0.2948 H   0  0  0  0  0  0  0  0  0  0  0  0
    0.3643   -0.8000    0.1543 H   0  0  0  0  0  0  0  0  0  0  0  0
   -2.5884   -0.5459   -0.5770 H   0  0  0  0  0  0  0  0  0  0  0  0
   -1.9205   -1.9821    0.1915 H   0  0  0  0  0  0  0  0  0  0  0  0
   -1.1733   -0.5777    2.1429 H   0  0  0  0  0  0  0  0  0  0  0  0
   -1.8813    0.8457    1.3754 H   0  0  0  0  0  0  0  0  0  0  0  0
   -3.4108   -1.6827    2.1811 H   0  0  0  0  0  0  0  0  0  0  0  0
   -4.1262   -0.2780    1.3890 H   0  0  0  0  0  0  0  0  0  0  0  0
   -2.7741   -0.2704    4.1566 H   0  0  0  0  0  0  0  0  0  0  0  0
   -3.4711    1.1668    3.3509 H   0  0  0  0  0  0  0  0  0  0  0  0
   -5.1392    0.3976    4.6833 H   0  0  0  0  0  0  0  0  0  0  0  0
   -4.8422   -1.2069    4.3838 H   0  0  0  0  0  0  0  0  0  0  0  0
   -5.5555   -0.2638    3.2198 H   0  0  0  0  0  0  0  0  0  0  0  0
   -0.8292   -1.0072   -2.9261 N   0  0  0  0  0  0  0  0  0  0  0  0
   -0.7442   -1.6780   -4.2014 C   0  0  2  0  0  0  0  0  0  0  0  0
   -1.2956   -0.7376   -5.2650 C   0  0  0  0  0  0  0  0  0  0  0  0
   -2.0690    0.1833   -5.0104 O   0  0  0  0  0  0  0  0  0  0  0  0
   -1.5100   -2.9918   -4.1877 C   0  0  0  0  0  0  0  0  0  0  0  0
   -1.3861   -0.1610   -2.8527 H   0  0  0  0  0  0  0  0  0  0  0  0
    0.3187   -1.8623   -4.3916 H   0  0  0  0  0  0  0  0  0  0  0  0
   -2.5771   -2.8272   -3.9985 H   0  0  0  0  0  0  0  0  0  0  0  0
   -1.4209   -3.5130   -5.1466 H   0  0  0  0  0  0  0  0  0  0  0  0
   -1.1317   -3.6552   -3.4025 H   0  0  0  0  0  0  0  0  0  0  0  0
   -0.8563   -1.0743   -6.5377 N   0  0  0  0  0  0  0  0  0  0  0  0
   -1.2503   -0.3409   -7.7179 C   0  0  0  0  0  0  0  0  0  0  0  0
   -0.2010   -1.8418   -6.6534 H   0  0  0  0  0  0  0  0  0  0  0  0
   -2.1420   -0.8088   -8.1604 H   0  0  0  0  0  0  0  0  0  0  0  0
   -1.4801    0.6992   -7.4434 H   0  0  0  0  0  0  0  0  0  0  0  0
   -0.4285   -0.3541   -8.4490 H   0  0  0  0  0  0  0  0  0  0  0  0
  1  3  1  0  0  0  0
  1  7  1  0  0  0  0
  1  2  2  0  0  0  0
 40 41  1  0  0  0  0
 41 49  1  0  0  0  0
 41 42  2  0  0  0  0
  8  9  1  0  0  0  0
  9 17  1  0  0  0  0
  9 10  2  0  0  0  0
 18 19  1  0  0  0  0
 19 39  1  0  0  0  0
 19 20  2  0  0  0  0
 40 43  1  0  0  0  0
  8 11  1  0  0  0  0
 49 50  1  0  0  0  0
 22 23  1  0  0  0  0
 21 22  1  0  0  0  0
 23 24  1  0  0  0  0
 18 21  1  0  0  0  0
 24 25  1  0  0  0  0
 39 40  1  0  0  0  0
  7  8  1  0  0  0  0
 17 18  1  0  0  0  0
  3  4  1  0  0  0  0
  3  5  1  0  0  0  0
  3  6  1  0  0  0  0
 43 46  1  0  0  0  0
 43 47  1  0  0  0  0
 43 48  1  0  0  0  0
 11 14  1  0  0  0  0
 11 15  1  0  0  0  0
 11 16  1  0  0  0  0
 50 52  1  0  0  0  0
 50 53  1  0  0  0  0
 50 54  1  0  0  0  0
 22 30  1  0  0  0  0
 22 31  1  0  0  0  0
 23 32  1  0  0  0  0
 23 33  1  0  0  0  0
 21 28  1  0  0  0  0
 21 29  1  0  0  0  0
 24 34  1  0  0  0  0
 24 35  1  0  0  0  0
 40 45  1  0  0  0  0
  8 13  1  0  0  0  0
 18 27  1  0  0  0  0
 49 51  1  0  0  0  0
  7 12  1  0  0  0  0
 39 44  1  0  0  0  0
 17 26  1  0  0  0  0
 25 36  1  0  0  0  0
 25 37  1  0  0  0  0
 25 38  1  0  0  0  0
M  CHG  1  25   1
M  END
$$$$

  -OEChem-05262214473D

 54 53  0     1  0  0  0  0  0999 V2000
    2.6714    2.8829   -3.0005 C   0  0  0  0  0  0  0  0  0  0  0  0
    3.1741    2.4398   -1.9745 O   0  0  0  0  0  0  0  0  0  0  0  0
    3.5527    3.3077   -4.1279 C   0  0  0  0  0  0  0  0  0  0  0  0
    3.8407    4.3691   -4.0597 H   0  0  0  0  0  0  0  0  0  0  0  0
    4.5024    2.7495   -4.1526 H   0  0  0  0  0  0  0  0  0  0  0  0
    3.1208    3.1887   -5.1345 H   0  0  0  0  0  0  0  0  0  0  0  0
    1.3174    3.0407   -3.2467 N   0  0  0  0  0  0  0  0  0  0  0  0
    0.2944    2.6927   -2.2960 C   0  0  2  0  0  0  0  0  0  0  0  0
    0.2976    1.1783   -2.1349 C   0  0  0  0  0  0  0  0  0  0  0  0
    0.7500    0.4142   -2.9850 O   0  0  0  0  0  0  0  0  0  0  0  0
   -1.0710    3.1886   -2.7460 C   0  0  0  0  0  0  0  0  0  0  0  0
    1.0312    3.4224   -4.1464 H   0  0  0  0  0  0  0  0  0  0  0  0
    0.5725    3.1622   -1.3461 H   0  0  0  0  0  0  0  0  0  0  0  0
   -1.3666    2.7292   -3.6963 H   0  0  0  0  0  0  0  0  0  0  0  0
   -1.8434    2.9482   -2.0082 H   0  0  0  0  0  0  0  0  0  0  0  0
   -1.0632    4.2744   -2.8901 H   0  0  0  0  0  0  0  0  0  0  0  0
   -0.3037    0.7742   -0.9484 N   0  0  0  0  0  0  0  0  0  0  0  0
   -0.4352   -0.6095   -0.5718 C   0  0  2  0  0  0  0  0  0  0  0  0
   -0.1756   -1.4797   -1.7972 C   0  0  0  0  0  0  0  0  0  0  0  0
    0.2773   -2.6205   -1.7253 O   0  0  0  0  0  0  0  0  0  0  0  0
   -1.7889   -0.8979    0.0879 C   0  0  0  0  0  0  0  0  0  0  0  0
   -1.9667   -0.2436    1.4642 C   0  0  0  0  0  0  0  0  0  0  0  0
   -3.3272   -0.5943    2.0712 C   0  0  0  0  0  0  0  0  0  0  0  0
   -3.5100    0.0760    3.4248 C   0  0  0  0  0  0  0  0  0  0  0  0
   -4.8475   -0.2714    3.9623 N   0  3  0  0  0  0  0  0  0  0  0  0
   -0.6336    1.4811   -0.2948 H   0  0  0  0  0  0  0  0  0  0  0  0
    0.3643   -0.8000    0.1543 H   0  0  0  0  0  0  0  0  0  0  0  0
   -2.5884   -0.5459   -0.5770 H   0  0  0  0  0  0  0  0  0  0  0  0
   -1.9205   -1.9821    0.1915 H   0  0  0  0  0  0  0  0  0  0  0  0
   -1.1733   -0.5777    2.1429 H   0  0  0  0  0  0  0  0  0  0  0  0
   -1.8813    0.8457    1.3754 H   0  0  0  0  0  0  0  0  0  0  0  0
   -3.4108   -1.6827    2.1811 H   0  0  0  0  0  0  0  0  0  0  0  0
   -4.1262   -0.2780    1.3890 H   0  0  0  0  0  0  0  0  0  0  0  0
   -2.7741   -0.2704    4.1566 H   0  0  0  0  0  0  0  0  0  0  0  0
   -3.4711    1.1668    3.3509 H   0  0  0  0  0  0  0  0  0  0  0  0
   -5.1392    0.3976    4.6833 H   0  0  0  0  0  0  0  0  0  0  0  0
   -4.8422   -1.2069    4.3838 H   0  0  0  0  0  0  0  0  0  0  0  0
   -5.5555   -0.2638    3.2198 H   0  0  0  0  0  0  0  0  0  0  0  0
   -0.5389   -0.8479   -2.9777 N   0  0  0  0  0  0  0  0  0  0  0  0
   -0.3997   -1.4849   -4.2655 C   0  0  2  0  0  0  0  0  0  0  0  0
   -0.5783   -0.4194   -5.3390 C   0  0  0  0  0  0  0  0  0  0  0  0
   -1.1766    0.6364   -5.1432 O   0  0  0  0  0  0  0  0  0  0  0  0
   -1.4111   -2.6071   -4.4399 C   0  0  0  0  0  0  0  0  0  0  0  0
   -0.9154    0.0944   -2.9343 H   0  0  0  0  0  0  0  0  0  0  0  0
    0.6193   -1.8841   -4.3124 H   0  0  0  0  0  0  0  0  0  0  0  0
   -2.4380   -2.2263   -4.3958 H   0  0  0  0  0  0  0  0  0  0  0  0
   -1.2855   -3.1079   -5.4056 H   0  0  0  0  0  0  0  0  0  0  0  0
   -1.3007   -3.3576   -3.6497 H   0  0  0  0  0  0  0  0  0  0  0  0
   -0.0286   -0.8050   -6.5536 N   0  0  0  0  0  0  0  0  0  0  0  0
   -0.0797    0.0284   -7.7321 C   0  0  0  0  0  0  0  0  0  0  0  0
    0.4656   -1.6899   -6.6200 H   0  0  0  0  0  0  0  0  0  0  0  0
   -0.9703   -0.2279   -8.3247 H   0  0  0  0  0  0  0  0  0  0  0  0
   -0.1309    1.0853   -7.4317 H   0  0  0  0  0  0  0  0  0  0  0  0
    0.8236   -0.1373   -8.3377 H   0  0  0  0  0  0  0  0  0  0  0  0
  1  3  1  0  0  0  0
  1  7  1  0  0  0  0
  1  2  2  0  0  0  0
 40 41  1  0  0  0  0
 41 49  1  0  0  0  0
 41 42  2  0  0  0  0
  8  9  1  0  0  0  0
  9 17  1  0  0  0  0
  9 10  2  0  0  0  0
 18 19  1  0  0  0  0
 19 39  1  0  0  0  0
 19 20  2  0  0  0  0
 40 43  1  0  0  0  0
  8 11  1  0  0  0  0
 49 50  1  0  0  0  0
 22 23  1  0  0  0  0
 21 22  1  0  0  0  0
 23 24  1  0  0  0  0
 18 21  1  0  0  0  0
 24 25  1  0  0  0  0
 39 40  1  0  0  0  0
  7  8  1  0  0  0  0
 17 18  1  0  0  0  0
  3  4  1  0  0  0  0
  3  5  1  0  0  0  0
  3  6  1  0  0  0  0
 43 46  1  0  0  0  0
 43 47  1  0  0  0  0
 43 48  1  0  0  0  0
 11 14  1  0  0  0  0
 11 15  1  0  0  0  0
 11 16  1  0  0  0  0
 50 52  1  0  0  0  0
 50 53  1  0  0  0  0
 50 54  1  0  0  0  0
 22 30  1  0  0  0  0
 22 31  1  0  0  0  0
 23 32  1  0  0  0  0
 23 33  1  0  0  0  0
 21 28  1  0  0  0  0
 21 29  1  0  0  0  0
 24 34  1  0  0  0  0
 24 35  1  0  0  0  0
 40 45  1  0  0  0  0
  8 13  1  0  0  0  0
 18 27  1  0  0  0  0
 49 51  1  0  0  0  0
  7 12  1  0  0  0  0
 39 44  1  0  0  0  0
 17 26  1  0  0  0  0
 25 36  1  0  0  0  0
 25 37  1  0  0  0  0
 25 38  1  0  0  0  0
M  CHG  1  25   1
M  END
$$$$

  -OEChem-05262214473D

 54 53  0     1  0  0  0  0  0999 V2000
    2.6714    2.8829   -3.0005 C   0  0  0  0  0  0  0  0  0  0  0  0
    3.1741    2.4398   -1.9745 O   0  0  0  0  0  0  0  0  0  0  0  0
    3.5527    3.3077   -4.1279 C   0  0  0  0  0  0  0  0  0  0  0  0
    3.8407    4.3691   -4.0597 H   0  0  0  0  0  0  0  0  0  0  0  0
    4.5024    2.7495   -4.1526 H   0  0  0  0  0  0  0  0  0  0  0  0
    3.1208    3.1887   -5.1345 H   0  0  0  0  0  0  0  0  0  0  0  0
    1.3174    3.0407   -3.2467 N   0  0  0  0  0  0  0  0  0  0  0  0
    0.2944    2.6927   -2.2960 C   0  0  2  0  0  0  0  0  0  0  0  0
    0.2976    1.1783   -2.1349 C   0  0  0  0  0  0  0  0  0  0  0  0
    0.7500    0.4142   -2.9850 O   0  0  0  0  0  0  0  0  0  0  0  0
   -1.0710    3.1886   -2.7460 C   0  0  0  0  0  0  0  0  0  0  0  0
    1.0312    3.4224   -4.1464 H   0  0  0  0  0  0  0  0  0  0  0  0
    0.5725    3.1622   -1.3461 H   0  0  0  0  0  0  0  0  0  0  0  0
   -1.3666    2.7292   -3.6963 H   0  0  0  0  0  0  0  0  0  0  0  0
   -1.8434    2.9482   -2.0082 H   0  0  0  0  0  0  0  0  0  0  0  0
   -1.0632    4.2744   -2.8901 H   0  0  0  0  0  0  0  0  0  0  0  0
   -0.3037    0.7742   -0.9484 N   0  0  0  0  0  0  0  0  0  0  0  0
   -0.4352   -0.6095   -0.5718 C   0  0  2  0  0  0  0  0  0  0  0  0
   -0.1756   -1.4797   -1.7972 C   0  0  0  0  0  0  0  0  0  0  0  0
    0.0180   -2.6920   -1.7295 O   0  0  0  0  0  0  0  0  0  0  0  0
   -1.7889   -0.8979    0.0879 C   0  0  0  0  0  0  0  0  0  0  0  0
   -1.9667   -0.2436    1.4642 C   0  0  0  0  0  0  0  0  0  0  0  0
   -3.3272   -0.5943    2.0712 C   0  0  0  0  0  0  0  0  0  0  0  0
   -3.5100    0.0760    3.4248 C   0  0  0  0  0  0  0  0  0  0  0  0
   -4.8475   -0.2714    3.9623 N   0  3  0  0  0  0  0  0  0  0  0  0
   -0.6336    1.4811   -0.2948 H   0  0  0  0  0  0  0  0  0  0  0  0
    0.3643   -0.8000    0.1543 H   0  0  0  0  0  0  0  0  0  0  0  0
   -2.5884   -0.5459   -0.5770 H   0  0  0  0  0  0  0  0  0  0  0  0
   -1.9205   -1.9821    0.1915 H   0  0  0  0  0  0  0  0  0  0  0  0
   -1.1733   -0.5777    2.1429 H   0  0  0  0  0  0  0  0  0  0  0  0
   -1.8813    0.8457    1.3754 H   0  0  0  0  0  0  0  0  0  0  0  0
   -3.4108   -1.6827    2.1811 H   0  0  0  0  0  0  0  0  0  0  0  0
   -4.1262   -0.2780    1.3890 H   0  0  0  0  0  0  0  0  0  0  0  0
   -2.7741   -0.2704    4.1566 H   0  0  0  0  0  0  0  0  0  0  0  0
   -3.4711    1.1668    3.3509 H   0  0  0  0  0  0  0  0  0  0  0  0
   -5.1392    0.3976    4.6833 H   0  0  0  0  0  0  0  0  0  0  0  0
   -4.8422   -1.2069    4.3838 H   0  0  0  0  0  0  0  0  0  0  0  0
   -5.5555   -0.2638    3.2198 H   0  0  0  0  0  0  0  0  0  0  0  0
   -0.2177   -0.7521   -2.9777 N   0  0  0  0  0  0  0  0  0  0  0  0
   -0.0173   -1.3672   -4.2681 C   0  0  2  0  0  0  0  0  0  0  0  0
    0.1915   -0.2580   -5.2906 C   0  0  0  0  0  0  0  0  0  0  0  0
   -0.2007    0.8944   -5.1196 O   0  0  0  0  0  0  0  0  0  0  0  0
   -1.1983   -2.2451   -4.6520 C   0  0  0  0  0  0  0  0  0  0  0  0
   -0.3955    0.2469   -2.9325 H   0  0  0  0  0  0  0  0  0  0  0  0
    0.8935   -1.9712   -4.1925 H   0  0  0  0  0  0  0  0  0  0  0  0
   -2.1200   -1.6573   -4.7326 H   0  0  0  0  0  0  0  0  0  0  0  0
   -1.0322   -2.7334   -5.6179 H   0  0  0  0  0  0  0  0  0  0  0  0
   -1.3654   -3.0241   -3.9003 H   0  0  0  0  0  0  0  0  0  0  0  0
    0.8292   -0.7162   -6.4349 N   0  0  0  0  0  0  0  0  0  0  0  0
    1.1299    0.1423   -7.5567 C   0  0  0  0  0  0  0  0  0  0  0  0
    1.1361   -1.6834   -6.4826 H   0  0  0  0  0  0  0  0  0  0  0  0
    0.3066    0.0969   -8.2848 H   0  0  0  0  0  0  0  0  0  0  0  0
    1.2508    1.1772   -7.2042 H   0  0  0  0  0  0  0  0  0  0  0  0
    2.0616   -0.1932   -8.0356 H   0  0  0  0  0  0  0  0  0  0  0  0
  1  3  1  0  0  0  0
  1  7  1  0  0  0  0
  1  2  2  0  0  0  0
 40 41  1  0  0  0  0
 41 49  1  0  0  0  0
 41 42  2  0  0  0  0
  8  9  1  0  0  0  0
  9 17  1  0  0  0  0
  9 10  2  0  0  0  0
 18 19  1  0  0  0  0
 19 39  1  0  0  0  0
 19 20  2  0  0  0  0
 40 43  1  0  0  0  0
  8 11  1  0  0  0  0
 49 50  1  0  0  0  0
 22 23  1  0  0  0  0
 21 22  1  0  0  0  0
 23 24  1  0  0  0  0
 18 21  1  0  0  0  0
 24 25  1  0  0  0  0
 39 40  1  0  0  0  0
  7  8  1  0  0  0  0
 17 18  1  0  0  0  0
  3  4  1  0  0  0  0
  3  5  1  0  0  0  0
  3  6  1  0  0  0  0
 43 46  1  0  0  0  0
 43 47  1  0  0  0  0
 43 48  1  0  0  0  0
 11 14  1  0  0  0  0
 11 15  1  0  0  0  0
 11 16  1  0  0  0  0
 50 52  1  0  0  0  0
 50 53  1  0  0  0  0
 50 54  1  0  0  0  0
 22 30  1  0  0  0  0
 22 31  1  0  0  0  0
 23 32  1  0  0  0  0
 23 33  1  0  0  0  0
 21 28  1  0  0  0  0
 21 29  1  0  0  0  0
 24 34  1  0  0  0  0
 24 35  1  0  0  0  0
 40 45  1  0  0  0  0
  8 13  1  0  0  0  0
 18 27  1  0  0  0  0
 49 51  1  0  0  0  0
  7 12  1  0  0  0  0
 39 44  1  0  0  0  0
 17 26  1  0  0  0  0
 25 36  1  0  0  0  0
 25 37  1  0  0  0  0
 25 38  1  0  0  0  0
M  CHG  1  25   1
M  END
$$$$

  -OEChem-05262214473D

 54 53  0     1  0  0  0  0  0999 V2000
    2.6714    2.8829   -3.0005 C   0  0  0  0  0  0  0  0  0  0  0  0
    3.1741    2.4398   -1.9745 O   0  0  0  0  0  0  0  0  0  0  0  0
    3.5527    3.3077   -4.1279 C   0  0  0  0  0  0  0  0  0  0  0  0
    3.8407    4.3691   -4.0597 H   0  0  0  0  0  0  0  0  0  0  0  0
    4.5024    2.7495   -4.1526 H   0  0  0  0  0  0  0  0  0  0  0  0
    3.1208    3.1887   -5.1345 H   0  0  0  0  0  0  0  0  0  0  0  0
    1.3174    3.0407   -3.2467 N   0  0  0  0  0  0  0  0  0  0  0  0
    0.2944    2.6927   -2.2960 C   0  0  2  0  0  0  0  0  0  0  0  0
    0.2976    1.1783   -2.1349 C   0  0  0  0  0  0  0  0  0  0  0  0
    0.7500    0.4142   -2.9850 O   0  0  0  0  0  0  0  0  0  0  0  0
   -1.0710    3.1886   -2.7460 C   0  0  0  0  0  0  0  0  0  0  0  0
    1.0312    3.4224   -4.1464 H   0  0  0  0  0  0  0  0  0  0  0  0
    0.5725    3.1622   -1.3461 H   0  0  0  0  0  0  0  0  0  0  0  0
   -1.3666    2.7292   -3.6963 H   0  0  0  0  0  0  0  0  0  0  0  0
   -1.8434    2.9482   -2.0082 H   0  0  0  0  0  0  0  0  0  0  0  0
   -1.0632    4.2744   -2.8901 H   0  0  0  0  0  0  0  0  0  0  0  0
   -0.3037    0.7742   -0.9484 N   0  0  0  0  0  0  0  0  0  0  0  0
   -0.4352   -0.6095   -0.5718 C   0  0  2  0  0  0  0  0  0  0  0  0
   -0.1756   -1.4797   -1.7972 C   0  0  0  0  0  0  0  0  0  0  0  0
   -0.2468   -2.7069   -1.7750 O   0  0  0  0  0  0  0  0  0  0  0  0
   -1.7889   -0.8979    0.0879 C   0  0  0  0  0  0  0  0  0  0  0  0
   -1.9667   -0.2436    1.4642 C   0  0  0  0  0  0  0  0  0  0  0  0
   -3.3272   -0.5943    2.0712 C   0  0  0  0  0  0  0  0  0  0  0  0
   -3.5100    0.0760    3.4248 C   0  0  0  0  0  0  0  0  0  0  0  0
   -4.8475   -0.2714    3.9623 N   0  3  0  0  0  0  0  0  0  0  0  0
   -0.6336    1.4811   -0.2948 H   0  0  0  0  0  0  0  0  0  0  0  0
    0.3643   -0.8000    0.1543 H   0  0  0  0  0  0  0  0  0  0  0  0
   -2.5884   -0.5459   -0.5770 H   0  0  0  0  0  0  0  0  0  0  0  0
   -1.9205   -1.9821    0.1915 H   0  0  0  0  0  0  0  0  0  0  0  0
   -1.1733   -0.5777    2.1429 H   0  0  0  0  0  0  0  0  0  0  0  0
   -1.8813    0.8457    1.3754 H   0  0  0  0  0  0  0  0  0  0  0  0
   -3.4108   -1.6827    2.1811 H   0  0  0  0  0  0  0  0  0  0  0  0
   -4.1262   -0.2780    1.3890 H   0  0  0  0  0  0  0  0  0  0  0  0
   -2.7741   -0.2704    4.1566 H   0  0  0  0  0  0  0  0  0  0  0  0
   -3.4711    1.1668    3.3509 H   0  0  0  0  0  0  0  0  0  0  0  0
   -5.1392    0.3976    4.6833 H   0  0  0  0  0  0  0  0  0  0  0  0
   -4.8422   -1.2069    4.3838 H   0  0  0  0  0  0  0  0  0  0  0  0
   -5.5555   -0.2638    3.2198 H   0  0  0  0  0  0  0  0  0  0  0  0
    0.1124   -0.7263   -2.9260 N   0  0  0  0  0  0  0  0  0  0  0  0
    0.3769   -1.3329   -4.2089 C   0  0  2  0  0  0  0  0  0  0  0  0
    0.9616   -0.2642   -5.1229 C   0  0  0  0  0  0  0  0  0  0  0  0
    0.7921    0.9397   -4.9414 O   0  0  0  0  0  0  0  0  0  0  0  0
   -0.8861   -1.9302   -4.8095 C   0  0  0  0  0  0  0  0  0  0  0  0
    0.1380    0.2860   -2.8471 H   0  0  0  0  0  0  0  0  0  0  0  0
    1.1225   -2.1176   -4.0400 H   0  0  0  0  0  0  0  0  0  0  0  0
   -1.6448   -1.1590   -4.9858 H   0  0  0  0  0  0  0  0  0  0  0  0
   -0.6783   -2.4149   -5.7691 H   0  0  0  0  0  0  0  0  0  0  0  0
   -1.3217   -2.6774   -4.1373 H   0  0  0  0  0  0  0  0  0  0  0  0
    1.6587   -0.8141   -6.1896 N   0  0  0  0  0  0  0  0  0  0  0  0
    2.2960   -0.0069   -7.2036 C   0  0  0  0  0  0  0  0  0  0  0  0
    1.7648   -1.8225   -6.2505 H   0  0  0  0  0  0  0  0  0  0  0  0
    1.6016    0.1434   -8.0434 H   0  0  0  0  0  0  0  0  0  0  0  0
    2.5710    0.9687   -6.7763 H   0  0  0  0  0  0  0  0  0  0  0  0
    3.2012   -0.5179   -7.5635 H   0  0  0  0  0  0  0  0  0  0  0  0
  1  3  1  0  0  0  0
  1  7  1  0  0  0  0
  1  2  2  0  0  0  0
 40 41  1  0  0  0  0
 41 49  1  0  0  0  0
 41 42  2  0  0  0  0
  8  9  1  0  0  0  0
  9 17  1  0  0  0  0
  9 10  2  0  0  0  0
 18 19  1  0  0  0  0
 19 39  1  0  0  0  0
 19 20  2  0  0  0  0
 40 43  1  0  0  0  0
  8 11  1  0  0  0  0
 49 50  1  0  0  0  0
 22 23  1  0  0  0  0
 21 22  1  0  0  0  0
 23 24  1  0  0  0  0
 18 21  1  0  0  0  0
 24 25  1  0  0  0  0
 39 40  1  0  0  0  0
  7  8  1  0  0  0  0
 17 18  1  0  0  0  0
  3  4  1  0  0  0  0
  3  5  1  0  0  0  0
  3  6  1  0  0  0  0
 43 46  1  0  0  0  0
 43 47  1  0  0  0  0
 43 48  1  0  0  0  0
 11 14  1  0  0  0  0
 11 15  1  0  0  0  0
 11 16  1  0  0  0  0
 50 52  1  0  0  0  0
 50 53  1  0  0  0  0
 50 54  1  0  0  0  0
 22 30  1  0  0  0  0
 22 31  1  0  0  0  0
 23 32  1  0  0  0  0
 23 33  1  0  0  0  0
 21 28  1  0  0  0  0
 21 29  1  0  0  0  0
 24 34  1  0  0  0  0
 24 35  1  0  0  0  0
 40 45  1  0  0  0  0
  8 13  1  0  0  0  0
 18 27  1  0  0  0  0
 49 51  1  0  0  0  0
  7 12  1  0  0  0  0
 39 44  1  0  0  0  0
 17 26  1  0  0  0  0
 25 36  1  0  0  0  0
 25 37  1  0  0  0  0
 25 38  1  0  0  0  0
M  CHG  1  25   1
M  END
$$$$

  -OEChem-05262214473D

 54 53  0     1  0  0  0  0  0999 V2000
    2.6714    2.8829   -3.0005 C   0  0  0  0  0  0  0  0  0  0  0  0
    3.1741    2.4398   -1.9745 O   0  0  0  0  0  0  0  0  0  0  0  0
    3.5527    3.3077   -4.1279 C   0  0  0  0  0  0  0  0  0  0  0  0
    3.8407    4.3691   -4.0597 H   0  0  0  0  0  0  0  0  0  0  0  0
    4.5024    2.7495   -4.1526 H   0  0  0  0  0  0  0  0  0  0  0  0
    3.1208    3.1887   -5.1345 H   0  0  0  0  0  0  0  0  0  0  0  0
    1.3174    3.0407   -3.2467 N   0  0  0  0  0  0  0  0  0  0  0  0
    0.2944    2.6927   -2.2960 C   0  0  2  0  0  0  0  0  0  0  0  0
    0.2976    1.1783   -2.1349 C   0  0  0  0  0  0  0  0  0  0  0  0
    0.7500    0.4142   -2.9850 O   0  0  0  0  0  0  0  0  0  0  0  0
   -1.0710    3.1886   -2.7460 C   0  0  0  0  0  0  0  0  0  0  0  0
    1.0312    3.4224   -4.1464 H   0  0  0  0  0  0  0  0  0  0  0  0
    0.5725    3.1622   -1.3461 H   0  0  0  0  0  0  0  0  0  0  0  0
   -1.3666    2.7292   -3.6963 H   0  0  0  0  0  0  0  0  0  0  0  0
   -1.8434    2.9482   -2.0082 H   0  0  0  0  0  0  0  0  0  0  0  0
   -1.0632    4.2744   -2.8901 H   0  0  0  0  0  0  0  0  0  0  0  0
   -0.3037    0.7742   -0.9484 N   0  0  0  0  0  0  0  0  0  0  0  0
   -0.4352   -0.6095   -0.5718 C   0  0  2  0  0  0  0  0  0  0  0  0
   -0.1756   -1.4797   -1.7972 C   0  0  0  0  0  0  0  0  0  0  0  0
   -0.4989   -2.6643   -1.8587 O   0  0  0  0  0  0  0  0  0  0  0  0
   -1.7889   -0.8979    0.0879 C   0  0  0  0  0  0  0  0  0  0  0  0
   -1.9667   -0.2436    1.4642 C   0  0  0  0  0  0  0  0  0  0  0  0
   -3.3272   -0.5943    2.0712 C   0  0  0  0  0  0  0  0  0  0  0  0
   -3.5100    0.0760    3.4248 C   0  0  0  0  0  0  0  0  0  0  0  0
   -4.8475   -0.2714    3.9623 N   0  3  0  0  0  0  0  0  0  0  0  0
   -0.6336    1.4811   -0.2948 H   0  0  0  0  0  0  0  0  0  0  0  0
    0.3643   -0.8000    0.1543 H   0  0  0  0  0  0  0  0  0  0  0  0
   -2.5884   -0.5459   -0.5770 H   0  0  0  0  0  0  0  0  0  0  0  0
   -1.9205   -1.9821    0.1915 H   0  0  0  0  0  0  0  0  0  0  0  0
   -1.1733   -0.5777    2.1429 H   0  0  0  0  0  0  0  0  0  0  0  0
   -1.8813    0.8457    1.3754 H   0  0  0  0  0  0  0  0  0  0  0  0
   -3.4108   -1.6827    2.1811 H   0  0  0  0  0  0  0  0  0  0  0  0
   -4.1262   -0.2780    1.3890 H   0  0  0  0  0  0  0  0  0  0  0  0
   -2.7741   -0.2704    4.1566 H   0  0  0  0  0  0  0  0  0  0  0  0
   -3.4711    1.1668    3.3509 H   0  0  0  0  0  0  0  0  0  0  0  0
   -5.1392    0.3976    4.6833 H   0  0  0  0  0  0  0  0  0  0  0  0
   -4.8422   -1.2069    4.3838 H   0  0  0  0  0  0  0  0  0  0  0  0
   -5.5555   -0.2638    3.2198 H   0  0  0  0  0  0  0  0  0  0  0  0
    0.4290   -0.7723   -2.8262 N   0  0  0  0  0  0  0  0  0  0  0  0
    0.7561   -1.3844   -4.0920 C   0  0  2  0  0  0  0  0  0  0  0  0
    1.6793   -0.4377   -4.8476 C   0  0  0  0  0  0  0  0  0  0  0  0
    1.7341    0.7691   -4.6206 O   0  0  0  0  0  0  0  0  0  0  0  0
   -0.4959   -1.6841   -4.9016 C   0  0  0  0  0  0  0  0  0  0  0  0
    0.6489    0.2090   -2.6842 H   0  0  0  0  0  0  0  0  0  0  0  0
    1.2907   -2.3133   -3.8653 H   0  0  0  0  0  0  0  0  0  0  0  0
   -1.0448   -0.7653   -5.1383 H   0  0  0  0  0  0  0  0  0  0  0  0
   -0.2480   -2.1743   -5.8488 H   0  0  0  0  0  0  0  0  0  0  0  0
   -1.1723   -2.3412   -4.3444 H   0  0  0  0  0  0  0  0  0  0  0  0
    2.4034   -1.0919   -5.8344 N   0  0  0  0  0  0  0  0  0  0  0  0
    3.3392   -0.4091   -6.6969 C   0  0  0  0  0  0  0  0  0  0  0  0
    2.3089   -2.0978   -5.9397 H   0  0  0  0  0  0  0  0  0  0  0  0
    2.8265   -0.0916   -7.6168 H   0  0  0  0  0  0  0  0  0  0  0  0
    3.7397    0.4738   -6.1772 H   0  0  0  0  0  0  0  0  0  0  0  0
    4.1648   -1.0893   -6.9535 H   0  0  0  0  0  0  0  0  0  0  0  0
  1  3  1  0  0  0  0
  1  7  1  0  0  0  0
  1  2  2  0  0  0  0
 40 41  1  0  0  0  0
 41 49  1  0  0  0  0
 41 42  2  0  0  0  0
  8  9  1  0  0  0  0
  9 17  1  0  0  0  0
  9 10  2  0  0  0  0
 18 19  1  0  0  0  0
 19 39  1  0  0  0  0
 19 20  2  0  0  0  0
 40 43  1  0  0  0  0
  8 11  1  0  0  0  0
 49 50  1  0  0  0  0
 22 23  1  0  0  0  0
 21 22  1  0  0  0  0
 23 24  1  0  0  0  0
 18 21  1  0  0  0  0
 24 25  1  0  0  0  0
 39 40  1  0  0  0  0
  7  8  1  0  0  0  0
 17 18  1  0  0  0  0
  3  4  1  0  0  0  0
  3  5  1  0  0  0  0
  3  6  1  0  0  0  0
 43 46  1  0  0  0  0
 43 47  1  0  0  0  0
 43 48  1  0  0  0  0
 11 14  1  0  0  0  0
 11 15  1  0  0  0  0
 11 16  1  0  0  0  0
 50 52  1  0  0  0  0
 50 53  1  0  0  0  0
 50 54  1  0  0  0  0
 22 30  1  0  0  0  0
 22 31  1  0  0  0  0
 23 32  1  0  0  0  0
 23 33  1  0  0  0  0
 21 28  1  0  0  0  0
 21 29  1  0  0  0  0
 24 34  1  0  0  0  0
 24 35  1  0  0  0  0
 40 45  1  0  0  0  0
  8 13  1  0  0  0  0
 18 27  1  0  0  0  0
 49 51  1  0  0  0  0
  7 12  1  0  0  0  0
 39 44  1  0  0  0  0
 17 26  1  0  0  0  0
 25 36  1  0  0  0  0
 25 37  1  0  0  0  0
 25 38  1  0  0  0  0
M  CHG  1  25   1
M  END
$$$$

  -OEChem-05262214473D

 54 53  0     1  0  0  0  0  0999 V2000
    2.6714    2.8829   -3.0005 C   0  0  0  0  0  0  0  0  0  0  0  0
    3.1741    2.4398   -1.9745 O   0  0  0  0  0  0  0  0  0  0  0  0
    3.5527    3.3077   -4.1279 C   0  0  0  0  0  0  0  0  0  0  0  0
    3.8407    4.3691   -4.0597 H   0  0  0  0  0  0  0  0  0  0  0  0
    4.5024    2.7495   -4.1526 H   0  0  0  0  0  0  0  0  0  0  0  0
    3.1208    3.1887   -5.1345 H   0  0  0  0  0  0  0  0  0  0  0  0
    1.3174    3.0407   -3.2467 N   0  0  0  0  0  0  0  0  0  0  0  0
    0.2944    2.6927   -2.2960 C   0  0  2  0  0  0  0  0  0  0  0  0
    0.2976    1.1783   -2.1349 C   0  0  0  0  0  0  0  0  0  0  0  0
    0.7500    0.4142   -2.9850 O   0  0  0  0  0  0  0  0  0  0  0  0
   -1.0710    3.1886   -2.7460 C   0  0  0  0  0  0  0  0  0  0  0  0
    1.0312    3.4224   -4.1464 H   0  0  0  0  0  0  0  0  0  0  0  0
    0.5725    3.1622   -1.3461 H   0  0  0  0  0  0  0  0  0  0  0  0
   -1.3666    2.7292   -3.6963 H   0  0  0  0  0  0  0  0  0  0  0  0
   -1.8434    2.9482   -2.0082 H   0  0  0  0  0  0  0  0  0  0  0  0
   -1.0632    4.2744   -2.8901 H   0  0  0  0  0  0  0  0  0  0  0  0
   -0.3037    0.7742   -0.9484 N   0  0  0  0  0  0  0  0  0  0  0  0
   -0.4352   -0.6095   -0.5718 C   0  0  2  0  0  0  0  0  0  0  0  0
   -0.1756   -1.4797   -1.7972 C   0  0  0  0  0  0  0  0  0  0  0  0
   -0.7212   -2.5670   -1.9749 O   0  0  0  0  0  0  0  0  0  0  0  0
   -1.7889   -0.8979    0.0879 C   0  0  0  0  0  0  0  0  0  0  0  0
   -1.9667   -0.2436    1.4642 C   0  0  0  0  0  0  0  0  0  0  0  0
   -3.3272   -0.5943    2.0712 C   0  0  0  0  0  0  0  0  0  0  0  0
   -3.5100    0.0760    3.4248 C   0  0  0  0  0  0  0  0  0  0  0  0
   -4.8475   -0.2714    3.9623 N   0  3  0  0  0  0  0  0  0  0  0  0
   -0.6336    1.4811   -0.2948 H   0  0  0  0  0  0  0  0  0  0  0  0
    0.3643   -0.8000    0.1543 H   0  0  0  0  0  0  0  0  0  0  0  0
   -2.5884   -0.5459   -0.5770 H   0  0  0  0  0  0  0  0  0  0  0  0
   -1.9205   -1.9821    0.1915 H   0  0  0  0  0  0  0  0  0  0  0  0
   -1.1733   -0.5777    2.1429 H   0  0  0  0  0  0  0  0  0  0  0  0
   -1.8813    0.8457    1.3754 H   0  0  0  0  0  0  0  0  0  0  0  0
   -3.4108   -1.6827    2.1811 H   0  0  0  0  0  0  0  0  0  0  0  0
   -4.1262   -0.2780    1.3890 H   0  0  0  0  0  0  0  0  0  0  0  0
   -2.7741   -0.2704    4.1566 H   0  0  0  0  0  0  0  0  0  0  0  0
   -3.4711    1.1668    3.3509 H   0  0  0  0  0  0  0  0  0  0  0  0
   -5.1392    0.3976    4.6833 H   0  0  0  0  0  0  0  0  0  0  0  0
   -4.8422   -1.2069    4.3838 H   0  0  0  0  0  0  0  0  0  0  0  0
   -5.5555   -0.2638    3.2198 H   0  0  0  0  0  0  0  0  0  0  0  0
    0.7106   -0.8870   -2.6851 N   0  0  0  0  0  0  0  0  0  0  0  0
    1.0944   -1.5181   -3.9253 C   0  0  2  0  0  0  0  0  0  0  0  0
    2.2959   -0.7668   -4.4832 C   0  0  0  0  0  0  0  0  0  0  0  0
    2.5612    0.3944   -4.1791 O   0  0  0  0  0  0  0  0  0  0  0  0
   -0.0542   -1.5234   -4.9221 C   0  0  0  0  0  0  0  0  0  0  0  0
    1.1023    0.0213   -2.4548 H   0  0  0  0  0  0  0  0  0  0  0  0
    1.3867   -2.5451   -3.6804 H   0  0  0  0  0  0  0  0  0  0  0  0
   -0.3609   -0.5031   -5.1796 H   0  0  0  0  0  0  0  0  0  0  0  0
    0.2296   -2.0278   -5.8517 H   0  0  0  0  0  0  0  0  0  0  0  0
   -0.9276   -2.0384   -4.5076 H   0  0  0  0  0  0  0  0  0  0  0  0
    3.0125   -1.5308   -5.3937 N   0  0  0  0  0  0  0  0  0  0  0  0
    4.1885   -1.0368   -6.0711 C   0  0  0  0  0  0  0  0  0  0  0  0
    2.7313   -2.4906   -5.5712 H   0  0  0  0  0  0  0  0  0  0  0  0
    3.8978   -0.5922   -7.0343 H   0  0  0  0  0  0  0  0  0  0  0  0
    4.6771   -0.2735   -5.4477 H   0  0  0  0  0  0  0  0  0  0  0  0
    4.8866   -1.8684   -6.2471 H   0  0  0  0  0  0  0  0  0  0  0  0
  1  3  1  0  0  0  0
  1  7  1  0  0  0  0
  1  2  2  0  0  0  0
 40 41  1  0  0  0  0
 41 49  1  0  0  0  0
 41 42  2  0  0  0  0
  8  9  1  0  0  0  0
  9 17  1  0  0  0  0
  9 10  2  0  0  0  0
 18 19  1  0  0  0  0
 19 39  1  0  0  0  0
 19 20  2  0  0  0  0
 40 43  1  0  0  0  0
  8 11  1  0  0  0  0
 49 50  1  0  0  0  0
 22 23  1  0  0  0  0
 21 22  1  0  0  0  0
 23 24  1  0  0  0  0
 18 21  1  0  0  0  0
 24 25  1  0  0  0  0
 39 40  1  0  0  0  0
  7  8  1  0  0  0  0
 17 18  1  0  0  0  0
  3  4  1  0  0  0  0
  3  5  1  0  0  0  0
  3  6  1  0  0  0  0
 43 46  1  0  0  0  0
 43 47  1  0  0  0  0
 43 48  1  0  0  0  0
 11 14  1  0  0  0  0
 11 15  1  0  0  0  0
 11 16  1  0  0  0  0
 50 52  1  0  0  0  0
 50 53  1  0  0  0  0
 50 54  1  0  0  0  0
 22 30  1  0  0  0  0
 22 31  1  0  0  0  0
 23 32  1  0  0  0  0
 23 33  1  0  0  0  0
 21 28  1  0  0  0  0
 21 29  1  0  0  0  0
 24 34  1  0  0  0  0
 24 35  1  0  0  0  0
 40 45  1  0  0  0  0
  8 13  1  0  0  0  0
 18 27  1  0  0  0  0
 49 51  1  0  0  0  0
  7 12  1  0  0  0  0
 39 44  1  0  0  0  0
 17 26  1  0  0  0  0
 25 36  1  0  0  0  0
 25 37  1  0  0  0  0
 25 38  1  0  0  0  0
M  CHG  1  25   1
M  END
$$$$

  -OEChem-05262214473D

 54 53  0     1  0  0  0  0  0999 V2000
    2.6714    2.8829   -3.0005 C   0  0  0  0  0  0  0  0  0  0  0  0
    3.1741    2.4398   -1.9745 O   0  0  0  0  0  0  0  0  0  0  0  0
    3.5527    3.3077   -4.1279 C   0  0  0  0  0  0  0  0  0  0  0  0
    3.8407    4.3691   -4.0597 H   0  0  0  0  0  0  0  0  0  0  0  0
    4.5024    2.7495   -4.1526 H   0  0  0  0  0  0  0  0  0  0  0  0
    3.1208    3.1887   -5.1345 H   0  0  0  0  0  0  0  0  0  0  0  0
    1.3174    3.0407   -3.2467 N   0  0  0  0  0  0  0  0  0  0  0  0
    0.2944    2.6927   -2.2960 C   0  0  2  0  0  0  0  0  0  0  0  0
    0.2976    1.1783   -2.1349 C   0  0  0  0  0  0  0  0  0  0  0  0
    0.7500    0.4142   -2.9850 O   0  0  0  0  0  0  0  0  0  0  0  0
   -1.0710    3.1886   -2.7460 C   0  0  0  0  0  0  0  0  0  0  0  0
    1.0312    3.4224   -4.1464 H   0  0  0  0  0  0  0  0  0  0  0  0
    0.5725    3.1622   -1.3461 H   0  0  0  0  0  0  0  0  0  0  0  0
   -1.3666    2.7292   -3.6963 H   0  0  0  0  0  0  0  0  0  0  0  0
   -1.8434    2.9482   -2.0082 H   0  0  0  0  0  0  0  0  0  0  0  0
   -1.0632    4.2744   -2.8901 H   0  0  0  0  0  0  0  0  0  0  0  0
   -0.3037    0.7742   -0.9484 N   0  0  0  0  0  0  0  0  0  0  0  0
   -0.4352   -0.6095   -0.5718 C   0  0  2  0  0  0  0  0  0  0  0  0
   -0.1756   -1.4797   -1.7972 C   0  0  0  0  0  0  0  0  0  0  0  0
   -0.8986   -2.4217   -2.1156 O   0  0  0  0  0  0  0  0  0  0  0  0
   -1.7889   -0.8979    0.0879 C   0  0  0  0  0  0  0  0  0  0  0  0
   -1.9667   -0.2436    1.4642 C   0  0  0  0  0  0  0  0  0  0  0  0
   -3.3272   -0.5943    2.0712 C   0  0  0  0  0  0  0  0  0  0  0  0
   -3.5100    0.0760    3.4248 C   0  0  0  0  0  0  0  0  0  0  0  0
   -4.8475   -0.2714    3.9623 N   0  3  0  0  0  0  0  0  0  0  0  0
   -0.6336    1.4811   -0.2948 H   0  0  0  0  0  0  0  0  0  0  0  0
    0.3643   -0.8000    0.1543 H   0  0  0  0  0  0  0  0  0  0  0  0
   -2.5884   -0.5459   -0.5770 H   0  0  0  0  0  0  0  0  0  0  0  0
   -1.9205   -1.9821    0.1915 H   0  0  0  0  0  0  0  0  0  0  0  0
   -1.1733   -0.5777    2.1429 H   0  0  0  0  0  0  0  0  0  0  0  0
   -1.8813    0.8457    1.3754 H   0  0  0  0  0  0  0  0  0  0  0  0
   -3.4108   -1.6827    2.1811 H   0  0  0  0  0  0  0  0  0  0  0  0
   -4.1262   -0.2780    1.3890 H   0  0  0  0  0  0  0  0  0  0  0  0
   -2.7741   -0.2704    4.1566 H   0  0  0  0  0  0  0  0  0  0  0  0
   -3.4711    1.1668    3.3509 H   0  0  0  0  0  0  0  0  0  0  0  0
   -5.1392    0.3976    4.6833 H   0  0  0  0  0  0  0  0  0  0  0  0
   -4.8422   -1.2069    4.3838 H   0  0  0  0  0  0  0  0  0  0  0  0
   -5.5555   -0.2638    3.2198 H   0  0  0  0  0  0  0  0  0  0  0  0
    0.9378   -1.0626   -2.5123 N   0  0  0  0  0  0  0  0  0  0  0  0
    1.3687   -1.7250   -3.7203 C   0  0  2  0  0  0  0  0  0  0  0  0
    2.7692   -1.2288   -4.0548 C   0  0  0  0  0  0  0  0  0  0  0  0
    3.2170   -0.1591   -3.6471 O   0  0  0  0  0  0  0  0  0  0  0  0
    0.4089   -1.4592   -4.8696 C   0  0  0  0  0  0  0  0  0  0  0  0
    1.4674   -0.2644   -2.1745 H   0  0  0  0  0  0  0  0  0  0  0  0
    1.4039   -2.7970   -3.4978 H   0  0  0  0  0  0  0  0  0  0  0  0
    0.3604   -0.3902   -5.1069 H   0  0  0  0  0  0  0  0  0  0  0  0
    0.7217   -1.9854   -5.7775 H   0  0  0  0  0  0  0  0  0  0  0  0
   -0.6041   -1.7896   -4.6157 H   0  0  0  0  0  0  0  0  0  0  0  0
    3.4444   -2.1008   -4.8973 N   0  0  0  0  0  0  0  0  0  0  0  0
    4.7858   -1.8473   -5.3689 C   0  0  0  0  0  0  0  0  0  0  0  0
    3.0032   -2.9741   -5.1702 H   0  0  0  0  0  0  0  0  0  0  0  0
    4.7425   -1.3240   -6.3355 H   0  0  0  0  0  0  0  0  0  0  0  0
    5.3195   -1.2225   -4.6376 H   0  0  0  0  0  0  0  0  0  0  0  0
    5.3175   -2.8023   -5.4926 H   0  0  0  0  0  0  0  0  0  0  0  0
  1  3  1  0  0  0  0
  1  7  1  0  0  0  0
  1  2  2  0  0  0  0
 40 41  1  0  0  0  0
 41 49  1  0  0  0  0
 41 42  2  0  0  0  0
  8  9  1  0  0  0  0
  9 17  1  0  0  0  0
  9 10  2  0  0  0  0
 18 19  1  0  0  0  0
 19 39  1  0  0  0  0
 19 20  2  0  0  0  0
 40 43  1  0  0  0  0
  8 11  1  0  0  0  0
 49 50  1  0  0  0  0
 22 23  1  0  0  0  0
 21 22  1  0  0  0  0
 23 24  1  0  0  0  0
 18 21  1  0  0  0  0
 24 25  1  0  0  0  0
 39 40  1  0  0  0  0
  7  8  1  0  0  0  0
 17 18  1  0  0  0  0
  3  4  1  0  0  0  0
  3  5  1  0  0  0  0
  3  6  1  0  0  0  0
 43 46  1  0  0  0  0
 43 47  1  0  0  0  0
 43 48  1  0  0  0  0
 11 14  1  0  0  0  0
 11 15  1  0  0  0  0
 11 16  1  0  0  0  0
 50 52  1  0  0  0  0
 50 53  1  0  0  0  0
 50 54  1  0  0  0  0
 22 30  1  0  0  0  0
 22 31  1  0  0  0  0
 23 32  1  0  0  0  0
 23 33  1  0  0  0  0
 21 28  1  0  0  0  0
 21 29  1  0  0  0  0
 24 34  1  0  0  0  0
 24 35  1  0  0  0  0
 40 45  1  0  0  0  0
  8 13  1  0  0  0  0
 18 27  1  0  0  0  0
 49 51  1  0  0  0  0
  7 12  1  0  0  0  0
 39 44  1  0  0  0  0
 17 26  1  0  0  0  0
 25 36  1  0  0  0  0
 25 37  1  0  0  0  0
 25 38  1  0  0  0  0
M  CHG  1  25   1
M  END
$$$$

  -OEChem-05262214473D

 54 53  0     1  0  0  0  0  0999 V2000
    2.6714    2.8829   -3.0005 C   0  0  0  0  0  0  0  0  0  0  0  0
    3.1741    2.4398   -1.9745 O   0  0  0  0  0  0  0  0  0  0  0  0
    3.5527    3.3077   -4.1279 C   0  0  0  0  0  0  0  0  0  0  0  0
    3.8407    4.3691   -4.0597 H   0  0  0  0  0  0  0  0  0  0  0  0
    4.5024    2.7495   -4.1526 H   0  0  0  0  0  0  0  0  0  0  0  0
    3.1208    3.1887   -5.1345 H   0  0  0  0  0  0  0  0  0  0  0  0
    1.3174    3.0407   -3.2467 N   0  0  0  0  0  0  0  0  0  0  0  0
    0.2944    2.6927   -2.2960 C   0  0  2  0  0  0  0  0  0  0  0  0
    0.2976    1.1783   -2.1349 C   0  0  0  0  0  0  0  0  0  0  0  0
    0.7500    0.4142   -2.9850 O   0  0  0  0  0  0  0  0  0  0  0  0
   -1.0710    3.1886   -2.7460 C   0  0  0  0  0  0  0  0  0  0  0  0
    1.0312    3.4224   -4.1464 H   0  0  0  0  0  0  0  0  0  0  0  0
    0.5725    3.1622   -1.3461 H   0  0  0  0  0  0  0  0  0  0  0  0
   -1.3666    2.7292   -3.6963 H   0  0  0  0  0  0  0  0  0  0  0  0
   -1.8434    2.9482   -2.0082 H   0  0  0  0  0  0  0  0  0  0  0  0
   -1.0632    4.2744   -2.8901 H   0  0  0  0  0  0  0  0  0  0  0  0
   -0.3037    0.7742   -0.9484 N   0  0  0  0  0  0  0  0  0  0  0  0
   -0.4352   -0.6095   -0.5718 C   0  0  2  0  0  0  0  0  0  0  0  0
   -0.1756   -1.4797   -1.7972 C   0  0  0  0  0  0  0  0  0  0  0  0
   -1.0189   -2.2383   -2.2714 O   0  0  0  0  0  0  0  0  0  0  0  0
   -1.7889   -0.8979    0.0879 C   0  0  0  0  0  0  0  0  0  0  0  0
   -1.9667   -0.2436    1.4642 C   0  0  0  0  0  0  0  0  0  0  0  0
   -3.3272   -0.5943    2.0712 C   0  0  0  0  0  0  0  0  0  0  0  0
   -3.5100    0.0760    3.4248 C   0  0  0  0  0  0  0  0  0  0  0  0
   -4.8475   -0.2714    3.9623 N   0  3  0  0  0  0  0  0  0  0  0  0
   -0.6336    1.4811   -0.2948 H   0  0  0  0  0  0  0  0  0  0  0  0
    0.3643   -0.8000    0.1543 H   0  0  0  0  0  0  0  0  0  0  0  0
   -2.5884   -0.5459   -0.5770 H   0  0  0  0  0  0  0  0  0  0  0  0
   -1.9205   -1.9821    0.1915 H   0  0  0  0  0  0  0  0  0  0  0  0
   -1.1733   -0.5777    2.1429 H   0  0  0  0  0  0  0  0  0  0  0  0
   -1.8813    0.8457    1.3754 H   0  0  0  0  0  0  0  0  0  0  0  0
   -3.4108   -1.6827    2.1811 H   0  0  0  0  0  0  0  0  0  0  0  0
   -4.1262   -0.2780    1.3890 H   0  0  0  0  0  0  0  0  0  0  0  0
   -2.7741   -0.2704    4.1566 H   0  0  0  0  0  0  0  0  0  0  0  0
   -3.4711    1.1668    3.3509 H   0  0  0  0  0  0  0  0  0  0  0  0
   -5.1392    0.3976    4.6833 H   0  0  0  0  0  0  0  0  0  0  0  0
   -4.8422   -1.2069    4.3838 H   0  0  0  0  0  0  0  0  0  0  0  0
   -5.5555   -0.2638    3.2198 H   0  0  0  0  0  0  0  0  0  0  0  0
    1.0953   -1.2870   -2.3195 N   0  0  0  0  0  0  0  0  0  0  0  0
    1.5604   -1.9909   -3.4908 C   0  0  2  0  0  0  0  0  0  0  0  0
    3.0670   -1.7924   -3.5913 C   0  0  0  0  0  0  0  0  0  0  0  0
    3.6568   -0.8535   -3.0607 O   0  0  0  0  0  0  0  0  0  0  0  0
    0.8619   -1.4957   -4.7476 C   0  0  0  0  0  0  0  0  0  0  0  0
    1.7192   -0.6287   -1.8624 H   0  0  0  0  0  0  0  0  0  0  0  0
    1.3411   -3.0520   -3.3300 H   0  0  0  0  0  0  0  0  0  0  0  0
    1.0698   -0.4343   -4.9252 H   0  0  0  0  0  0  0  0  0  0  0  0
    1.1949   -2.0501   -5.6312 H   0  0  0  0  0  0  0  0  0  0  0  0
   -0.2239   -1.6118   -4.6615 H   0  0  0  0  0  0  0  0  0  0  0  0
    3.6699   -2.7630   -4.3792 N   0  0  0  0  0  0  0  0  0  0  0  0
    5.0906   -2.7853   -4.6381 C   0  0  0  0  0  0  0  0  0  0  0  0
    3.1061   -3.5153   -4.7640 H   0  0  0  0  0  0  0  0  0  0  0  0
    5.3030   -2.2374   -5.5680 H   0  0  0  0  0  0  0  0  0  0  0  0
    5.6230   -2.3084   -3.8020 H   0  0  0  0  0  0  0  0  0  0  0  0
    5.4281   -3.8271   -4.7412 H   0  0  0  0  0  0  0  0  0  0  0  0
  1  3  1  0  0  0  0
  1  7  1  0  0  0  0
  1  2  2  0  0  0  0
 40 41  1  0  0  0  0
 41 49  1  0  0  0  0
 41 42  2  0  0  0  0
  8  9  1  0  0  0  0
  9 17  1  0  0  0  0
  9 10  2  0  0  0  0
 18 19  1  0  0  0  0
 19 39  1  0  0  0  0
 19 20  2  0  0  0  0
 40 43  1  0  0  0  0
  8 11  1  0  0  0  0
 49 50  1  0  0  0  0
 22 23  1  0  0  0  0
 21 22  1  0  0  0  0
 23 24  1  0  0  0  0
 18 21  1  0  0  0  0
 24 25  1  0  0  0  0
 39 40  1  0  0  0  0
  7  8  1  0  0  0  0
 17 18  1  0  0  0  0
  3  4  1  0  0  0  0
  3  5  1  0  0  0  0
  3  6  1  0  0  0  0
 43 46  1  0  0  0  0
 43 47  1  0  0  0  0
 43 48  1  0  0  0  0
 11 14  1  0  0  0  0
 11 15  1  0  0  0  0
 11 16  1  0  0  0  0
 50 52  1  0  0  0  0
 50 53  1  0  0  0  0
 50 54  1  0  0  0  0
 22 30  1  0  0  0  0
 22 31  1  0  0  0  0
 23 32  1  0  0  0  0
 23 33  1  0  0  0  0
 21 28  1  0  0  0  0
 21 29  1  0  0  0  0
 24 34  1  0  0  0  0
 24 35  1  0  0  0  0
 40 45  1  0  0  0  0
  8 13  1  0  0  0  0
 18 27  1  0  0  0  0
 49 51  1  0  0  0  0
  7 12  1  0  0  0  0
 39 44  1  0  0  0  0
 17 26  1  0  0  0  0
 25 36  1  0  0  0  0
 25 37  1  0  0  0  0
 25 38  1  0  0  0  0
M  CHG  1  25   1
M  END
$$$$

  -OEChem-05262214473D

 54 53  0     1  0  0  0  0  0999 V2000
    2.6714    2.8829   -3.0005 C   0  0  0  0  0  0  0  0  0  0  0  0
    3.1741    2.4398   -1.9745 O   0  0  0  0  0  0  0  0  0  0  0  0
    3.5527    3.3077   -4.1279 C   0  0  0  0  0  0  0  0  0  0  0  0
    3.8407    4.3691   -4.0597 H   0  0  0  0  0  0  0  0  0  0  0  0
    4.5024    2.7495   -4.1526 H   0  0  0  0  0  0  0  0  0  0  0  0
    3.1208    3.1887   -5.1345 H   0  0  0  0  0  0  0  0  0  0  0  0
    1.3174    3.0407   -3.2467 N   0  0  0  0  0  0  0  0  0  0  0  0
    0.2944    2.6927   -2.2960 C   0  0  2  0  0  0  0  0  0  0  0  0
    0.2976    1.1783   -2.1349 C   0  0  0  0  0  0  0  0  0  0  0  0
    0.7500    0.4142   -2.9850 O   0  0  0  0  0  0  0  0  0  0  0  0
   -1.0710    3.1886   -2.7460 C   0  0  0  0  0  0  0  0  0  0  0  0
    1.0312    3.4224   -4.1464 H   0  0  0  0  0  0  0  0  0  0  0  0
    0.5725    3.1622   -1.3461 H   0  0  0  0  0  0  0  0  0  0  0  0
   -1.3666    2.7292   -3.6963 H   0  0  0  0  0  0  0  0  0  0  0  0
   -1.8434    2.9482   -2.0082 H   0  0  0  0  0  0  0  0  0  0  0  0
   -1.0632    4.2744   -2.8901 H   0  0  0  0  0  0  0  0  0  0  0  0
   -0.3037    0.7742   -0.9484 N   0  0  0  0  0  0  0  0  0  0  0  0
   -0.4352   -0.6095   -0.5718 C   0  0  2  0  0  0  0  0  0  0  0  0
   -0.1756   -1.4797   -1.7972 C   0  0  0  0  0  0  0  0  0  0  0  0
   -1.0739   -2.0292   -2.4316 O   0  0  0  0  0  0  0  0  0  0  0  0
   -1.7889   -0.8979    0.0879 C   0  0  0  0  0  0  0  0  0  0  0  0
   -1.9667   -0.2436    1.4642 C   0  0  0  0  0  0  0  0  0  0  0  0
   -3.3272   -0.5943    2.0712 C   0  0  0  0  0  0  0  0  0  0  0  0
   -3.5100    0.0760    3.4248 C   0  0  0  0  0  0  0  0  0  0  0  0
   -4.8475   -0.2714    3.9623 N   0  3  0  0  0  0  0  0  0  0  0  0
   -0.6336    1.4811   -0.2948 H   0  0  0  0  0  0  0  0  0  0  0  0
    0.3643   -0.8000    0.1543 H   0  0  0  0  0  0  0  0  0  0  0  0
   -2.5884   -0.5459   -0.5770 H   0  0  0  0  0  0  0  0  0  0  0  0
   -1.9205   -1.9821    0.1915 H   0  0  0  0  0  0  0  0  0  0  0  0
   -1.1733   -0.5777    2.1429 H   0  0  0  0  0  0  0  0  0  0  0  0
   -1.8813    0.8457    1.3754 H   0  0  0  0  0  0  0  0  0  0  0  0
   -3.4108   -1.6827    2.1811 H   0  0  0  0  0  0  0  0  0  0  0  0
   -4.1262   -0.2780    1.3890 H   0  0  0  0  0  0  0  0  0  0  0  0
   -2.7741   -0.2704    4.1566 H   0  0  0  0  0  0  0  0  0  0  0  0
   -3.4711    1.1668    3.3509 H   0  0  0  0  0  0  0  0  0  0  0  0
   -5.1392    0.3976    4.6833 H   0  0  0  0  0  0  0  0  0  0  0  0
   -4.8422   -1.2069    4.3838 H   0  0  0  0  0  0  0  0  0  0  0  0
   -5.5555   -0.2638    3.2198 H   0  0  0  0  0  0  0  0  0  0  0  0
    1.1722   -1.5450   -2.1199 N   0  0  0  0  0  0  0  0  0  0  0  0
    1.6564   -2.2976   -3.2526 C   0  0  2  0  0  0  0  0  0  0  0  0
    3.1691   -2.4192   -3.1246 C   0  0  0  0  0  0  0  0  0  0  0  0
    3.8507   -1.6415   -2.4599 O   0  0  0  0  0  0  0  0  0  0  0  0
    1.2738   -1.6306   -4.5646 C   0  0  0  0  0  0  0  0  0  0  0  0
    1.8406   -1.0466   -1.5399 H   0  0  0  0  0  0  0  0  0  0  0  0
    1.2027   -3.2927   -3.1884 H   0  0  0  0  0  0  0  0  0  0  0  0
    1.7191   -0.6324   -4.6469 H   0  0  0  0  0  0  0  0  0  0  0  0
    1.6170   -2.2174   -5.4230 H   0  0  0  0  0  0  0  0  0  0  0  0
    0.1870   -1.5170   -4.6417 H   0  0  0  0  0  0  0  0  0  0  0  0
    3.6734   -3.4724   -3.8746 N   0  0  0  0  0  0  0  0  0  0  0  0
    5.0820   -3.7869   -3.9285 C   0  0  0  0  0  0  0  0  0  0  0  0
    3.0330   -4.0773   -4.3803 H   0  0  0  0  0  0  0  0  0  0  0  0
    5.5411   -3.2700   -4.7841 H   0  0  0  0  0  0  0  0  0  0  0  0
    5.5670   -3.4573   -2.9979 H   0  0  0  0  0  0  0  0  0  0  0  0
    5.2109   -4.8732   -4.0443 H   0  0  0  0  0  0  0  0  0  0  0  0
  1  3  1  0  0  0  0
  1  7  1  0  0  0  0
  1  2  2  0  0  0  0
 40 41  1  0  0  0  0
 41 49  1  0  0  0  0
 41 42  2  0  0  0  0
  8  9  1  0  0  0  0
  9 17  1  0  0  0  0
  9 10  2  0  0  0  0
 18 19  1  0  0  0  0
 19 39  1  0  0  0  0
 19 20  2  0  0  0  0
 40 43  1  0  0  0  0
  8 11  1  0  0  0  0
 49 50  1  0  0  0  0
 22 23  1  0  0  0  0
 21 22  1  0  0  0  0
 23 24  1  0  0  0  0
 18 21  1  0  0  0  0
 24 25  1  0  0  0  0
 39 40  1  0  0  0  0
  7  8  1  0  0  0  0
 17 18  1  0  0  0  0
  3  4  1  0  0  0  0
  3  5  1  0  0  0  0
  3  6  1  0  0  0  0
 43 46  1  0  0  0  0
 43 47  1  0  0  0  0
 43 48  1  0  0  0  0
 11 14  1  0  0  0  0
 11 15  1  0  0  0  0
 11 16  1  0  0  0  0
 50 52  1  0  0  0  0
 50 53  1  0  0  0  0
 50 54  1  0  0  0  0
 22 30  1  0  0  0  0
 22 31  1  0  0  0  0
 23 32  1  0  0  0  0
 23 33  1  0  0  0  0
 21 28  1  0  0  0  0
 21 29  1  0  0  0  0
 24 34  1  0  0  0  0
 24 35  1  0  0  0  0
 40 45  1  0  0  0  0
  8 13  1  0  0  0  0
 18 27  1  0  0  0  0
 49 51  1  0  0  0  0
  7 12  1  0  0  0  0
 39 44  1  0  0  0  0
 17 26  1  0  0  0  0
 25 36  1  0  0  0  0
 25 37  1  0  0  0  0
 25 38  1  0  0  0  0
M  CHG  1  25   1
M  END
$$$$

  -OEChem-05262214473D

 54 53  0     1  0  0  0  0  0999 V2000
    2.6714    2.8829   -3.0005 C   0  0  0  0  0  0  0  0  0  0  0  0
    3.1741    2.4398   -1.9745 O   0  0  0  0  0  0  0  0  0  0  0  0
    3.5527    3.3077   -4.1279 C   0  0  0  0  0  0  0  0  0  0  0  0
    3.8407    4.3691   -4.0597 H   0  0  0  0  0  0  0  0  0  0  0  0
    4.5024    2.7495   -4.1526 H   0  0  0  0  0  0  0  0  0  0  0  0
    3.1208    3.1887   -5.1345 H   0  0  0  0  0  0  0  0  0  0  0  0
    1.3174    3.0407   -3.2467 N   0  0  0  0  0  0  0  0  0  0  0  0
    0.2944    2.6927   -2.2960 C   0  0  2  0  0  0  0  0  0  0  0  0
    0.2976    1.1783   -2.1349 C   0  0  0  0  0  0  0  0  0  0  0  0
    0.7500    0.4142   -2.9850 O   0  0  0  0  0  0  0  0  0  0  0  0
   -1.0710    3.1886   -2.7460 C   0  0  0  0  0  0  0  0  0  0  0  0
    1.0312    3.4224   -4.1464 H   0  0  0  0  0  0  0  0  0  0  0  0
    0.5725    3.1622   -1.3461 H   0  0  0  0  0  0  0  0  0  0  0  0
   -1.3666    2.7292   -3.6963 H   0  0  0  0  0  0  0  0  0  0  0  0
   -1.8434    2.9482   -2.0082 H   0  0  0  0  0  0  0  0  0  0  0  0
   -1.0632    4.2744   -2.8901 H   0  0  0  0  0  0  0  0  0  0  0  0
   -0.3037    0.7742   -0.9484 N   0  0  0  0  0  0  0  0  0  0  0  0
   -0.4352   -0.6095   -0.5718 C   0  0  2  0  0  0  0  0  0  0  0  0
   -0.1756   -1.4797   -1.7972 C   0  0  0  0  0  0  0  0  0  0  0  0
   -1.0600   -1.8088   -2.5852 O   0  0  0  0  0  0  0  0  0  0  0  0
   -1.7889   -0.8979    0.0879 C   0  0  0  0  0  0  0  0  0  0  0  0
   -1.9667   -0.2436    1.4642 C   0  0  0  0  0  0  0  0  0  0  0  0
   -3.3272   -0.5943    2.0712 C   0  0  0  0  0  0  0  0  0  0  0  0
   -3.5100    0.0760    3.4248 C   0  0  0  0  0  0  0  0  0  0  0  0
   -4.8475   -0.2714    3.9623 N   0  3  0  0  0  0  0  0  0  0  0  0
   -0.6336    1.4811   -0.2948 H   0  0  0  0  0  0  0  0  0  0  0  0
    0.3643   -0.8000    0.1543 H   0  0  0  0  0  0  0  0  0  0  0  0
   -2.5884   -0.5459   -0.5770 H   0  0  0  0  0  0  0  0  0  0  0  0
   -1.9205   -1.9821    0.1915 H   0  0  0  0  0  0  0  0  0  0  0  0
   -1.1733   -0.5777    2.1429 H   0  0  0  0  0  0  0  0  0  0  0  0
   -1.8813    0.8457    1.3754 H   0  0  0  0  0  0  0  0  0  0  0  0
   -3.4108   -1.6827    2.1811 H   0  0  0  0  0  0  0  0  0  0  0  0
   -4.1262   -0.2780    1.3890 H   0  0  0  0  0  0  0  0  0  0  0  0
   -2.7741   -0.2704    4.1566 H   0  0  0  0  0  0  0  0  0  0  0  0
   -3.4711    1.1668    3.3509 H   0  0  0  0  0  0  0  0  0  0  0  0
   -5.1392    0.3976    4.6833 H   0  0  0  0  0  0  0  0  0  0  0  0
   -4.8422   -1.2069    4.3838 H   0  0  0  0  0  0  0  0  0  0  0  0
   -5.5555   -0.2638    3.2198 H   0  0  0  0  0  0  0  0  0  0  0  0
    1.1634   -1.8191   -1.9272 N   0  0  0  0  0  0  0  0  0  0  0  0
    1.6501   -2.6244   -3.0218 C   0  0  2  0  0  0  0  0  0  0  0  0
    3.0684   -3.0664   -2.6862 C   0  0  0  0  0  0  0  0  0  0  0  0
    3.7853   -2.4694   -1.8857 O   0  0  0  0  0  0  0  0  0  0  0  0
    1.6165   -1.8545   -4.3329 C   0  0  0  0  0  0  0  0  0  0  0  0
    1.8233   -1.4898   -1.2288 H   0  0  0  0  0  0  0  0  0  0  0  0
    0.9981   -3.5026   -3.0827 H   0  0  0  0  0  0  0  0  0  0  0  0
    2.2639   -0.9710   -4.2910 H   0  0  0  0  0  0  0  0  0  0  0  0
    1.9591   -2.4760   -5.1668 H   0  0  0  0  0  0  0  0  0  0  0  0
    0.6007   -1.5119   -4.5577 H   0  0  0  0  0  0  0  0  0  0  0  0
    3.4548   -4.1806   -3.4180 N   0  0  0  0  0  0  0  0  0  0  0  0
    4.7606   -4.7839   -3.2886 C   0  0  0  0  0  0  0  0  0  0  0  0
    2.7888   -4.6220   -4.0452 H   0  0  0  0  0  0  0  0  0  0  0  0
    5.4407   -4.3515   -4.0373 H   0  0  0  0  0  0  0  0  0  0  0  0
    5.1553   -4.5907   -2.2801 H   0  0  0  0  0  0  0  0  0  0  0  0
    4.6806   -5.8691   -3.4494 H   0  0  0  0  0  0  0  0  0  0  0  0
  1  3  1  0  0  0  0
  1  7  1  0  0  0  0
  1  2  2  0  0  0  0
 40 41  1  0  0  0  0
 41 49  1  0  0  0  0
 41 42  2  0  0  0  0
  8  9  1  0  0  0  0
  9 17  1  0  0  0  0
  9 10  2  0  0  0  0
 18 19  1  0  0  0  0
 19 39  1  0  0  0  0
 19 20  2  0  0  0  0
 40 43  1  0  0  0  0
  8 11  1  0  0  0  0
 49 50  1  0  0  0  0
 22 23  1  0  0  0  0
 21 22  1  0  0  0  0
 23 24  1  0  0  0  0
 18 21  1  0  0  0  0
 24 25  1  0  0  0  0
 39 40  1  0  0  0  0
  7  8  1  0  0  0  0
 17 18  1  0  0  0  0
  3  4  1  0  0  0  0
  3  5  1  0  0  0  0
  3  6  1  0  0  0  0
 43 46  1  0  0  0  0
 43 47  1  0  0  0  0
 43 48  1  0  0  0  0
 11 14  1  0  0  0  0
 11 15  1  0  0  0  0
 11 16  1  0  0  0  0
 50 52  1  0  0  0  0
 50 53  1  0  0  0  0
 50 54  1  0  0  0  0
 22 30  1  0  0  0  0
 22 31  1  0  0  0  0
 23 32  1  0  0  0  0
 23 33  1  0  0  0  0
 21 28  1  0  0  0  0
 21 29  1  0  0  0  0
 24 34  1  0  0  0  0
 24 35  1  0  0  0  0
 40 45  1  0  0  0  0
  8 13  1  0  0  0  0
 18 27  1  0  0  0  0
 49 51  1  0  0  0  0
  7 12  1  0  0  0  0
 39 44  1  0  0  0  0
 17 26  1  0  0  0  0
 25 36  1  0  0  0  0
 25 37  1  0  0  0  0
 25 38  1  0  0  0  0
M  CHG  1  25   1
M  END
$$$$

  -OEChem-05262214473D

 54 53  0     1  0  0  0  0  0999 V2000
    2.6714    2.8829   -3.0005 C   0  0  0  0  0  0  0  0  0  0  0  0
    3.1741    2.4398   -1.9745 O   0  0  0  0  0  0  0  0  0  0  0  0
    3.5527    3.3077   -4.1279 C   0  0  0  0  0  0  0  0  0  0  0  0
    3.8407    4.3691   -4.0597 H   0  0  0  0  0  0  0  0  0  0  0  0
    4.5024    2.7495   -4.1526 H   0  0  0  0  0  0  0  0  0  0  0  0
    3.1208    3.1887   -5.1345 H   0  0  0  0  0  0  0  0  0  0  0  0
    1.3174    3.0407   -3.2467 N   0  0  0  0  0  0  0  0  0  0  0  0
    0.2944    2.6927   -2.2960 C   0  0  2  0  0  0  0  0  0  0  0  0
    0.2976    1.1783   -2.1349 C   0  0  0  0  0  0  0  0  0  0  0  0
    0.7500    0.4142   -2.9850 O   0  0  0  0  0  0  0  0  0  0  0  0
   -1.0710    3.1886   -2.7460 C   0  0  0  0  0  0  0  0  0  0  0  0
    1.0312    3.4224   -4.1464 H   0  0  0  0  0  0  0  0  0  0  0  0
    0.5725    3.1622   -1.3461 H   0  0  0  0  0  0  0  0  0  0  0  0
   -1.3666    2.7292   -3.6963 H   0  0  0  0  0  0  0  0  0  0  0  0
   -1.8434    2.9482   -2.0082 H   0  0  0  0  0  0  0  0  0  0  0  0
   -1.0632    4.2744   -2.8901 H   0  0  0  0  0  0  0  0  0  0  0  0
   -0.3037    0.7742   -0.9484 N   0  0  0  0  0  0  0  0  0  0  0  0
   -0.4352   -0.6095   -0.5718 C   0  0  2  0  0  0  0  0  0  0  0  0
   -0.1756   -1.4797   -1.7972 C   0  0  0  0  0  0  0  0  0  0  0  0
   -0.9780   -1.5919   -2.7218 O   0  0  0  0  0  0  0  0  0  0  0  0
   -1.7889   -0.8979    0.0879 C   0  0  0  0  0  0  0  0  0  0  0  0
   -1.9667   -0.2436    1.4642 C   0  0  0  0  0  0  0  0  0  0  0  0
   -3.3272   -0.5943    2.0712 C   0  0  0  0  0  0  0  0  0  0  0  0
   -3.5100    0.0760    3.4248 C   0  0  0  0  0  0  0  0  0  0  0  0
   -4.8475   -0.2714    3.9623 N   0  3  0  0  0  0  0  0  0  0  0  0
   -0.6336    1.4811   -0.2948 H   0  0  0  0  0  0  0  0  0  0  0  0
    0.3643   -0.8000    0.1543 H   0  0  0  0  0  0  0  0  0  0  0  0
   -2.5884   -0.5459   -0.5770 H   0  0  0  0  0  0  0  0  0  0  0  0
   -1.9205   -1.9821    0.1915 H   0  0  0  0  0  0  0  0  0  0  0  0
   -1.1733   -0.5777    2.1429 H   0  0  0  0  0  0  0  0  0  0  0  0
   -1.8813    0.8457    1.3754 H   0  0  0  0  0  0  0  0  0  0  0  0
   -3.4108   -1.6827    2.1811 H   0  0  0  0  0  0  0  0  0  0  0  0
   -4.1262   -0.2780    1.3890 H   0  0  0  0  0  0  0  0  0  0  0  0
   -2.7741   -0.2704    4.1566 H   0  0  0  0  0  0  0  0  0  0  0  0
   -3.4711    1.1668    3.3509 H   0  0  0  0  0  0  0  0  0  0  0  0
   -5.1392    0.3976    4.6833 H   0  0  0  0  0  0  0  0  0  0  0  0
   -4.8422   -1.2069    4.3838 H   0  0  0  0  0  0  0  0  0  0  0  0
   -5.5555   -0.2638    3.2198 H   0  0  0  0  0  0  0  0  0  0  0  0
    1.0695   -2.0904   -1.7544 N   0  0  0  0  0  0  0  0  0  0  0  0
    1.5421   -2.9490   -2.8142 C   0  0  2  0  0  0  0  0  0  0  0  0
    2.7719   -3.6899   -2.3062 C   0  0  0  0  0  0  0  0  0  0  0  0
    3.4653   -3.2809   -1.3773 O   0  0  0  0  0  0  0  0  0  0  0  0
    1.8668   -2.1524   -4.0683 C   0  0  0  0  0  0  0  0  0  0  0  0
    1.6685   -1.9280   -0.9504 H   0  0  0  0  0  0  0  0  0  0  0  0
    0.7412   -3.6675   -3.0200 H   0  0  0  0  0  0  0  0  0  0  0  0
    2.6672   -1.4271   -3.8816 H   0  0  0  0  0  0  0  0  0  0  0  0
    2.1979   -2.8082   -4.8803 H   0  0  0  0  0  0  0  0  0  0  0  0
    0.9890   -1.5966   -4.4152 H   0  0  0  0  0  0  0  0  0  0  0  0
    3.0289   -4.8393   -3.0404 N   0  0  0  0  0  0  0  0  0  0  0  0
    4.1484   -5.7082   -2.7618 C   0  0  0  0  0  0  0  0  0  0  0  0
    2.3903   -5.1120   -3.7816 H   0  0  0  0  0  0  0  0  0  0  0  0
    5.0085   -5.4082   -3.3784 H   0  0  0  0  0  0  0  0  0  0  0  0
    4.4159   -5.6316   -1.6975 H   0  0  0  0  0  0  0  0  0  0  0  0
    3.8735   -6.7471   -2.9968 H   0  0  0  0  0  0  0  0  0  0  0  0
  1  3  1  0  0  0  0
  1  7  1  0  0  0  0
  1  2  2  0  0  0  0
 40 41  1  0  0  0  0
 41 49  1  0  0  0  0
 41 42  2  0  0  0  0
  8  9  1  0  0  0  0
  9 17  1  0  0  0  0
  9 10  2  0  0  0  0
 18 19  1  0  0  0  0
 19 39  1  0  0  0  0
 19 20  2  0  0  0  0
 40 43  1  0  0  0  0
  8 11  1  0  0  0  0
 49 50  1  0  0  0  0
 22 23  1  0  0  0  0
 21 22  1  0  0  0  0
 23 24  1  0  0  0  0
 18 21  1  0  0  0  0
 24 25  1  0  0  0  0
 39 40  1  0  0  0  0
  7  8  1  0  0  0  0
 17 18  1  0  0  0  0
  3  4  1  0  0  0  0
  3  5  1  0  0  0  0
  3  6  1  0  0  0  0
 43 46  1  0  0  0  0
 43 47  1  0  0  0  0
 43 48  1  0  0  0  0
 11 14  1  0  0  0  0
 11 15  1  0  0  0  0
 11 16  1  0  0  0  0
 50 52  1  0  0  0  0
 50 53  1  0  0  0  0
 50 54  1  0  0  0  0
 22 30  1  0  0  0  0
 22 31  1  0  0  0  0
 23 32  1  0  0  0  0
 23 33  1  0  0  0  0
 21 28  1  0  0  0  0
 21 29  1  0  0  0  0
 24 34  1  0  0  0  0
 24 35  1  0  0  0  0
 40 45  1  0  0  0  0
  8 13  1  0  0  0  0
 18 27  1  0  0  0  0
 49 51  1  0  0  0  0
  7 12  1  0  0  0  0
 39 44  1  0  0  0  0
 17 26  1  0  0  0  0
 25 36  1  0  0  0  0
 25 37  1  0  0  0  0
 25 38  1  0  0  0  0
M  CHG  1  25   1
M  END
$$$$

  -OEChem-05262214473D

 54 53  0     1  0  0  0  0  0999 V2000
    2.6714    2.8829   -3.0005 C   0  0  0  0  0  0  0  0  0  0  0  0
    3.1741    2.4398   -1.9745 O   0  0  0  0  0  0  0  0  0  0  0  0
    3.5527    3.3077   -4.1279 C   0  0  0  0  0  0  0  0  0  0  0  0
    3.8407    4.3691   -4.0597 H   0  0  0  0  0  0  0  0  0  0  0  0
    4.5024    2.7495   -4.1526 H   0  0  0  0  0  0  0  0  0  0  0  0
    3.1208    3.1887   -5.1345 H   0  0  0  0  0  0  0  0  0  0  0  0
    1.3174    3.0407   -3.2467 N   0  0  0  0  0  0  0  0  0  0  0  0
    0.2944    2.6927   -2.2960 C   0  0  2  0  0  0  0  0  0  0  0  0
    0.2976    1.1783   -2.1349 C   0  0  0  0  0  0  0  0  0  0  0  0
    0.7500    0.4142   -2.9850 O   0  0  0  0  0  0  0  0  0  0  0  0
   -1.0710    3.1886   -2.7460 C   0  0  0  0  0  0  0  0  0  0  0  0
    1.0312    3.4224   -4.1464 H   0  0  0  0  0  0  0  0  0  0  0  0
    0.5725    3.1622   -1.3461 H   0  0  0  0  0  0  0  0  0  0  0  0
   -1.3666    2.7292   -3.6963 H   0  0  0  0  0  0  0  0  0  0  0  0
   -1.8434    2.9482   -2.0082 H   0  0  0  0  0  0  0  0  0  0  0  0
   -1.0632    4.2744   -2.8901 H   0  0  0  0  0  0  0  0  0  0  0  0
   -0.3037    0.7742   -0.9484 N   0  0  0  0  0  0  0  0  0  0  0  0
   -0.4352   -0.6095   -0.5718 C   0  0  2  0  0  0  0  0  0  0  0  0
   -0.1756   -1.4797   -1.7972 C   0  0  0  0  0  0  0  0  0  0  0  0
   -0.8336   -1.3936   -2.8321 O   0  0  0  0  0  0  0  0  0  0  0  0
   -1.7889   -0.8979    0.0879 C   0  0  0  0  0  0  0  0  0  0  0  0
   -1.9667   -0.2436    1.4642 C   0  0  0  0  0  0  0  0  0  0  0  0
   -3.3272   -0.5943    2.0712 C   0  0  0  0  0  0  0  0  0  0  0  0
   -3.5100    0.0760    3.4248 C   0  0  0  0  0  0  0  0  0  0  0  0
   -4.8475   -0.2714    3.9623 N   0  3  0  0  0  0  0  0  0  0  0  0
   -0.6336    1.4811   -0.2948 H   0  0  0  0  0  0  0  0  0  0  0  0
    0.3643   -0.8000    0.1543 H   0  0  0  0  0  0  0  0  0  0  0  0
   -2.5884   -0.5459   -0.5770 H   0  0  0  0  0  0  0  0  0  0  0  0
   -1.9205   -1.9821    0.1915 H   0  0  0  0  0  0  0  0  0  0  0  0
   -1.1733   -0.5777    2.1429 H   0  0  0  0  0  0  0  0  0  0  0  0
   -1.8813    0.8457    1.3754 H   0  0  0  0  0  0  0  0  0  0  0  0
   -3.4108   -1.6827    2.1811 H   0  0  0  0  0  0  0  0  0  0  0  0
   -4.1262   -0.2780    1.3890 H   0  0  0  0  0  0  0  0  0  0  0  0
   -2.7741   -0.2704    4.1566 H   0  0  0  0  0  0  0  0  0  0  0  0
   -3.4711    1.1668    3.3509 H   0  0  0  0  0  0  0  0  0  0  0  0
   -5.1392    0.3976    4.6833 H   0  0  0  0  0  0  0  0  0  0  0  0
   -4.8422   -1.2069    4.3838 H   0  0  0  0  0  0  0  0  0  0  0  0
   -5.5555   -0.2638    3.2198 H   0  0  0  0  0  0  0  0  0  0  0  0
    0.8968   -2.3406   -1.6133 N   0  0  0  0  0  0  0  0  0  0  0  0
    1.3395   -3.2491   -2.6440 C   0  0  2  0  0  0  0  0  0  0  0  0
    2.2997   -4.2472   -2.0105 C   0  0  0  0  0  0  0  0  0  0  0  0
    2.9123   -4.0205   -0.9691 O   0  0  0  0  0  0  0  0  0  0  0  0
    2.0076   -2.5038   -3.7889 C   0  0  0  0  0  0  0  0  0  0  0  0
    1.3868   -2.3313   -0.7236 H   0  0  0  0  0  0  0  0  0  0  0  0
    0.4495   -3.7761   -3.0047 H   0  0  0  0  0  0  0  0  0  0  0  0
    2.9015   -1.9696   -3.4467 H   0  0  0  0  0  0  0  0  0  0  0  0
    2.3172   -3.1913   -4.5829 H   0  0  0  0  0  0  0  0  0  0  0  0
    1.3254   -1.7654   -4.2240 H   0  0  0  0  0  0  0  0  0  0  0  0
    2.4249   -5.4036   -2.7676 N   0  0  0  0  0  0  0  0  0  0  0  0
    3.2871   -6.4970   -2.3841 C   0  0  0  0  0  0  0  0  0  0  0  0
    1.8645   -5.5141   -3.6075 H   0  0  0  0  0  0  0  0  0  0  0  0
    4.2740   -6.3681   -2.8523 H   0  0  0  0  0  0  0  0  0  0  0  0
    3.3993   -6.5090   -1.2899 H   0  0  0  0  0  0  0  0  0  0  0  0
    2.8445   -7.4472   -2.7176 H   0  0  0  0  0  0  0  0  0  0  0  0
  1  3  1  0  0  0  0
  1  7  1  0  0  0  0
  1  2  2  0  0  0  0
 40 41  1  0  0  0  0
 41 49  1  0  0  0  0
 41 42  2  0  0  0  0
  8  9  1  0  0  0  0
  9 17  1  0  0  0  0
  9 10  2  0  0  0  0
 18 19  1  0  0  0  0
 19 39  1  0  0  0  0
 19 20  2  0  0  0  0
 40 43  1  0  0  0  0
  8 11  1  0  0  0  0
 49 50  1  0  0  0  0
 22 23  1  0  0  0  0
 21 22  1  0  0  0  0
 23 24  1  0  0  0  0
 18 21  1  0  0  0  0
 24 25  1  0  0  0  0
 39 40  1  0  0  0  0
  7  8  1  0  0  0  0
 17 18  1  0  0  0  0
  3  4  1  0  0  0  0
  3  5  1  0  0  0  0
  3  6  1  0  0  0  0
 43 46  1  0  0  0  0
 43 47  1  0  0  0  0
 43 48  1  0  0  0  0
 11 14  1  0  0  0  0
 11 15  1  0  0  0  0
 11 16  1  0  0  0  0
 50 52  1  0  0  0  0
 50 53  1  0  0  0  0
 50 54  1  0  0  0  0
 22 30  1  0  0  0  0
 22 31  1  0  0  0  0
 23 32  1  0  0  0  0
 23 33  1  0  0  0  0
 21 28  1  0  0  0  0
 21 29  1  0  0  0  0
 24 34  1  0  0  0  0
 24 35  1  0  0  0  0
 40 45  1  0  0  0  0
  8 13  1  0  0  0  0
 18 27  1  0  0  0  0
 49 51  1  0  0  0  0
  7 12  1  0  0  0  0
 39 44  1  0  0  0  0
 17 26  1  0  0  0  0
 25 36  1  0  0  0  0
 25 37  1  0  0  0  0
 25 38  1  0  0  0  0
M  CHG  1  25   1
M  END
$$$$

  -OEChem-05262214473D

 54 53  0     1  0  0  0  0  0999 V2000
    2.6714    2.8829   -3.0005 C   0  0  0  0  0  0  0  0  0  0  0  0
    3.1741    2.4398   -1.9745 O   0  0  0  0  0  0  0  0  0  0  0  0
    3.5527    3.3077   -4.1279 C   0  0  0  0  0  0  0  0  0  0  0  0
    3.8407    4.3691   -4.0597 H   0  0  0  0  0  0  0  0  0  0  0  0
    4.5024    2.7495   -4.1526 H   0  0  0  0  0  0  0  0  0  0  0  0
    3.1208    3.1887   -5.1345 H   0  0  0  0  0  0  0  0  0  0  0  0
    1.3174    3.0407   -3.2467 N   0  0  0  0  0  0  0  0  0  0  0  0
    0.2944    2.6927   -2.2960 C   0  0  2  0  0  0  0  0  0  0  0  0
    0.2976    1.1783   -2.1349 C   0  0  0  0  0  0  0  0  0  0  0  0
    0.7500    0.4142   -2.9850 O   0  0  0  0  0  0  0  0  0  0  0  0
   -1.0710    3.1886   -2.7460 C   0  0  0  0  0  0  0  0  0  0  0  0
    1.0312    3.4224   -4.1464 H   0  0  0  0  0  0  0  0  0  0  0  0
    0.5725    3.1622   -1.3461 H   0  0  0  0  0  0  0  0  0  0  0  0
   -1.3666    2.7292   -3.6963 H   0  0  0  0  0  0  0  0  0  0  0  0
   -1.8434    2.9482   -2.0082 H   0  0  0  0  0  0  0  0  0  0  0  0
   -1.0632    4.2744   -2.8901 H   0  0  0  0  0  0  0  0  0  0  0  0
   -0.3037    0.7742   -0.9484 N   0  0  0  0  0  0  0  0  0  0  0  0
   -0.4352   -0.6095   -0.5718 C   0  0  2  0  0  0  0  0  0  0  0  0
   -0.1756   -1.4797   -1.7972 C   0  0  0  0  0  0  0  0  0  0  0  0
   -0.6365   -1.2271   -2.9086 O   0  0  0  0  0  0  0  0  0  0  0  0
   -1.7889   -0.8979    0.0879 C   0  0  0  0  0  0  0  0  0  0  0  0
   -1.9667   -0.2436    1.4642 C   0  0  0  0  0  0  0  0  0  0  0  0
   -3.3272   -0.5943    2.0712 C   0  0  0  0  0  0  0  0  0  0  0  0
   -3.5100    0.0760    3.4248 C   0  0  0  0  0  0  0  0  0  0  0  0
   -4.8475   -0.2714    3.9623 N   0  3  0  0  0  0  0  0  0  0  0  0
   -0.6336    1.4811   -0.2948 H   0  0  0  0  0  0  0  0  0  0  0  0
    0.3643   -0.8000    0.1543 H   0  0  0  0  0  0  0  0  0  0  0  0
   -2.5884   -0.5459   -0.5770 H   0  0  0  0  0  0  0  0  0  0  0  0
   -1.9205   -1.9821    0.1915 H   0  0  0  0  0  0  0  0  0  0  0  0
   -1.1733   -0.5777    2.1429 H   0  0  0  0  0  0  0  0  0  0  0  0
   -1.8813    0.8457    1.3754 H   0  0  0  0  0  0  0  0  0  0  0  0
   -3.4108   -1.6827    2.1811 H   0  0  0  0  0  0  0  0  0  0  0  0
   -4.1262   -0.2780    1.3890 H   0  0  0  0  0  0  0  0  0  0  0  0
   -2.7741   -0.2704    4.1566 H   0  0  0  0  0  0  0  0  0  0  0  0
   -3.4711    1.1668    3.3509 H   0  0  0  0  0  0  0  0  0  0  0  0
   -5.1392    0.3976    4.6833 H   0  0  0  0  0  0  0  0  0  0  0  0
   -4.8422   -1.2069    4.3838 H   0  0  0  0  0  0  0  0  0  0  0  0
   -5.5555   -0.2638    3.2198 H   0  0  0  0  0  0  0  0  0  0  0  0
    0.6572   -2.5526   -1.5135 N   0  0  0  0  0  0  0  0  0  0  0  0
    1.0564   -3.5044   -2.5227 C   0  0  2  0  0  0  0  0  0  0  0  0
    1.6840   -4.7004   -1.8191 C   0  0  0  0  0  0  0  0  0  0  0  0
    2.1641   -4.6380   -0.6891 O   0  0  0  0  0  0  0  0  0  0  0  0
    2.0293   -2.8847   -3.5137 C   0  0  0  0  0  0  0  0  0  0  0  0
    0.9973   -2.6723   -0.5640 H   0  0  0  0  0  0  0  0  0  0  0  0
    0.1429   -3.8210   -3.0378 H   0  0  0  0  0  0  0  0  0  0  0  0
    2.9507   -2.5614   -3.0159 H   0  0  0  0  0  0  0  0  0  0  0  0
    2.3089   -3.5994   -4.2948 H   0  0  0  0  0  0  0  0  0  0  0  0
    1.5870   -2.0069   -3.9971 H   0  0  0  0  0  0  0  0  0  0  0  0
    1.6837   -5.8352   -2.6181 N   0  0  0  0  0  0  0  0  0  0  0  0
    2.2353   -7.0965   -2.1812 C   0  0  0  0  0  0  0  0  0  0  0  0
    1.2472   -5.8008   -3.5346 H   0  0  0  0  0  0  0  0  0  0  0  0
    3.2873   -7.1657   -2.4950 H   0  0  0  0  0  0  0  0  0  0  0  0
    2.1746   -7.1630   -1.0849 H   0  0  0  0  0  0  0  0  0  0  0  0
    1.6637   -7.9219   -2.6308 H   0  0  0  0  0  0  0  0  0  0  0  0
  1  3  1  0  0  0  0
  1  7  1  0  0  0  0
  1  2  2  0  0  0  0
 40 41  1  0  0  0  0
 41 49  1  0  0  0  0
 41 42  2  0  0  0  0
  8  9  1  0  0  0  0
  9 17  1  0  0  0  0
  9 10  2  0  0  0  0
 18 19  1  0  0  0  0
 19 39  1  0  0  0  0
 19 20  2  0  0  0  0
 40 43  1  0  0  0  0
  8 11  1  0  0  0  0
 49 50  1  0  0  0  0
 22 23  1  0  0  0  0
 21 22  1  0  0  0  0
 23 24  1  0  0  0  0
 18 21  1  0  0  0  0
 24 25  1  0  0  0  0
 39 40  1  0  0  0  0
  7  8  1  0  0  0  0
 17 18  1  0  0  0  0
  3  4  1  0  0  0  0
  3  5  1  0  0  0  0
  3  6  1  0  0  0  0
 43 46  1  0  0  0  0
 43 47  1  0  0  0  0
 43 48  1  0  0  0  0
 11 14  1  0  0  0  0
 11 15  1  0  0  0  0
 11 16  1  0  0  0  0
 50 52  1  0  0  0  0
 50 53  1  0  0  0  0
 50 54  1  0  0  0  0
 22 30  1  0  0  0  0
 22 31  1  0  0  0  0
 23 32  1  0  0  0  0
 23 33  1  0  0  0  0
 21 28  1  0  0  0  0
 21 29  1  0  0  0  0
 24 34  1  0  0  0  0
 24 35  1  0  0  0  0
 40 45  1  0  0  0  0
  8 13  1  0  0  0  0
 18 27  1  0  0  0  0
 49 51  1  0  0  0  0
  7 12  1  0  0  0  0
 39 44  1  0  0  0  0
 17 26  1  0  0  0  0
 25 36  1  0  0  0  0
 25 37  1  0  0  0  0
 25 38  1  0  0  0  0
M  CHG  1  25   1
M  END
$$$$

  -OEChem-05262214473D

 54 53  0     1  0  0  0  0  0999 V2000
    2.6714    2.8829   -3.0005 C   0  0  0  0  0  0  0  0  0  0  0  0
    3.1741    2.4398   -1.9745 O   0  0  0  0  0  0  0  0  0  0  0  0
    3.5527    3.3077   -4.1279 C   0  0  0  0  0  0  0  0  0  0  0  0
    3.8407    4.3691   -4.0597 H   0  0  0  0  0  0  0  0  0  0  0  0
    4.5024    2.7495   -4.1526 H   0  0  0  0  0  0  0  0  0  0  0  0
    3.1208    3.1887   -5.1345 H   0  0  0  0  0  0  0  0  0  0  0  0
    1.3174    3.0407   -3.2467 N   0  0  0  0  0  0  0  0  0  0  0  0
    0.2944    2.6927   -2.2960 C   0  0  2  0  0  0  0  0  0  0  0  0
    0.2976    1.1783   -2.1349 C   0  0  0  0  0  0  0  0  0  0  0  0
    0.7500    0.4142   -2.9850 O   0  0  0  0  0  0  0  0  0  0  0  0
   -1.0710    3.1886   -2.7460 C   0  0  0  0  0  0  0  0  0  0  0  0
    1.0312    3.4224   -4.1464 H   0  0  0  0  0  0  0  0  0  0  0  0
    0.5725    3.1622   -1.3461 H   0  0  0  0  0  0  0  0  0  0  0  0
   -1.3666    2.7292   -3.6963 H   0  0  0  0  0  0  0  0  0  0  0  0
   -1.8434    2.9482   -2.0082 H   0  0  0  0  0  0  0  0  0  0  0  0
   -1.0632    4.2744   -2.8901 H   0  0  0  0  0  0  0  0  0  0  0  0
   -0.3037    0.7742   -0.9484 N   0  0  0  0  0  0  0  0  0  0  0  0
   -0.4352   -0.6095   -0.5718 C   0  0  2  0  0  0  0  0  0  0  0  0
   -0.1756   -1.4797   -1.7972 C   0  0  0  0  0  0  0  0  0  0  0  0
   -0.4002   -1.1039   -2.9460 O   0  0  0  0  0  0  0  0  0  0  0  0
   -1.7889   -0.8979    0.0879 C   0  0  0  0  0  0  0  0  0  0  0  0
   -1.9667   -0.2436    1.4642 C   0  0  0  0  0  0  0  0  0  0  0  0
   -3.3272   -0.5943    2.0712 C   0  0  0  0  0  0  0  0  0  0  0  0
   -3.5100    0.0760    3.4248 C   0  0  0  0  0  0  0  0  0  0  0  0
   -4.8475   -0.2714    3.9623 N   0  3  0  0  0  0  0  0  0  0  0  0
   -0.6336    1.4811   -0.2948 H   0  0  0  0  0  0  0  0  0  0  0  0
    0.3643   -0.8000    0.1543 H   0  0  0  0  0  0  0  0  0  0  0  0
   -2.5884   -0.5459   -0.5770 H   0  0  0  0  0  0  0  0  0  0  0  0
   -1.9205   -1.9821    0.1915 H   0  0  0  0  0  0  0  0  0  0  0  0
   -1.1733   -0.5777    2.1429 H   0  0  0  0  0  0  0  0  0  0  0  0
   -1.8813    0.8457    1.3754 H   0  0  0  0  0  0  0  0  0  0  0  0
   -3.4108   -1.6827    2.1811 H   0  0  0  0  0  0  0  0  0  0  0  0
   -4.1262   -0.2780    1.3890 H   0  0  0  0  0  0  0  0  0  0  0  0
   -2.7741   -0.2704    4.1566 H   0  0  0  0  0  0  0  0  0  0  0  0
   -3.4711    1.1668    3.3509 H   0  0  0  0  0  0  0  0  0  0  0  0
   -5.1392    0.3976    4.6833 H   0  0  0  0  0  0  0  0  0  0  0  0
   -4.8422   -1.2069    4.3838 H   0  0  0  0  0  0  0  0  0  0  0  0
   -5.5555   -0.2638    3.2198 H   0  0  0  0  0  0  0  0  0  0  0  0
    0.3669   -2.7119   -1.4618 N   0  0  0  0  0  0  0  0  0  0  0  0
    0.7118   -3.6975   -2.4585 C   0  0  2  0  0  0  0  0  0  0  0  0
    0.9668   -5.0186   -1.7451 C   0  0  0  0  0  0  0  0  0  0  0  0
    1.2716   -5.0911   -0.5564 O   0  0  0  0  0  0  0  0  0  0  0  0
    1.9303   -3.2694   -3.2615 C   0  0  0  0  0  0  0  0  0  0  0  0
    0.5266   -2.9277   -0.4823 H   0  0  0  0  0  0  0  0  0  0  0  0
   -0.1577   -3.7992   -3.1170 H   0  0  0  0  0  0  0  0  0  0  0  0
    2.8116   -3.1623   -2.6186 H   0  0  0  0  0  0  0  0  0  0  0  0
    2.1735   -4.0044   -4.0358 H   0  0  0  0  0  0  0  0  0  0  0  0
    1.7559   -2.3046   -3.7499 H   0  0  0  0  0  0  0  0  0  0  0  0
    0.8561   -6.1045   -2.6022 N   0  0  0  0  0  0  0  0  0  0  0  0
    1.0647   -7.4658   -2.1670 C   0  0  0  0  0  0  0  0  0  0  0  0
    0.5807   -5.9527   -3.5681 H   0  0  0  0  0  0  0  0  0  0  0  0
    2.1156   -7.7466   -2.3307 H   0  0  0  0  0  0  0  0  0  0  0  0
    0.8254   -7.5491   -1.0966 H   0  0  0  0  0  0  0  0  0  0  0  0
    0.4116   -8.1386   -2.7421 H   0  0  0  0  0  0  0  0  0  0  0  0
  1  3  1  0  0  0  0
  1  7  1  0  0  0  0
  1  2  2  0  0  0  0
 40 41  1  0  0  0  0
 41 49  1  0  0  0  0
 41 42  2  0  0  0  0
  8  9  1  0  0  0  0
  9 17  1  0  0  0  0
  9 10  2  0  0  0  0
 18 19  1  0  0  0  0
 19 39  1  0  0  0  0
 19 20  2  0  0  0  0
 40 43  1  0  0  0  0
  8 11  1  0  0  0  0
 49 50  1  0  0  0  0
 22 23  1  0  0  0  0
 21 22  1  0  0  0  0
 23 24  1  0  0  0  0
 18 21  1  0  0  0  0
 24 25  1  0  0  0  0
 39 40  1  0  0  0  0
  7  8  1  0  0  0  0
 17 18  1  0  0  0  0
  3  4  1  0  0  0  0
  3  5  1  0  0  0  0
  3  6  1  0  0  0  0
 43 46  1  0  0  0  0
 43 47  1  0  0  0  0
 43 48  1  0  0  0  0
 11 14  1  0  0  0  0
 11 15  1  0  0  0  0
 11 16  1  0  0  0  0
 50 52  1  0  0  0  0
 50 53  1  0  0  0  0
 50 54  1  0  0  0  0
 22 30  1  0  0  0  0
 22 31  1  0  0  0  0
 23 32  1  0  0  0  0
 23 33  1  0  0  0  0
 21 28  1  0  0  0  0
 21 29  1  0  0  0  0
 24 34  1  0  0  0  0
 24 35  1  0  0  0  0
 40 45  1  0  0  0  0
  8 13  1  0  0  0  0
 18 27  1  0  0  0  0
 49 51  1  0  0  0  0
  7 12  1  0  0  0  0
 39 44  1  0  0  0  0
 17 26  1  0  0  0  0
 25 36  1  0  0  0  0
 25 37  1  0  0  0  0
 25 38  1  0  0  0  0
M  CHG  1  25   1
M  END
$$$$

  -OEChem-05262214473D

 54 53  0     1  0  0  0  0  0999 V2000
    2.6714    2.8829   -3.0005 C   0  0  0  0  0  0  0  0  0  0  0  0
    3.1741    2.4398   -1.9745 O   0  0  0  0  0  0  0  0  0  0  0  0
    3.5527    3.3077   -4.1279 C   0  0  0  0  0  0  0  0  0  0  0  0
    3.8407    4.3691   -4.0597 H   0  0  0  0  0  0  0  0  0  0  0  0
    4.5024    2.7495   -4.1526 H   0  0  0  0  0  0  0  0  0  0  0  0
    3.1208    3.1887   -5.1345 H   0  0  0  0  0  0  0  0  0  0  0  0
    1.3174    3.0407   -3.2467 N   0  0  0  0  0  0  0  0  0  0  0  0
    0.2944    2.6927   -2.2960 C   0  0  2  0  0  0  0  0  0  0  0  0
    0.2976    1.1783   -2.1349 C   0  0  0  0  0  0  0  0  0  0  0  0
    0.7500    0.4142   -2.9850 O   0  0  0  0  0  0  0  0  0  0  0  0
   -1.0710    3.1886   -2.7460 C   0  0  0  0  0  0  0  0  0  0  0  0
    1.0312    3.4224   -4.1464 H   0  0  0  0  0  0  0  0  0  0  0  0
    0.5725    3.1622   -1.3461 H   0  0  0  0  0  0  0  0  0  0  0  0
   -1.3666    2.7292   -3.6963 H   0  0  0  0  0  0  0  0  0  0  0  0
   -1.8434    2.9482   -2.0082 H   0  0  0  0  0  0  0  0  0  0  0  0
   -1.0632    4.2744   -2.8901 H   0  0  0  0  0  0  0  0  0  0  0  0
   -0.3037    0.7742   -0.9484 N   0  0  0  0  0  0  0  0  0  0  0  0
   -0.4352   -0.6095   -0.5718 C   0  0  2  0  0  0  0  0  0  0  0  0
   -0.1756   -1.4797   -1.7972 C   0  0  0  0  0  0  0  0  0  0  0  0
   -0.1409   -1.0324   -2.9418 O   0  0  0  0  0  0  0  0  0  0  0  0
   -1.7889   -0.8979    0.0879 C   0  0  0  0  0  0  0  0  0  0  0  0
   -1.9667   -0.2436    1.4642 C   0  0  0  0  0  0  0  0  0  0  0  0
   -3.3272   -0.5943    2.0712 C   0  0  0  0  0  0  0  0  0  0  0  0
   -3.5100    0.0760    3.4248 C   0  0  0  0  0  0  0  0  0  0  0  0
   -4.8475   -0.2714    3.9623 N   0  3  0  0  0  0  0  0  0  0  0  0
   -0.6336    1.4811   -0.2948 H   0  0  0  0  0  0  0  0  0  0  0  0
    0.3643   -0.8000    0.1543 H   0  0  0  0  0  0  0  0  0  0  0  0
   -2.5884   -0.5459   -0.5770 H   0  0  0  0  0  0  0  0  0  0  0  0
   -1.9205   -1.9821    0.1915 H   0  0  0  0  0  0  0  0  0  0  0  0
   -1.1733   -0.5777    2.1429 H   0  0  0  0  0  0  0  0  0  0  0  0
   -1.8813    0.8457    1.3754 H   0  0  0  0  0  0  0  0  0  0  0  0
   -3.4108   -1.6827    2.1811 H   0  0  0  0  0  0  0  0  0  0  0  0
   -4.1262   -0.2780    1.3890 H   0  0  0  0  0  0  0  0  0  0  0  0
   -2.7741   -0.2704    4.1566 H   0  0  0  0  0  0  0  0  0  0  0  0
   -3.4711    1.1668    3.3509 H   0  0  0  0  0  0  0  0  0  0  0  0
   -5.1392    0.3976    4.6833 H   0  0  0  0  0  0  0  0  0  0  0  0
   -4.8422   -1.2069    4.3838 H   0  0  0  0  0  0  0  0  0  0  0  0
   -5.5555   -0.2638    3.2198 H   0  0  0  0  0  0  0  0  0  0  0  0
    0.0457   -2.8077   -1.4619 N   0  0  0  0  0  0  0  0  0  0  0  0
    0.3294   -3.8152   -2.4560 C   0  0  2  0  0  0  0  0  0  0  0  0
    0.1969   -5.1801   -1.7935 C   0  0  0  0  0  0  0  0  0  0  0  0
    0.2958   -5.3491   -0.5800 O   0  0  0  0  0  0  0  0  0  0  0  0
    1.7175   -3.6315   -3.0494 C   0  0  0  0  0  0  0  0  0  0  0  0
    0.0068   -3.0802   -0.4842 H   0  0  0  0  0  0  0  0  0  0  0  0
   -0.4319   -3.7121   -3.2369 H   0  0  0  0  0  0  0  0  0  0  0  0
    2.4937   -3.7313   -2.2819 H   0  0  0  0  0  0  0  0  0  0  0  0
    1.9202   -4.3789   -3.8235 H   0  0  0  0  0  0  0  0  0  0  0  0
    1.8207   -2.6381   -3.4993 H   0  0  0  0  0  0  0  0  0  0  0  0
   -0.0017   -6.1933   -2.7210 N   0  0  0  0  0  0  0  0  0  0  0  0
   -0.1449   -7.5797   -2.3424 C   0  0  0  0  0  0  0  0  0  0  0  0
   -0.0898   -5.9592   -3.7055 H   0  0  0  0  0  0  0  0  0  0  0  0
    0.8387   -8.0714   -2.3706 H   0  0  0  0  0  0  0  0  0  0  0  0
   -0.5563   -7.6410   -1.3241 H   0  0  0  0  0  0  0  0  0  0  0  0
   -0.8264   -8.0828   -3.0442 H   0  0  0  0  0  0  0  0  0  0  0  0
  1  3  1  0  0  0  0
  1  7  1  0  0  0  0
  1  2  2  0  0  0  0
 40 41  1  0  0  0  0
 41 49  1  0  0  0  0
 41 42  2  0  0  0  0
  8  9  1  0  0  0  0
  9 17  1  0  0  0  0
  9 10  2  0  0  0  0
 18 19  1  0  0  0  0
 19 39  1  0  0  0  0
 19 20  2  0  0  0  0
 40 43  1  0  0  0  0
  8 11  1  0  0  0  0
 49 50  1  0  0  0  0
 22 23  1  0  0  0  0
 21 22  1  0  0  0  0
 23 24  1  0  0  0  0
 18 21  1  0  0  0  0
 24 25  1  0  0  0  0
 39 40  1  0  0  0  0
  7  8  1  0  0  0  0
 17 18  1  0  0  0  0
  3  4  1  0  0  0  0
  3  5  1  0  0  0  0
  3  6  1  0  0  0  0
 43 46  1  0  0  0  0
 43 47  1  0  0  0  0
 43 48  1  0  0  0  0
 11 14  1  0  0  0  0
 11 15  1  0  0  0  0
 11 16  1  0  0  0  0
 50 52  1  0  0  0  0
 50 53  1  0  0  0  0
 50 54  1  0  0  0  0
 22 30  1  0  0  0  0
 22 31  1  0  0  0  0
 23 32  1  0  0  0  0
 23 33  1  0  0  0  0
 21 28  1  0  0  0  0
 21 29  1  0  0  0  0
 24 34  1  0  0  0  0
 24 35  1  0  0  0  0
 40 45  1  0  0  0  0
  8 13  1  0  0  0  0
 18 27  1  0  0  0  0
 49 51  1  0  0  0  0
  7 12  1  0  0  0  0
 39 44  1  0  0  0  0
 17 26  1  0  0  0  0
 25 36  1  0  0  0  0
 25 37  1  0  0  0  0
 25 38  1  0  0  0  0
M  CHG  1  25   1
M  END
$$$$

  -OEChem-05262214473D

 54 53  0     1  0  0  0  0  0999 V2000
    2.6714    2.8829   -3.0005 C   0  0  0  0  0  0  0  0  0  0  0  0
    3.1741    2.4398   -1.9745 O   0  0  0  0  0  0  0  0  0  0  0  0
    3.5527    3.3077   -4.1279 C   0  0  0  0  0  0  0  0  0  0  0  0
    3.8407    4.3691   -4.0597 H   0  0  0  0  0  0  0  0  0  0  0  0
    4.5024    2.7495   -4.1526 H   0  0  0  0  0  0  0  0  0  0  0  0
    3.1208    3.1887   -5.1345 H   0  0  0  0  0  0  0  0  0  0  0  0
    1.3174    3.0407   -3.2467 N   0  0  0  0  0  0  0  0  0  0  0  0
    0.2944    2.6927   -2.2960 C   0  0  2  0  0  0  0  0  0  0  0  0
    0.2976    1.1783   -2.1349 C   0  0  0  0  0  0  0  0  0  0  0  0
    0.7500    0.4142   -2.9850 O   0  0  0  0  0  0  0  0  0  0  0  0
   -1.0710    3.1886   -2.7460 C   0  0  0  0  0  0  0  0  0  0  0  0
    1.0312    3.4224   -4.1464 H   0  0  0  0  0  0  0  0  0  0  0  0
    0.5725    3.1622   -1.3461 H   0  0  0  0  0  0  0  0  0  0  0  0
   -1.3666    2.7292   -3.6963 H   0  0  0  0  0  0  0  0  0  0  0  0
   -1.8434    2.9482   -2.0082 H   0  0  0  0  0  0  0  0  0  0  0  0
   -1.0632    4.2744   -2.8901 H   0  0  0  0  0  0  0  0  0  0  0  0
   -0.3037    0.7742   -0.9484 N   0  0  0  0  0  0  0  0  0  0  0  0
   -0.4352   -0.6095   -0.5718 C   0  0  2  0  0  0  0  0  0  0  0  0
    0.1777   -1.4776   -1.6659 C   0  0  0  0  0  0  0  0  0  0  0  0
    0.7113   -1.0120   -2.6708 O   0  0  0  0  0  0  0  0  0  0  0  0
   -1.8891   -0.9829   -0.2593 C   0  0  0  0  0  0  0  0  0  0  0  0
   -2.4466   -0.3221    1.0082 C   0  0  0  0  0  0  0  0  0  0  0  0
   -3.8899   -0.7588    1.2699 C   0  0  0  0  0  0  0  0  0  0  0  0
   -4.4477   -0.0828    2.5137 C   0  0  0  0  0  0  0  0  0  0  0  0
   -5.8516   -0.5157    2.7138 N   0  3  0  0  0  0  0  0  0  0  0  0
   -0.6336    1.4811   -0.2948 H   0  0  0  0  0  0  0  0  0  0  0  0
    0.1684   -0.7321    0.3355 H   0  0  0  0  0  0  0  0  0  0  0  0
   -2.5184   -0.6983   -1.1126 H   0  0  0  0  0  0  0  0  0  0  0  0
   -1.9720   -2.0720   -0.1567 H   0  0  0  0  0  0  0  0  0  0  0  0
   -1.8278   -0.5890    1.8727 H   0  0  0  0  0  0  0  0  0  0  0  0
   -2.4124    0.7691    0.9082 H   0  0  0  0  0  0  0  0  0  0  0  0
   -3.9277   -1.8486    1.3906 H   0  0  0  0  0  0  0  0  0  0  0  0
   -4.5121   -0.5102    0.4012 H   0  0  0  0  0  0  0  0  0  0  0  0
   -3.8968   -0.3652    3.4158 H   0  0  0  0  0  0  0  0  0  0  0  0
   -4.4622    1.0068    2.4167 H   0  0  0  0  0  0  0  0  0  0  0  0
   -6.3566    0.1418    3.3180 H   0  0  0  0  0  0  0  0  0  0  0  0
   -5.8911   -1.4420    3.1533 H   0  0  0  0  0  0  0  0  0  0  0  0
   -6.3509   -0.5693    1.8191 H   0  0  0  0  0  0  0  0  0  0  0  0
    0.0893   -2.8312   -1.3746 N   0  0  0  0  0  0  0  0  0  0  0  0
    0.6172   -3.8441   -2.2573 C   0  0  2  0  0  0  0  0  0  0  0  0
    0.0734   -5.1926   -1.8042 C   0  0  0  0  0  0  0  0  0  0  0  0
   -0.3322   -5.4032   -0.6631 O   0  0  0  0  0  0  0  0  0  0  0  0
    2.1379   -3.8425   -2.2546 C   0  0  0  0  0  0  0  0  0  0  0  0
   -0.3619   -3.1191   -0.5114 H   0  0  0  0  0  0  0  0  0  0  0  0
    0.2410   -3.6164   -3.2607 H   0  0  0  0  0  0  0  0  0  0  0  0
    2.5332   -4.0687   -1.2576 H   0  0  0  0  0  0  0  0  0  0  0  0
    2.5367   -4.5920   -2.9461 H   0  0  0  0  0  0  0  0  0  0  0  0
    2.5272   -2.8628   -2.5520 H   0  0  0  0  0  0  0  0  0  0  0  0
    0.1344   -6.1451   -2.8118 N   0  0  0  0  0  0  0  0  0  0  0  0
   -0.3103   -7.5066   -2.6255 C   0  0  0  0  0  0  0  0  0  0  0  0
    0.4678   -5.8773   -3.7331 H   0  0  0  0  0  0  0  0  0  0  0  0
    0.5391   -8.1305   -2.3107 H   0  0  0  0  0  0  0  0  0  0  0  0
   -1.0920   -7.5342   -1.8521 H   0  0  0  0  0  0  0  0  0  0  0  0
   -0.7172   -7.8920   -3.5721 H   0  0  0  0  0  0  0  0  0  0  0  0
  1  3  1  0  0  0  0
  1  7  1  0  0  0  0
  1  2  2  0  0  0  0
 40 41  1  0  0  0  0
 41 49  1  0  0  0  0
 41 42  2  0  0  0  0
  8  9  1  0  0  0  0
  9 17  1  0  0  0  0
  9 10  2  0  0  0  0
 18 19  1  0  0  0  0
 19 39  1  0  0  0  0
 19 20  2  0  0  0  0
 40 43  1  0  0  0  0
  8 11  1  0  0  0  0
 49 50  1  0  0  0  0
 22 23  1  0  0  0  0
 21 22  1  0  0  0  0
 23 24  1  0  0  0  0
 18 21  1  0  0  0  0
 24 25  1  0  0  0  0
 39 40  1  0  0  0  0
  7  8  1  0  0  0  0
 17 18  1  0  0  0  0
  3  4  1  0  0  0  0
  3  5  1  0  0  0  0
  3  6  1  0  0  0  0
 43 46  1  0  0  0  0
 43 47  1  0  0  0  0
 43 48  1  0  0  0  0
 11 14  1  0  0  0  0
 11 15  1  0  0  0  0
 11 16  1  0  0  0  0
 50 52  1  0  0  0  0
 50 53  1  0  0  0  0
 50 54  1  0  0  0  0
 22 30  1  0  0  0  0
 22 31  1  0  0  0  0
 23 32  1  0  0  0  0
 23 33  1  0  0  0  0
 21 28  1  0  0  0  0
 21 29  1  0  0  0  0
 24 34  1  0  0  0  0
 24 35  1  0  0  0  0
 40 45  1  0  0  0  0
  8 13  1  0  0  0  0
 18 27  1  0  0  0  0
 49 51  1  0  0  0  0
  7 12  1  0  0  0  0
 39 44  1  0  0  0  0
 17 26  1  0  0  0  0
 25 36  1  0  0  0  0
 25 37  1  0  0  0  0
 25 38  1  0  0  0  0
M  CHG  1  25   1
M  END
$$$$

  -OEChem-05262214473D

 54 53  0     1  0  0  0  0  0999 V2000
    2.6714    2.8829   -3.0005 C   0  0  0  0  0  0  0  0  0  0  0  0
    3.1741    2.4398   -1.9745 O   0  0  0  0  0  0  0  0  0  0  0  0
    3.5527    3.3077   -4.1279 C   0  0  0  0  0  0  0  0  0  0  0  0
    3.8407    4.3691   -4.0597 H   0  0  0  0  0  0  0  0  0  0  0  0
    4.5024    2.7495   -4.1526 H   0  0  0  0  0  0  0  0  0  0  0  0
    3.1208    3.1887   -5.1345 H   0  0  0  0  0  0  0  0  0  0  0  0
    1.3174    3.0407   -3.2467 N   0  0  0  0  0  0  0  0  0  0  0  0
    0.2944    2.6927   -2.2960 C   0  0  2  0  0  0  0  0  0  0  0  0
    0.2976    1.1783   -2.1349 C   0  0  0  0  0  0  0  0  0  0  0  0
    0.7500    0.4142   -2.9850 O   0  0  0  0  0  0  0  0  0  0  0  0
   -1.0710    3.1886   -2.7460 C   0  0  0  0  0  0  0  0  0  0  0  0
    1.0312    3.4224   -4.1464 H   0  0  0  0  0  0  0  0  0  0  0  0
    0.5725    3.1622   -1.3461 H   0  0  0  0  0  0  0  0  0  0  0  0
   -1.3666    2.7292   -3.6963 H   0  0  0  0  0  0  0  0  0  0  0  0
   -1.8434    2.9482   -2.0082 H   0  0  0  0  0  0  0  0  0  0  0  0
   -1.0632    4.2744   -2.8901 H   0  0  0  0  0  0  0  0  0  0  0  0
   -0.3037    0.7742   -0.9484 N   0  0  0  0  0  0  0  0  0  0  0  0
   -0.4352   -0.6095   -0.5718 C   0  0  2  0  0  0  0  0  0  0  0  0
    0.1777   -1.4776   -1.6659 C   0  0  0  0  0  0  0  0  0  0  0  0
    0.9368   -1.0354   -2.5259 O   0  0  0  0  0  0  0  0  0  0  0  0
   -1.8891   -0.9829   -0.2593 C   0  0  0  0  0  0  0  0  0  0  0  0
   -2.4466   -0.3221    1.0082 C   0  0  0  0  0  0  0  0  0  0  0  0
   -3.8899   -0.7588    1.2699 C   0  0  0  0  0  0  0  0  0  0  0  0
   -4.4477   -0.0828    2.5137 C   0  0  0  0  0  0  0  0  0  0  0  0
   -5.8516   -0.5157    2.7138 N   0  3  0  0  0  0  0  0  0  0  0  0
   -0.6336    1.4811   -0.2948 H   0  0  0  0  0  0  0  0  0  0  0  0
    0.1684   -0.7321    0.3355 H   0  0  0  0  0  0  0  0  0  0  0  0
   -2.5184   -0.6983   -1.1126 H   0  0  0  0  0  0  0  0  0  0  0  0
   -1.9720   -2.0720   -0.1567 H   0  0  0  0  0  0  0  0  0  0  0  0
   -1.8278   -0.5890    1.8727 H   0  0  0  0  0  0  0  0  0  0  0  0
   -2.4124    0.7691    0.9082 H   0  0  0  0  0  0  0  0  0  0  0  0
   -3.9277   -1.8486    1.3906 H   0  0  0  0  0  0  0  0  0  0  0  0
   -4.5121   -0.5102    0.4012 H   0  0  0  0  0  0  0  0  0  0  0  0
   -3.8968   -0.3652    3.4158 H   0  0  0  0  0  0  0  0  0  0  0  0
   -4.4622    1.0068    2.4167 H   0  0  0  0  0  0  0  0  0  0  0  0
   -6.3566    0.1418    3.3180 H   0  0  0  0  0  0  0  0  0  0  0  0
   -5.8911   -1.4420    3.1533 H   0  0  0  0  0  0  0  0  0  0  0  0
   -6.3509   -0.5693    1.8191 H   0  0  0  0  0  0  0  0  0  0  0  0
   -0.1947   -2.8092   -1.5512 N   0  0  0  0  0  0  0  0  0  0  0  0
    0.2766   -3.8213   -2.4662 C   0  0  2  0  0  0  0  0  0  0  0  0
   -0.5626   -5.0744   -2.2544 C   0  0  0  0  0  0  0  0  0  0  0  0
   -1.1734   -5.3045   -1.2127 O   0  0  0  0  0  0  0  0  0  0  0  0
    1.7538   -4.1142   -2.2542 C   0  0  0  0  0  0  0  0  0  0  0  0
   -0.8199   -3.0810   -0.7983 H   0  0  0  0  0  0  0  0  0  0  0  0
    0.1094   -3.4357   -3.4778 H   0  0  0  0  0  0  0  0  0  0  0  0
    1.9409   -4.5015   -1.2460 H   0  0  0  0  0  0  0  0  0  0  0  0
    2.1166   -4.8613   -2.9678 H   0  0  0  0  0  0  0  0  0  0  0  0
    2.3529   -3.2055   -2.3777 H   0  0  0  0  0  0  0  0  0  0  0  0
   -0.5144   -5.9260   -3.3492 N   0  0  0  0  0  0  0  0  0  0  0  0
   -1.2179   -7.1868   -3.3877 C   0  0  0  0  0  0  0  0  0  0  0  0
    0.0018   -5.6458   -4.1778 H   0  0  0  0  0  0  0  0  0  0  0  0
   -0.5532   -7.9891   -3.0348 H   0  0  0  0  0  0  0  0  0  0  0  0
   -2.1037   -7.1323   -2.7378 H   0  0  0  0  0  0  0  0  0  0  0  0
   -1.5330   -7.3994   -4.4200 H   0  0  0  0  0  0  0  0  0  0  0  0
  1  3  1  0  0  0  0
  1  7  1  0  0  0  0
  1  2  2  0  0  0  0
 40 41  1  0  0  0  0
 41 49  1  0  0  0  0
 41 42  2  0  0  0  0
  8  9  1  0  0  0  0
  9 17  1  0  0  0  0
  9 10  2  0  0  0  0
 18 19  1  0  0  0  0
 19 39  1  0  0  0  0
 19 20  2  0  0  0  0
 40 43  1  0  0  0  0
  8 11  1  0  0  0  0
 49 50  1  0  0  0  0
 22 23  1  0  0  0  0
 21 22  1  0  0  0  0
 23 24  1  0  0  0  0
 18 21  1  0  0  0  0
 24 25  1  0  0  0  0
 39 40  1  0  0  0  0
  7  8  1  0  0  0  0
 17 18  1  0  0  0  0
  3  4  1  0  0  0  0
  3  5  1  0  0  0  0
  3  6  1  0  0  0  0
 43 46  1  0  0  0  0
 43 47  1  0  0  0  0
 43 48  1  0  0  0  0
 11 14  1  0  0  0  0
 11 15  1  0  0  0  0
 11 16  1  0  0  0  0
 50 52  1  0  0  0  0
 50 53  1  0  0  0  0
 50 54  1  0  0  0  0
 22 30  1  0  0  0  0
 22 31  1  0  0  0  0
 23 32  1  0  0  0  0
 23 33  1  0  0  0  0
 21 28  1  0  0  0  0
 21 29  1  0  0  0  0
 24 34  1  0  0  0  0
 24 35  1  0  0  0  0
 40 45  1  0  0  0  0
  8 13  1  0  0  0  0
 18 27  1  0  0  0  0
 49 51  1  0  0  0  0
  7 12  1  0  0  0  0
 39 44  1  0  0  0  0
 17 26  1  0  0  0  0
 25 36  1  0  0  0  0
 25 37  1  0  0  0  0
 25 38  1  0  0  0  0
M  CHG  1  25   1
M  END
$$$$

  -OEChem-05262214473D

 54 53  0     1  0  0  0  0  0999 V2000
    2.6714    2.8829   -3.0005 C   0  0  0  0  0  0  0  0  0  0  0  0
    3.1741    2.4398   -1.9745 O   0  0  0  0  0  0  0  0  0  0  0  0
    3.5527    3.3077   -4.1279 C   0  0  0  0  0  0  0  0  0  0  0  0
    3.8407    4.3691   -4.0597 H   0  0  0  0  0  0  0  0  0  0  0  0
    4.5024    2.7495   -4.1526 H   0  0  0  0  0  0  0  0  0  0  0  0
    3.1208    3.1887   -5.1345 H   0  0  0  0  0  0  0  0  0  0  0  0
    1.3174    3.0407   -3.2467 N   0  0  0  0  0  0  0  0  0  0  0  0
    0.2944    2.6927   -2.2960 C   0  0  2  0  0  0  0  0  0  0  0  0
    0.2976    1.1783   -2.1349 C   0  0  0  0  0  0  0  0  0  0  0  0
    0.7500    0.4142   -2.9850 O   0  0  0  0  0  0  0  0  0  0  0  0
   -1.0710    3.1886   -2.7460 C   0  0  0  0  0  0  0  0  0  0  0  0
    1.0312    3.4224   -4.1464 H   0  0  0  0  0  0  0  0  0  0  0  0
    0.5725    3.1622   -1.3461 H   0  0  0  0  0  0  0  0  0  0  0  0
   -1.3666    2.7292   -3.6963 H   0  0  0  0  0  0  0  0  0  0  0  0
   -1.8434    2.9482   -2.0082 H   0  0  0  0  0  0  0  0  0  0  0  0
   -1.0632    4.2744   -2.8901 H   0  0  0  0  0  0  0  0  0  0  0  0
   -0.3037    0.7742   -0.9484 N   0  0  0  0  0  0  0  0  0  0  0  0
   -0.4352   -0.6095   -0.5718 C   0  0  2  0  0  0  0  0  0  0  0  0
    0.1777   -1.4776   -1.6659 C   0  0  0  0  0  0  0  0  0  0  0  0
    1.1289   -1.1149   -2.3551 O   0  0  0  0  0  0  0  0  0  0  0  0
   -1.8891   -0.9829   -0.2593 C   0  0  0  0  0  0  0  0  0  0  0  0
   -2.4466   -0.3221    1.0082 C   0  0  0  0  0  0  0  0  0  0  0  0
   -3.8899   -0.7588    1.2699 C   0  0  0  0  0  0  0  0  0  0  0  0
   -4.4477   -0.0828    2.5137 C   0  0  0  0  0  0  0  0  0  0  0  0
   -5.8516   -0.5157    2.7138 N   0  3  0  0  0  0  0  0  0  0  0  0
   -0.6336    1.4811   -0.2948 H   0  0  0  0  0  0  0  0  0  0  0  0
    0.1684   -0.7321    0.3355 H   0  0  0  0  0  0  0  0  0  0  0  0
   -2.5184   -0.6983   -1.1126 H   0  0  0  0  0  0  0  0  0  0  0  0
   -1.9720   -2.0720   -0.1567 H   0  0  0  0  0  0  0  0  0  0  0  0
   -1.8278   -0.5890    1.8727 H   0  0  0  0  0  0  0  0  0  0  0  0
   -2.4124    0.7691    0.9082 H   0  0  0  0  0  0  0  0  0  0  0  0
   -3.9277   -1.8486    1.3906 H   0  0  0  0  0  0  0  0  0  0  0  0
   -4.5121   -0.5102    0.4012 H   0  0  0  0  0  0  0  0  0  0  0  0
   -3.8968   -0.3652    3.4158 H   0  0  0  0  0  0  0  0  0  0  0  0
   -4.4622    1.0068    2.4167 H   0  0  0  0  0  0  0  0  0  0  0  0
   -6.3566    0.1418    3.3180 H   0  0  0  0  0  0  0  0  0  0  0  0
   -5.8911   -1.4420    3.1533 H   0  0  0  0  0  0  0  0  0  0  0  0
   -6.3509   -0.5693    1.8191 H   0  0  0  0  0  0  0  0  0  0  0  0
   -0.4389   -2.7168   -1.7613 N   0  0  0  0  0  0  0  0  0  0  0  0
   -0.0173   -3.7143   -2.7157 C   0  0  2  0  0  0  0  0  0  0  0  0
   -1.0887   -4.7953   -2.7706 C   0  0  0  0  0  0  0  0  0  0  0  0
   -1.8867   -4.9958   -1.8572 O   0  0  0  0  0  0  0  0  0  0  0  0
    1.3323   -4.3053   -2.3387 C   0  0  0  0  0  0  0  0  0  0  0  0
   -1.2129   -2.9292   -1.1389 H   0  0  0  0  0  0  0  0  0  0  0  0
    0.0478   -3.2141   -3.6881 H   0  0  0  0  0  0  0  0  0  0  0  0
    1.2867   -4.8107   -1.3671 H   0  0  0  0  0  0  0  0  0  0  0  0
    1.6639   -5.0411   -3.0787 H   0  0  0  0  0  0  0  0  0  0  0  0
    2.0953   -3.5224   -2.2706 H   0  0  0  0  0  0  0  0  0  0  0  0
   -1.0213   -5.5380   -3.9411 N   0  0  0  0  0  0  0  0  0  0  0  0
   -1.9229   -6.6302   -4.2243 C   0  0  0  0  0  0  0  0  0  0  0  0
   -0.3398   -5.2895   -4.6520 H   0  0  0  0  0  0  0  0  0  0  0  0
   -1.4753   -7.5744   -3.8805 H   0  0  0  0  0  0  0  0  0  0  0  0
   -2.8758   -6.4642   -3.7006 H   0  0  0  0  0  0  0  0  0  0  0  0
   -2.1046   -6.6839   -5.3079 H   0  0  0  0  0  0  0  0  0  0  0  0
  1  3  1  0  0  0  0
  1  7  1  0  0  0  0
  1  2  2  0  0  0  0
 40 41  1  0  0  0  0
 41 49  1  0  0  0  0
 41 42  2  0  0  0  0
  8  9  1  0  0  0  0
  9 17  1  0  0  0  0
  9 10  2  0  0  0  0
 18 19  1  0  0  0  0
 19 39  1  0  0  0  0
 19 20  2  0  0  0  0
 40 43  1  0  0  0  0
  8 11  1  0  0  0  0
 49 50  1  0  0  0  0
 22 23  1  0  0  0  0
 21 22  1  0  0  0  0
 23 24  1  0  0  0  0
 18 21  1  0  0  0  0
 24 25  1  0  0  0  0
 39 40  1  0  0  0  0
  7  8  1  0  0  0  0
 17 18  1  0  0  0  0
  3  4  1  0  0  0  0
  3  5  1  0  0  0  0
  3  6  1  0  0  0  0
 43 46  1  0  0  0  0
 43 47  1  0  0  0  0
 43 48  1  0  0  0  0
 11 14  1  0  0  0  0
 11 15  1  0  0  0  0
 11 16  1  0  0  0  0
 50 52  1  0  0  0  0
 50 53  1  0  0  0  0
 50 54  1  0  0  0  0
 22 30  1  0  0  0  0
 22 31  1  0  0  0  0
 23 32  1  0  0  0  0
 23 33  1  0  0  0  0
 21 28  1  0  0  0  0
 21 29  1  0  0  0  0
 24 34  1  0  0  0  0
 24 35  1  0  0  0  0
 40 45  1  0  0  0  0
  8 13  1  0  0  0  0
 18 27  1  0  0  0  0
 49 51  1  0  0  0  0
  7 12  1  0  0  0  0
 39 44  1  0  0  0  0
 17 26  1  0  0  0  0
 25 36  1  0  0  0  0
 25 37  1  0  0  0  0
 25 38  1  0  0  0  0
M  CHG  1  25   1
M  END
$$$$

  -OEChem-05262214473D

 54 53  0     1  0  0  0  0  0999 V2000
    2.6714    2.8829   -3.0005 C   0  0  0  0  0  0  0  0  0  0  0  0
    3.1741    2.4398   -1.9745 O   0  0  0  0  0  0  0  0  0  0  0  0
    3.5527    3.3077   -4.1279 C   0  0  0  0  0  0  0  0  0  0  0  0
    3.8407    4.3691   -4.0597 H   0  0  0  0  0  0  0  0  0  0  0  0
    4.5024    2.7495   -4.1526 H   0  0  0  0  0  0  0  0  0  0  0  0
    3.1208    3.1887   -5.1345 H   0  0  0  0  0  0  0  0  0  0  0  0
    1.3174    3.0407   -3.2467 N   0  0  0  0  0  0  0  0  0  0  0  0
    0.2944    2.6927   -2.2960 C   0  0  2  0  0  0  0  0  0  0  0  0
    0.2976    1.1783   -2.1349 C   0  0  0  0  0  0  0  0  0  0  0  0
    0.7500    0.4142   -2.9850 O   0  0  0  0  0  0  0  0  0  0  0  0
   -1.0710    3.1886   -2.7460 C   0  0  0  0  0  0  0  0  0  0  0  0
    1.0312    3.4224   -4.1464 H   0  0  0  0  0  0  0  0  0  0  0  0
    0.5725    3.1622   -1.3461 H   0  0  0  0  0  0  0  0  0  0  0  0
   -1.3666    2.7292   -3.6963 H   0  0  0  0  0  0  0  0  0  0  0  0
   -1.8434    2.9482   -2.0082 H   0  0  0  0  0  0  0  0  0  0  0  0
   -1.0632    4.2744   -2.8901 H   0  0  0  0  0  0  0  0  0  0  0  0
   -0.3037    0.7742   -0.9484 N   0  0  0  0  0  0  0  0  0  0  0  0
   -0.4352   -0.6095   -0.5718 C   0  0  2  0  0  0  0  0  0  0  0  0
    0.1777   -1.4776   -1.6659 C   0  0  0  0  0  0  0  0  0  0  0  0
    1.2746   -1.2452   -2.1702 O   0  0  0  0  0  0  0  0  0  0  0  0
   -1.8891   -0.9829   -0.2593 C   0  0  0  0  0  0  0  0  0  0  0  0
   -2.4466   -0.3221    1.0082 C   0  0  0  0  0  0  0  0  0  0  0  0
   -3.8899   -0.7588    1.2699 C   0  0  0  0  0  0  0  0  0  0  0  0
   -4.4477   -0.0828    2.5137 C   0  0  0  0  0  0  0  0  0  0  0  0
   -5.8516   -0.5157    2.7138 N   0  3  0  0  0  0  0  0  0  0  0  0
   -0.6336    1.4811   -0.2948 H   0  0  0  0  0  0  0  0  0  0  0  0
    0.1684   -0.7321    0.3355 H   0  0  0  0  0  0  0  0  0  0  0  0
   -2.5184   -0.6983   -1.1126 H   0  0  0  0  0  0  0  0  0  0  0  0
   -1.9720   -2.0720   -0.1567 H   0  0  0  0  0  0  0  0  0  0  0  0
   -1.8278   -0.5890    1.8727 H   0  0  0  0  0  0  0  0  0  0  0  0
   -2.4124    0.7691    0.9082 H   0  0  0  0  0  0  0  0  0  0  0  0
   -3.9277   -1.8486    1.3906 H   0  0  0  0  0  0  0  0  0  0  0  0
   -4.5121   -0.5102    0.4012 H   0  0  0  0  0  0  0  0  0  0  0  0
   -3.8968   -0.3652    3.4158 H   0  0  0  0  0  0  0  0  0  0  0  0
   -4.4622    1.0068    2.4167 H   0  0  0  0  0  0  0  0  0  0  0  0
   -6.3566    0.1418    3.3180 H   0  0  0  0  0  0  0  0  0  0  0  0
   -5.8911   -1.4420    3.1533 H   0  0  0  0  0  0  0  0  0  0  0  0
   -6.3509   -0.5693    1.8191 H   0  0  0  0  0  0  0  0  0  0  0  0
   -0.6267   -2.5604   -1.9907 N   0  0  0  0  0  0  0  0  0  0  0  0
   -0.2446   -3.5305   -2.9889 C   0  0  2  0  0  0  0  0  0  0  0  0
   -1.4690   -4.3744   -3.3176 C   0  0  0  0  0  0  0  0  0  0  0  0
   -2.4233   -4.4982   -2.5528 O   0  0  0  0  0  0  0  0  0  0  0  0
    0.9021   -4.4029   -2.5023 C   0  0  0  0  0  0  0  0  0  0  0  0
   -1.5141   -2.6743   -1.5100 H   0  0  0  0  0  0  0  0  0  0  0  0
    0.0604   -2.9668   -3.8773 H   0  0  0  0  0  0  0  0  0  0  0  0
    0.6153   -4.9754   -1.6126 H   0  0  0  0  0  0  0  0  0  0  0  0
    1.2097   -5.1192   -3.2712 H   0  0  0  0  0  0  0  0  0  0  0  0
    1.7718   -3.7918   -2.2380 H   0  0  0  0  0  0  0  0  0  0  0  0
   -1.3517   -5.0075   -4.5471 N   0  0  0  0  0  0  0  0  0  0  0  0
   -2.3773   -5.8747   -5.0784 C   0  0  0  0  0  0  0  0  0  0  0  0
   -0.5337   -4.8325   -5.1232 H   0  0  0  0  0  0  0  0  0  0  0  0
   -2.1645   -6.9146   -4.7901 H   0  0  0  0  0  0  0  0  0  0  0  0
   -3.3558   -5.5753   -4.6748 H   0  0  0  0  0  0  0  0  0  0  0  0
   -2.3930   -5.7943   -6.1754 H   0  0  0  0  0  0  0  0  0  0  0  0
  1  3  1  0  0  0  0
  1  7  1  0  0  0  0
  1  2  2  0  0  0  0
 40 41  1  0  0  0  0
 41 49  1  0  0  0  0
 41 42  2  0  0  0  0
  8  9  1  0  0  0  0
  9 17  1  0  0  0  0
  9 10  2  0  0  0  0
 18 19  1  0  0  0  0
 19 39  1  0  0  0  0
 19 20  2  0  0  0  0
 40 43  1  0  0  0  0
  8 11  1  0  0  0  0
 49 50  1  0  0  0  0
 22 23  1  0  0  0  0
 21 22  1  0  0  0  0
 23 24  1  0  0  0  0
 18 21  1  0  0  0  0
 24 25  1  0  0  0  0
 39 40  1  0  0  0  0
  7  8  1  0  0  0  0
 17 18  1  0  0  0  0
  3  4  1  0  0  0  0
  3  5  1  0  0  0  0
  3  6  1  0  0  0  0
 43 46  1  0  0  0  0
 43 47  1  0  0  0  0
 43 48  1  0  0  0  0
 11 14  1  0  0  0  0
 11 15  1  0  0  0  0
 11 16  1  0  0  0  0
 50 52  1  0  0  0  0
 50 53  1  0  0  0  0
 50 54  1  0  0  0  0
 22 30  1  0  0  0  0
 22 31  1  0  0  0  0
 23 32  1  0  0  0  0
 23 33  1  0  0  0  0
 21 28  1  0  0  0  0
 21 29  1  0  0  0  0
 24 34  1  0  0  0  0
 24 35  1  0  0  0  0
 40 45  1  0  0  0  0
  8 13  1  0  0  0  0
 18 27  1  0  0  0  0
 49 51  1  0  0  0  0
  7 12  1  0  0  0  0
 39 44  1  0  0  0  0
 17 26  1  0  0  0  0
 25 36  1  0  0  0  0
 25 37  1  0  0  0  0
 25 38  1  0  0  0  0
M  CHG  1  25   1
M  END
$$$$

  -OEChem-05262214473D

 54 53  0     1  0  0  0  0  0999 V2000
    2.6714    2.8829   -3.0005 C   0  0  0  0  0  0  0  0  0  0  0  0
    3.1741    2.4398   -1.9745 O   0  0  0  0  0  0  0  0  0  0  0  0
    3.5527    3.3077   -4.1279 C   0  0  0  0  0  0  0  0  0  0  0  0
    3.8407    4.3691   -4.0597 H   0  0  0  0  0  0  0  0  0  0  0  0
    4.5024    2.7495   -4.1526 H   0  0  0  0  0  0  0  0  0  0  0  0
    3.1208    3.1887   -5.1345 H   0  0  0  0  0  0  0  0  0  0  0  0
    1.3174    3.0407   -3.2467 N   0  0  0  0  0  0  0  0  0  0  0  0
    0.2944    2.6927   -2.2960 C   0  0  2  0  0  0  0  0  0  0  0  0
    0.2976    1.1783   -2.1349 C   0  0  0  0  0  0  0  0  0  0  0  0
    0.7500    0.4142   -2.9850 O   0  0  0  0  0  0  0  0  0  0  0  0
   -1.0710    3.1886   -2.7460 C   0  0  0  0  0  0  0  0  0  0  0  0
    1.0312    3.4224   -4.1464 H   0  0  0  0  0  0  0  0  0  0  0  0
    0.5725    3.1622   -1.3461 H   0  0  0  0  0  0  0  0  0  0  0  0
   -1.3666    2.7292   -3.6963 H   0  0  0  0  0  0  0  0  0  0  0  0
   -1.8434    2.9482   -2.0082 H   0  0  0  0  0  0  0  0  0  0  0  0
   -1.0632    4.2744   -2.8901 H   0  0  0  0  0  0  0  0  0  0  0  0
   -0.3037    0.7742   -0.9484 N   0  0  0  0  0  0  0  0  0  0  0  0
   -0.4352   -0.6095   -0.5718 C   0  0  2  0  0  0  0  0  0  0  0  0
    0.1777   -1.4776   -1.6659 C   0  0  0  0  0  0  0  0  0  0  0  0
    1.3638   -1.4173   -1.9836 O   0  0  0  0  0  0  0  0  0  0  0  0
   -1.8891   -0.9829   -0.2593 C   0  0  0  0  0  0  0  0  0  0  0  0
   -2.4466   -0.3221    1.0082 C   0  0  0  0  0  0  0  0  0  0  0  0
   -3.8899   -0.7588    1.2699 C   0  0  0  0  0  0  0  0  0  0  0  0
   -4.4477   -0.0828    2.5137 C   0  0  0  0  0  0  0  0  0  0  0  0
   -5.8516   -0.5157    2.7138 N   0  3  0  0  0  0  0  0  0  0  0  0
   -0.6336    1.4811   -0.2948 H   0  0  0  0  0  0  0  0  0  0  0  0
    0.1684   -0.7321    0.3355 H   0  0  0  0  0  0  0  0  0  0  0  0
   -2.5184   -0.6983   -1.1126 H   0  0  0  0  0  0  0  0  0  0  0  0
   -1.9720   -2.0720   -0.1567 H   0  0  0  0  0  0  0  0  0  0  0  0
   -1.8278   -0.5890    1.8727 H   0  0  0  0  0  0  0  0  0  0  0  0
   -2.4124    0.7691    0.9082 H   0  0  0  0  0  0  0  0  0  0  0  0
   -3.9277   -1.8486    1.3906 H   0  0  0  0  0  0  0  0  0  0  0  0
   -4.5121   -0.5102    0.4012 H   0  0  0  0  0  0  0  0  0  0  0  0
   -3.8968   -0.3652    3.4158 H   0  0  0  0  0  0  0  0  0  0  0  0
   -4.4622    1.0068    2.4167 H   0  0  0  0  0  0  0  0  0  0  0  0
   -6.3566    0.1418    3.3180 H   0  0  0  0  0  0  0  0  0  0  0  0
   -5.8911   -1.4420    3.1533 H   0  0  0  0  0  0  0  0  0  0  0  0
   -6.3509   -0.5693    1.8191 H   0  0  0  0  0  0  0  0  0  0  0  0
   -0.7453   -2.3506   -2.2236 N   0  0  0  0  0  0  0  0  0  0  0  0
   -0.3897   -3.2824   -3.2672 C   0  0  2  0  0  0  0  0  0  0  0  0
   -1.6776   -3.8403   -3.8583 C   0  0  0  0  0  0  0  0  0  0  0  0
   -2.7469   -3.8455   -3.2519 O   0  0  0  0  0  0  0  0  0  0  0  0
    0.4925   -4.4003   -2.7338 C   0  0  0  0  0  0  0  0  0  0  0  0
   -1.7031   -2.3335   -1.8863 H   0  0  0  0  0  0  0  0  0  0  0  0
    0.1464   -2.7106   -4.0325 H   0  0  0  0  0  0  0  0  0  0  0  0
   -0.0277   -4.9843   -1.9658 H   0  0  0  0  0  0  0  0  0  0  0  0
    0.7848   -5.0904   -3.5322 H   0  0  0  0  0  0  0  0  0  0  0  0
    1.4046   -3.9953   -2.2823 H   0  0  0  0  0  0  0  0  0  0  0  0
   -1.4831   -4.3708   -5.1260 N   0  0  0  0  0  0  0  0  0  0  0  0
   -2.5501   -4.9717   -5.8918 C   0  0  0  0  0  0  0  0  0  0  0  0
   -0.5668   -4.3061   -5.5595 H   0  0  0  0  0  0  0  0  0  0  0  0
   -2.5736   -6.0548   -5.7016 H   0  0  0  0  0  0  0  0  0  0  0  0
   -3.5108   -4.5263   -5.5940 H   0  0  0  0  0  0  0  0  0  0  0  0
   -2.3787   -4.7913   -6.9633 H   0  0  0  0  0  0  0  0  0  0  0  0
  1  3  1  0  0  0  0
  1  7  1  0  0  0  0
  1  2  2  0  0  0  0
 40 41  1  0  0  0  0
 41 49  1  0  0  0  0
 41 42  2  0  0  0  0
  8  9  1  0  0  0  0
  9 17  1  0  0  0  0
  9 10  2  0  0  0  0
 18 19  1  0  0  0  0
 19 39  1  0  0  0  0
 19 20  2  0  0  0  0
 40 43  1  0  0  0  0
  8 11  1  0  0  0  0
 49 50  1  0  0  0  0
 22 23  1  0  0  0  0
 21 22  1  0  0  0  0
 23 24  1  0  0  0  0
 18 21  1  0  0  0  0
 24 25  1  0  0  0  0
 39 40  1  0  0  0  0
  7  8  1  0  0  0  0
 17 18  1  0  0  0  0
  3  4  1  0  0  0  0
  3  5  1  0  0  0  0
  3  6  1  0  0  0  0
 43 46  1  0  0  0  0
 43 47  1  0  0  0  0
 43 48  1  0  0  0  0
 11 14  1  0  0  0  0
 11 15  1  0  0  0  0
 11 16  1  0  0  0  0
 50 52  1  0  0  0  0
 50 53  1  0  0  0  0
 50 54  1  0  0  0  0
 22 30  1  0  0  0  0
 22 31  1  0  0  0  0
 23 32  1  0  0  0  0
 23 33  1  0  0  0  0
 21 28  1  0  0  0  0
 21 29  1  0  0  0  0
 24 34  1  0  0  0  0
 24 35  1  0  0  0  0
 40 45  1  0  0  0  0
  8 13  1  0  0  0  0
 18 27  1  0  0  0  0
 49 51  1  0  0  0  0
  7 12  1  0  0  0  0
 39 44  1  0  0  0  0
 17 26  1  0  0  0  0
 25 36  1  0  0  0  0
 25 37  1  0  0  0  0
 25 38  1  0  0  0  0
M  CHG  1  25   1
M  END
$$$$

  -OEChem-05262214473D

 54 53  0     1  0  0  0  0  0999 V2000
    2.6714    2.8829   -3.0005 C   0  0  0  0  0  0  0  0  0  0  0  0
    3.1741    2.4398   -1.9745 O   0  0  0  0  0  0  0  0  0  0  0  0
    3.5527    3.3077   -4.1279 C   0  0  0  0  0  0  0  0  0  0  0  0
    3.8407    4.3691   -4.0597 H   0  0  0  0  0  0  0  0  0  0  0  0
    4.5024    2.7495   -4.1526 H   0  0  0  0  0  0  0  0  0  0  0  0
    3.1208    3.1887   -5.1345 H   0  0  0  0  0  0  0  0  0  0  0  0
    1.3174    3.0407   -3.2467 N   0  0  0  0  0  0  0  0  0  0  0  0
    0.2944    2.6927   -2.2960 C   0  0  2  0  0  0  0  0  0  0  0  0
    0.2976    1.1783   -2.1349 C   0  0  0  0  0  0  0  0  0  0  0  0
    0.7500    0.4142   -2.9850 O   0  0  0  0  0  0  0  0  0  0  0  0
   -1.0710    3.1886   -2.7460 C   0  0  0  0  0  0  0  0  0  0  0  0
    1.0312    3.4224   -4.1464 H   0  0  0  0  0  0  0  0  0  0  0  0
    0.5725    3.1622   -1.3461 H   0  0  0  0  0  0  0  0  0  0  0  0
   -1.3666    2.7292   -3.6963 H   0  0  0  0  0  0  0  0  0  0  0  0
   -1.8434    2.9482   -2.0082 H   0  0  0  0  0  0  0  0  0  0  0  0
   -1.0632    4.2744   -2.8901 H   0  0  0  0  0  0  0  0  0  0  0  0
   -0.3037    0.7742   -0.9484 N   0  0  0  0  0  0  0  0  0  0  0  0
   -0.4352   -0.6095   -0.5718 C   0  0  2  0  0  0  0  0  0  0  0  0
    0.1777   -1.4776   -1.6659 C   0  0  0  0  0  0  0  0  0  0  0  0
    1.3906   -1.6195   -1.8081 O   0  0  0  0  0  0  0  0  0  0  0  0
   -1.8891   -0.9829   -0.2593 C   0  0  0  0  0  0  0  0  0  0  0  0
   -2.4466   -0.3221    1.0082 C   0  0  0  0  0  0  0  0  0  0  0  0
   -3.8899   -0.7588    1.2699 C   0  0  0  0  0  0  0  0  0  0  0  0
   -4.4477   -0.0828    2.5137 C   0  0  0  0  0  0  0  0  0  0  0  0
   -5.8516   -0.5157    2.7138 N   0  3  0  0  0  0  0  0  0  0  0  0
   -0.6336    1.4811   -0.2948 H   0  0  0  0  0  0  0  0  0  0  0  0
    0.1684   -0.7321    0.3355 H   0  0  0  0  0  0  0  0  0  0  0  0
   -2.5184   -0.6983   -1.1126 H   0  0  0  0  0  0  0  0  0  0  0  0
   -1.9720   -2.0720   -0.1567 H   0  0  0  0  0  0  0  0  0  0  0  0
   -1.8278   -0.5890    1.8727 H   0  0  0  0  0  0  0  0  0  0  0  0
   -2.4124    0.7691    0.9082 H   0  0  0  0  0  0  0  0  0  0  0  0
   -3.9277   -1.8486    1.3906 H   0  0  0  0  0  0  0  0  0  0  0  0
   -4.5121   -0.5102    0.4012 H   0  0  0  0  0  0  0  0  0  0  0  0
   -3.8968   -0.3652    3.4158 H   0  0  0  0  0  0  0  0  0  0  0  0
   -4.4622    1.0068    2.4167 H   0  0  0  0  0  0  0  0  0  0  0  0
   -6.3566    0.1418    3.3180 H   0  0  0  0  0  0  0  0  0  0  0  0
   -5.8911   -1.4420    3.1533 H   0  0  0  0  0  0  0  0  0  0  0  0
   -6.3509   -0.5693    1.8191 H   0  0  0  0  0  0  0  0  0  0  0  0
   -0.7865   -2.1017   -2.4442 N   0  0  0  0  0  0  0  0  0  0  0  0
   -0.4429   -2.9867   -3.5315 C   0  0  2  0  0  0  0  0  0  0  0  0
   -1.7003   -3.2294   -4.3558 C   0  0  0  0  0  0  0  0  0  0  0  0
   -2.8353   -3.0824   -3.9070 O   0  0  0  0  0  0  0  0  0  0  0  0
    0.1315   -4.2977   -3.0175 C   0  0  0  0  0  0  0  0  0  0  0  0
   -1.7670   -1.9301   -2.2422 H   0  0  0  0  0  0  0  0  0  0  0  0
    0.2999   -2.4629   -4.1430 H   0  0  0  0  0  0  0  0  0  0  0  0
   -0.5984   -4.8368   -2.4026 H   0  0  0  0  0  0  0  0  0  0  0  0
    0.4181   -4.9564   -3.8439 H   0  0  0  0  0  0  0  0  0  0  0  0
    1.0186   -4.1191   -2.4003 H   0  0  0  0  0  0  0  0  0  0  0  0
   -1.4065   -3.6711   -5.6382 N   0  0  0  0  0  0  0  0  0  0  0  0
   -2.4295   -3.9828   -6.6090 C   0  0  0  0  0  0  0  0  0  0  0  0
   -0.4368   -3.7462   -5.9310 H   0  0  0  0  0  0  0  0  0  0  0  0
   -2.6749   -5.0536   -6.5529 H   0  0  0  0  0  0  0  0  0  0  0  0
   -3.3304   -3.3886   -6.3957 H   0  0  0  0  0  0  0  0  0  0  0  0
   -2.0626   -3.7432   -7.6179 H   0  0  0  0  0  0  0  0  0  0  0  0
  1  3  1  0  0  0  0
  1  7  1  0  0  0  0
  1  2  2  0  0  0  0
 40 41  1  0  0  0  0
 41 49  1  0  0  0  0
 41 42  2  0  0  0  0
  8  9  1  0  0  0  0
  9 17  1  0  0  0  0
  9 10  2  0  0  0  0
 18 19  1  0  0  0  0
 19 39  1  0  0  0  0
 19 20  2  0  0  0  0
 40 43  1  0  0  0  0
  8 11  1  0  0  0  0
 49 50  1  0  0  0  0
 22 23  1  0  0  0  0
 21 22  1  0  0  0  0
 23 24  1  0  0  0  0
 18 21  1  0  0  0  0
 24 25  1  0  0  0  0
 39 40  1  0  0  0  0
  7  8  1  0  0  0  0
 17 18  1  0  0  0  0
  3  4  1  0  0  0  0
  3  5  1  0  0  0  0
  3  6  1  0  0  0  0
 43 46  1  0  0  0  0
 43 47  1  0  0  0  0
 43 48  1  0  0  0  0
 11 14  1  0  0  0  0
 11 15  1  0  0  0  0
 11 16  1  0  0  0  0
 50 52  1  0  0  0  0
 50 53  1  0  0  0  0
 50 54  1  0  0  0  0
 22 30  1  0  0  0  0
 22 31  1  0  0  0  0
 23 32  1  0  0  0  0
 23 33  1  0  0  0  0
 21 28  1  0  0  0  0
 21 29  1  0  0  0  0
 24 34  1  0  0  0  0
 24 35  1  0  0  0  0
 40 45  1  0  0  0  0
  8 13  1  0  0  0  0
 18 27  1  0  0  0  0
 49 51  1  0  0  0  0
  7 12  1  0  0  0  0
 39 44  1  0  0  0  0
 17 26  1  0  0  0  0
 25 36  1  0  0  0  0
 25 37  1  0  0  0  0
 25 38  1  0  0  0  0
M  CHG  1  25   1
M  END
$$$$

  -OEChem-05262214473D

 54 53  0     1  0  0  0  0  0999 V2000
    2.6714    2.8829   -3.0005 C   0  0  0  0  0  0  0  0  0  0  0  0
    3.1741    2.4398   -1.9745 O   0  0  0  0  0  0  0  0  0  0  0  0
    3.5527    3.3077   -4.1279 C   0  0  0  0  0  0  0  0  0  0  0  0
    3.8407    4.3691   -4.0597 H   0  0  0  0  0  0  0  0  0  0  0  0
    4.5024    2.7495   -4.1526 H   0  0  0  0  0  0  0  0  0  0  0  0
    3.1208    3.1887   -5.1345 H   0  0  0  0  0  0  0  0  0  0  0  0
    1.3174    3.0407   -3.2467 N   0  0  0  0  0  0  0  0  0  0  0  0
    0.2944    2.6927   -2.2960 C   0  0  2  0  0  0  0  0  0  0  0  0
    0.2976    1.1783   -2.1349 C   0  0  0  0  0  0  0  0  0  0  0  0
    0.7500    0.4142   -2.9850 O   0  0  0  0  0  0  0  0  0  0  0  0
   -1.0710    3.1886   -2.7460 C   0  0  0  0  0  0  0  0  0  0  0  0
    1.0312    3.4224   -4.1464 H   0  0  0  0  0  0  0  0  0  0  0  0
    0.5725    3.1622   -1.3461 H   0  0  0  0  0  0  0  0  0  0  0  0
   -1.3666    2.7292   -3.6963 H   0  0  0  0  0  0  0  0  0  0  0  0
   -1.8434    2.9482   -2.0082 H   0  0  0  0  0  0  0  0  0  0  0  0
   -1.0632    4.2744   -2.8901 H   0  0  0  0  0  0  0  0  0  0  0  0
   -0.3037    0.7742   -0.9484 N   0  0  0  0  0  0  0  0  0  0  0  0
   -0.4352   -0.6095   -0.5718 C   0  0  2  0  0  0  0  0  0  0  0  0
    0.1777   -1.4776   -1.6659 C   0  0  0  0  0  0  0  0  0  0  0  0
    1.3530   -1.8381   -1.6558 O   0  0  0  0  0  0  0  0  0  0  0  0
   -1.8891   -0.9829   -0.2593 C   0  0  0  0  0  0  0  0  0  0  0  0
   -2.4466   -0.3221    1.0082 C   0  0  0  0  0  0  0  0  0  0  0  0
   -3.8899   -0.7588    1.2699 C   0  0  0  0  0  0  0  0  0  0  0  0
   -4.4477   -0.0828    2.5137 C   0  0  0  0  0  0  0  0  0  0  0  0
   -5.8516   -0.5157    2.7138 N   0  3  0  0  0  0  0  0  0  0  0  0
   -0.6336    1.4811   -0.2948 H   0  0  0  0  0  0  0  0  0  0  0  0
    0.1684   -0.7321    0.3355 H   0  0  0  0  0  0  0  0  0  0  0  0
   -2.5184   -0.6983   -1.1126 H   0  0  0  0  0  0  0  0  0  0  0  0
   -1.9720   -2.0720   -0.1567 H   0  0  0  0  0  0  0  0  0  0  0  0
   -1.8278   -0.5890    1.8727 H   0  0  0  0  0  0  0  0  0  0  0  0
   -2.4124    0.7691    0.9082 H   0  0  0  0  0  0  0  0  0  0  0  0
   -3.9277   -1.8486    1.3906 H   0  0  0  0  0  0  0  0  0  0  0  0
   -4.5121   -0.5102    0.4012 H   0  0  0  0  0  0  0  0  0  0  0  0
   -3.8968   -0.3652    3.4158 H   0  0  0  0  0  0  0  0  0  0  0  0
   -4.4622    1.0068    2.4167 H   0  0  0  0  0  0  0  0  0  0  0  0
   -6.3566    0.1418    3.3180 H   0  0  0  0  0  0  0  0  0  0  0  0
   -5.8911   -1.4420    3.1533 H   0  0  0  0  0  0  0  0  0  0  0  0
   -6.3509   -0.5693    1.8191 H   0  0  0  0  0  0  0  0  0  0  0  0
   -0.7477   -1.8307   -2.6375 N   0  0  0  0  0  0  0  0  0  0  0  0
   -0.4004   -2.6639   -3.7639 C   0  0  2  0  0  0  0  0  0  0  0  0
   -1.5356   -2.5834   -4.7761 C   0  0  0  0  0  0  0  0  0  0  0  0
   -2.6824   -2.2606   -4.4735 O   0  0  0  0  0  0  0  0  0  0  0  0
   -0.1564   -4.1020   -3.3340 C   0  0  0  0  0  0  0  0  0  0  0  0
   -1.7013   -1.4915   -2.5534 H   0  0  0  0  0  0  0  0  0  0  0  0
    0.5104   -2.2407   -4.2014 H   0  0  0  0  0  0  0  0  0  0  0  0
   -1.0579   -4.5429   -2.8932 H   0  0  0  0  0  0  0  0  0  0  0  0
    0.1348   -4.7266   -4.1850 H   0  0  0  0  0  0  0  0  0  0  0  0
    0.6402   -4.1548   -2.5840 H   0  0  0  0  0  0  0  0  0  0  0  0
   -1.1272   -2.9562   -6.0490 N   0  0  0  0  0  0  0  0  0  0  0  0
   -2.0238   -2.9753   -7.1811 C   0  0  0  0  0  0  0  0  0  0  0  0
   -0.1525   -3.1908   -6.2124 H   0  0  0  0  0  0  0  0  0  0  0  0
   -2.4615   -3.9791   -7.2859 H   0  0  0  0  0  0  0  0  0  0  0  0
   -2.8268   -2.2398   -7.0252 H   0  0  0  0  0  0  0  0  0  0  0  0
   -1.4663   -2.7213   -8.0946 H   0  0  0  0  0  0  0  0  0  0  0  0
  1  3  1  0  0  0  0
  1  7  1  0  0  0  0
  1  2  2  0  0  0  0
 40 41  1  0  0  0  0
 41 49  1  0  0  0  0
 41 42  2  0  0  0  0
  8  9  1  0  0  0  0
  9 17  1  0  0  0  0
  9 10  2  0  0  0  0
 18 19  1  0  0  0  0
 19 39  1  0  0  0  0
 19 20  2  0  0  0  0
 40 43  1  0  0  0  0
  8 11  1  0  0  0  0
 49 50  1  0  0  0  0
 22 23  1  0  0  0  0
 21 22  1  0  0  0  0
 23 24  1  0  0  0  0
 18 21  1  0  0  0  0
 24 25  1  0  0  0  0
 39 40  1  0  0  0  0
  7  8  1  0  0  0  0
 17 18  1  0  0  0  0
  3  4  1  0  0  0  0
  3  5  1  0  0  0  0
  3  6  1  0  0  0  0
 43 46  1  0  0  0  0
 43 47  1  0  0  0  0
 43 48  1  0  0  0  0
 11 14  1  0  0  0  0
 11 15  1  0  0  0  0
 11 16  1  0  0  0  0
 50 52  1  0  0  0  0
 50 53  1  0  0  0  0
 50 54  1  0  0  0  0
 22 30  1  0  0  0  0
 22 31  1  0  0  0  0
 23 32  1  0  0  0  0
 23 33  1  0  0  0  0
 21 28  1  0  0  0  0
 21 29  1  0  0  0  0
 24 34  1  0  0  0  0
 24 35  1  0  0  0  0
 40 45  1  0  0  0  0
  8 13  1  0  0  0  0
 18 27  1  0  0  0  0
 49 51  1  0  0  0  0
  7 12  1  0  0  0  0
 39 44  1  0  0  0  0
 17 26  1  0  0  0  0
 25 36  1  0  0  0  0
 25 37  1  0  0  0  0
 25 38  1  0  0  0  0
M  CHG  1  25   1
M  END
$$$$

  -OEChem-05262214473D

 54 53  0     1  0  0  0  0  0999 V2000
    2.6714    2.8829   -3.0005 C   0  0  0  0  0  0  0  0  0  0  0  0
    3.1741    2.4398   -1.9745 O   0  0  0  0  0  0  0  0  0  0  0  0
    3.5527    3.3077   -4.1279 C   0  0  0  0  0  0  0  0  0  0  0  0
    3.8407    4.3691   -4.0597 H   0  0  0  0  0  0  0  0  0  0  0  0
    4.5024    2.7495   -4.1526 H   0  0  0  0  0  0  0  0  0  0  0  0
    3.1208    3.1887   -5.1345 H   0  0  0  0  0  0  0  0  0  0  0  0
    1.3174    3.0407   -3.2467 N   0  0  0  0  0  0  0  0  0  0  0  0
    0.2944    2.6927   -2.2960 C   0  0  2  0  0  0  0  0  0  0  0  0
    0.2976    1.1783   -2.1349 C   0  0  0  0  0  0  0  0  0  0  0  0
    0.7500    0.4142   -2.9850 O   0  0  0  0  0  0  0  0  0  0  0  0
   -1.0710    3.1886   -2.7460 C   0  0  0  0  0  0  0  0  0  0  0  0
    1.0312    3.4224   -4.1464 H   0  0  0  0  0  0  0  0  0  0  0  0
    0.5725    3.1622   -1.3461 H   0  0  0  0  0  0  0  0  0  0  0  0
   -1.3666    2.7292   -3.6963 H   0  0  0  0  0  0  0  0  0  0  0  0
   -1.8434    2.9482   -2.0082 H   0  0  0  0  0  0  0  0  0  0  0  0
   -1.0632    4.2744   -2.8901 H   0  0  0  0  0  0  0  0  0  0  0  0
   -0.3037    0.7742   -0.9484 N   0  0  0  0  0  0  0  0  0  0  0  0
   -0.4352   -0.6095   -0.5718 C   0  0  2  0  0  0  0  0  0  0  0  0
    0.1777   -1.4776   -1.6659 C   0  0  0  0  0  0  0  0  0  0  0  0
    1.2538   -2.0580   -1.5368 O   0  0  0  0  0  0  0  0  0  0  0  0
   -1.8891   -0.9829   -0.2593 C   0  0  0  0  0  0  0  0  0  0  0  0
   -2.4466   -0.3221    1.0082 C   0  0  0  0  0  0  0  0  0  0  0  0
   -3.8899   -0.7588    1.2699 C   0  0  0  0  0  0  0  0  0  0  0  0
   -4.4477   -0.0828    2.5137 C   0  0  0  0  0  0  0  0  0  0  0  0
   -5.8516   -0.5157    2.7138 N   0  3  0  0  0  0  0  0  0  0  0  0
   -0.6336    1.4811   -0.2948 H   0  0  0  0  0  0  0  0  0  0  0  0
    0.1684   -0.7321    0.3355 H   0  0  0  0  0  0  0  0  0  0  0  0
   -2.5184   -0.6983   -1.1126 H   0  0  0  0  0  0  0  0  0  0  0  0
   -1.9720   -2.0720   -0.1567 H   0  0  0  0  0  0  0  0  0  0  0  0
   -1.8278   -0.5890    1.8727 H   0  0  0  0  0  0  0  0  0  0  0  0
   -2.4124    0.7691    0.9082 H   0  0  0  0  0  0  0  0  0  0  0  0
   -3.9277   -1.8486    1.3906 H   0  0  0  0  0  0  0  0  0  0  0  0
   -4.5121   -0.5102    0.4012 H   0  0  0  0  0  0  0  0  0  0  0  0
   -3.8968   -0.3652    3.4158 H   0  0  0  0  0  0  0  0  0  0  0  0
   -4.4622    1.0068    2.4167 H   0  0  0  0  0  0  0  0  0  0  0  0
   -6.3566    0.1418    3.3180 H   0  0  0  0  0  0  0  0  0  0  0  0
   -5.8911   -1.4420    3.1533 H   0  0  0  0  0  0  0  0  0  0  0  0
   -6.3509   -0.5693    1.8191 H   0  0  0  0  0  0  0  0  0  0  0  0
   -0.6313   -1.5560   -2.7903 N   0  0  0  0  0  0  0  0  0  0  0  0
   -0.2652   -2.3357   -3.9486 C   0  0  2  0  0  0  0  0  0  0  0  0
   -1.1945   -1.9463   -5.0906 C   0  0  0  0  0  0  0  0  0  0  0  0
   -2.2988   -1.4363   -4.9126 O   0  0  0  0  0  0  0  0  0  0  0  0
   -0.3515   -3.8266   -3.6618 C   0  0  0  0  0  0  0  0  0  0  0  0
   -1.5107   -1.0478   -2.7987 H   0  0  0  0  0  0  0  0  0  0  0  0
    0.7636   -2.0590   -4.2037 H   0  0  0  0  0  0  0  0  0  0  0  0
   -1.3749   -4.1227   -3.4043 H   0  0  0  0  0  0  0  0  0  0  0  0
   -0.0460   -4.4165   -4.5324 H   0  0  0  0  0  0  0  0  0  0  0  0
    0.2951   -4.0998   -2.8209 H   0  0  0  0  0  0  0  0  0  0  0  0
   -0.6641   -2.2748   -6.3303 N   0  0  0  0  0  0  0  0  0  0  0  0
   -1.3607   -2.0180   -7.5692 C   0  0  0  0  0  0  0  0  0  0  0  0
    0.2667   -2.6778   -6.3846 H   0  0  0  0  0  0  0  0  0  0  0  0
   -1.9479   -2.9045   -7.8508 H   0  0  0  0  0  0  0  0  0  0  0  0
   -2.0343   -1.1582   -7.4395 H   0  0  0  0  0  0  0  0  0  0  0  0
   -0.6303   -1.7954   -8.3610 H   0  0  0  0  0  0  0  0  0  0  0  0
  1  3  1  0  0  0  0
  1  7  1  0  0  0  0
  1  2  2  0  0  0  0
 40 41  1  0  0  0  0
 41 49  1  0  0  0  0
 41 42  2  0  0  0  0
  8  9  1  0  0  0  0
  9 17  1  0  0  0  0
  9 10  2  0  0  0  0
 18 19  1  0  0  0  0
 19 39  1  0  0  0  0
 19 20  2  0  0  0  0
 40 43  1  0  0  0  0
  8 11  1  0  0  0  0
 49 50  1  0  0  0  0
 22 23  1  0  0  0  0
 21 22  1  0  0  0  0
 23 24  1  0  0  0  0
 18 21  1  0  0  0  0
 24 25  1  0  0  0  0
 39 40  1  0  0  0  0
  7  8  1  0  0  0  0
 17 18  1  0  0  0  0
  3  4  1  0  0  0  0
  3  5  1  0  0  0  0
  3  6  1  0  0  0  0
 43 46  1  0  0  0  0
 43 47  1  0  0  0  0
 43 48  1  0  0  0  0
 11 14  1  0  0  0  0
 11 15  1  0  0  0  0
 11 16  1  0  0  0  0
 50 52  1  0  0  0  0
 50 53  1  0  0  0  0
 50 54  1  0  0  0  0
 22 30  1  0  0  0  0
 22 31  1  0  0  0  0
 23 32  1  0  0  0  0
 23 33  1  0  0  0  0
 21 28  1  0  0  0  0
 21 29  1  0  0  0  0
 24 34  1  0  0  0  0
 24 35  1  0  0  0  0
 40 45  1  0  0  0  0
  8 13  1  0  0  0  0
 18 27  1  0  0  0  0
 49 51  1  0  0  0  0
  7 12  1  0  0  0  0
 39 44  1  0  0  0  0
 17 26  1  0  0  0  0
 25 36  1  0  0  0  0
 25 37  1  0  0  0  0
 25 38  1  0  0  0  0
M  CHG  1  25   1
M  END
$$$$

  -OEChem-05262214473D

 54 53  0     1  0  0  0  0  0999 V2000
    2.6714    2.8829   -3.0005 C   0  0  0  0  0  0  0  0  0  0  0  0
    3.1741    2.4398   -1.9745 O   0  0  0  0  0  0  0  0  0  0  0  0
    3.5527    3.3077   -4.1279 C   0  0  0  0  0  0  0  0  0  0  0  0
    3.8407    4.3691   -4.0597 H   0  0  0  0  0  0  0  0  0  0  0  0
    4.5024    2.7495   -4.1526 H   0  0  0  0  0  0  0  0  0  0  0  0
    3.1208    3.1887   -5.1345 H   0  0  0  0  0  0  0  0  0  0  0  0
    1.3174    3.0407   -3.2467 N   0  0  0  0  0  0  0  0  0  0  0  0
    0.2944    2.6927   -2.2960 C   0  0  2  0  0  0  0  0  0  0  0  0
    0.2976    1.1783   -2.1349 C   0  0  0  0  0  0  0  0  0  0  0  0
    0.7500    0.4142   -2.9850 O   0  0  0  0  0  0  0  0  0  0  0  0
   -1.0710    3.1886   -2.7460 C   0  0  0  0  0  0  0  0  0  0  0  0
    1.0312    3.4224   -4.1464 H   0  0  0  0  0  0  0  0  0  0  0  0
    0.5725    3.1622   -1.3461 H   0  0  0  0  0  0  0  0  0  0  0  0
   -1.3666    2.7292   -3.6963 H   0  0  0  0  0  0  0  0  0  0  0  0
   -1.8434    2.9482   -2.0082 H   0  0  0  0  0  0  0  0  0  0  0  0
   -1.0632    4.2744   -2.8901 H   0  0  0  0  0  0  0  0  0  0  0  0
   -0.3037    0.7742   -0.9484 N   0  0  0  0  0  0  0  0  0  0  0  0
   -0.4352   -0.6095   -0.5718 C   0  0  2  0  0  0  0  0  0  0  0  0
    0.1777   -1.4776   -1.6659 C   0  0  0  0  0  0  0  0  0  0  0  0
    1.0995   -2.2645   -1.4595 O   0  0  0  0  0  0  0  0  0  0  0  0
   -1.8891   -0.9829   -0.2593 C   0  0  0  0  0  0  0  0  0  0  0  0
   -2.4466   -0.3221    1.0082 C   0  0  0  0  0  0  0  0  0  0  0  0
   -3.8899   -0.7588    1.2699 C   0  0  0  0  0  0  0  0  0  0  0  0
   -4.4477   -0.0828    2.5137 C   0  0  0  0  0  0  0  0  0  0  0  0
   -5.8516   -0.5157    2.7138 N   0  3  0  0  0  0  0  0  0  0  0  0
   -0.6336    1.4811   -0.2948 H   0  0  0  0  0  0  0  0  0  0  0  0
    0.1684   -0.7321    0.3355 H   0  0  0  0  0  0  0  0  0  0  0  0
   -2.5184   -0.6983   -1.1126 H   0  0  0  0  0  0  0  0  0  0  0  0
   -1.9720   -2.0720   -0.1567 H   0  0  0  0  0  0  0  0  0  0  0  0
   -1.8278   -0.5890    1.8727 H   0  0  0  0  0  0  0  0  0  0  0  0
   -2.4124    0.7691    0.9082 H   0  0  0  0  0  0  0  0  0  0  0  0
   -3.9277   -1.8486    1.3906 H   0  0  0  0  0  0  0  0  0  0  0  0
   -4.5121   -0.5102    0.4012 H   0  0  0  0  0  0  0  0  0  0  0  0
   -3.8968   -0.3652    3.4158 H   0  0  0  0  0  0  0  0  0  0  0  0
   -4.4622    1.0068    2.4167 H   0  0  0  0  0  0  0  0  0  0  0  0
   -6.3566    0.1418    3.3180 H   0  0  0  0  0  0  0  0  0  0  0  0
   -5.8911   -1.4420    3.1533 H   0  0  0  0  0  0  0  0  0  0  0  0
   -6.3509   -0.5693    1.8191 H   0  0  0  0  0  0  0  0  0  0  0  0
   -0.4455   -1.2964   -2.8922 N   0  0  0  0  0  0  0  0  0  0  0  0
   -0.0464   -2.0246   -4.0729 C   0  0  2  0  0  0  0  0  0  0  0  0
   -0.7005   -1.3615   -5.2779 C   0  0  0  0  0  0  0  0  0  0  0  0
   -1.7105   -0.6657   -5.1945 O   0  0  0  0  0  0  0  0  0  0  0  0
   -0.4405   -3.4903   -3.9786 C   0  0  0  0  0  0  0  0  0  0  0  0
   -1.2080   -0.6290   -2.9614 H   0  0  0  0  0  0  0  0  0  0  0  0
    1.0423   -1.9303   -4.1497 H   0  0  0  0  0  0  0  0  0  0  0  0
   -1.5279   -3.6048   -3.9009 H   0  0  0  0  0  0  0  0  0  0  0  0
   -0.1119   -4.0472   -4.8623 H   0  0  0  0  0  0  0  0  0  0  0  0
    0.0069   -3.9581   -3.0949 H   0  0  0  0  0  0  0  0  0  0  0  0
   -0.0489   -1.6734   -6.4629 N   0  0  0  0  0  0  0  0  0  0  0  0
   -0.4852   -1.1761   -7.7468 C   0  0  0  0  0  0  0  0  0  0  0  0
    0.7922   -2.2422   -6.4358 H   0  0  0  0  0  0  0  0  0  0  0  0
   -1.1690   -1.9032   -8.2090 H   0  0  0  0  0  0  0  0  0  0  0  0
   -1.0071   -0.2175   -7.6105 H   0  0  0  0  0  0  0  0  0  0  0  0
    0.3883   -1.0286   -8.3988 H   0  0  0  0  0  0  0  0  0  0  0  0
  1  3  1  0  0  0  0
  1  7  1  0  0  0  0
  1  2  2  0  0  0  0
 40 41  1  0  0  0  0
 41 49  1  0  0  0  0
 41 42  2  0  0  0  0
  8  9  1  0  0  0  0
  9 17  1  0  0  0  0
  9 10  2  0  0  0  0
 18 19  1  0  0  0  0
 19 39  1  0  0  0  0
 19 20  2  0  0  0  0
 40 43  1  0  0  0  0
  8 11  1  0  0  0  0
 49 50  1  0  0  0  0
 22 23  1  0  0  0  0
 21 22  1  0  0  0  0
 23 24  1  0  0  0  0
 18 21  1  0  0  0  0
 24 25  1  0  0  0  0
 39 40  1  0  0  0  0
  7  8  1  0  0  0  0
 17 18  1  0  0  0  0
  3  4  1  0  0  0  0
  3  5  1  0  0  0  0
  3  6  1  0  0  0  0
 43 46  1  0  0  0  0
 43 47  1  0  0  0  0
 43 48  1  0  0  0  0
 11 14  1  0  0  0  0
 11 15  1  0  0  0  0
 11 16  1  0  0  0  0
 50 52  1  0  0  0  0
 50 53  1  0  0  0  0
 50 54  1  0  0  0  0
 22 30  1  0  0  0  0
 22 31  1  0  0  0  0
 23 32  1  0  0  0  0
 23 33  1  0  0  0  0
 21 28  1  0  0  0  0
 21 29  1  0  0  0  0
 24 34  1  0  0  0  0
 24 35  1  0  0  0  0
 40 45  1  0  0  0  0
  8 13  1  0  0  0  0
 18 27  1  0  0  0  0
 49 51  1  0  0  0  0
  7 12  1  0  0  0  0
 39 44  1  0  0  0  0
 17 26  1  0  0  0  0
 25 36  1  0  0  0  0
 25 37  1  0  0  0  0
 25 38  1  0  0  0  0
M  CHG  1  25   1
M  END
$$$$

  -OEChem-05262214473D

 54 53  0     1  0  0  0  0  0999 V2000
    2.6714    2.8829   -3.0005 C   0  0  0  0  0  0  0  0  0  0  0  0
    3.1741    2.4398   -1.9745 O   0  0  0  0  0  0  0  0  0  0  0  0
    3.5527    3.3077   -4.1279 C   0  0  0  0  0  0  0  0  0  0  0  0
    3.8407    4.3691   -4.0597 H   0  0  0  0  0  0  0  0  0  0  0  0
    4.5024    2.7495   -4.1526 H   0  0  0  0  0  0  0  0  0  0  0  0
    3.1208    3.1887   -5.1345 H   0  0  0  0  0  0  0  0  0  0  0  0
    1.3174    3.0407   -3.2467 N   0  0  0  0  0  0  0  0  0  0  0  0
    0.2944    2.6927   -2.2960 C   0  0  2  0  0  0  0  0  0  0  0  0
    0.2976    1.1783   -2.1349 C   0  0  0  0  0  0  0  0  0  0  0  0
    0.7500    0.4142   -2.9850 O   0  0  0  0  0  0  0  0  0  0  0  0
   -1.0710    3.1886   -2.7460 C   0  0  0  0  0  0  0  0  0  0  0  0
    1.0312    3.4224   -4.1464 H   0  0  0  0  0  0  0  0  0  0  0  0
    0.5725    3.1622   -1.3461 H   0  0  0  0  0  0  0  0  0  0  0  0
   -1.3666    2.7292   -3.6963 H   0  0  0  0  0  0  0  0  0  0  0  0
   -1.8434    2.9482   -2.0082 H   0  0  0  0  0  0  0  0  0  0  0  0
   -1.0632    4.2744   -2.8901 H   0  0  0  0  0  0  0  0  0  0  0  0
   -0.3037    0.7742   -0.9484 N   0  0  0  0  0  0  0  0  0  0  0  0
   -0.4352   -0.6095   -0.5718 C   0  0  2  0  0  0  0  0  0  0  0  0
    0.1777   -1.4776   -1.6659 C   0  0  0  0  0  0  0  0  0  0  0  0
    0.9008   -2.4433   -1.4289 O   0  0  0  0  0  0  0  0  0  0  0  0
   -1.8891   -0.9829   -0.2593 C   0  0  0  0  0  0  0  0  0  0  0  0
   -2.4466   -0.3221    1.0082 C   0  0  0  0  0  0  0  0  0  0  0  0
   -3.8899   -0.7588    1.2699 C   0  0  0  0  0  0  0  0  0  0  0  0
   -4.4477   -0.0828    2.5137 C   0  0  0  0  0  0  0  0  0  0  0  0
   -5.8516   -0.5157    2.7138 N   0  3  0  0  0  0  0  0  0  0  0  0
   -0.6336    1.4811   -0.2948 H   0  0  0  0  0  0  0  0  0  0  0  0
    0.1684   -0.7321    0.3355 H   0  0  0  0  0  0  0  0  0  0  0  0
   -2.5184   -0.6983   -1.1126 H   0  0  0  0  0  0  0  0  0  0  0  0
   -1.9720   -2.0720   -0.1567 H   0  0  0  0  0  0  0  0  0  0  0  0
   -1.8278   -0.5890    1.8727 H   0  0  0  0  0  0  0  0  0  0  0  0
   -2.4124    0.7691    0.9082 H   0  0  0  0  0  0  0  0  0  0  0  0
   -3.9277   -1.8486    1.3906 H   0  0  0  0  0  0  0  0  0  0  0  0
   -4.5121   -0.5102    0.4012 H   0  0  0  0  0  0  0  0  0  0  0  0
   -3.8968   -0.3652    3.4158 H   0  0  0  0  0  0  0  0  0  0  0  0
   -4.4622    1.0068    2.4167 H   0  0  0  0  0  0  0  0  0  0  0  0
   -6.3566    0.1418    3.3180 H   0  0  0  0  0  0  0  0  0  0  0  0
   -5.8911   -1.4420    3.1533 H   0  0  0  0  0  0  0  0  0  0  0  0
   -6.3509   -0.5693    1.8191 H   0  0  0  0  0  0  0  0  0  0  0  0
   -0.2027   -1.0695   -2.9362 N   0  0  0  0  0  0  0  0  0  0  0  0
    0.2409   -1.7518   -4.1284 C   0  0  2  0  0  0  0  0  0  0  0  0
   -0.0872   -0.8689   -5.3252 C   0  0  0  0  0  0  0  0  0  0  0  0
   -0.9577   -0.0012   -5.3000 O   0  0  0  0  0  0  0  0  0  0  0  0
   -0.4174   -3.1160   -4.2626 C   0  0  0  0  0  0  0  0  0  0  0  0
   -0.8139   -0.2638   -3.0304 H   0  0  0  0  0  0  0  0  0  0  0  0
    1.3274   -1.8634   -4.0431 H   0  0  0  0  0  0  0  0  0  0  0  0
   -1.5062   -3.0245   -4.3493 H   0  0  0  0  0  0  0  0  0  0  0  0
   -0.0584   -3.6440   -5.1522 H   0  0  0  0  0  0  0  0  0  0  0  0
   -0.2049   -3.7392   -3.3872 H   0  0  0  0  0  0  0  0  0  0  0  0
    0.6766   -1.1928   -6.4378 N   0  0  0  0  0  0  0  0  0  0  0  0
    0.5429   -0.5070   -7.7018 C   0  0  0  0  0  0  0  0  0  0  0  0
    1.3882   -1.9137   -6.3626 H   0  0  0  0  0  0  0  0  0  0  0  0
   -0.1781   -1.0434   -8.3362 H   0  0  0  0  0  0  0  0  0  0  0  0
    0.1850    0.5183   -7.5264 H   0  0  0  0  0  0  0  0  0  0  0  0
    1.5202   -0.4731   -8.2055 H   0  0  0  0  0  0  0  0  0  0  0  0
  1  3  1  0  0  0  0
  1  7  1  0  0  0  0
  1  2  2  0  0  0  0
 40 41  1  0  0  0  0
 41 49  1  0  0  0  0
 41 42  2  0  0  0  0
  8  9  1  0  0  0  0
  9 17  1  0  0  0  0
  9 10  2  0  0  0  0
 18 19  1  0  0  0  0
 19 39  1  0  0  0  0
 19 20  2  0  0  0  0
 40 43  1  0  0  0  0
  8 11  1  0  0  0  0
 49 50  1  0  0  0  0
 22 23  1  0  0  0  0
 21 22  1  0  0  0  0
 23 24  1  0  0  0  0
 18 21  1  0  0  0  0
 24 25  1  0  0  0  0
 39 40  1  0  0  0  0
  7  8  1  0  0  0  0
 17 18  1  0  0  0  0
  3  4  1  0  0  0  0
  3  5  1  0  0  0  0
  3  6  1  0  0  0  0
 43 46  1  0  0  0  0
 43 47  1  0  0  0  0
 43 48  1  0  0  0  0
 11 14  1  0  0  0  0
 11 15  1  0  0  0  0
 11 16  1  0  0  0  0
 50 52  1  0  0  0  0
 50 53  1  0  0  0  0
 50 54  1  0  0  0  0
 22 30  1  0  0  0  0
 22 31  1  0  0  0  0
 23 32  1  0  0  0  0
 23 33  1  0  0  0  0
 21 28  1  0  0  0  0
 21 29  1  0  0  0  0
 24 34  1  0  0  0  0
 24 35  1  0  0  0  0
 40 45  1  0  0  0  0
  8 13  1  0  0  0  0
 18 27  1  0  0  0  0
 49 51  1  0  0  0  0
  7 12  1  0  0  0  0
 39 44  1  0  0  0  0
 17 26  1  0  0  0  0
 25 36  1  0  0  0  0
 25 37  1  0  0  0  0
 25 38  1  0  0  0  0
M  CHG  1  25   1
M  END
$$$$

  -OEChem-05262214473D

 54 53  0     1  0  0  0  0  0999 V2000
    2.6714    2.8829   -3.0005 C   0  0  0  0  0  0  0  0  0  0  0  0
    3.1741    2.4398   -1.9745 O   0  0  0  0  0  0  0  0  0  0  0  0
    3.5527    3.3077   -4.1279 C   0  0  0  0  0  0  0  0  0  0  0  0
    3.8407    4.3691   -4.0597 H   0  0  0  0  0  0  0  0  0  0  0  0
    4.5024    2.7495   -4.1526 H   0  0  0  0  0  0  0  0  0  0  0  0
    3.1208    3.1887   -5.1345 H   0  0  0  0  0  0  0  0  0  0  0  0
    1.3174    3.0407   -3.2467 N   0  0  0  0  0  0  0  0  0  0  0  0
    0.2944    2.6927   -2.2960 C   0  0  2  0  0  0  0  0  0  0  0  0
    0.2976    1.1783   -2.1349 C   0  0  0  0  0  0  0  0  0  0  0  0
    0.7500    0.4142   -2.9850 O   0  0  0  0  0  0  0  0  0  0  0  0
   -1.0710    3.1886   -2.7460 C   0  0  0  0  0  0  0  0  0  0  0  0
    1.0312    3.4224   -4.1464 H   0  0  0  0  0  0  0  0  0  0  0  0
    0.5725    3.1622   -1.3461 H   0  0  0  0  0  0  0  0  0  0  0  0
   -1.3666    2.7292   -3.6963 H   0  0  0  0  0  0  0  0  0  0  0  0
   -1.8434    2.9482   -2.0082 H   0  0  0  0  0  0  0  0  0  0  0  0
   -1.0632    4.2744   -2.8901 H   0  0  0  0  0  0  0  0  0  0  0  0
   -0.3037    0.7742   -0.9484 N   0  0  0  0  0  0  0  0  0  0  0  0
   -0.4352   -0.6095   -0.5718 C   0  0  2  0  0  0  0  0  0  0  0  0
    0.1777   -1.4776   -1.6659 C   0  0  0  0  0  0  0  0  0  0  0  0
    0.6711   -2.5822   -1.4473 O   0  0  0  0  0  0  0  0  0  0  0  0
   -1.8891   -0.9829   -0.2593 C   0  0  0  0  0  0  0  0  0  0  0  0
   -2.4466   -0.3221    1.0082 C   0  0  0  0  0  0  0  0  0  0  0  0
   -3.8899   -0.7588    1.2699 C   0  0  0  0  0  0  0  0  0  0  0  0
   -4.4477   -0.0828    2.5137 C   0  0  0  0  0  0  0  0  0  0  0  0
   -5.8516   -0.5157    2.7138 N   0  3  0  0  0  0  0  0  0  0  0  0
   -0.6336    1.4811   -0.2948 H   0  0  0  0  0  0  0  0  0  0  0  0
    0.1684   -0.7321    0.3355 H   0  0  0  0  0  0  0  0  0  0  0  0
   -2.5184   -0.6983   -1.1126 H   0  0  0  0  0  0  0  0  0  0  0  0
   -1.9720   -2.0720   -0.1567 H   0  0  0  0  0  0  0  0  0  0  0  0
   -1.8278   -0.5890    1.8727 H   0  0  0  0  0  0  0  0  0  0  0  0
   -2.4124    0.7691    0.9082 H   0  0  0  0  0  0  0  0  0  0  0  0
   -3.9277   -1.8486    1.3906 H   0  0  0  0  0  0  0  0  0  0  0  0
   -4.5121   -0.5102    0.4012 H   0  0  0  0  0  0  0  0  0  0  0  0
   -3.8968   -0.3652    3.4158 H   0  0  0  0  0  0  0  0  0  0  0  0
   -4.4622    1.0068    2.4167 H   0  0  0  0  0  0  0  0  0  0  0  0
   -6.3566    0.1418    3.3180 H   0  0  0  0  0  0  0  0  0  0  0  0
   -5.8911   -1.4420    3.1533 H   0  0  0  0  0  0  0  0  0  0  0  0
   -6.3509   -0.5693    1.8191 H   0  0  0  0  0  0  0  0  0  0  0  0
    0.0803   -0.8909   -2.9194 N   0  0  0  0  0  0  0  0  0  0  0  0
    0.5773   -1.5358   -4.1113 C   0  0  2  0  0  0  0  0  0  0  0  0
    0.6036   -0.5019   -5.2293 C   0  0  0  0  0  0  0  0  0  0  0  0
   -0.0916    0.5118   -5.2219 O   0  0  0  0  0  0  0  0  0  0  0  0
   -0.2838   -2.7292   -4.4947 C   0  0  0  0  0  0  0  0  0  0  0  0
   -0.3552    0.0230   -3.0010 H   0  0  0  0  0  0  0  0  0  0  0  0
    1.5995   -1.8627   -3.8912 H   0  0  0  0  0  0  0  0  0  0  0  0
   -1.3116   -2.4213   -4.7188 H   0  0  0  0  0  0  0  0  0  0  0  0
    0.1109   -3.2344   -5.3825 H   0  0  0  0  0  0  0  0  0  0  0  0
   -0.3257   -3.4580   -3.6780 H   0  0  0  0  0  0  0  0  0  0  0  0
    1.4628   -0.8660   -6.2566 N   0  0  0  0  0  0  0  0  0  0  0  0
    1.6536   -0.0562   -7.4372 C   0  0  0  0  0  0  0  0  0  0  0  0
    2.0141   -1.7147   -6.1699 H   0  0  0  0  0  0  0  0  0  0  0  0
    0.9575   -0.3836   -8.2235 H   0  0  0  0  0  0  0  0  0  0  0  0
    1.4607    0.9989   -7.1931 H   0  0  0  0  0  0  0  0  0  0  0  0
    2.6881   -0.1667   -7.7943 H   0  0  0  0  0  0  0  0  0  0  0  0
  1  3  1  0  0  0  0
  1  7  1  0  0  0  0
  1  2  2  0  0  0  0
 40 41  1  0  0  0  0
 41 49  1  0  0  0  0
 41 42  2  0  0  0  0
  8  9  1  0  0  0  0
  9 17  1  0  0  0  0
  9 10  2  0  0  0  0
 18 19  1  0  0  0  0
 19 39  1  0  0  0  0
 19 20  2  0  0  0  0
 40 43  1  0  0  0  0
  8 11  1  0  0  0  0
 49 50  1  0  0  0  0
 22 23  1  0  0  0  0
 21 22  1  0  0  0  0
 23 24  1  0  0  0  0
 18 21  1  0  0  0  0
 24 25  1  0  0  0  0
 39 40  1  0  0  0  0
  7  8  1  0  0  0  0
 17 18  1  0  0  0  0
  3  4  1  0  0  0  0
  3  5  1  0  0  0  0
  3  6  1  0  0  0  0
 43 46  1  0  0  0  0
 43 47  1  0  0  0  0
 43 48  1  0  0  0  0
 11 14  1  0  0  0  0
 11 15  1  0  0  0  0
 11 16  1  0  0  0  0
 50 52  1  0  0  0  0
 50 53  1  0  0  0  0
 50 54  1  0  0  0  0
 22 30  1  0  0  0  0
 22 31  1  0  0  0  0
 23 32  1  0  0  0  0
 23 33  1  0  0  0  0
 21 28  1  0  0  0  0
 21 29  1  0  0  0  0
 24 34  1  0  0  0  0
 24 35  1  0  0  0  0
 40 45  1  0  0  0  0
  8 13  1  0  0  0  0
 18 27  1  0  0  0  0
 49 51  1  0  0  0  0
  7 12  1  0  0  0  0
 39 44  1  0  0  0  0
 17 26  1  0  0  0  0
 25 36  1  0  0  0  0
 25 37  1  0  0  0  0
 25 38  1  0  0  0  0
M  CHG  1  25   1
M  END
$$$$

  -OEChem-05262214473D

 54 53  0     1  0  0  0  0  0999 V2000
    2.6714    2.8829   -3.0005 C   0  0  0  0  0  0  0  0  0  0  0  0
    3.1741    2.4398   -1.9745 O   0  0  0  0  0  0  0  0  0  0  0  0
    3.5527    3.3077   -4.1279 C   0  0  0  0  0  0  0  0  0  0  0  0
    3.8407    4.3691   -4.0597 H   0  0  0  0  0  0  0  0  0  0  0  0
    4.5024    2.7495   -4.1526 H   0  0  0  0  0  0  0  0  0  0  0  0
    3.1208    3.1887   -5.1345 H   0  0  0  0  0  0  0  0  0  0  0  0
    1.3174    3.0407   -3.2467 N   0  0  0  0  0  0  0  0  0  0  0  0
    0.2944    2.6927   -2.2960 C   0  0  2  0  0  0  0  0  0  0  0  0
    0.2976    1.1783   -2.1349 C   0  0  0  0  0  0  0  0  0  0  0  0
    0.7500    0.4142   -2.9850 O   0  0  0  0  0  0  0  0  0  0  0  0
   -1.0710    3.1886   -2.7460 C   0  0  0  0  0  0  0  0  0  0  0  0
    1.0312    3.4224   -4.1464 H   0  0  0  0  0  0  0  0  0  0  0  0
    0.5725    3.1622   -1.3461 H   0  0  0  0  0  0  0  0  0  0  0  0
   -1.3666    2.7292   -3.6963 H   0  0  0  0  0  0  0  0  0  0  0  0
   -1.8434    2.9482   -2.0082 H   0  0  0  0  0  0  0  0  0  0  0  0
   -1.0632    4.2744   -2.8901 H   0  0  0  0  0  0  0  0  0  0  0  0
   -0.3037    0.7742   -0.9484 N   0  0  0  0  0  0  0  0  0  0  0  0
   -0.4352   -0.6095   -0.5718 C   0  0  2  0  0  0  0  0  0  0  0  0
    0.1777   -1.4776   -1.6659 C   0  0  0  0  0  0  0  0  0  0  0  0
    0.4262   -2.6719   -1.5133 O   0  0  0  0  0  0  0  0  0  0  0  0
   -1.8891   -0.9829   -0.2593 C   0  0  0  0  0  0  0  0  0  0  0  0
   -2.4466   -0.3221    1.0082 C   0  0  0  0  0  0  0  0  0  0  0  0
   -3.8899   -0.7588    1.2699 C   0  0  0  0  0  0  0  0  0  0  0  0
   -4.4477   -0.0828    2.5137 C   0  0  0  0  0  0  0  0  0  0  0  0
   -5.8516   -0.5157    2.7138 N   0  3  0  0  0  0  0  0  0  0  0  0
   -0.6336    1.4811   -0.2948 H   0  0  0  0  0  0  0  0  0  0  0  0
    0.1684   -0.7321    0.3355 H   0  0  0  0  0  0  0  0  0  0  0  0
   -2.5184   -0.6983   -1.1126 H   0  0  0  0  0  0  0  0  0  0  0  0
   -1.9720   -2.0720   -0.1567 H   0  0  0  0  0  0  0  0  0  0  0  0
   -1.8278   -0.5890    1.8727 H   0  0  0  0  0  0  0  0  0  0  0  0
   -2.4124    0.7691    0.9082 H   0  0  0  0  0  0  0  0  0  0  0  0
   -3.9277   -1.8486    1.3906 H   0  0  0  0  0  0  0  0  0  0  0  0
   -4.5121   -0.5102    0.4012 H   0  0  0  0  0  0  0  0  0  0  0  0
   -3.8968   -0.3652    3.4158 H   0  0  0  0  0  0  0  0  0  0  0  0
   -4.4622    1.0068    2.4167 H   0  0  0  0  0  0  0  0  0  0  0  0
   -6.3566    0.1418    3.3180 H   0  0  0  0  0  0  0  0  0  0  0  0
   -5.8911   -1.4420    3.1533 H   0  0  0  0  0  0  0  0  0  0  0  0
   -6.3509   -0.5693    1.8191 H   0  0  0  0  0  0  0  0  0  0  0  0
    0.3844   -0.7726   -2.8428 N   0  0  0  0  0  0  0  0  0  0  0  0
    0.9398   -1.3915   -4.0228 C   0  0  2  0  0  0  0  0  0  0  0  0
    1.3250   -0.2858   -4.9967 C   0  0  0  0  0  0  0  0  0  0  0  0
    0.8288    0.8385   -4.9655 O   0  0  0  0  0  0  0  0  0  0  0  0
   -0.0487   -2.3562   -4.6590 C   0  0  0  0  0  0  0  0  0  0  0  0
    0.1367    0.2119   -2.8753 H   0  0  0  0  0  0  0  0  0  0  0  0
    1.8400   -1.9284   -3.7043 H   0  0  0  0  0  0  0  0  0  0  0  0
   -0.9571   -1.8364   -4.9844 H   0  0  0  0  0  0  0  0  0  0  0  0
    0.3844   -2.8461   -5.5373 H   0  0  0  0  0  0  0  0  0  0  0  0
   -0.3474   -3.1337   -3.9475 H   0  0  0  0  0  0  0  0  0  0  0  0
    2.2563   -0.7150   -5.9319 N   0  0  0  0  0  0  0  0  0  0  0  0
    2.7711    0.1456   -6.9712 C   0  0  0  0  0  0  0  0  0  0  0  0
    2.6272   -1.6587   -5.8709 H   0  0  0  0  0  0  0  0  0  0  0  0
    2.1603    0.0312   -7.8788 H   0  0  0  0  0  0  0  0  0  0  0  0
    2.7331    1.1917   -6.6332 H   0  0  0  0  0  0  0  0  0  0  0  0
    3.8126   -0.1304   -7.1932 H   0  0  0  0  0  0  0  0  0  0  0  0
  1  3  1  0  0  0  0
  1  7  1  0  0  0  0
  1  2  2  0  0  0  0
 40 41  1  0  0  0  0
 41 49  1  0  0  0  0
 41 42  2  0  0  0  0
  8  9  1  0  0  0  0
  9 17  1  0  0  0  0
  9 10  2  0  0  0  0
 18 19  1  0  0  0  0
 19 39  1  0  0  0  0
 19 20  2  0  0  0  0
 40 43  1  0  0  0  0
  8 11  1  0  0  0  0
 49 50  1  0  0  0  0
 22 23  1  0  0  0  0
 21 22  1  0  0  0  0
 23 24  1  0  0  0  0
 18 21  1  0  0  0  0
 24 25  1  0  0  0  0
 39 40  1  0  0  0  0
  7  8  1  0  0  0  0
 17 18  1  0  0  0  0
  3  4  1  0  0  0  0
  3  5  1  0  0  0  0
  3  6  1  0  0  0  0
 43 46  1  0  0  0  0
 43 47  1  0  0  0  0
 43 48  1  0  0  0  0
 11 14  1  0  0  0  0
 11 15  1  0  0  0  0
 11 16  1  0  0  0  0
 50 52  1  0  0  0  0
 50 53  1  0  0  0  0
 50 54  1  0  0  0  0
 22 30  1  0  0  0  0
 22 31  1  0  0  0  0
 23 32  1  0  0  0  0
 23 33  1  0  0  0  0
 21 28  1  0  0  0  0
 21 29  1  0  0  0  0
 24 34  1  0  0  0  0
 24 35  1  0  0  0  0
 40 45  1  0  0  0  0
  8 13  1  0  0  0  0
 18 27  1  0  0  0  0
 49 51  1  0  0  0  0
  7 12  1  0  0  0  0
 39 44  1  0  0  0  0
 17 26  1  0  0  0  0
 25 36  1  0  0  0  0
 25 37  1  0  0  0  0
 25 38  1  0  0  0  0
M  CHG  1  25   1
M  END
$$$$

  -OEChem-05262214473D

 54 53  0     1  0  0  0  0  0999 V2000
    2.6714    2.8829   -3.0005 C   0  0  0  0  0  0  0  0  0  0  0  0
    3.1741    2.4398   -1.9745 O   0  0  0  0  0  0  0  0  0  0  0  0
    3.5527    3.3077   -4.1279 C   0  0  0  0  0  0  0  0  0  0  0  0
    3.8407    4.3691   -4.0597 H   0  0  0  0  0  0  0  0  0  0  0  0
    4.5024    2.7495   -4.1526 H   0  0  0  0  0  0  0  0  0  0  0  0
    3.1208    3.1887   -5.1345 H   0  0  0  0  0  0  0  0  0  0  0  0
    1.3174    3.0407   -3.2467 N   0  0  0  0  0  0  0  0  0  0  0  0
    0.2944    2.6927   -2.2960 C   0  0  2  0  0  0  0  0  0  0  0  0
    0.2976    1.1783   -2.1349 C   0  0  0  0  0  0  0  0  0  0  0  0
    0.7500    0.4142   -2.9850 O   0  0  0  0  0  0  0  0  0  0  0  0
   -1.0710    3.1886   -2.7460 C   0  0  0  0  0  0  0  0  0  0  0  0
    1.0312    3.4224   -4.1464 H   0  0  0  0  0  0  0  0  0  0  0  0
    0.5725    3.1622   -1.3461 H   0  0  0  0  0  0  0  0  0  0  0  0
   -1.3666    2.7292   -3.6963 H   0  0  0  0  0  0  0  0  0  0  0  0
   -1.8434    2.9482   -2.0082 H   0  0  0  0  0  0  0  0  0  0  0  0
   -1.0632    4.2744   -2.8901 H   0  0  0  0  0  0  0  0  0  0  0  0
   -0.3037    0.7742   -0.9484 N   0  0  0  0  0  0  0  0  0  0  0  0
   -0.4352   -0.6095   -0.5718 C   0  0  2  0  0  0  0  0  0  0  0  0
    0.1777   -1.4776   -1.6659 C   0  0  0  0  0  0  0  0  0  0  0  0
    0.1827   -2.7063   -1.6225 O   0  0  0  0  0  0  0  0  0  0  0  0
   -1.8891   -0.9829   -0.2593 C   0  0  0  0  0  0  0  0  0  0  0  0
   -2.4466   -0.3221    1.0082 C   0  0  0  0  0  0  0  0  0  0  0  0
   -3.8899   -0.7588    1.2699 C   0  0  0  0  0  0  0  0  0  0  0  0
   -4.4477   -0.0828    2.5137 C   0  0  0  0  0  0  0  0  0  0  0  0
   -5.8516   -0.5157    2.7138 N   0  3  0  0  0  0  0  0  0  0  0  0
   -0.6336    1.4811   -0.2948 H   0  0  0  0  0  0  0  0  0  0  0  0
    0.1684   -0.7321    0.3355 H   0  0  0  0  0  0  0  0  0  0  0  0
   -2.5184   -0.6983   -1.1126 H   0  0  0  0  0  0  0  0  0  0  0  0
   -1.9720   -2.0720   -0.1567 H   0  0  0  0  0  0  0  0  0  0  0  0
   -1.8278   -0.5890    1.8727 H   0  0  0  0  0  0  0  0  0  0  0  0
   -2.4124    0.7691    0.9082 H   0  0  0  0  0  0  0  0  0  0  0  0
   -3.9277   -1.8486    1.3906 H   0  0  0  0  0  0  0  0  0  0  0  0
   -4.5121   -0.5102    0.4012 H   0  0  0  0  0  0  0  0  0  0  0  0
   -3.8968   -0.3652    3.4158 H   0  0  0  0  0  0  0  0  0  0  0  0
   -4.4622    1.0068    2.4167 H   0  0  0  0  0  0  0  0  0  0  0  0
   -6.3566    0.1418    3.3180 H   0  0  0  0  0  0  0  0  0  0  0  0
   -5.8911   -1.4420    3.1533 H   0  0  0  0  0  0  0  0  0  0  0  0
   -6.3509   -0.5693    1.8191 H   0  0  0  0  0  0  0  0  0  0  0  0
    0.6889   -0.7228   -2.7118 N   0  0  0  0  0  0  0  0  0  0  0  0
    1.3037   -1.3285   -3.8688 C   0  0  2  0  0  0  0  0  0  0  0  0
    2.0276   -0.2350   -4.6433 C   0  0  0  0  0  0  0  0  0  0  0  0
    1.7406    0.9565   -4.5483 O   0  0  0  0  0  0  0  0  0  0  0  0
    0.2719   -2.0226   -4.7442 C   0  0  0  0  0  0  0  0  0  0  0  0
    0.6284    0.2898   -2.6617 H   0  0  0  0  0  0  0  0  0  0  0  0
    2.0327   -2.0559   -3.4952 H   0  0  0  0  0  0  0  0  0  0  0  0
   -0.4671   -1.3096   -5.1278 H   0  0  0  0  0  0  0  0  0  0  0  0
    0.7434   -2.5058   -5.6062 H   0  0  0  0  0  0  0  0  0  0  0  0
   -0.2684   -2.7884   -4.1772 H   0  0  0  0  0  0  0  0  0  0  0  0
    3.0029   -0.7503   -5.4856 N   0  0  0  0  0  0  0  0  0  0  0  0
    3.8194    0.0845   -6.3355 C   0  0  0  0  0  0  0  0  0  0  0  0
    3.1858   -1.7495   -5.4859 H   0  0  0  0  0  0  0  0  0  0  0  0
    3.3483    0.1727   -7.3255 H   0  0  0  0  0  0  0  0  0  0  0  0
    3.9154    1.0834   -5.8849 H   0  0  0  0  0  0  0  0  0  0  0  0
    4.8169   -0.3666   -6.4431 H   0  0  0  0  0  0  0  0  0  0  0  0
  1  3  1  0  0  0  0
  1  7  1  0  0  0  0
  1  2  2  0  0  0  0
 40 41  1  0  0  0  0
 41 49  1  0  0  0  0
 41 42  2  0  0  0  0
  8  9  1  0  0  0  0
  9 17  1  0  0  0  0
  9 10  2  0  0  0  0
 18 19  1  0  0  0  0
 19 39  1  0  0  0  0
 19 20  2  0  0  0  0
 40 43  1  0  0  0  0
  8 11  1  0  0  0  0
 49 50  1  0  0  0  0
 22 23  1  0  0  0  0
 21 22  1  0  0  0  0
 23 24  1  0  0  0  0
 18 21  1  0  0  0  0
 24 25  1  0  0  0  0
 39 40  1  0  0  0  0
  7  8  1  0  0  0  0
 17 18  1  0  0  0  0
  3  4  1  0  0  0  0
  3  5  1  0  0  0  0
  3  6  1  0  0  0  0
 43 46  1  0  0  0  0
 43 47  1  0  0  0  0
 43 48  1  0  0  0  0
 11 14  1  0  0  0  0
 11 15  1  0  0  0  0
 11 16  1  0  0  0  0
 50 52  1  0  0  0  0
 50 53  1  0  0  0  0
 50 54  1  0  0  0  0
 22 30  1  0  0  0  0
 22 31  1  0  0  0  0
 23 32  1  0  0  0  0
 23 33  1  0  0  0  0
 21 28  1  0  0  0  0
 21 29  1  0  0  0  0
 24 34  1  0  0  0  0
 24 35  1  0  0  0  0
 40 45  1  0  0  0  0
  8 13  1  0  0  0  0
 18 27  1  0  0  0  0
 49 51  1  0  0  0  0
  7 12  1  0  0  0  0
 39 44  1  0  0  0  0
 17 26  1  0  0  0  0
 25 36  1  0  0  0  0
 25 37  1  0  0  0  0
 25 38  1  0  0  0  0
M  CHG  1  25   1
M  END
$$$$

  -OEChem-05262214473D

 54 53  0     1  0  0  0  0  0999 V2000
    2.6714    2.8829   -3.0005 C   0  0  0  0  0  0  0  0  0  0  0  0
    3.1741    2.4398   -1.9745 O   0  0  0  0  0  0  0  0  0  0  0  0
    3.5527    3.3077   -4.1279 C   0  0  0  0  0  0  0  0  0  0  0  0
    3.8407    4.3691   -4.0597 H   0  0  0  0  0  0  0  0  0  0  0  0
    4.5024    2.7495   -4.1526 H   0  0  0  0  0  0  0  0  0  0  0  0
    3.1208    3.1887   -5.1345 H   0  0  0  0  0  0  0  0  0  0  0  0
    1.3174    3.0407   -3.2467 N   0  0  0  0  0  0  0  0  0  0  0  0
    0.2944    2.6927   -2.2960 C   0  0  2  0  0  0  0  0  0  0  0  0
    0.2976    1.1783   -2.1349 C   0  0  0  0  0  0  0  0  0  0  0  0
    0.7500    0.4142   -2.9850 O   0  0  0  0  0  0  0  0  0  0  0  0
   -1.0710    3.1886   -2.7460 C   0  0  0  0  0  0  0  0  0  0  0  0
    1.0312    3.4224   -4.1464 H   0  0  0  0  0  0  0  0  0  0  0  0
    0.5725    3.1622   -1.3461 H   0  0  0  0  0  0  0  0  0  0  0  0
   -1.3666    2.7292   -3.6963 H   0  0  0  0  0  0  0  0  0  0  0  0
   -1.8434    2.9482   -2.0082 H   0  0  0  0  0  0  0  0  0  0  0  0
   -1.0632    4.2744   -2.8901 H   0  0  0  0  0  0  0  0  0  0  0  0
   -0.3037    0.7742   -0.9484 N   0  0  0  0  0  0  0  0  0  0  0  0
   -0.4352   -0.6095   -0.5718 C   0  0  2  0  0  0  0  0  0  0  0  0
    0.1777   -1.4776   -1.6659 C   0  0  0  0  0  0  0  0  0  0  0  0
   -0.0428   -2.6828   -1.7674 O   0  0  0  0  0  0  0  0  0  0  0  0
   -1.8891   -0.9829   -0.2593 C   0  0  0  0  0  0  0  0  0  0  0  0
   -2.4466   -0.3221    1.0082 C   0  0  0  0  0  0  0  0  0  0  0  0
   -3.8899   -0.7588    1.2699 C   0  0  0  0  0  0  0  0  0  0  0  0
   -4.4477   -0.0828    2.5137 C   0  0  0  0  0  0  0  0  0  0  0  0
   -5.8516   -0.5157    2.7138 N   0  3  0  0  0  0  0  0  0  0  0  0
   -0.6336    1.4811   -0.2948 H   0  0  0  0  0  0  0  0  0  0  0  0
    0.1684   -0.7321    0.3355 H   0  0  0  0  0  0  0  0  0  0  0  0
   -2.5184   -0.6983   -1.1126 H   0  0  0  0  0  0  0  0  0  0  0  0
   -1.9720   -2.0720   -0.1567 H   0  0  0  0  0  0  0  0  0  0  0  0
   -1.8278   -0.5890    1.8727 H   0  0  0  0  0  0  0  0  0  0  0  0
   -2.4124    0.7691    0.9082 H   0  0  0  0  0  0  0  0  0  0  0  0
   -3.9277   -1.8486    1.3906 H   0  0  0  0  0  0  0  0  0  0  0  0
   -4.5121   -0.5102    0.4012 H   0  0  0  0  0  0  0  0  0  0  0  0
   -3.8968   -0.3652    3.4158 H   0  0  0  0  0  0  0  0  0  0  0  0
   -4.4622    1.0068    2.4167 H   0  0  0  0  0  0  0  0  0  0  0  0
   -6.3566    0.1418    3.3180 H   0  0  0  0  0  0  0  0  0  0  0  0
   -5.8911   -1.4420    3.1533 H   0  0  0  0  0  0  0  0  0  0  0  0
   -6.3509   -0.5693    1.8191 H   0  0  0  0  0  0  0  0  0  0  0  0
    0.9729   -0.7448   -2.5352 N   0  0  0  0  0  0  0  0  0  0  0  0
    1.6443   -1.3513   -3.6600 C   0  0  2  0  0  0  0  0  0  0  0  0
    2.6636   -0.3533   -4.1932 C   0  0  0  0  0  0  0  0  0  0  0  0
    2.5818    0.8578   -3.9987 O   0  0  0  0  0  0  0  0  0  0  0  0
    0.6560   -1.7509   -4.7446 C   0  0  0  0  0  0  0  0  0  0  0  0
    1.0864    0.2516   -2.3748 H   0  0  0  0  0  0  0  0  0  0  0  0
    2.1643   -2.2366   -3.2781 H   0  0  0  0  0  0  0  0  0  0  0  0
    0.1252   -0.8769   -5.1394 H   0  0  0  0  0  0  0  0  0  0  0  0
    1.1636   -2.2365   -5.5845 H   0  0  0  0  0  0  0  0  0  0  0  0
   -0.0941   -2.4457   -4.3516 H   0  0  0  0  0  0  0  0  0  0  0  0
    3.6517   -0.9695   -4.9482 N   0  0  0  0  0  0  0  0  0  0  0  0
    4.7270   -0.2353   -5.5733 C   0  0  0  0  0  0  0  0  0  0  0  0
    3.6518   -1.9810   -5.0411 H   0  0  0  0  0  0  0  0  0  0  0  0
    4.4405    0.0312   -6.6014 H   0  0  0  0  0  0  0  0  0  0  0  0
    4.9271    0.6815   -4.9992 H   0  0  0  0  0  0  0  0  0  0  0  0
    5.6326   -0.8592   -5.5952 H   0  0  0  0  0  0  0  0  0  0  0  0
  1  3  1  0  0  0  0
  1  7  1  0  0  0  0
  1  2  2  0  0  0  0
 40 41  1  0  0  0  0
 41 49  1  0  0  0  0
 41 42  2  0  0  0  0
  8  9  1  0  0  0  0
  9 17  1  0  0  0  0
  9 10  2  0  0  0  0
 18 19  1  0  0  0  0
 19 39  1  0  0  0  0
 19 20  2  0  0  0  0
 40 43  1  0  0  0  0
  8 11  1  0  0  0  0
 49 50  1  0  0  0  0
 22 23  1  0  0  0  0
 21 22  1  0  0  0  0
 23 24  1  0  0  0  0
 18 21  1  0  0  0  0
 24 25  1  0  0  0  0
 39 40  1  0  0  0  0
  7  8  1  0  0  0  0
 17 18  1  0  0  0  0
  3  4  1  0  0  0  0
  3  5  1  0  0  0  0
  3  6  1  0  0  0  0
 43 46  1  0  0  0  0
 43 47  1  0  0  0  0
 43 48  1  0  0  0  0
 11 14  1  0  0  0  0
 11 15  1  0  0  0  0
 11 16  1  0  0  0  0
 50 52  1  0  0  0  0
 50 53  1  0  0  0  0
 50 54  1  0  0  0  0
 22 30  1  0  0  0  0
 22 31  1  0  0  0  0
 23 32  1  0  0  0  0
 23 33  1  0  0  0  0
 21 28  1  0  0  0  0
 21 29  1  0  0  0  0
 24 34  1  0  0  0  0
 24 35  1  0  0  0  0
 40 45  1  0  0  0  0
  8 13  1  0  0  0  0
 18 27  1  0  0  0  0
 49 51  1  0  0  0  0
  7 12  1  0  0  0  0
 39 44  1  0  0  0  0
 17 26  1  0  0  0  0
 25 36  1  0  0  0  0
 25 37  1  0  0  0  0
 25 38  1  0  0  0  0
M  CHG  1  25   1
M  END
$$$$

  -OEChem-05262214473D

 54 53  0     1  0  0  0  0  0999 V2000
    2.6714    2.8829   -3.0005 C   0  0  0  0  0  0  0  0  0  0  0  0
    3.1741    2.4398   -1.9745 O   0  0  0  0  0  0  0  0  0  0  0  0
    3.5527    3.3077   -4.1279 C   0  0  0  0  0  0  0  0  0  0  0  0
    3.8407    4.3691   -4.0597 H   0  0  0  0  0  0  0  0  0  0  0  0
    4.5024    2.7495   -4.1526 H   0  0  0  0  0  0  0  0  0  0  0  0
    3.1208    3.1887   -5.1345 H   0  0  0  0  0  0  0  0  0  0  0  0
    1.3174    3.0407   -3.2467 N   0  0  0  0  0  0  0  0  0  0  0  0
    0.2944    2.6927   -2.2960 C   0  0  2  0  0  0  0  0  0  0  0  0
    0.2976    1.1783   -2.1349 C   0  0  0  0  0  0  0  0  0  0  0  0
    0.7500    0.4142   -2.9850 O   0  0  0  0  0  0  0  0  0  0  0  0
   -1.0710    3.1886   -2.7460 C   0  0  0  0  0  0  0  0  0  0  0  0
    1.0312    3.4224   -4.1464 H   0  0  0  0  0  0  0  0  0  0  0  0
    0.5725    3.1622   -1.3461 H   0  0  0  0  0  0  0  0  0  0  0  0
   -1.3666    2.7292   -3.6963 H   0  0  0  0  0  0  0  0  0  0  0  0
   -1.8434    2.9482   -2.0082 H   0  0  0  0  0  0  0  0  0  0  0  0
   -1.0632    4.2744   -2.8901 H   0  0  0  0  0  0  0  0  0  0  0  0
   -0.3037    0.7742   -0.9484 N   0  0  0  0  0  0  0  0  0  0  0  0
   -0.4352   -0.6095   -0.5718 C   0  0  2  0  0  0  0  0  0  0  0  0
    0.1777   -1.4776   -1.6659 C   0  0  0  0  0  0  0  0  0  0  0  0
   -0.2349   -2.6033   -1.9382 O   0  0  0  0  0  0  0  0  0  0  0  0
   -1.8891   -0.9829   -0.2593 C   0  0  0  0  0  0  0  0  0  0  0  0
   -2.4466   -0.3221    1.0082 C   0  0  0  0  0  0  0  0  0  0  0  0
   -3.8899   -0.7588    1.2699 C   0  0  0  0  0  0  0  0  0  0  0  0
   -4.4477   -0.0828    2.5137 C   0  0  0  0  0  0  0  0  0  0  0  0
   -5.8516   -0.5157    2.7138 N   0  3  0  0  0  0  0  0  0  0  0  0
   -0.6336    1.4811   -0.2948 H   0  0  0  0  0  0  0  0  0  0  0  0
    0.1684   -0.7321    0.3355 H   0  0  0  0  0  0  0  0  0  0  0  0
   -2.5184   -0.6983   -1.1126 H   0  0  0  0  0  0  0  0  0  0  0  0
   -1.9720   -2.0720   -0.1567 H   0  0  0  0  0  0  0  0  0  0  0  0
   -1.8278   -0.5890    1.8727 H   0  0  0  0  0  0  0  0  0  0  0  0
   -2.4124    0.7691    0.9082 H   0  0  0  0  0  0  0  0  0  0  0  0
   -3.9277   -1.8486    1.3906 H   0  0  0  0  0  0  0  0  0  0  0  0
   -4.5121   -0.5102    0.4012 H   0  0  0  0  0  0  0  0  0  0  0  0
   -3.8968   -0.3652    3.4158 H   0  0  0  0  0  0  0  0  0  0  0  0
   -4.4622    1.0068    2.4167 H   0  0  0  0  0  0  0  0  0  0  0  0
   -6.3566    0.1418    3.3180 H   0  0  0  0  0  0  0  0  0  0  0  0
   -5.8911   -1.4420    3.1533 H   0  0  0  0  0  0  0  0  0  0  0  0
   -6.3509   -0.5693    1.8191 H   0  0  0  0  0  0  0  0  0  0  0  0
    1.2171   -0.8372   -2.3251 N   0  0  0  0  0  0  0  0  0  0  0  0
    1.9382   -1.4583   -3.4104 C   0  0  2  0  0  0  0  0  0  0  0  0
    3.1897   -0.6323   -3.6770 C   0  0  0  0  0  0  0  0  0  0  0  0
    3.2951    0.5491   -3.3542 O   0  0  0  0  0  0  0  0  0  0  0  0
    1.0775   -1.5597   -4.6601 C   0  0  0  0  0  0  0  0  0  0  0  0
    1.4794    0.0999   -2.0342 H   0  0  0  0  0  0  0  0  0  0  0  0
    2.2259   -2.4582   -3.0678 H   0  0  0  0  0  0  0  0  0  0  0  0
    0.7794   -0.5676   -5.0183 H   0  0  0  0  0  0  0  0  0  0  0  0
    1.6162   -2.0567   -5.4736 H   0  0  0  0  0  0  0  0  0  0  0  0
    0.1635   -2.1288   -4.4587 H   0  0  0  0  0  0  0  0  0  0  0  0
    4.1586   -1.3575   -4.3563 N   0  0  0  0  0  0  0  0  0  0  0  0
    5.4320   -0.7919   -4.7367 C   0  0  0  0  0  0  0  0  0  0  0  0
    3.9934   -2.3373   -4.5670 H   0  0  0  0  0  0  0  0  0  0  0  0
    5.3627   -0.3835   -5.7557 H   0  0  0  0  0  0  0  0  0  0  0  0
    5.6992    0.0133   -4.0365 H   0  0  0  0  0  0  0  0  0  0  0  0
    6.2042   -1.5747   -4.7072 H   0  0  0  0  0  0  0  0  0  0  0  0
  1  3  1  0  0  0  0
  1  7  1  0  0  0  0
  1  2  2  0  0  0  0
 40 41  1  0  0  0  0
 41 49  1  0  0  0  0
 41 42  2  0  0  0  0
  8  9  1  0  0  0  0
  9 17  1  0  0  0  0
  9 10  2  0  0  0  0
 18 19  1  0  0  0  0
 19 39  1  0  0  0  0
 19 20  2  0  0  0  0
 40 43  1  0  0  0  0
  8 11  1  0  0  0  0
 49 50  1  0  0  0  0
 22 23  1  0  0  0  0
 21 22  1  0  0  0  0
 23 24  1  0  0  0  0
 18 21  1  0  0  0  0
 24 25  1  0  0  0  0
 39 40  1  0  0  0  0
  7  8  1  0  0  0  0
 17 18  1  0  0  0  0
  3  4  1  0  0  0  0
  3  5  1  0  0  0  0
  3  6  1  0  0  0  0
 43 46  1  0  0  0  0
 43 47  1  0  0  0  0
 43 48  1  0  0  0  0
 11 14  1  0  0  0  0
 11 15  1  0  0  0  0
 11 16  1  0  0  0  0
 50 52  1  0  0  0  0
 50 53  1  0  0  0  0
 50 54  1  0  0  0  0
 22 30  1  0  0  0  0
 22 31  1  0  0  0  0
 23 32  1  0  0  0  0
 23 33  1  0  0  0  0
 21 28  1  0  0  0  0
 21 29  1  0  0  0  0
 24 34  1  0  0  0  0
 24 35  1  0  0  0  0
 40 45  1  0  0  0  0
  8 13  1  0  0  0  0
 18 27  1  0  0  0  0
 49 51  1  0  0  0  0
  7 12  1  0  0  0  0
 39 44  1  0  0  0  0
 17 26  1  0  0  0  0
 25 36  1  0  0  0  0
 25 37  1  0  0  0  0
 25 38  1  0  0  0  0
M  CHG  1  25   1
M  END
$$$$

  -OEChem-05262214473D

 54 53  0     1  0  0  0  0  0999 V2000
    2.6714    2.8829   -3.0005 C   0  0  0  0  0  0  0  0  0  0  0  0
    3.1741    2.4398   -1.9745 O   0  0  0  0  0  0  0  0  0  0  0  0
    3.5527    3.3077   -4.1279 C   0  0  0  0  0  0  0  0  0  0  0  0
    3.8407    4.3691   -4.0597 H   0  0  0  0  0  0  0  0  0  0  0  0
    4.5024    2.7495   -4.1526 H   0  0  0  0  0  0  0  0  0  0  0  0
    3.1208    3.1887   -5.1345 H   0  0  0  0  0  0  0  0  0  0  0  0
    1.3174    3.0407   -3.2467 N   0  0  0  0  0  0  0  0  0  0  0  0
    0.2944    2.6927   -2.2960 C   0  0  2  0  0  0  0  0  0  0  0  0
    0.2976    1.1783   -2.1349 C   0  0  0  0  0  0  0  0  0  0  0  0
    0.7500    0.4142   -2.9850 O   0  0  0  0  0  0  0  0  0  0  0  0
   -1.0710    3.1886   -2.7460 C   0  0  0  0  0  0  0  0  0  0  0  0
    1.0312    3.4224   -4.1464 H   0  0  0  0  0  0  0  0  0  0  0  0
    0.5725    3.1622   -1.3461 H   0  0  0  0  0  0  0  0  0  0  0  0
   -1.3666    2.7292   -3.6963 H   0  0  0  0  0  0  0  0  0  0  0  0
   -1.8434    2.9482   -2.0082 H   0  0  0  0  0  0  0  0  0  0  0  0
   -1.0632    4.2744   -2.8901 H   0  0  0  0  0  0  0  0  0  0  0  0
   -0.3037    0.7742   -0.9484 N   0  0  0  0  0  0  0  0  0  0  0  0
   -0.4352   -0.6095   -0.5718 C   0  0  2  0  0  0  0  0  0  0  0  0
    0.1777   -1.4776   -1.6659 C   0  0  0  0  0  0  0  0  0  0  0  0
   -0.3805   -2.4730   -2.1231 O   0  0  0  0  0  0  0  0  0  0  0  0
   -1.8891   -0.9829   -0.2593 C   0  0  0  0  0  0  0  0  0  0  0  0
   -2.4466   -0.3221    1.0082 C   0  0  0  0  0  0  0  0  0  0  0  0
   -3.8899   -0.7588    1.2699 C   0  0  0  0  0  0  0  0  0  0  0  0
   -4.4477   -0.0828    2.5137 C   0  0  0  0  0  0  0  0  0  0  0  0
   -5.8516   -0.5157    2.7138 N   0  3  0  0  0  0  0  0  0  0  0  0
   -0.6336    1.4811   -0.2948 H   0  0  0  0  0  0  0  0  0  0  0  0
    0.1684   -0.7321    0.3355 H   0  0  0  0  0  0  0  0  0  0  0  0
   -2.5184   -0.6983   -1.1126 H   0  0  0  0  0  0  0  0  0  0  0  0
   -1.9720   -2.0720   -0.1567 H   0  0  0  0  0  0  0  0  0  0  0  0
   -1.8278   -0.5890    1.8727 H   0  0  0  0  0  0  0  0  0  0  0  0
   -2.4124    0.7691    0.9082 H   0  0  0  0  0  0  0  0  0  0  0  0
   -3.9277   -1.8486    1.3906 H   0  0  0  0  0  0  0  0  0  0  0  0
   -4.5121   -0.5102    0.4012 H   0  0  0  0  0  0  0  0  0  0  0  0
   -3.8968   -0.3652    3.4158 H   0  0  0  0  0  0  0  0  0  0  0  0
   -4.4622    1.0068    2.4167 H   0  0  0  0  0  0  0  0  0  0  0  0
   -6.3566    0.1418    3.3180 H   0  0  0  0  0  0  0  0  0  0  0  0
   -5.8911   -1.4420    3.1533 H   0  0  0  0  0  0  0  0  0  0  0  0
   -6.3509   -0.5693    1.8191 H   0  0  0  0  0  0  0  0  0  0  0  0
    1.4049   -0.9937   -2.0957 N   0  0  0  0  0  0  0  0  0  0  0  0
    2.1655   -1.6421   -3.1372 C   0  0  2  0  0  0  0  0  0  0  0  0
    3.5700   -1.0533   -3.1299 C   0  0  0  0  0  0  0  0  0  0  0  0
    3.8318    0.0514   -2.6586 O   0  0  0  0  0  0  0  0  0  0  0  0
    1.5077   -1.4621   -4.4965 C   0  0  0  0  0  0  0  0  0  0  0  0
    1.7806   -0.1551   -1.6631 H   0  0  0  0  0  0  0  0  0  0  0  0
    2.2133   -2.7055   -2.8786 H   0  0  0  0  0  0  0  0  0  0  0  0
    1.4509   -0.4029   -4.7728 H   0  0  0  0  0  0  0  0  0  0  0  0
    2.0705   -1.9786   -5.2811 H   0  0  0  0  0  0  0  0  0  0  0  0
    0.4869   -1.8594   -4.4912 H   0  0  0  0  0  0  0  0  0  0  0  0
    4.4890   -1.8880   -3.7503 N   0  0  0  0  0  0  0  0  0  0  0  0
    5.8864   -1.5474   -3.8826 C   0  0  0  0  0  0  0  0  0  0  0  0
    4.1873   -2.7943   -4.0957 H   0  0  0  0  0  0  0  0  0  0  0  0
    6.0518   -1.0432   -4.8461 H   0  0  0  0  0  0  0  0  0  0  0  0
    6.1791   -0.8756   -3.0623 H   0  0  0  0  0  0  0  0  0  0  0  0
    6.4927   -2.4642   -3.8398 H   0  0  0  0  0  0  0  0  0  0  0  0
  1  3  1  0  0  0  0
  1  7  1  0  0  0  0
  1  2  2  0  0  0  0
 40 41  1  0  0  0  0
 41 49  1  0  0  0  0
 41 42  2  0  0  0  0
  8  9  1  0  0  0  0
  9 17  1  0  0  0  0
  9 10  2  0  0  0  0
 18 19  1  0  0  0  0
 19 39  1  0  0  0  0
 19 20  2  0  0  0  0
 40 43  1  0  0  0  0
  8 11  1  0  0  0  0
 49 50  1  0  0  0  0
 22 23  1  0  0  0  0
 21 22  1  0  0  0  0
 23 24  1  0  0  0  0
 18 21  1  0  0  0  0
 24 25  1  0  0  0  0
 39 40  1  0  0  0  0
  7  8  1  0  0  0  0
 17 18  1  0  0  0  0
  3  4  1  0  0  0  0
  3  5  1  0  0  0  0
  3  6  1  0  0  0  0
 43 46  1  0  0  0  0
 43 47  1  0  0  0  0
 43 48  1  0  0  0  0
 11 14  1  0  0  0  0
 11 15  1  0  0  0  0
 11 16  1  0  0  0  0
 50 52  1  0  0  0  0
 50 53  1  0  0  0  0
 50 54  1  0  0  0  0
 22 30  1  0  0  0  0
 22 31  1  0  0  0  0
 23 32  1  0  0  0  0
 23 33  1  0  0  0  0
 21 28  1  0  0  0  0
 21 29  1  0  0  0  0
 24 34  1  0  0  0  0
 24 35  1  0  0  0  0
 40 45  1  0  0  0  0
  8 13  1  0  0  0  0
 18 27  1  0  0  0  0
 49 51  1  0  0  0  0
  7 12  1  0  0  0  0
 39 44  1  0  0  0  0
 17 26  1  0  0  0  0
 25 36  1  0  0  0  0
 25 37  1  0  0  0  0
 25 38  1  0  0  0  0
M  CHG  1  25   1
M  END
$$$$

  -OEChem-05262214473D

 54 53  0     1  0  0  0  0  0999 V2000
    2.6714    2.8829   -3.0005 C   0  0  0  0  0  0  0  0  0  0  0  0
    3.1741    2.4398   -1.9745 O   0  0  0  0  0  0  0  0  0  0  0  0
    3.5527    3.3077   -4.1279 C   0  0  0  0  0  0  0  0  0  0  0  0
    3.8407    4.3691   -4.0597 H   0  0  0  0  0  0  0  0  0  0  0  0
    4.5024    2.7495   -4.1526 H   0  0  0  0  0  0  0  0  0  0  0  0
    3.1208    3.1887   -5.1345 H   0  0  0  0  0  0  0  0  0  0  0  0
    1.3174    3.0407   -3.2467 N   0  0  0  0  0  0  0  0  0  0  0  0
    0.2944    2.6927   -2.2960 C   0  0  2  0  0  0  0  0  0  0  0  0
    0.2976    1.1783   -2.1349 C   0  0  0  0  0  0  0  0  0  0  0  0
    0.7500    0.4142   -2.9850 O   0  0  0  0  0  0  0  0  0  0  0  0
   -1.0710    3.1886   -2.7460 C   0  0  0  0  0  0  0  0  0  0  0  0
    1.0312    3.4224   -4.1464 H   0  0  0  0  0  0  0  0  0  0  0  0
    0.5725    3.1622   -1.3461 H   0  0  0  0  0  0  0  0  0  0  0  0
   -1.3666    2.7292   -3.6963 H   0  0  0  0  0  0  0  0  0  0  0  0
   -1.8434    2.9482   -2.0082 H   0  0  0  0  0  0  0  0  0  0  0  0
   -1.0632    4.2744   -2.8901 H   0  0  0  0  0  0  0  0  0  0  0  0
   -0.3037    0.7742   -0.9484 N   0  0  0  0  0  0  0  0  0  0  0  0
   -0.4352   -0.6095   -0.5718 C   0  0  2  0  0  0  0  0  0  0  0  0
    0.1777   -1.4776   -1.6659 C   0  0  0  0  0  0  0  0  0  0  0  0
   -0.4697   -2.3009   -2.3097 O   0  0  0  0  0  0  0  0  0  0  0  0
   -1.8891   -0.9829   -0.2593 C   0  0  0  0  0  0  0  0  0  0  0  0
   -2.4466   -0.3221    1.0082 C   0  0  0  0  0  0  0  0  0  0  0  0
   -3.8899   -0.7588    1.2699 C   0  0  0  0  0  0  0  0  0  0  0  0
   -4.4477   -0.0828    2.5137 C   0  0  0  0  0  0  0  0  0  0  0  0
   -5.8516   -0.5157    2.7138 N   0  3  0  0  0  0  0  0  0  0  0  0
   -0.6336    1.4811   -0.2948 H   0  0  0  0  0  0  0  0  0  0  0  0
    0.1684   -0.7321    0.3355 H   0  0  0  0  0  0  0  0  0  0  0  0
   -2.5184   -0.6983   -1.1126 H   0  0  0  0  0  0  0  0  0  0  0  0
   -1.9720   -2.0720   -0.1567 H   0  0  0  0  0  0  0  0  0  0  0  0
   -1.8278   -0.5890    1.8727 H   0  0  0  0  0  0  0  0  0  0  0  0
   -2.4124    0.7691    0.9082 H   0  0  0  0  0  0  0  0  0  0  0  0
   -3.9277   -1.8486    1.3906 H   0  0  0  0  0  0  0  0  0  0  0  0
   -4.5121   -0.5102    0.4012 H   0  0  0  0  0  0  0  0  0  0  0  0
   -3.8968   -0.3652    3.4158 H   0  0  0  0  0  0  0  0  0  0  0  0
   -4.4622    1.0068    2.4167 H   0  0  0  0  0  0  0  0  0  0  0  0
   -6.3566    0.1418    3.3180 H   0  0  0  0  0  0  0  0  0  0  0  0
   -5.8911   -1.4420    3.1533 H   0  0  0  0  0  0  0  0  0  0  0  0
   -6.3509   -0.5693    1.8191 H   0  0  0  0  0  0  0  0  0  0  0  0
    1.5234   -1.2035   -1.8628 N   0  0  0  0  0  0  0  0  0  0  0  0
    2.3106   -1.8903   -2.8590 C   0  0  2  0  0  0  0  0  0  0  0  0
    3.7786   -1.5874   -2.5893 C   0  0  0  0  0  0  0  0  0  0  0  0
    4.1553   -0.6012   -1.9595 O   0  0  0  0  0  0  0  0  0  0  0  0
    1.9173   -1.4647   -4.2650 C   0  0  0  0  0  0  0  0  0  0  0  0
    1.9696   -0.4959   -1.2868 H   0  0  0  0  0  0  0  0  0  0  0  0
    2.1273   -2.9617   -2.7234 H   0  0  0  0  0  0  0  0  0  0  0  0
    2.0939   -0.3940   -4.4196 H   0  0  0  0  0  0  0  0  0  0  0  0
    2.4954   -2.0075   -5.0202 H   0  0  0  0  0  0  0  0  0  0  0  0
    0.8542   -1.6559   -4.4470 H   0  0  0  0  0  0  0  0  0  0  0  0
    4.6204   -2.5247   -3.1714 N   0  0  0  0  0  0  0  0  0  0  0  0
    6.0592   -2.4504   -3.0692 C   0  0  0  0  0  0  0  0  0  0  0  0
    4.2204   -3.3207   -3.6595 H   0  0  0  0  0  0  0  0  0  0  0  0
    6.4610   -1.9030   -3.9346 H   0  0  0  0  0  0  0  0  0  0  0  0
    6.3342   -1.9246   -2.1430 H   0  0  0  0  0  0  0  0  0  0  0  0
    6.4784   -3.4673   -3.0519 H   0  0  0  0  0  0  0  0  0  0  0  0
  1  3  1  0  0  0  0
  1  7  1  0  0  0  0
  1  2  2  0  0  0  0
 40 41  1  0  0  0  0
 41 49  1  0  0  0  0
 41 42  2  0  0  0  0
  8  9  1  0  0  0  0
  9 17  1  0  0  0  0
  9 10  2  0  0  0  0
 18 19  1  0  0  0  0
 19 39  1  0  0  0  0
 19 20  2  0  0  0  0
 40 43  1  0  0  0  0
  8 11  1  0  0  0  0
 49 50  1  0  0  0  0
 22 23  1  0  0  0  0
 21 22  1  0  0  0  0
 23 24  1  0  0  0  0
 18 21  1  0  0  0  0
 24 25  1  0  0  0  0
 39 40  1  0  0  0  0
  7  8  1  0  0  0  0
 17 18  1  0  0  0  0
  3  4  1  0  0  0  0
  3  5  1  0  0  0  0
  3  6  1  0  0  0  0
 43 46  1  0  0  0  0
 43 47  1  0  0  0  0
 43 48  1  0  0  0  0
 11 14  1  0  0  0  0
 11 15  1  0  0  0  0
 11 16  1  0  0  0  0
 50 52  1  0  0  0  0
 50 53  1  0  0  0  0
 50 54  1  0  0  0  0
 22 30  1  0  0  0  0
 22 31  1  0  0  0  0
 23 32  1  0  0  0  0
 23 33  1  0  0  0  0
 21 28  1  0  0  0  0
 21 29  1  0  0  0  0
 24 34  1  0  0  0  0
 24 35  1  0  0  0  0
 40 45  1  0  0  0  0
  8 13  1  0  0  0  0
 18 27  1  0  0  0  0
 49 51  1  0  0  0  0
  7 12  1  0  0  0  0
 39 44  1  0  0  0  0
 17 26  1  0  0  0  0
 25 36  1  0  0  0  0
 25 37  1  0  0  0  0
 25 38  1  0  0  0  0
M  CHG  1  25   1
M  END
$$$$

  -OEChem-05262214473D

 54 53  0     1  0  0  0  0  0999 V2000
    2.6714    2.8829   -3.0005 C   0  0  0  0  0  0  0  0  0  0  0  0
    3.1741    2.4398   -1.9745 O   0  0  0  0  0  0  0  0  0  0  0  0
    3.5527    3.3077   -4.1279 C   0  0  0  0  0  0  0  0  0  0  0  0
    3.8407    4.3691   -4.0597 H   0  0  0  0  0  0  0  0  0  0  0  0
    4.5024    2.7495   -4.1526 H   0  0  0  0  0  0  0  0  0  0  0  0
    3.1208    3.1887   -5.1345 H   0  0  0  0  0  0  0  0  0  0  0  0
    1.3174    3.0407   -3.2467 N   0  0  0  0  0  0  0  0  0  0  0  0
    0.2944    2.6927   -2.2960 C   0  0  2  0  0  0  0  0  0  0  0  0
    0.2976    1.1783   -2.1349 C   0  0  0  0  0  0  0  0  0  0  0  0
    0.7500    0.4142   -2.9850 O   0  0  0  0  0  0  0  0  0  0  0  0
   -1.0710    3.1886   -2.7460 C   0  0  0  0  0  0  0  0  0  0  0  0
    1.0312    3.4224   -4.1464 H   0  0  0  0  0  0  0  0  0  0  0  0
    0.5725    3.1622   -1.3461 H   0  0  0  0  0  0  0  0  0  0  0  0
   -1.3666    2.7292   -3.6963 H   0  0  0  0  0  0  0  0  0  0  0  0
   -1.8434    2.9482   -2.0082 H   0  0  0  0  0  0  0  0  0  0  0  0
   -1.0632    4.2744   -2.8901 H   0  0  0  0  0  0  0  0  0  0  0  0
   -0.3037    0.7742   -0.9484 N   0  0  0  0  0  0  0  0  0  0  0  0
   -0.4352   -0.6095   -0.5718 C   0  0  2  0  0  0  0  0  0  0  0  0
    0.1777   -1.4776   -1.6659 C   0  0  0  0  0  0  0  0  0  0  0  0
   -0.4965   -2.0987   -2.4851 O   0  0  0  0  0  0  0  0  0  0  0  0
   -1.8891   -0.9829   -0.2593 C   0  0  0  0  0  0  0  0  0  0  0  0
   -2.4466   -0.3221    1.0082 C   0  0  0  0  0  0  0  0  0  0  0  0
   -3.8899   -0.7588    1.2699 C   0  0  0  0  0  0  0  0  0  0  0  0
   -4.4477   -0.0828    2.5137 C   0  0  0  0  0  0  0  0  0  0  0  0
   -5.8516   -0.5157    2.7138 N   0  3  0  0  0  0  0  0  0  0  0  0
   -0.6336    1.4811   -0.2948 H   0  0  0  0  0  0  0  0  0  0  0  0
    0.1684   -0.7321    0.3355 H   0  0  0  0  0  0  0  0  0  0  0  0
   -2.5184   -0.6983   -1.1126 H   0  0  0  0  0  0  0  0  0  0  0  0
   -1.9720   -2.0720   -0.1567 H   0  0  0  0  0  0  0  0  0  0  0  0
   -1.8278   -0.5890    1.8727 H   0  0  0  0  0  0  0  0  0  0  0  0
   -2.4124    0.7691    0.9082 H   0  0  0  0  0  0  0  0  0  0  0  0
   -3.9277   -1.8486    1.3906 H   0  0  0  0  0  0  0  0  0  0  0  0
   -4.5121   -0.5102    0.4012 H   0  0  0  0  0  0  0  0  0  0  0  0
   -3.8968   -0.3652    3.4158 H   0  0  0  0  0  0  0  0  0  0  0  0
   -4.4622    1.0068    2.4167 H   0  0  0  0  0  0  0  0  0  0  0  0
   -6.3566    0.1418    3.3180 H   0  0  0  0  0  0  0  0  0  0  0  0
   -5.8911   -1.4420    3.1533 H   0  0  0  0  0  0  0  0  0  0  0  0
   -6.3509   -0.5693    1.8191 H   0  0  0  0  0  0  0  0  0  0  0  0
    1.5647   -1.4524   -1.6422 N   0  0  0  0  0  0  0  0  0  0  0  0
    2.3638   -2.1859   -2.5946 C   0  0  2  0  0  0  0  0  0  0  0  0
    3.8013   -2.1982   -2.0918 C   0  0  0  0  0  0  0  0  0  0  0  0
    4.2437   -1.3644   -1.3044 O   0  0  0  0  0  0  0  0  0  0  0  0
    2.2783   -1.5674   -3.9813 C   0  0  0  0  0  0  0  0  0  0  0  0
    2.0335   -0.8993   -0.9309 H   0  0  0  0  0  0  0  0  0  0  0  0
    1.9738   -3.2094   -2.6129 H   0  0  0  0  0  0  0  0  0  0  0  0
    2.6645   -0.5416   -3.9828 H   0  0  0  0  0  0  0  0  0  0  0  0
    2.8620   -2.1414   -4.7085 H   0  0  0  0  0  0  0  0  0  0  0  0
    1.2402   -1.5321   -4.3290 H   0  0  0  0  0  0  0  0  0  0  0  0
    4.5438   -3.2244   -2.6591 N   0  0  0  0  0  0  0  0  0  0  0  0
    5.9386   -3.4393   -2.3520 C   0  0  0  0  0  0  0  0  0  0  0  0
    4.0904   -3.8806   -3.2880 H   0  0  0  0  0  0  0  0  0  0  0  0
    6.5623   -2.9043   -3.0833 H   0  0  0  0  0  0  0  0  0  0  0  0
    6.1537   -3.0623   -1.3413 H   0  0  0  0  0  0  0  0  0  0  0  0
    6.1623   -4.5154   -2.3972 H   0  0  0  0  0  0  0  0  0  0  0  0
  1  3  1  0  0  0  0
  1  7  1  0  0  0  0
  1  2  2  0  0  0  0
 40 41  1  0  0  0  0
 41 49  1  0  0  0  0
 41 42  2  0  0  0  0
  8  9  1  0  0  0  0
  9 17  1  0  0  0  0
  9 10  2  0  0  0  0
 18 19  1  0  0  0  0
 19 39  1  0  0  0  0
 19 20  2  0  0  0  0
 40 43  1  0  0  0  0
  8 11  1  0  0  0  0
 49 50  1  0  0  0  0
 22 23  1  0  0  0  0
 21 22  1  0  0  0  0
 23 24  1  0  0  0  0
 18 21  1  0  0  0  0
 24 25  1  0  0  0  0
 39 40  1  0  0  0  0
  7  8  1  0  0  0  0
 17 18  1  0  0  0  0
  3  4  1  0  0  0  0
  3  5  1  0  0  0  0
  3  6  1  0  0  0  0
 43 46  1  0  0  0  0
 43 47  1  0  0  0  0
 43 48  1  0  0  0  0
 11 14  1  0  0  0  0
 11 15  1  0  0  0  0
 11 16  1  0  0  0  0
 50 52  1  0  0  0  0
 50 53  1  0  0  0  0
 50 54  1  0  0  0  0
 22 30  1  0  0  0  0
 22 31  1  0  0  0  0
 23 32  1  0  0  0  0
 23 33  1  0  0  0  0
 21 28  1  0  0  0  0
 21 29  1  0  0  0  0
 24 34  1  0  0  0  0
 24 35  1  0  0  0  0
 40 45  1  0  0  0  0
  8 13  1  0  0  0  0
 18 27  1  0  0  0  0
 49 51  1  0  0  0  0
  7 12  1  0  0  0  0
 39 44  1  0  0  0  0
 17 26  1  0  0  0  0
 25 36  1  0  0  0  0
 25 37  1  0  0  0  0
 25 38  1  0  0  0  0
M  CHG  1  25   1
M  END
$$$$

  -OEChem-05262214473D

 54 53  0     1  0  0  0  0  0999 V2000
    2.6714    2.8829   -3.0005 C   0  0  0  0  0  0  0  0  0  0  0  0
    3.1741    2.4398   -1.9745 O   0  0  0  0  0  0  0  0  0  0  0  0
    3.5527    3.3077   -4.1279 C   0  0  0  0  0  0  0  0  0  0  0  0
    3.8407    4.3691   -4.0597 H   0  0  0  0  0  0  0  0  0  0  0  0
    4.5024    2.7495   -4.1526 H   0  0  0  0  0  0  0  0  0  0  0  0
    3.1208    3.1887   -5.1345 H   0  0  0  0  0  0  0  0  0  0  0  0
    1.3174    3.0407   -3.2467 N   0  0  0  0  0  0  0  0  0  0  0  0
    0.2944    2.6927   -2.2960 C   0  0  2  0  0  0  0  0  0  0  0  0
    0.2976    1.1783   -2.1349 C   0  0  0  0  0  0  0  0  0  0  0  0
    0.7500    0.4142   -2.9850 O   0  0  0  0  0  0  0  0  0  0  0  0
   -1.0710    3.1886   -2.7460 C   0  0  0  0  0  0  0  0  0  0  0  0
    1.0312    3.4224   -4.1464 H   0  0  0  0  0  0  0  0  0  0  0  0
    0.5725    3.1622   -1.3461 H   0  0  0  0  0  0  0  0  0  0  0  0
   -1.3666    2.7292   -3.6963 H   0  0  0  0  0  0  0  0  0  0  0  0
   -1.8434    2.9482   -2.0082 H   0  0  0  0  0  0  0  0  0  0  0  0
   -1.0632    4.2744   -2.8901 H   0  0  0  0  0  0  0  0  0  0  0  0
   -0.3037    0.7742   -0.9484 N   0  0  0  0  0  0  0  0  0  0  0  0
   -0.4352   -0.6095   -0.5718 C   0  0  2  0  0  0  0  0  0  0  0  0
    0.1777   -1.4776   -1.6659 C   0  0  0  0  0  0  0  0  0  0  0  0
   -0.4590   -1.8801   -2.6375 O   0  0  0  0  0  0  0  0  0  0  0  0
   -1.8891   -0.9829   -0.2593 C   0  0  0  0  0  0  0  0  0  0  0  0
   -2.4466   -0.3221    1.0082 C   0  0  0  0  0  0  0  0  0  0  0  0
   -3.8899   -0.7588    1.2699 C   0  0  0  0  0  0  0  0  0  0  0  0
   -4.4477   -0.0828    2.5137 C   0  0  0  0  0  0  0  0  0  0  0  0
   -5.8516   -0.5157    2.7138 N   0  3  0  0  0  0  0  0  0  0  0  0
   -0.6336    1.4811   -0.2948 H   0  0  0  0  0  0  0  0  0  0  0  0
    0.1684   -0.7321    0.3355 H   0  0  0  0  0  0  0  0  0  0  0  0
   -2.5184   -0.6983   -1.1126 H   0  0  0  0  0  0  0  0  0  0  0  0
   -1.9720   -2.0720   -0.1567 H   0  0  0  0  0  0  0  0  0  0  0  0
   -1.8278   -0.5890    1.8727 H   0  0  0  0  0  0  0  0  0  0  0  0
   -2.4124    0.7691    0.9082 H   0  0  0  0  0  0  0  0  0  0  0  0
   -3.9277   -1.8486    1.3906 H   0  0  0  0  0  0  0  0  0  0  0  0
   -4.5121   -0.5102    0.4012 H   0  0  0  0  0  0  0  0  0  0  0  0
   -3.8968   -0.3652    3.4158 H   0  0  0  0  0  0  0  0  0  0  0  0
   -4.4622    1.0068    2.4167 H   0  0  0  0  0  0  0  0  0  0  0  0
   -6.3566    0.1418    3.3180 H   0  0  0  0  0  0  0  0  0  0  0  0
   -5.8911   -1.4420    3.1533 H   0  0  0  0  0  0  0  0  0  0  0  0
   -6.3509   -0.5693    1.8191 H   0  0  0  0  0  0  0  0  0  0  0  0
    1.5258   -1.7234   -1.4489 N   0  0  0  0  0  0  0  0  0  0  0  0
    2.3213   -2.5088   -2.3622 C   0  0  2  0  0  0  0  0  0  0  0  0
    3.6365   -2.8442   -1.6715 C   0  0  0  0  0  0  0  0  0  0  0  0
    4.0909   -2.1861   -0.7379 O   0  0  0  0  0  0  0  0  0  0  0  0
    2.5661   -1.7630   -3.6648 C   0  0  0  0  0  0  0  0  0  0  0  0
    1.9678   -1.3378   -0.6197 H   0  0  0  0  0  0  0  0  0  0  0  0
    1.7633   -3.4316   -2.5545 H   0  0  0  0  0  0  0  0  0  0  0  0
    3.1241   -0.8355   -3.4922 H   0  0  0  0  0  0  0  0  0  0  0  0
    3.1454   -2.3712   -4.3673 H   0  0  0  0  0  0  0  0  0  0  0  0
    1.6186   -1.4964   -4.1453 H   0  0  0  0  0  0  0  0  0  0  0  0
    4.2645   -3.9393   -2.2484 N   0  0  0  0  0  0  0  0  0  0  0  0
    5.5329   -4.4468   -1.7799 C   0  0  0  0  0  0  0  0  0  0  0  0
    3.8061   -4.4360   -3.0066 H   0  0  0  0  0  0  0  0  0  0  0  0
    6.3489   -3.9788   -2.3503 H   0  0  0  0  0  0  0  0  0  0  0  0
    5.6502   -4.2111   -0.7119 H   0  0  0  0  0  0  0  0  0  0  0  0
    5.5659   -5.5372   -1.9205 H   0  0  0  0  0  0  0  0  0  0  0  0
  1  3  1  0  0  0  0
  1  7  1  0  0  0  0
  1  2  2  0  0  0  0
 40 41  1  0  0  0  0
 41 49  1  0  0  0  0
 41 42  2  0  0  0  0
  8  9  1  0  0  0  0
  9 17  1  0  0  0  0
  9 10  2  0  0  0  0
 18 19  1  0  0  0  0
 19 39  1  0  0  0  0
 19 20  2  0  0  0  0
 40 43  1  0  0  0  0
  8 11  1  0  0  0  0
 49 50  1  0  0  0  0
 22 23  1  0  0  0  0
 21 22  1  0  0  0  0
 23 24  1  0  0  0  0
 18 21  1  0  0  0  0
 24 25  1  0  0  0  0
 39 40  1  0  0  0  0
  7  8  1  0  0  0  0
 17 18  1  0  0  0  0
  3  4  1  0  0  0  0
  3  5  1  0  0  0  0
  3  6  1  0  0  0  0
 43 46  1  0  0  0  0
 43 47  1  0  0  0  0
 43 48  1  0  0  0  0
 11 14  1  0  0  0  0
 11 15  1  0  0  0  0
 11 16  1  0  0  0  0
 50 52  1  0  0  0  0
 50 53  1  0  0  0  0
 50 54  1  0  0  0  0
 22 30  1  0  0  0  0
 22 31  1  0  0  0  0
 23 32  1  0  0  0  0
 23 33  1  0  0  0  0
 21 28  1  0  0  0  0
 21 29  1  0  0  0  0
 24 34  1  0  0  0  0
 24 35  1  0  0  0  0
 40 45  1  0  0  0  0
  8 13  1  0  0  0  0
 18 27  1  0  0  0  0
 49 51  1  0  0  0  0
  7 12  1  0  0  0  0
 39 44  1  0  0  0  0
 17 26  1  0  0  0  0
 25 36  1  0  0  0  0
 25 37  1  0  0  0  0
 25 38  1  0  0  0  0
M  CHG  1  25   1
M  END
$$$$

  -OEChem-05262214473D

 54 53  0     1  0  0  0  0  0999 V2000
    2.6714    2.8829   -3.0005 C   0  0  0  0  0  0  0  0  0  0  0  0
    3.1741    2.4398   -1.9745 O   0  0  0  0  0  0  0  0  0  0  0  0
    3.5527    3.3077   -4.1279 C   0  0  0  0  0  0  0  0  0  0  0  0
    3.8407    4.3691   -4.0597 H   0  0  0  0  0  0  0  0  0  0  0  0
    4.5024    2.7495   -4.1526 H   0  0  0  0  0  0  0  0  0  0  0  0
    3.1208    3.1887   -5.1345 H   0  0  0  0  0  0  0  0  0  0  0  0
    1.3174    3.0407   -3.2467 N   0  0  0  0  0  0  0  0  0  0  0  0
    0.2944    2.6927   -2.2960 C   0  0  2  0  0  0  0  0  0  0  0  0
    0.2976    1.1783   -2.1349 C   0  0  0  0  0  0  0  0  0  0  0  0
    0.7500    0.4142   -2.9850 O   0  0  0  0  0  0  0  0  0  0  0  0
   -1.0710    3.1886   -2.7460 C   0  0  0  0  0  0  0  0  0  0  0  0
    1.0312    3.4224   -4.1464 H   0  0  0  0  0  0  0  0  0  0  0  0
    0.5725    3.1622   -1.3461 H   0  0  0  0  0  0  0  0  0  0  0  0
   -1.3666    2.7292   -3.6963 H   0  0  0  0  0  0  0  0  0  0  0  0
   -1.8434    2.9482   -2.0082 H   0  0  0  0  0  0  0  0  0  0  0  0
   -1.0632    4.2744   -2.8901 H   0  0  0  0  0  0  0  0  0  0  0  0
   -0.3037    0.7742   -0.9484 N   0  0  0  0  0  0  0  0  0  0  0  0
   -0.4352   -0.6095   -0.5718 C   0  0  2  0  0  0  0  0  0  0  0  0
    0.1777   -1.4776   -1.6659 C   0  0  0  0  0  0  0  0  0  0  0  0
   -0.3597   -1.6602   -2.7565 O   0  0  0  0  0  0  0  0  0  0  0  0
   -1.8891   -0.9829   -0.2593 C   0  0  0  0  0  0  0  0  0  0  0  0
   -2.4466   -0.3221    1.0082 C   0  0  0  0  0  0  0  0  0  0  0  0
   -3.8899   -0.7588    1.2699 C   0  0  0  0  0  0  0  0  0  0  0  0
   -4.4477   -0.0828    2.5137 C   0  0  0  0  0  0  0  0  0  0  0  0
   -5.8516   -0.5157    2.7138 N   0  3  0  0  0  0  0  0  0  0  0  0
   -0.6336    1.4811   -0.2948 H   0  0  0  0  0  0  0  0  0  0  0  0
    0.1684   -0.7321    0.3355 H   0  0  0  0  0  0  0  0  0  0  0  0
   -2.5184   -0.6983   -1.1126 H   0  0  0  0  0  0  0  0  0  0  0  0
   -1.9720   -2.0720   -0.1567 H   0  0  0  0  0  0  0  0  0  0  0  0
   -1.8278   -0.5890    1.8727 H   0  0  0  0  0  0  0  0  0  0  0  0
   -2.4124    0.7691    0.9082 H   0  0  0  0  0  0  0  0  0  0  0  0
   -3.9277   -1.8486    1.3906 H   0  0  0  0  0  0  0  0  0  0  0  0
   -4.5121   -0.5102    0.4012 H   0  0  0  0  0  0  0  0  0  0  0  0
   -3.8968   -0.3652    3.4158 H   0  0  0  0  0  0  0  0  0  0  0  0
   -4.4622    1.0068    2.4167 H   0  0  0  0  0  0  0  0  0  0  0  0
   -6.3566    0.1418    3.3180 H   0  0  0  0  0  0  0  0  0  0  0  0
   -5.8911   -1.4420    3.1533 H   0  0  0  0  0  0  0  0  0  0  0  0
   -6.3509   -0.5693    1.8191 H   0  0  0  0  0  0  0  0  0  0  0  0
    1.4095   -1.9981   -1.2961 N   0  0  0  0  0  0  0  0  0  0  0  0
    2.1861   -2.8369   -2.1776 C   0  0  2  0  0  0  0  0  0  0  0  0
    3.2955   -3.4814   -1.3570 C   0  0  0  0  0  0  0  0  0  0  0  0
    3.7072   -3.0104   -0.2988 O   0  0  0  0  0  0  0  0  0  0  0  0
    2.7612   -2.0384   -3.3370 C   0  0  0  0  0  0  0  0  0  0  0  0
    1.7772   -1.7816   -0.3744 H   0  0  0  0  0  0  0  0  0  0  0  0
    1.5101   -3.6133   -2.5522 H   0  0  0  0  0  0  0  0  0  0  0  0
    3.4411   -1.2557   -2.9811 H   0  0  0  0  0  0  0  0  0  0  0  0
    3.3261   -2.6814   -4.0200 H   0  0  0  0  0  0  0  0  0  0  0  0
    1.9637   -1.5513   -3.9084 H   0  0  0  0  0  0  0  0  0  0  0  0
    3.8014   -4.6207   -1.9671 N   0  0  0  0  0  0  0  0  0  0  0  0
    4.8698   -5.4040   -1.3918 C   0  0  0  0  0  0  0  0  0  0  0  0
    3.3869   -4.9490   -2.8344 H   0  0  0  0  0  0  0  0  0  0  0  0
    5.8352   -5.0533   -1.7854 H   0  0  0  0  0  0  0  0  0  0  0  0
    4.8577   -5.2927   -0.2976 H   0  0  0  0  0  0  0  0  0  0  0  0
    4.7299   -6.4631   -1.6542 H   0  0  0  0  0  0  0  0  0  0  0  0
  1  3  1  0  0  0  0
  1  7  1  0  0  0  0
  1  2  2  0  0  0  0
 40 41  1  0  0  0  0
 41 49  1  0  0  0  0
 41 42  2  0  0  0  0
  8  9  1  0  0  0  0
  9 17  1  0  0  0  0
  9 10  2  0  0  0  0
 18 19  1  0  0  0  0
 19 39  1  0  0  0  0
 19 20  2  0  0  0  0
 40 43  1  0  0  0  0
  8 11  1  0  0  0  0
 49 50  1  0  0  0  0
 22 23  1  0  0  0  0
 21 22  1  0  0  0  0
 23 24  1  0  0  0  0
 18 21  1  0  0  0  0
 24 25  1  0  0  0  0
 39 40  1  0  0  0  0
  7  8  1  0  0  0  0
 17 18  1  0  0  0  0
  3  4  1  0  0  0  0
  3  5  1  0  0  0  0
  3  6  1  0  0  0  0
 43 46  1  0  0  0  0
 43 47  1  0  0  0  0
 43 48  1  0  0  0  0
 11 14  1  0  0  0  0
 11 15  1  0  0  0  0
 11 16  1  0  0  0  0
 50 52  1  0  0  0  0
 50 53  1  0  0  0  0
 50 54  1  0  0  0  0
 22 30  1  0  0  0  0
 22 31  1  0  0  0  0
 23 32  1  0  0  0  0
 23 33  1  0  0  0  0
 21 28  1  0  0  0  0
 21 29  1  0  0  0  0
 24 34  1  0  0  0  0
 24 35  1  0  0  0  0
 40 45  1  0  0  0  0
  8 13  1  0  0  0  0
 18 27  1  0  0  0  0
 49 51  1  0  0  0  0
  7 12  1  0  0  0  0
 39 44  1  0  0  0  0
 17 26  1  0  0  0  0
 25 36  1  0  0  0  0
 25 37  1  0  0  0  0
 25 38  1  0  0  0  0
M  CHG  1  25   1
M  END
$$$$

  -OEChem-05262214473D

 54 53  0     1  0  0  0  0  0999 V2000
    2.6714    2.8829   -3.0005 C   0  0  0  0  0  0  0  0  0  0  0  0
    3.1741    2.4398   -1.9745 O   0  0  0  0  0  0  0  0  0  0  0  0
    3.5527    3.3077   -4.1279 C   0  0  0  0  0  0  0  0  0  0  0  0
    3.8407    4.3691   -4.0597 H   0  0  0  0  0  0  0  0  0  0  0  0
    4.5024    2.7495   -4.1526 H   0  0  0  0  0  0  0  0  0  0  0  0
    3.1208    3.1887   -5.1345 H   0  0  0  0  0  0  0  0  0  0  0  0
    1.3174    3.0407   -3.2467 N   0  0  0  0  0  0  0  0  0  0  0  0
    0.2944    2.6927   -2.2960 C   0  0  2  0  0  0  0  0  0  0  0  0
    0.2976    1.1783   -2.1349 C   0  0  0  0  0  0  0  0  0  0  0  0
    0.7500    0.4142   -2.9850 O   0  0  0  0  0  0  0  0  0  0  0  0
   -1.0710    3.1886   -2.7460 C   0  0  0  0  0  0  0  0  0  0  0  0
    1.0312    3.4224   -4.1464 H   0  0  0  0  0  0  0  0  0  0  0  0
    0.5725    3.1622   -1.3461 H   0  0  0  0  0  0  0  0  0  0  0  0
   -1.3666    2.7292   -3.6963 H   0  0  0  0  0  0  0  0  0  0  0  0
   -1.8434    2.9482   -2.0082 H   0  0  0  0  0  0  0  0  0  0  0  0
   -1.0632    4.2744   -2.8901 H   0  0  0  0  0  0  0  0  0  0  0  0
   -0.3037    0.7742   -0.9484 N   0  0  0  0  0  0  0  0  0  0  0  0
   -0.4352   -0.6095   -0.5718 C   0  0  2  0  0  0  0  0  0  0  0  0
    0.1777   -1.4776   -1.6659 C   0  0  0  0  0  0  0  0  0  0  0  0
   -0.2054   -1.4537   -2.8338 O   0  0  0  0  0  0  0  0  0  0  0  0
   -1.8891   -0.9829   -0.2593 C   0  0  0  0  0  0  0  0  0  0  0  0
   -2.4466   -0.3221    1.0082 C   0  0  0  0  0  0  0  0  0  0  0  0
   -3.8899   -0.7588    1.2699 C   0  0  0  0  0  0  0  0  0  0  0  0
   -4.4477   -0.0828    2.5137 C   0  0  0  0  0  0  0  0  0  0  0  0
   -5.8516   -0.5157    2.7138 N   0  3  0  0  0  0  0  0  0  0  0  0
   -0.6336    1.4811   -0.2948 H   0  0  0  0  0  0  0  0  0  0  0  0
    0.1684   -0.7321    0.3355 H   0  0  0  0  0  0  0  0  0  0  0  0
   -2.5184   -0.6983   -1.1126 H   0  0  0  0  0  0  0  0  0  0  0  0
   -1.9720   -2.0720   -0.1567 H   0  0  0  0  0  0  0  0  0  0  0  0
   -1.8278   -0.5890    1.8727 H   0  0  0  0  0  0  0  0  0  0  0  0
   -2.4124    0.7691    0.9082 H   0  0  0  0  0  0  0  0  0  0  0  0
   -3.9277   -1.8486    1.3906 H   0  0  0  0  0  0  0  0  0  0  0  0
   -4.5121   -0.5102    0.4012 H   0  0  0  0  0  0  0  0  0  0  0  0
   -3.8968   -0.3652    3.4158 H   0  0  0  0  0  0  0  0  0  0  0  0
   -4.4622    1.0068    2.4167 H   0  0  0  0  0  0  0  0  0  0  0  0
   -6.3566    0.1418    3.3180 H   0  0  0  0  0  0  0  0  0  0  0  0
   -5.8911   -1.4420    3.1533 H   0  0  0  0  0  0  0  0  0  0  0  0
   -6.3509   -0.5693    1.8191 H   0  0  0  0  0  0  0  0  0  0  0  0
    1.2236   -2.2577   -1.1942 N   0  0  0  0  0  0  0  0  0  0  0  0
    1.9673   -3.1480   -2.0533 C   0  0  2  0  0  0  0  0  0  0  0  0
    2.8015   -4.0662   -1.1697 C   0  0  0  0  0  0  0  0  0  0  0  0
    3.1189   -3.7810   -0.0169 O   0  0  0  0  0  0  0  0  0  0  0  0
    2.8503   -2.3747   -3.0202 C   0  0  0  0  0  0  0  0  0  0  0  0
    1.4745   -2.2003   -0.2117 H   0  0  0  0  0  0  0  0  0  0  0  0
    1.2314   -3.7420   -2.6062 H   0  0  0  0  0  0  0  0  0  0  0  0
    3.5940   -1.7736   -2.4845 H   0  0  0  0  0  0  0  0  0  0  0  0
    3.3920   -3.0506   -3.6901 H   0  0  0  0  0  0  0  0  0  0  0  0
    2.2519   -1.6931   -3.6344 H   0  0  0  0  0  0  0  0  0  0  0  0
    3.1862   -5.2221   -1.8345 N   0  0  0  0  0  0  0  0  0  0  0  0
    3.9943   -6.2460   -1.2142 C   0  0  0  0  0  0  0  0  0  0  0  0
    2.8614   -5.3846   -2.7831 H   0  0  0  0  0  0  0  0  0  0  0  0
    5.0564   -6.0546   -1.4272 H   0  0  0  0  0  0  0  0  0  0  0  0
    3.8305   -6.2334   -0.1266 H   0  0  0  0  0  0  0  0  0  0  0  0
    3.7113   -7.2300   -1.6163 H   0  0  0  0  0  0  0  0  0  0  0  0
  1  3  1  0  0  0  0
  1  7  1  0  0  0  0
  1  2  2  0  0  0  0
 40 41  1  0  0  0  0
 41 49  1  0  0  0  0
 41 42  2  0  0  0  0
  8  9  1  0  0  0  0
  9 17  1  0  0  0  0
  9 10  2  0  0  0  0
 18 19  1  0  0  0  0
 19 39  1  0  0  0  0
 19 20  2  0  0  0  0
 40 43  1  0  0  0  0
  8 11  1  0  0  0  0
 49 50  1  0  0  0  0
 22 23  1  0  0  0  0
 21 22  1  0  0  0  0
 23 24  1  0  0  0  0
 18 21  1  0  0  0  0
 24 25  1  0  0  0  0
 39 40  1  0  0  0  0
  7  8  1  0  0  0  0
 17 18  1  0  0  0  0
  3  4  1  0  0  0  0
  3  5  1  0  0  0  0
  3  6  1  0  0  0  0
 43 46  1  0  0  0  0
 43 47  1  0  0  0  0
 43 48  1  0  0  0  0
 11 14  1  0  0  0  0
 11 15  1  0  0  0  0
 11 16  1  0  0  0  0
 50 52  1  0  0  0  0
 50 53  1  0  0  0  0
 50 54  1  0  0  0  0
 22 30  1  0  0  0  0
 22 31  1  0  0  0  0
 23 32  1  0  0  0  0
 23 33  1  0  0  0  0
 21 28  1  0  0  0  0
 21 29  1  0  0  0  0
 24 34  1  0  0  0  0
 24 35  1  0  0  0  0
 40 45  1  0  0  0  0
  8 13  1  0  0  0  0
 18 27  1  0  0  0  0
 49 51  1  0  0  0  0
  7 12  1  0  0  0  0
 39 44  1  0  0  0  0
 17 26  1  0  0  0  0
 25 36  1  0  0  0  0
 25 37  1  0  0  0  0
 25 38  1  0  0  0  0
M  CHG  1  25   1
M  END
$$$$

  -OEChem-05262214473D

 54 53  0     1  0  0  0  0  0999 V2000
    2.6714    2.8829   -3.0005 C   0  0  0  0  0  0  0  0  0  0  0  0
    3.1741    2.4398   -1.9745 O   0  0  0  0  0  0  0  0  0  0  0  0
    3.5527    3.3077   -4.1279 C   0  0  0  0  0  0  0  0  0  0  0  0
    3.8407    4.3691   -4.0597 H   0  0  0  0  0  0  0  0  0  0  0  0
    4.5024    2.7495   -4.1526 H   0  0  0  0  0  0  0  0  0  0  0  0
    3.1208    3.1887   -5.1345 H   0  0  0  0  0  0  0  0  0  0  0  0
    1.3174    3.0407   -3.2467 N   0  0  0  0  0  0  0  0  0  0  0  0
    0.2944    2.6927   -2.2960 C   0  0  2  0  0  0  0  0  0  0  0  0
    0.2976    1.1783   -2.1349 C   0  0  0  0  0  0  0  0  0  0  0  0
    0.7500    0.4142   -2.9850 O   0  0  0  0  0  0  0  0  0  0  0  0
   -1.0710    3.1886   -2.7460 C   0  0  0  0  0  0  0  0  0  0  0  0
    1.0312    3.4224   -4.1464 H   0  0  0  0  0  0  0  0  0  0  0  0
    0.5725    3.1622   -1.3461 H   0  0  0  0  0  0  0  0  0  0  0  0
   -1.3666    2.7292   -3.6963 H   0  0  0  0  0  0  0  0  0  0  0  0
   -1.8434    2.9482   -2.0082 H   0  0  0  0  0  0  0  0  0  0  0  0
   -1.0632    4.2744   -2.8901 H   0  0  0  0  0  0  0  0  0  0  0  0
   -0.3037    0.7742   -0.9484 N   0  0  0  0  0  0  0  0  0  0  0  0
   -0.4352   -0.6095   -0.5718 C   0  0  2  0  0  0  0  0  0  0  0  0
    0.1777   -1.4776   -1.6659 C   0  0  0  0  0  0  0  0  0  0  0  0
   -0.0067   -1.2750   -2.8644 O   0  0  0  0  0  0  0  0  0  0  0  0
   -1.8891   -0.9829   -0.2593 C   0  0  0  0  0  0  0  0  0  0  0  0
   -2.4466   -0.3221    1.0082 C   0  0  0  0  0  0  0  0  0  0  0  0
   -3.8899   -0.7588    1.2699 C   0  0  0  0  0  0  0  0  0  0  0  0
   -4.4477   -0.0828    2.5137 C   0  0  0  0  0  0  0  0  0  0  0  0
   -5.8516   -0.5157    2.7138 N   0  3  0  0  0  0  0  0  0  0  0  0
   -0.6336    1.4811   -0.2948 H   0  0  0  0  0  0  0  0  0  0  0  0
    0.1684   -0.7321    0.3355 H   0  0  0  0  0  0  0  0  0  0  0  0
   -2.5184   -0.6983   -1.1126 H   0  0  0  0  0  0  0  0  0  0  0  0
   -1.9720   -2.0720   -0.1567 H   0  0  0  0  0  0  0  0  0  0  0  0
   -1.8278   -0.5890    1.8727 H   0  0  0  0  0  0  0  0  0  0  0  0
   -2.4124    0.7691    0.9082 H   0  0  0  0  0  0  0  0  0  0  0  0
   -3.9277   -1.8486    1.3906 H   0  0  0  0  0  0  0  0  0  0  0  0
   -4.5121   -0.5102    0.4012 H   0  0  0  0  0  0  0  0  0  0  0  0
   -3.8968   -0.3652    3.4158 H   0  0  0  0  0  0  0  0  0  0  0  0
   -4.4622    1.0068    2.4167 H   0  0  0  0  0  0  0  0  0  0  0  0
   -6.3566    0.1418    3.3180 H   0  0  0  0  0  0  0  0  0  0  0  0
   -5.8911   -1.4420    3.1533 H   0  0  0  0  0  0  0  0  0  0  0  0
   -6.3509   -0.5693    1.8191 H   0  0  0  0  0  0  0  0  0  0  0  0
    0.9809   -2.4845   -1.1502 N   0  0  0  0  0  0  0  0  0  0  0  0
    1.6800   -3.4209   -1.9978 C   0  0  2  0  0  0  0  0  0  0  0  0
    2.1882   -4.5588   -1.1224 C   0  0  0  0  0  0  0  0  0  0  0  0
    2.3661   -4.4455    0.0886 O   0  0  0  0  0  0  0  0  0  0  0  0
    2.8272   -2.7490   -2.7361 C   0  0  0  0  0  0  0  0  0  0  0  0
    1.0804   -2.5656   -0.1427 H   0  0  0  0  0  0  0  0  0  0  0  0
    0.9463   -3.8090   -2.7127 H   0  0  0  0  0  0  0  0  0  0  0  0
    3.5724   -2.3539   -2.0361 H   0  0  0  0  0  0  0  0  0  0  0  0
    3.3385   -3.4538   -3.4001 H   0  0  0  0  0  0  0  0  0  0  0  0
    2.4637   -1.9120   -3.3420 H   0  0  0  0  0  0  0  0  0  0  0  0
    2.4607   -5.7027   -1.8596 N   0  0  0  0  0  0  0  0  0  0  0  0
    2.9662   -6.9151   -1.2592 C   0  0  0  0  0  0  0  0  0  0  0  0
    2.2654   -5.7131   -2.8564 H   0  0  0  0  0  0  0  0  0  0  0  0
    4.0654   -6.9145   -1.3000 H   0  0  0  0  0  0  0  0  0  0  0  0
    2.6383   -6.9692   -0.2106 H   0  0  0  0  0  0  0  0  0  0  0  0
    2.5795   -7.7855   -1.8096 H   0  0  0  0  0  0  0  0  0  0  0  0
  1  3  1  0  0  0  0
  1  7  1  0  0  0  0
  1  2  2  0  0  0  0
 40 41  1  0  0  0  0
 41 49  1  0  0  0  0
 41 42  2  0  0  0  0
  8  9  1  0  0  0  0
  9 17  1  0  0  0  0
  9 10  2  0  0  0  0
 18 19  1  0  0  0  0
 19 39  1  0  0  0  0
 19 20  2  0  0  0  0
 40 43  1  0  0  0  0
  8 11  1  0  0  0  0
 49 50  1  0  0  0  0
 22 23  1  0  0  0  0
 21 22  1  0  0  0  0
 23 24  1  0  0  0  0
 18 21  1  0  0  0  0
 24 25  1  0  0  0  0
 39 40  1  0  0  0  0
  7  8  1  0  0  0  0
 17 18  1  0  0  0  0
  3  4  1  0  0  0  0
  3  5  1  0  0  0  0
  3  6  1  0  0  0  0
 43 46  1  0  0  0  0
 43 47  1  0  0  0  0
 43 48  1  0  0  0  0
 11 14  1  0  0  0  0
 11 15  1  0  0  0  0
 11 16  1  0  0  0  0
 50 52  1  0  0  0  0
 50 53  1  0  0  0  0
 50 54  1  0  0  0  0
 22 30  1  0  0  0  0
 22 31  1  0  0  0  0
 23 32  1  0  0  0  0
 23 33  1  0  0  0  0
 21 28  1  0  0  0  0
 21 29  1  0  0  0  0
 24 34  1  0  0  0  0
 24 35  1  0  0  0  0
 40 45  1  0  0  0  0
  8 13  1  0  0  0  0
 18 27  1  0  0  0  0
 49 51  1  0  0  0  0
  7 12  1  0  0  0  0
 39 44  1  0  0  0  0
 17 26  1  0  0  0  0
 25 36  1  0  0  0  0
 25 37  1  0  0  0  0
 25 38  1  0  0  0  0
M  CHG  1  25   1
M  END
$$$$

  -OEChem-05262214473D

 54 53  0     1  0  0  0  0  0999 V2000
    2.6714    2.8829   -3.0005 C   0  0  0  0  0  0  0  0  0  0  0  0
    3.1741    2.4398   -1.9745 O   0  0  0  0  0  0  0  0  0  0  0  0
    3.5527    3.3077   -4.1279 C   0  0  0  0  0  0  0  0  0  0  0  0
    3.8407    4.3691   -4.0597 H   0  0  0  0  0  0  0  0  0  0  0  0
    4.5024    2.7495   -4.1526 H   0  0  0  0  0  0  0  0  0  0  0  0
    3.1208    3.1887   -5.1345 H   0  0  0  0  0  0  0  0  0  0  0  0
    1.3174    3.0407   -3.2467 N   0  0  0  0  0  0  0  0  0  0  0  0
    0.2944    2.6927   -2.2960 C   0  0  2  0  0  0  0  0  0  0  0  0
    0.2976    1.1783   -2.1349 C   0  0  0  0  0  0  0  0  0  0  0  0
    0.7500    0.4142   -2.9850 O   0  0  0  0  0  0  0  0  0  0  0  0
   -1.0710    3.1886   -2.7460 C   0  0  0  0  0  0  0  0  0  0  0  0
    1.0312    3.4224   -4.1464 H   0  0  0  0  0  0  0  0  0  0  0  0
    0.5725    3.1622   -1.3461 H   0  0  0  0  0  0  0  0  0  0  0  0
   -1.3666    2.7292   -3.6963 H   0  0  0  0  0  0  0  0  0  0  0  0
   -1.8434    2.9482   -2.0082 H   0  0  0  0  0  0  0  0  0  0  0  0
   -1.0632    4.2744   -2.8901 H   0  0  0  0  0  0  0  0  0  0  0  0
   -0.3037    0.7742   -0.9484 N   0  0  0  0  0  0  0  0  0  0  0  0
   -0.4352   -0.6095   -0.5718 C   0  0  2  0  0  0  0  0  0  0  0  0
    0.1777   -1.4776   -1.6659 C   0  0  0  0  0  0  0  0  0  0  0  0
    0.2229   -1.1360   -2.8460 O   0  0  0  0  0  0  0  0  0  0  0  0
   -1.8891   -0.9829   -0.2593 C   0  0  0  0  0  0  0  0  0  0  0  0
   -2.4466   -0.3221    1.0082 C   0  0  0  0  0  0  0  0  0  0  0  0
   -3.8899   -0.7588    1.2699 C   0  0  0  0  0  0  0  0  0  0  0  0
   -4.4477   -0.0828    2.5137 C   0  0  0  0  0  0  0  0  0  0  0  0
   -5.8516   -0.5157    2.7138 N   0  3  0  0  0  0  0  0  0  0  0  0
   -0.6336    1.4811   -0.2948 H   0  0  0  0  0  0  0  0  0  0  0  0
    0.1684   -0.7321    0.3355 H   0  0  0  0  0  0  0  0  0  0  0  0
   -2.5184   -0.6983   -1.1126 H   0  0  0  0  0  0  0  0  0  0  0  0
   -1.9720   -2.0720   -0.1567 H   0  0  0  0  0  0  0  0  0  0  0  0
   -1.8278   -0.5890    1.8727 H   0  0  0  0  0  0  0  0  0  0  0  0
   -2.4124    0.7691    0.9082 H   0  0  0  0  0  0  0  0  0  0  0  0
   -3.9277   -1.8486    1.3906 H   0  0  0  0  0  0  0  0  0  0  0  0
   -4.5121   -0.5102    0.4012 H   0  0  0  0  0  0  0  0  0  0  0  0
   -3.8968   -0.3652    3.4158 H   0  0  0  0  0  0  0  0  0  0  0  0
   -4.4622    1.0068    2.4167 H   0  0  0  0  0  0  0  0  0  0  0  0
   -6.3566    0.1418    3.3180 H   0  0  0  0  0  0  0  0  0  0  0  0
   -5.8911   -1.4420    3.1533 H   0  0  0  0  0  0  0  0  0  0  0  0
   -6.3509   -0.5693    1.8191 H   0  0  0  0  0  0  0  0  0  0  0  0
    0.6978   -2.6632   -1.1671 N   0  0  0  0  0  0  0  0  0  0  0  0
    1.3436   -3.6368   -2.0149 C   0  0  2  0  0  0  0  0  0  0  0  0
    1.4973   -4.9257   -1.2183 C   0  0  0  0  0  0  0  0  0  0  0  0
    1.5000   -4.9586    0.0105 O   0  0  0  0  0  0  0  0  0  0  0  0
    2.6935   -3.1358   -2.5041 C   0  0  0  0  0  0  0  0  0  0  0  0
    0.6217   -2.8524   -0.1721 H   0  0  0  0  0  0  0  0  0  0  0  0
    0.6742   -3.8096   -2.8647 H   0  0  0  0  0  0  0  0  0  0  0  0
    3.3777   -2.9570   -1.6666 H   0  0  0  0  0  0  0  0  0  0  0  0
    3.1692   -3.8635   -3.1699 H   0  0  0  0  0  0  0  0  0  0  0  0
    2.5845   -2.1932   -3.0512 H   0  0  0  0  0  0  0  0  0  0  0  0
    1.6745   -6.0295   -2.0407 N   0  0  0  0  0  0  0  0  0  0  0  0
    1.8555   -7.3659   -1.5238 C   0  0  0  0  0  0  0  0  0  0  0  0
    1.6395   -5.9121   -3.0491 H   0  0  0  0  0  0  0  0  0  0  0  0
    2.9299   -7.5743   -1.4127 H   0  0  0  0  0  0  0  0  0  0  0  0
    1.3626   -7.4498   -0.5439 H   0  0  0  0  0  0  0  0  0  0  0  0
    1.4115   -8.0918   -2.2208 H   0  0  0  0  0  0  0  0  0  0  0  0
  1  3  1  0  0  0  0
  1  7  1  0  0  0  0
  1  2  2  0  0  0  0
 40 41  1  0  0  0  0
 41 49  1  0  0  0  0
 41 42  2  0  0  0  0
  8  9  1  0  0  0  0
  9 17  1  0  0  0  0
  9 10  2  0  0  0  0
 18 19  1  0  0  0  0
 19 39  1  0  0  0  0
 19 20  2  0  0  0  0
 40 43  1  0  0  0  0
  8 11  1  0  0  0  0
 49 50  1  0  0  0  0
 22 23  1  0  0  0  0
 21 22  1  0  0  0  0
 23 24  1  0  0  0  0
 18 21  1  0  0  0  0
 24 25  1  0  0  0  0
 39 40  1  0  0  0  0
  7  8  1  0  0  0  0
 17 18  1  0  0  0  0
  3  4  1  0  0  0  0
  3  5  1  0  0  0  0
  3  6  1  0  0  0  0
 43 46  1  0  0  0  0
 43 47  1  0  0  0  0
 43 48  1  0  0  0  0
 11 14  1  0  0  0  0
 11 15  1  0  0  0  0
 11 16  1  0  0  0  0
 50 52  1  0  0  0  0
 50 53  1  0  0  0  0
 50 54  1  0  0  0  0
 22 30  1  0  0  0  0
 22 31  1  0  0  0  0
 23 32  1  0  0  0  0
 23 33  1  0  0  0  0
 21 28  1  0  0  0  0
 21 29  1  0  0  0  0
 24 34  1  0  0  0  0
 24 35  1  0  0  0  0
 40 45  1  0  0  0  0
  8 13  1  0  0  0  0
 18 27  1  0  0  0  0
 49 51  1  0  0  0  0
  7 12  1  0  0  0  0
 39 44  1  0  0  0  0
 17 26  1  0  0  0  0
 25 36  1  0  0  0  0
 25 37  1  0  0  0  0
 25 38  1  0  0  0  0
M  CHG  1  25   1
M  END
$$$$

  -OEChem-05262214473D

 54 53  0     1  0  0  0  0  0999 V2000
    2.6714    2.8829   -3.0005 C   0  0  0  0  0  0  0  0  0  0  0  0
    3.1741    2.4398   -1.9745 O   0  0  0  0  0  0  0  0  0  0  0  0
    3.5527    3.3077   -4.1279 C   0  0  0  0  0  0  0  0  0  0  0  0
    3.8407    4.3691   -4.0597 H   0  0  0  0  0  0  0  0  0  0  0  0
    4.5024    2.7495   -4.1526 H   0  0  0  0  0  0  0  0  0  0  0  0
    3.1208    3.1887   -5.1345 H   0  0  0  0  0  0  0  0  0  0  0  0
    1.3174    3.0407   -3.2467 N   0  0  0  0  0  0  0  0  0  0  0  0
    0.2944    2.6927   -2.2960 C   0  0  2  0  0  0  0  0  0  0  0  0
    0.2976    1.1783   -2.1349 C   0  0  0  0  0  0  0  0  0  0  0  0
    0.7500    0.4142   -2.9850 O   0  0  0  0  0  0  0  0  0  0  0  0
   -1.0710    3.1886   -2.7460 C   0  0  0  0  0  0  0  0  0  0  0  0
    1.0312    3.4224   -4.1464 H   0  0  0  0  0  0  0  0  0  0  0  0
    0.5725    3.1622   -1.3461 H   0  0  0  0  0  0  0  0  0  0  0  0
   -1.3666    2.7292   -3.6963 H   0  0  0  0  0  0  0  0  0  0  0  0
   -1.8434    2.9482   -2.0082 H   0  0  0  0  0  0  0  0  0  0  0  0
   -1.0632    4.2744   -2.8901 H   0  0  0  0  0  0  0  0  0  0  0  0
   -0.3037    0.7742   -0.9484 N   0  0  0  0  0  0  0  0  0  0  0  0
   -0.4352   -0.6095   -0.5718 C   0  0  2  0  0  0  0  0  0  0  0  0
    0.1777   -1.4776   -1.6659 C   0  0  0  0  0  0  0  0  0  0  0  0
    0.4679   -1.0463   -2.7800 O   0  0  0  0  0  0  0  0  0  0  0  0
   -1.8891   -0.9829   -0.2593 C   0  0  0  0  0  0  0  0  0  0  0  0
   -2.4466   -0.3221    1.0082 C   0  0  0  0  0  0  0  0  0  0  0  0
   -3.8899   -0.7588    1.2699 C   0  0  0  0  0  0  0  0  0  0  0  0
   -4.4477   -0.0828    2.5137 C   0  0  0  0  0  0  0  0  0  0  0  0
   -5.8516   -0.5157    2.7138 N   0  3  0  0  0  0  0  0  0  0  0  0
   -0.6336    1.4811   -0.2948 H   0  0  0  0  0  0  0  0  0  0  0  0
    0.1684   -0.7321    0.3355 H   0  0  0  0  0  0  0  0  0  0  0  0
   -2.5184   -0.6983   -1.1126 H   0  0  0  0  0  0  0  0  0  0  0  0
   -1.9720   -2.0720   -0.1567 H   0  0  0  0  0  0  0  0  0  0  0  0
   -1.8278   -0.5890    1.8727 H   0  0  0  0  0  0  0  0  0  0  0  0
   -2.4124    0.7691    0.9082 H   0  0  0  0  0  0  0  0  0  0  0  0
   -3.9277   -1.8486    1.3906 H   0  0  0  0  0  0  0  0  0  0  0  0
   -4.5121   -0.5102    0.4012 H   0  0  0  0  0  0  0  0  0  0  0  0
   -3.8968   -0.3652    3.4158 H   0  0  0  0  0  0  0  0  0  0  0  0
   -4.4622    1.0068    2.4167 H   0  0  0  0  0  0  0  0  0  0  0  0
   -6.3566    0.1418    3.3180 H   0  0  0  0  0  0  0  0  0  0  0  0
   -5.8911   -1.4420    3.1533 H   0  0  0  0  0  0  0  0  0  0  0  0
   -6.3509   -0.5693    1.8191 H   0  0  0  0  0  0  0  0  0  0  0  0
    0.3937   -2.7814   -1.2436 N   0  0  0  0  0  0  0  0  0  0  0  0
    0.9811   -3.7812   -2.1034 C   0  0  2  0  0  0  0  0  0  0  0  0
    0.7760   -5.1419   -1.4509 C   0  0  0  0  0  0  0  0  0  0  0  0
    0.5797   -5.2852   -0.2459 O   0  0  0  0  0  0  0  0  0  0  0  0
    2.4584   -3.5088   -2.3398 C   0  0  0  0  0  0  0  0  0  0  0  0
    0.1298   -3.0412   -0.2978 H   0  0  0  0  0  0  0  0  0  0  0  0
    0.4337   -3.7440   -3.0516 H   0  0  0  0  0  0  0  0  0  0  0  0
    3.0233   -3.5419   -1.4010 H   0  0  0  0  0  0  0  0  0  0  0  0
    2.8958   -4.2517   -3.0150 H   0  0  0  0  0  0  0  0  0  0  0  0
    2.6061   -2.5175   -2.7818 H   0  0  0  0  0  0  0  0  0  0  0  0
    0.8810   -6.1804   -2.3655 N   0  0  0  0  0  0  0  0  0  0  0  0
    0.7379   -7.5677   -1.9898 C   0  0  0  0  0  0  0  0  0  0  0  0
    1.0264   -5.9681   -3.3481 H   0  0  0  0  0  0  0  0  0  0  0  0
    1.7271   -7.9890   -1.7574 H   0  0  0  0  0  0  0  0  0  0  0  0
    0.0903   -7.6425   -1.1038 H   0  0  0  0  0  0  0  0  0  0  0  0
    0.2871   -8.1282   -2.8220 H   0  0  0  0  0  0  0  0  0  0  0  0
  1  3  1  0  0  0  0
  1  7  1  0  0  0  0
  1  2  2  0  0  0  0
 40 41  1  0  0  0  0
 41 49  1  0  0  0  0
 41 42  2  0  0  0  0
  8  9  1  0  0  0  0
  9 17  1  0  0  0  0
  9 10  2  0  0  0  0
 18 19  1  0  0  0  0
 19 39  1  0  0  0  0
 19 20  2  0  0  0  0
 40 43  1  0  0  0  0
  8 11  1  0  0  0  0
 49 50  1  0  0  0  0
 22 23  1  0  0  0  0
 21 22  1  0  0  0  0
 23 24  1  0  0  0  0
 18 21  1  0  0  0  0
 24 25  1  0  0  0  0
 39 40  1  0  0  0  0
  7  8  1  0  0  0  0
 17 18  1  0  0  0  0
  3  4  1  0  0  0  0
  3  5  1  0  0  0  0
  3  6  1  0  0  0  0
 43 46  1  0  0  0  0
 43 47  1  0  0  0  0
 43 48  1  0  0  0  0
 11 14  1  0  0  0  0
 11 15  1  0  0  0  0
 11 16  1  0  0  0  0
 50 52  1  0  0  0  0
 50 53  1  0  0  0  0
 50 54  1  0  0  0  0
 22 30  1  0  0  0  0
 22 31  1  0  0  0  0
 23 32  1  0  0  0  0
 23 33  1  0  0  0  0
 21 28  1  0  0  0  0
 21 29  1  0  0  0  0
 24 34  1  0  0  0  0
 24 35  1  0  0  0  0
 40 45  1  0  0  0  0
  8 13  1  0  0  0  0
 18 27  1  0  0  0  0
 49 51  1  0  0  0  0
  7 12  1  0  0  0  0
 39 44  1  0  0  0  0
 17 26  1  0  0  0  0
 25 36  1  0  0  0  0
 25 37  1  0  0  0  0
 25 38  1  0  0  0  0
M  CHG  1  25   1
M  END
$$$$

  -OEChem-05262214473D

 54 53  0     1  0  0  0  0  0999 V2000
    2.6714    2.8829   -3.0005 C   0  0  0  0  0  0  0  0  0  0  0  0
    3.1741    2.4398   -1.9745 O   0  0  0  0  0  0  0  0  0  0  0  0
    3.5527    3.3077   -4.1279 C   0  0  0  0  0  0  0  0  0  0  0  0
    3.8407    4.3691   -4.0597 H   0  0  0  0  0  0  0  0  0  0  0  0
    4.5024    2.7495   -4.1526 H   0  0  0  0  0  0  0  0  0  0  0  0
    3.1208    3.1887   -5.1345 H   0  0  0  0  0  0  0  0  0  0  0  0
    1.3174    3.0407   -3.2467 N   0  0  0  0  0  0  0  0  0  0  0  0
    0.2944    2.6927   -2.2960 C   0  0  2  0  0  0  0  0  0  0  0  0
    0.2976    1.1783   -2.1349 C   0  0  0  0  0  0  0  0  0  0  0  0
    0.7500    0.4142   -2.9850 O   0  0  0  0  0  0  0  0  0  0  0  0
   -1.0710    3.1886   -2.7460 C   0  0  0  0  0  0  0  0  0  0  0  0
    1.0312    3.4224   -4.1464 H   0  0  0  0  0  0  0  0  0  0  0  0
    0.5725    3.1622   -1.3461 H   0  0  0  0  0  0  0  0  0  0  0  0
   -1.3666    2.7292   -3.6963 H   0  0  0  0  0  0  0  0  0  0  0  0
   -1.8434    2.9482   -2.0082 H   0  0  0  0  0  0  0  0  0  0  0  0
   -1.0632    4.2744   -2.8901 H   0  0  0  0  0  0  0  0  0  0  0  0
   -0.3037    0.7742   -0.9484 N   0  0  0  0  0  0  0  0  0  0  0  0
   -0.4352   -0.6095   -0.5718 C   0  0  2  0  0  0  0  0  0  0  0  0
    0.4861   -1.4485   -1.4513 C   0  0  0  0  0  0  0  0  0  0  0  0
    1.2223   -0.9615   -2.3070 O   0  0  0  0  0  0  0  0  0  0  0  0
   -1.8938   -1.0799   -0.6176 C   0  0  0  0  0  0  0  0  0  0  0  0
   -2.7915   -0.4412    0.4502 C   0  0  0  0  0  0  0  0  0  0  0  0
   -4.2231   -0.9748    0.3599 C   0  0  0  0  0  0  0  0  0  0  0  0
   -5.1160   -0.3212    1.4042 C   0  0  0  0  0  0  0  0  0  0  0  0
   -6.4944   -0.8491    1.2639 N   0  3  0  0  0  0  0  0  0  0  0  0
   -0.6336    1.4811   -0.2948 H   0  0  0  0  0  0  0  0  0  0  0  0
   -0.0704   -0.6754    0.4603 H   0  0  0  0  0  0  0  0  0  0  0  0
   -2.3074   -0.8534   -1.6090 H   0  0  0  0  0  0  0  0  0  0  0  0
   -1.9291   -2.1705   -0.5038 H   0  0  0  0  0  0  0  0  0  0  0  0
   -2.3920   -0.6506    1.4493 H   0  0  0  0  0  0  0  0  0  0  0  0
   -2.8040    0.6481    0.3268 H   0  0  0  0  0  0  0  0  0  0  0  0
   -4.2192   -2.0626    0.5025 H   0  0  0  0  0  0  0  0  0  0  0  0
   -4.6236   -0.7838   -0.6435 H   0  0  0  0  0  0  0  0  0  0  0  0
   -4.7906   -0.5503    2.4233 H   0  0  0  0  0  0  0  0  0  0  0  0
   -5.1763    0.7631    1.2716 H   0  0  0  0  0  0  0  0  0  0  0  0
   -7.1757   -0.2199    1.7025 H   0  0  0  0  0  0  0  0  0  0  0  0
   -6.5824   -1.7691    1.7095 H   0  0  0  0  0  0  0  0  0  0  0  0
   -6.7502   -0.9514    0.2756 H   0  0  0  0  0  0  0  0  0  0  0  0
    0.4156   -2.8005   -1.1476 N   0  0  0  0  0  0  0  0  0  0  0  0
    1.2114   -3.7867   -1.8388 C   0  0  2  0  0  0  0  0  0  0  0  0
    0.6602   -5.1633   -1.4914 C   0  0  0  0  0  0  0  0  0  0  0  0
   -0.0028   -5.3848   -0.4803 O   0  0  0  0  0  0  0  0  0  0  0  0
    2.6799   -3.6776   -1.4592 C   0  0  0  0  0  0  0  0  0  0  0  0
   -0.2171   -3.1065   -0.4143 H   0  0  0  0  0  0  0  0  0  0  0  0
    1.0835   -3.6013   -2.9109 H   0  0  0  0  0  0  0  0  0  0  0  0
    2.8278   -3.8602   -0.3886 H   0  0  0  0  0  0  0  0  0  0  0  0
    3.2863   -4.4074   -2.0058 H   0  0  0  0  0  0  0  0  0  0  0  0
    3.0669   -2.6774   -1.6823 H   0  0  0  0  0  0  0  0  0  0  0  0
    1.0321   -6.1242   -2.4212 N   0  0  0  0  0  0  0  0  0  0  0  0
    0.6440   -7.5107   -2.3073 C   0  0  0  0  0  0  0  0  0  0  0  0
    1.5668   -5.8474   -3.2393 H   0  0  0  0  0  0  0  0  0  0  0  0
    1.4265   -8.0682   -1.7717 H   0  0  0  0  0  0  0  0  0  0  0  0
   -0.3025   -7.5819   -1.7513 H   0  0  0  0  0  0  0  0  0  0  0  0
    0.5119   -7.9381   -3.3122 H   0  0  0  0  0  0  0  0  0  0  0  0
  1  3  1  0  0  0  0
  1  7  1  0  0  0  0
  1  2  2  0  0  0  0
 40 41  1  0  0  0  0
 41 49  1  0  0  0  0
 41 42  2  0  0  0  0
  8  9  1  0  0  0  0
  9 17  1  0  0  0  0
  9 10  2  0  0  0  0
 18 19  1  0  0  0  0
 19 39  1  0  0  0  0
 19 20  2  0  0  0  0
 40 43  1  0  0  0  0
  8 11  1  0  0  0  0
 49 50  1  0  0  0  0
 22 23  1  0  0  0  0
 21 22  1  0  0  0  0
 23 24  1  0  0  0  0
 18 21  1  0  0  0  0
 24 25  1  0  0  0  0
 39 40  1  0  0  0  0
  7  8  1  0  0  0  0
 17 18  1  0  0  0  0
  3  4  1  0  0  0  0
  3  5  1  0  0  0  0
  3  6  1  0  0  0  0
 43 46  1  0  0  0  0
 43 47  1  0  0  0  0
 43 48  1  0  0  0  0
 11 14  1  0  0  0  0
 11 15  1  0  0  0  0
 11 16  1  0  0  0  0
 50 52  1  0  0  0  0
 50 53  1  0  0  0  0
 50 54  1  0  0  0  0
 22 30  1  0  0  0  0
 22 31  1  0  0  0  0
 23 32  1  0  0  0  0
 23 33  1  0  0  0  0
 21 28  1  0  0  0  0
 21 29  1  0  0  0  0
 24 34  1  0  0  0  0
 24 35  1  0  0  0  0
 40 45  1  0  0  0  0
  8 13  1  0  0  0  0
 18 27  1  0  0  0  0
 49 51  1  0  0  0  0
  7 12  1  0  0  0  0
 39 44  1  0  0  0  0
 17 26  1  0  0  0  0
 25 36  1  0  0  0  0
 25 37  1  0  0  0  0
 25 38  1  0  0  0  0
M  CHG  1  25   1
M  END
$$$$

  -OEChem-05262214473D

 54 53  0     1  0  0  0  0  0999 V2000
    2.6714    2.8829   -3.0005 C   0  0  0  0  0  0  0  0  0  0  0  0
    3.1741    2.4398   -1.9745 O   0  0  0  0  0  0  0  0  0  0  0  0
    3.5527    3.3077   -4.1279 C   0  0  0  0  0  0  0  0  0  0  0  0
    3.8407    4.3691   -4.0597 H   0  0  0  0  0  0  0  0  0  0  0  0
    4.5024    2.7495   -4.1526 H   0  0  0  0  0  0  0  0  0  0  0  0
    3.1208    3.1887   -5.1345 H   0  0  0  0  0  0  0  0  0  0  0  0
    1.3174    3.0407   -3.2467 N   0  0  0  0  0  0  0  0  0  0  0  0
    0.2944    2.6927   -2.2960 C   0  0  2  0  0  0  0  0  0  0  0  0
    0.2976    1.1783   -2.1349 C   0  0  0  0  0  0  0  0  0  0  0  0
    0.7500    0.4142   -2.9850 O   0  0  0  0  0  0  0  0  0  0  0  0
   -1.0710    3.1886   -2.7460 C   0  0  0  0  0  0  0  0  0  0  0  0
    1.0312    3.4224   -4.1464 H   0  0  0  0  0  0  0  0  0  0  0  0
    0.5725    3.1622   -1.3461 H   0  0  0  0  0  0  0  0  0  0  0  0
   -1.3666    2.7292   -3.6963 H   0  0  0  0  0  0  0  0  0  0  0  0
   -1.8434    2.9482   -2.0082 H   0  0  0  0  0  0  0  0  0  0  0  0
   -1.0632    4.2744   -2.8901 H   0  0  0  0  0  0  0  0  0  0  0  0
   -0.3037    0.7742   -0.9484 N   0  0  0  0  0  0  0  0  0  0  0  0
   -0.4352   -0.6095   -0.5718 C   0  0  2  0  0  0  0  0  0  0  0  0
    0.4861   -1.4485   -1.4513 C   0  0  0  0  0  0  0  0  0  0  0  0
    1.4056   -0.9668   -2.1100 O   0  0  0  0  0  0  0  0  0  0  0  0
   -1.8938   -1.0799   -0.6176 C   0  0  0  0  0  0  0  0  0  0  0  0
   -2.7915   -0.4412    0.4502 C   0  0  0  0  0  0  0  0  0  0  0  0
   -4.2231   -0.9748    0.3599 C   0  0  0  0  0  0  0  0  0  0  0  0
   -5.1160   -0.3212    1.4042 C   0  0  0  0  0  0  0  0  0  0  0  0
   -6.4944   -0.8491    1.2639 N   0  3  0  0  0  0  0  0  0  0  0  0
   -0.6336    1.4811   -0.2948 H   0  0  0  0  0  0  0  0  0  0  0  0
   -0.0704   -0.6754    0.4603 H   0  0  0  0  0  0  0  0  0  0  0  0
   -2.3074   -0.8534   -1.6090 H   0  0  0  0  0  0  0  0  0  0  0  0
   -1.9291   -2.1705   -0.5038 H   0  0  0  0  0  0  0  0  0  0  0  0
   -2.3920   -0.6506    1.4493 H   0  0  0  0  0  0  0  0  0  0  0  0
   -2.8040    0.6481    0.3268 H   0  0  0  0  0  0  0  0  0  0  0  0
   -4.2192   -2.0626    0.5025 H   0  0  0  0  0  0  0  0  0  0  0  0
   -4.6236   -0.7838   -0.6435 H   0  0  0  0  0  0  0  0  0  0  0  0
   -4.7906   -0.5503    2.4233 H   0  0  0  0  0  0  0  0  0  0  0  0
   -5.1763    0.7631    1.2716 H   0  0  0  0  0  0  0  0  0  0  0  0
   -7.1757   -0.2199    1.7025 H   0  0  0  0  0  0  0  0  0  0  0  0
   -6.5824   -1.7691    1.7095 H   0  0  0  0  0  0  0  0  0  0  0  0
   -6.7502   -0.9514    0.2756 H   0  0  0  0  0  0  0  0  0  0  0  0
    0.1838   -2.8012   -1.3897 N   0  0  0  0  0  0  0  0  0  0  0  0
    0.9330   -3.7912   -2.1262 C   0  0  2  0  0  0  0  0  0  0  0  0
    0.1503   -5.0971   -2.0887 C   0  0  0  0  0  0  0  0  0  0  0  0
   -0.6849   -5.3541   -1.2241 O   0  0  0  0  0  0  0  0  0  0  0  0
    2.3263   -3.9757   -1.5453 C   0  0  0  0  0  0  0  0  0  0  0  0
   -0.5905   -3.1051   -0.8069 H   0  0  0  0  0  0  0  0  0  0  0  0
    0.9989   -3.4337   -3.1595 H   0  0  0  0  0  0  0  0  0  0  0  0
    2.2806   -4.3335   -0.5103 H   0  0  0  0  0  0  0  0  0  0  0  0
    2.9032   -4.7060   -2.1223 H   0  0  0  0  0  0  0  0  0  0  0  0
    2.8772   -3.0290   -1.5456 H   0  0  0  0  0  0  0  0  0  0  0  0
    0.5251   -5.9596   -3.1094 N   0  0  0  0  0  0  0  0  0  0  0  0
   -0.0634   -7.2674   -3.2805 C   0  0  0  0  0  0  0  0  0  0  0  0
    1.2126   -5.6562   -3.7928 H   0  0  0  0  0  0  0  0  0  0  0  0
    0.5427   -8.0153   -2.7482 H   0  0  0  0  0  0  0  0  0  0  0  0
   -1.0850   -7.2659   -2.8726 H   0  0  0  0  0  0  0  0  0  0  0  0
   -0.0966   -7.5172   -4.3512 H   0  0  0  0  0  0  0  0  0  0  0  0
  1  3  1  0  0  0  0
  1  7  1  0  0  0  0
  1  2  2  0  0  0  0
 40 41  1  0  0  0  0
 41 49  1  0  0  0  0
 41 42  2  0  0  0  0
  8  9  1  0  0  0  0
  9 17  1  0  0  0  0
  9 10  2  0  0  0  0
 18 19  1  0  0  0  0
 19 39  1  0  0  0  0
 19 20  2  0  0  0  0
 40 43  1  0  0  0  0
  8 11  1  0  0  0  0
 49 50  1  0  0  0  0
 22 23  1  0  0  0  0
 21 22  1  0  0  0  0
 23 24  1  0  0  0  0
 18 21  1  0  0  0  0
 24 25  1  0  0  0  0
 39 40  1  0  0  0  0
  7  8  1  0  0  0  0
 17 18  1  0  0  0  0
  3  4  1  0  0  0  0
  3  5  1  0  0  0  0
  3  6  1  0  0  0  0
 43 46  1  0  0  0  0
 43 47  1  0  0  0  0
 43 48  1  0  0  0  0
 11 14  1  0  0  0  0
 11 15  1  0  0  0  0
 11 16  1  0  0  0  0
 50 52  1  0  0  0  0
 50 53  1  0  0  0  0
 50 54  1  0  0  0  0
 22 30  1  0  0  0  0
 22 31  1  0  0  0  0
 23 32  1  0  0  0  0
 23 33  1  0  0  0  0
 21 28  1  0  0  0  0
 21 29  1  0  0  0  0
 24 34  1  0  0  0  0
 24 35  1  0  0  0  0
 40 45  1  0  0  0  0
  8 13  1  0  0  0  0
 18 27  1  0  0  0  0
 49 51  1  0  0  0  0
  7 12  1  0  0  0  0
 39 44  1  0  0  0  0
 17 26  1  0  0  0  0
 25 36  1  0  0  0  0
 25 37  1  0  0  0  0
 25 38  1  0  0  0  0
M  CHG  1  25   1
M  END
$$$$

  -OEChem-05262214473D

 54 53  0     1  0  0  0  0  0999 V2000
    2.6714    2.8829   -3.0005 C   0  0  0  0  0  0  0  0  0  0  0  0
    3.1741    2.4398   -1.9745 O   0  0  0  0  0  0  0  0  0  0  0  0
    3.5527    3.3077   -4.1279 C   0  0  0  0  0  0  0  0  0  0  0  0
    3.8407    4.3691   -4.0597 H   0  0  0  0  0  0  0  0  0  0  0  0
    4.5024    2.7495   -4.1526 H   0  0  0  0  0  0  0  0  0  0  0  0
    3.1208    3.1887   -5.1345 H   0  0  0  0  0  0  0  0  0  0  0  0
    1.3174    3.0407   -3.2467 N   0  0  0  0  0  0  0  0  0  0  0  0
    0.2944    2.6927   -2.2960 C   0  0  2  0  0  0  0  0  0  0  0  0
    0.2976    1.1783   -2.1349 C   0  0  0  0  0  0  0  0  0  0  0  0
    0.7500    0.4142   -2.9850 O   0  0  0  0  0  0  0  0  0  0  0  0
   -1.0710    3.1886   -2.7460 C   0  0  0  0  0  0  0  0  0  0  0  0
    1.0312    3.4224   -4.1464 H   0  0  0  0  0  0  0  0  0  0  0  0
    0.5725    3.1622   -1.3461 H   0  0  0  0  0  0  0  0  0  0  0  0
   -1.3666    2.7292   -3.6963 H   0  0  0  0  0  0  0  0  0  0  0  0
   -1.8434    2.9482   -2.0082 H   0  0  0  0  0  0  0  0  0  0  0  0
   -1.0632    4.2744   -2.8901 H   0  0  0  0  0  0  0  0  0  0  0  0
   -0.3037    0.7742   -0.9484 N   0  0  0  0  0  0  0  0  0  0  0  0
   -0.4352   -0.6095   -0.5718 C   0  0  2  0  0  0  0  0  0  0  0  0
    0.4861   -1.4485   -1.4513 C   0  0  0  0  0  0  0  0  0  0  0  0
    1.5537   -1.0300   -1.8945 O   0  0  0  0  0  0  0  0  0  0  0  0
   -1.8938   -1.0799   -0.6176 C   0  0  0  0  0  0  0  0  0  0  0  0
   -2.7915   -0.4412    0.4502 C   0  0  0  0  0  0  0  0  0  0  0  0
   -4.2231   -0.9748    0.3599 C   0  0  0  0  0  0  0  0  0  0  0  0
   -5.1160   -0.3212    1.4042 C   0  0  0  0  0  0  0  0  0  0  0  0
   -6.4944   -0.8491    1.2639 N   0  3  0  0  0  0  0  0  0  0  0  0
   -0.6336    1.4811   -0.2948 H   0  0  0  0  0  0  0  0  0  0  0  0
   -0.0704   -0.6754    0.4603 H   0  0  0  0  0  0  0  0  0  0  0  0
   -2.3074   -0.8534   -1.6090 H   0  0  0  0  0  0  0  0  0  0  0  0
   -1.9291   -2.1705   -0.5038 H   0  0  0  0  0  0  0  0  0  0  0  0
   -2.3920   -0.6506    1.4493 H   0  0  0  0  0  0  0  0  0  0  0  0
   -2.8040    0.6481    0.3268 H   0  0  0  0  0  0  0  0  0  0  0  0
   -4.2192   -2.0626    0.5025 H   0  0  0  0  0  0  0  0  0  0  0  0
   -4.6236   -0.7838   -0.6435 H   0  0  0  0  0  0  0  0  0  0  0  0
   -4.7906   -0.5503    2.4233 H   0  0  0  0  0  0  0  0  0  0  0  0
   -5.1763    0.7631    1.2716 H   0  0  0  0  0  0  0  0  0  0  0  0
   -7.1757   -0.2199    1.7025 H   0  0  0  0  0  0  0  0  0  0  0  0
   -6.5824   -1.7691    1.7095 H   0  0  0  0  0  0  0  0  0  0  0  0
   -6.7502   -0.9514    0.2756 H   0  0  0  0  0  0  0  0  0  0  0  0
   -0.0057   -2.7295   -1.6566 N   0  0  0  0  0  0  0  0  0  0  0  0
    0.7044   -3.7090   -2.4441 C   0  0  2  0  0  0  0  0  0  0  0  0
   -0.2473   -4.8637   -2.7279 C   0  0  0  0  0  0  0  0  0  0  0  0
   -1.2332   -5.1063   -2.0349 O   0  0  0  0  0  0  0  0  0  0  0  0
    1.9525   -4.1974   -1.7254 C   0  0  0  0  0  0  0  0  0  0  0  0
   -0.8951   -2.9867   -1.2389 H   0  0  0  0  0  0  0  0  0  0  0  0
    0.9775   -3.2202   -3.3856 H   0  0  0  0  0  0  0  0  0  0  0  0
    1.6987   -4.6901   -0.7797 H   0  0  0  0  0  0  0  0  0  0  0  0
    2.5051   -4.9190   -2.3361 H   0  0  0  0  0  0  0  0  0  0  0  0
    2.6221   -3.3616   -1.4956 H   0  0  0  0  0  0  0  0  0  0  0  0
    0.1579   -5.6173   -3.8207 N   0  0  0  0  0  0  0  0  0  0  0  0
   -0.5719   -6.7747   -4.2833 C   0  0  0  0  0  0  0  0  0  0  0  0
    0.9778   -5.3320   -4.3481 H   0  0  0  0  0  0  0  0  0  0  0  0
   -0.1641   -7.6796   -3.8090 H   0  0  0  0  0  0  0  0  0  0  0  0
   -1.6340   -6.6685   -4.0177 H   0  0  0  0  0  0  0  0  0  0  0  0
   -0.4736   -6.8574   -5.3757 H   0  0  0  0  0  0  0  0  0  0  0  0
  1  3  1  0  0  0  0
  1  7  1  0  0  0  0
  1  2  2  0  0  0  0
 40 41  1  0  0  0  0
 41 49  1  0  0  0  0
 41 42  2  0  0  0  0
  8  9  1  0  0  0  0
  9 17  1  0  0  0  0
  9 10  2  0  0  0  0
 18 19  1  0  0  0  0
 19 39  1  0  0  0  0
 19 20  2  0  0  0  0
 40 43  1  0  0  0  0
  8 11  1  0  0  0  0
 49 50  1  0  0  0  0
 22 23  1  0  0  0  0
 21 22  1  0  0  0  0
 23 24  1  0  0  0  0
 18 21  1  0  0  0  0
 24 25  1  0  0  0  0
 39 40  1  0  0  0  0
  7  8  1  0  0  0  0
 17 18  1  0  0  0  0
  3  4  1  0  0  0  0
  3  5  1  0  0  0  0
  3  6  1  0  0  0  0
 43 46  1  0  0  0  0
 43 47  1  0  0  0  0
 43 48  1  0  0  0  0
 11 14  1  0  0  0  0
 11 15  1  0  0  0  0
 11 16  1  0  0  0  0
 50 52  1  0  0  0  0
 50 53  1  0  0  0  0
 50 54  1  0  0  0  0
 22 30  1  0  0  0  0
 22 31  1  0  0  0  0
 23 32  1  0  0  0  0
 23 33  1  0  0  0  0
 21 28  1  0  0  0  0
 21 29  1  0  0  0  0
 24 34  1  0  0  0  0
 24 35  1  0  0  0  0
 40 45  1  0  0  0  0
  8 13  1  0  0  0  0
 18 27  1  0  0  0  0
 49 51  1  0  0  0  0
  7 12  1  0  0  0  0
 39 44  1  0  0  0  0
 17 26  1  0  0  0  0
 25 36  1  0  0  0  0
 25 37  1  0  0  0  0
 25 38  1  0  0  0  0
M  CHG  1  25   1
M  END
$$$$

  -OEChem-05262214473D

 54 53  0     1  0  0  0  0  0999 V2000
    2.6714    2.8829   -3.0005 C   0  0  0  0  0  0  0  0  0  0  0  0
    3.1741    2.4398   -1.9745 O   0  0  0  0  0  0  0  0  0  0  0  0
    3.5527    3.3077   -4.1279 C   0  0  0  0  0  0  0  0  0  0  0  0
    3.8407    4.3691   -4.0597 H   0  0  0  0  0  0  0  0  0  0  0  0
    4.5024    2.7495   -4.1526 H   0  0  0  0  0  0  0  0  0  0  0  0
    3.1208    3.1887   -5.1345 H   0  0  0  0  0  0  0  0  0  0  0  0
    1.3174    3.0407   -3.2467 N   0  0  0  0  0  0  0  0  0  0  0  0
    0.2944    2.6927   -2.2960 C   0  0  2  0  0  0  0  0  0  0  0  0
    0.2976    1.1783   -2.1349 C   0  0  0  0  0  0  0  0  0  0  0  0
    0.7500    0.4142   -2.9850 O   0  0  0  0  0  0  0  0  0  0  0  0
   -1.0710    3.1886   -2.7460 C   0  0  0  0  0  0  0  0  0  0  0  0
    1.0312    3.4224   -4.1464 H   0  0  0  0  0  0  0  0  0  0  0  0
    0.5725    3.1622   -1.3461 H   0  0  0  0  0  0  0  0  0  0  0  0
   -1.3666    2.7292   -3.6963 H   0  0  0  0  0  0  0  0  0  0  0  0
   -1.8434    2.9482   -2.0082 H   0  0  0  0  0  0  0  0  0  0  0  0
   -1.0632    4.2744   -2.8901 H   0  0  0  0  0  0  0  0  0  0  0  0
   -0.3037    0.7742   -0.9484 N   0  0  0  0  0  0  0  0  0  0  0  0
   -0.4352   -0.6095   -0.5718 C   0  0  2  0  0  0  0  0  0  0  0  0
    0.4861   -1.4485   -1.4513 C   0  0  0  0  0  0  0  0  0  0  0  0
    1.6567   -1.1468   -1.6751 O   0  0  0  0  0  0  0  0  0  0  0  0
   -1.8938   -1.0799   -0.6176 C   0  0  0  0  0  0  0  0  0  0  0  0
   -2.7915   -0.4412    0.4502 C   0  0  0  0  0  0  0  0  0  0  0  0
   -4.2231   -0.9748    0.3599 C   0  0  0  0  0  0  0  0  0  0  0  0
   -5.1160   -0.3212    1.4042 C   0  0  0  0  0  0  0  0  0  0  0  0
   -6.4944   -0.8491    1.2639 N   0  3  0  0  0  0  0  0  0  0  0  0
   -0.6336    1.4811   -0.2948 H   0  0  0  0  0  0  0  0  0  0  0  0
   -0.0704   -0.6754    0.4603 H   0  0  0  0  0  0  0  0  0  0  0  0
   -2.3074   -0.8534   -1.6090 H   0  0  0  0  0  0  0  0  0  0  0  0
   -1.9291   -2.1705   -0.5038 H   0  0  0  0  0  0  0  0  0  0  0  0
   -2.3920   -0.6506    1.4493 H   0  0  0  0  0  0  0  0  0  0  0  0
   -2.8040    0.6481    0.3268 H   0  0  0  0  0  0  0  0  0  0  0  0
   -4.2192   -2.0626    0.5025 H   0  0  0  0  0  0  0  0  0  0  0  0
   -4.6236   -0.7838   -0.6435 H   0  0  0  0  0  0  0  0  0  0  0  0
   -4.7906   -0.5503    2.4233 H   0  0  0  0  0  0  0  0  0  0  0  0
   -5.1763    0.7631    1.2716 H   0  0  0  0  0  0  0  0  0  0  0  0
   -7.1757   -0.2199    1.7025 H   0  0  0  0  0  0  0  0  0  0  0  0
   -6.5824   -1.7691    1.7095 H   0  0  0  0  0  0  0  0  0  0  0  0
   -6.7502   -0.9514    0.2756 H   0  0  0  0  0  0  0  0  0  0  0  0
   -0.1400   -2.5902   -1.9303 N   0  0  0  0  0  0  0  0  0  0  0  0
    0.5410   -3.5459   -2.7708 C   0  0  2  0  0  0  0  0  0  0  0  0
   -0.5055   -4.4790   -3.3655 C   0  0  0  0  0  0  0  0  0  0  0  0
   -1.6104   -4.6584   -2.8575 O   0  0  0  0  0  0  0  0  0  0  0  0
    1.5839   -4.3276   -1.9873 C   0  0  0  0  0  0  0  0  0  0  0  0
   -1.1101   -2.7593   -1.6811 H   0  0  0  0  0  0  0  0  0  0  0  0
    1.0209   -2.9755   -3.5736 H   0  0  0  0  0  0  0  0  0  0  0  0
    1.1219   -4.9055   -1.1786 H   0  0  0  0  0  0  0  0  0  0  0  0
    2.1193   -5.0319   -2.6325 H   0  0  0  0  0  0  0  0  0  0  0  0
    2.3188   -3.6526   -1.5356 H   0  0  0  0  0  0  0  0  0  0  0  0
   -0.0444   -5.1208   -4.5064 N   0  0  0  0  0  0  0  0  0  0  0  0
   -0.8467   -6.0661   -5.2472 C   0  0  0  0  0  0  0  0  0  0  0  0
    0.8784   -4.8971   -4.8672 H   0  0  0  0  0  0  0  0  0  0  0  0
   -0.6457   -7.0840   -4.8818 H   0  0  0  0  0  0  0  0  0  0  0  0
   -1.9122   -5.8306   -5.1085 H   0  0  0  0  0  0  0  0  0  0  0  0
   -0.5934   -6.0036   -6.3158 H   0  0  0  0  0  0  0  0  0  0  0  0
  1  3  1  0  0  0  0
  1  7  1  0  0  0  0
  1  2  2  0  0  0  0
 40 41  1  0  0  0  0
 41 49  1  0  0  0  0
 41 42  2  0  0  0  0
  8  9  1  0  0  0  0
  9 17  1  0  0  0  0
  9 10  2  0  0  0  0
 18 19  1  0  0  0  0
 19 39  1  0  0  0  0
 19 20  2  0  0  0  0
 40 43  1  0  0  0  0
  8 11  1  0  0  0  0
 49 50  1  0  0  0  0
 22 23  1  0  0  0  0
 21 22  1  0  0  0  0
 23 24  1  0  0  0  0
 18 21  1  0  0  0  0
 24 25  1  0  0  0  0
 39 40  1  0  0  0  0
  7  8  1  0  0  0  0
 17 18  1  0  0  0  0
  3  4  1  0  0  0  0
  3  5  1  0  0  0  0
  3  6  1  0  0  0  0
 43 46  1  0  0  0  0
 43 47  1  0  0  0  0
 43 48  1  0  0  0  0
 11 14  1  0  0  0  0
 11 15  1  0  0  0  0
 11 16  1  0  0  0  0
 50 52  1  0  0  0  0
 50 53  1  0  0  0  0
 50 54  1  0  0  0  0
 22 30  1  0  0  0  0
 22 31  1  0  0  0  0
 23 32  1  0  0  0  0
 23 33  1  0  0  0  0
 21 28  1  0  0  0  0
 21 29  1  0  0  0  0
 24 34  1  0  0  0  0
 24 35  1  0  0  0  0
 40 45  1  0  0  0  0
  8 13  1  0  0  0  0
 18 27  1  0  0  0  0
 49 51  1  0  0  0  0
  7 12  1  0  0  0  0
 39 44  1  0  0  0  0
 17 26  1  0  0  0  0
 25 36  1  0  0  0  0
 25 37  1  0  0  0  0
 25 38  1  0  0  0  0
M  CHG  1  25   1
M  END
$$$$

  -OEChem-05262214473D

 54 53  0     1  0  0  0  0  0999 V2000
    2.6714    2.8829   -3.0005 C   0  0  0  0  0  0  0  0  0  0  0  0
    3.1741    2.4398   -1.9745 O   0  0  0  0  0  0  0  0  0  0  0  0
    3.5527    3.3077   -4.1279 C   0  0  0  0  0  0  0  0  0  0  0  0
    3.8407    4.3691   -4.0597 H   0  0  0  0  0  0  0  0  0  0  0  0
    4.5024    2.7495   -4.1526 H   0  0  0  0  0  0  0  0  0  0  0  0
    3.1208    3.1887   -5.1345 H   0  0  0  0  0  0  0  0  0  0  0  0
    1.3174    3.0407   -3.2467 N   0  0  0  0  0  0  0  0  0  0  0  0
    0.2944    2.6927   -2.2960 C   0  0  2  0  0  0  0  0  0  0  0  0
    0.2976    1.1783   -2.1349 C   0  0  0  0  0  0  0  0  0  0  0  0
    0.7500    0.4142   -2.9850 O   0  0  0  0  0  0  0  0  0  0  0  0
   -1.0710    3.1886   -2.7460 C   0  0  0  0  0  0  0  0  0  0  0  0
    1.0312    3.4224   -4.1464 H   0  0  0  0  0  0  0  0  0  0  0  0
    0.5725    3.1622   -1.3461 H   0  0  0  0  0  0  0  0  0  0  0  0
   -1.3666    2.7292   -3.6963 H   0  0  0  0  0  0  0  0  0  0  0  0
   -1.8434    2.9482   -2.0082 H   0  0  0  0  0  0  0  0  0  0  0  0
   -1.0632    4.2744   -2.8901 H   0  0  0  0  0  0  0  0  0  0  0  0
   -0.3037    0.7742   -0.9484 N   0  0  0  0  0  0  0  0  0  0  0  0
   -0.4352   -0.6095   -0.5718 C   0  0  2  0  0  0  0  0  0  0  0  0
    0.4861   -1.4485   -1.4513 C   0  0  0  0  0  0  0  0  0  0  0  0
    1.7075   -1.3094   -1.4668 O   0  0  0  0  0  0  0  0  0  0  0  0
   -1.8938   -1.0799   -0.6176 C   0  0  0  0  0  0  0  0  0  0  0  0
   -2.7915   -0.4412    0.4502 C   0  0  0  0  0  0  0  0  0  0  0  0
   -4.2231   -0.9748    0.3599 C   0  0  0  0  0  0  0  0  0  0  0  0
   -5.1160   -0.3212    1.4042 C   0  0  0  0  0  0  0  0  0  0  0  0
   -6.4944   -0.8491    1.2639 N   0  3  0  0  0  0  0  0  0  0  0  0
   -0.6336    1.4811   -0.2948 H   0  0  0  0  0  0  0  0  0  0  0  0
   -0.0704   -0.6754    0.4603 H   0  0  0  0  0  0  0  0  0  0  0  0
   -2.3074   -0.8534   -1.6090 H   0  0  0  0  0  0  0  0  0  0  0  0
   -1.9291   -2.1705   -0.5038 H   0  0  0  0  0  0  0  0  0  0  0  0
   -2.3920   -0.6506    1.4493 H   0  0  0  0  0  0  0  0  0  0  0  0
   -2.8040    0.6481    0.3268 H   0  0  0  0  0  0  0  0  0  0  0  0
   -4.2192   -2.0626    0.5025 H   0  0  0  0  0  0  0  0  0  0  0  0
   -4.6236   -0.7838   -0.6435 H   0  0  0  0  0  0  0  0  0  0  0  0
   -4.7906   -0.5503    2.4233 H   0  0  0  0  0  0  0  0  0  0  0  0
   -5.1763    0.7631    1.2716 H   0  0  0  0  0  0  0  0  0  0  0  0
   -7.1757   -0.2199    1.7025 H   0  0  0  0  0  0  0  0  0  0  0  0
   -6.5824   -1.7691    1.7095 H   0  0  0  0  0  0  0  0  0  0  0  0
   -6.7502   -0.9514    0.2756 H   0  0  0  0  0  0  0  0  0  0  0  0
   -0.2100   -2.3929   -2.1919 N   0  0  0  0  0  0  0  0  0  0  0  0
    0.4541   -3.3128   -3.0842 C   0  0  2  0  0  0  0  0  0  0  0  0
   -0.6067   -3.9692   -3.9579 C   0  0  0  0  0  0  0  0  0  0  0  0
   -1.7908   -4.0409   -3.6356 O   0  0  0  0  0  0  0  0  0  0  0  0
    1.2458   -4.3575   -2.3131 C   0  0  0  0  0  0  0  0  0  0  0  0
   -1.2208   -2.4384   -2.1033 H   0  0  0  0  0  0  0  0  0  0  0  0
    1.1261   -2.7162   -3.7108 H   0  0  0  0  0  0  0  0  0  0  0  0
    0.5893   -4.9651   -1.6796 H   0  0  0  0  0  0  0  0  0  0  0  0
    1.7720   -5.0371   -2.9915 H   0  0  0  0  0  0  0  0  0  0  0  0
    1.9882   -3.8822   -1.6629 H   0  0  0  0  0  0  0  0  0  0  0  0
   -0.0681   -4.5037   -5.1200 N   0  0  0  0  0  0  0  0  0  0  0  0
   -0.8691   -5.1899   -6.1067 C   0  0  0  0  0  0  0  0  0  0  0  0
    0.9212   -4.3810   -5.3147 H   0  0  0  0  0  0  0  0  0  0  0  0
   -0.8692   -6.2691   -5.8934 H   0  0  0  0  0  0  0  0  0  0  0  0
   -1.9004   -4.8091   -6.0708 H   0  0  0  0  0  0  0  0  0  0  0  0
   -0.4479   -5.0141   -7.1075 H   0  0  0  0  0  0  0  0  0  0  0  0
  1  3  1  0  0  0  0
  1  7  1  0  0  0  0
  1  2  2  0  0  0  0
 40 41  1  0  0  0  0
 41 49  1  0  0  0  0
 41 42  2  0  0  0  0
  8  9  1  0  0  0  0
  9 17  1  0  0  0  0
  9 10  2  0  0  0  0
 18 19  1  0  0  0  0
 19 39  1  0  0  0  0
 19 20  2  0  0  0  0
 40 43  1  0  0  0  0
  8 11  1  0  0  0  0
 49 50  1  0  0  0  0
 22 23  1  0  0  0  0
 21 22  1  0  0  0  0
 23 24  1  0  0  0  0
 18 21  1  0  0  0  0
 24 25  1  0  0  0  0
 39 40  1  0  0  0  0
  7  8  1  0  0  0  0
 17 18  1  0  0  0  0
  3  4  1  0  0  0  0
  3  5  1  0  0  0  0
  3  6  1  0  0  0  0
 43 46  1  0  0  0  0
 43 47  1  0  0  0  0
 43 48  1  0  0  0  0
 11 14  1  0  0  0  0
 11 15  1  0  0  0  0
 11 16  1  0  0  0  0
 50 52  1  0  0  0  0
 50 53  1  0  0  0  0
 50 54  1  0  0  0  0
 22 30  1  0  0  0  0
 22 31  1  0  0  0  0
 23 32  1  0  0  0  0
 23 33  1  0  0  0  0
 21 28  1  0  0  0  0
 21 29  1  0  0  0  0
 24 34  1  0  0  0  0
 24 35  1  0  0  0  0
 40 45  1  0  0  0  0
  8 13  1  0  0  0  0
 18 27  1  0  0  0  0
 49 51  1  0  0  0  0
  7 12  1  0  0  0  0
 39 44  1  0  0  0  0
 17 26  1  0  0  0  0
 25 36  1  0  0  0  0
 25 37  1  0  0  0  0
 25 38  1  0  0  0  0
M  CHG  1  25   1
M  END
$$$$

  -OEChem-05262214473D

 54 53  0     1  0  0  0  0  0999 V2000
    2.6714    2.8829   -3.0005 C   0  0  0  0  0  0  0  0  0  0  0  0
    3.1741    2.4398   -1.9745 O   0  0  0  0  0  0  0  0  0  0  0  0
    3.5527    3.3077   -4.1279 C   0  0  0  0  0  0  0  0  0  0  0  0
    3.8407    4.3691   -4.0597 H   0  0  0  0  0  0  0  0  0  0  0  0
    4.5024    2.7495   -4.1526 H   0  0  0  0  0  0  0  0  0  0  0  0
    3.1208    3.1887   -5.1345 H   0  0  0  0  0  0  0  0  0  0  0  0
    1.3174    3.0407   -3.2467 N   0  0  0  0  0  0  0  0  0  0  0  0
    0.2944    2.6927   -2.2960 C   0  0  2  0  0  0  0  0  0  0  0  0
    0.2976    1.1783   -2.1349 C   0  0  0  0  0  0  0  0  0  0  0  0
    0.7500    0.4142   -2.9850 O   0  0  0  0  0  0  0  0  0  0  0  0
   -1.0710    3.1886   -2.7460 C   0  0  0  0  0  0  0  0  0  0  0  0
    1.0312    3.4224   -4.1464 H   0  0  0  0  0  0  0  0  0  0  0  0
    0.5725    3.1622   -1.3461 H   0  0  0  0  0  0  0  0  0  0  0  0
   -1.3666    2.7292   -3.6963 H   0  0  0  0  0  0  0  0  0  0  0  0
   -1.8434    2.9482   -2.0082 H   0  0  0  0  0  0  0  0  0  0  0  0
   -1.0632    4.2744   -2.8901 H   0  0  0  0  0  0  0  0  0  0  0  0
   -0.3037    0.7742   -0.9484 N   0  0  0  0  0  0  0  0  0  0  0  0
   -0.4352   -0.6095   -0.5718 C   0  0  2  0  0  0  0  0  0  0  0  0
    0.4861   -1.4485   -1.4513 C   0  0  0  0  0  0  0  0  0  0  0  0
    1.7027   -1.5065   -1.2838 O   0  0  0  0  0  0  0  0  0  0  0  0
   -1.8938   -1.0799   -0.6176 C   0  0  0  0  0  0  0  0  0  0  0  0
   -2.7915   -0.4412    0.4502 C   0  0  0  0  0  0  0  0  0  0  0  0
   -4.2231   -0.9748    0.3599 C   0  0  0  0  0  0  0  0  0  0  0  0
   -5.1160   -0.3212    1.4042 C   0  0  0  0  0  0  0  0  0  0  0  0
   -6.4944   -0.8491    1.2639 N   0  3  0  0  0  0  0  0  0  0  0  0
   -0.6336    1.4811   -0.2948 H   0  0  0  0  0  0  0  0  0  0  0  0
   -0.0704   -0.6754    0.4603 H   0  0  0  0  0  0  0  0  0  0  0  0
   -2.3074   -0.8534   -1.6090 H   0  0  0  0  0  0  0  0  0  0  0  0
   -1.9291   -2.1705   -0.5038 H   0  0  0  0  0  0  0  0  0  0  0  0
   -2.3920   -0.6506    1.4493 H   0  0  0  0  0  0  0  0  0  0  0  0
   -2.8040    0.6481    0.3268 H   0  0  0  0  0  0  0  0  0  0  0  0
   -4.2192   -2.0626    0.5025 H   0  0  0  0  0  0  0  0  0  0  0  0
   -4.6236   -0.7838   -0.6435 H   0  0  0  0  0  0  0  0  0  0  0  0
   -4.7906   -0.5503    2.4233 H   0  0  0  0  0  0  0  0  0  0  0  0
   -5.1763    0.7631    1.2716 H   0  0  0  0  0  0  0  0  0  0  0  0
   -7.1757   -0.2199    1.7025 H   0  0  0  0  0  0  0  0  0  0  0  0
   -6.5824   -1.7691    1.7095 H   0  0  0  0  0  0  0  0  0  0  0  0
   -6.7502   -0.9514    0.2756 H   0  0  0  0  0  0  0  0  0  0  0  0
   -0.2110   -2.1508   -2.4238 N   0  0  0  0  0  0  0  0  0  0  0  0
    0.4496   -3.0257   -3.3629 C   0  0  2  0  0  0  0  0  0  0  0  0
   -0.5440   -3.3690   -4.4649 C   0  0  0  0  0  0  0  0  0  0  0  0
   -1.7621   -3.2958   -4.3164 O   0  0  0  0  0  0  0  0  0  0  0  0
    0.9611   -4.2849   -2.6806 C   0  0  0  0  0  0  0  0  0  0  0  0
   -1.2198   -2.0459   -2.4767 H   0  0  0  0  0  0  0  0  0  0  0  0
    1.2860   -2.4600   -3.7877 H   0  0  0  0  0  0  0  0  0  0  0  0
    0.1373   -4.8649   -2.2488 H   0  0  0  0  0  0  0  0  0  0  0  0
    1.4869   -4.9341   -3.3885 H   0  0  0  0  0  0  0  0  0  0  0  0
    1.6527   -4.0348   -1.8688 H   0  0  0  0  0  0  0  0  0  0  0  0
    0.0884   -3.8082   -5.6196 N   0  0  0  0  0  0  0  0  0  0  0  0
   -0.6376   -4.2059   -6.8030 C   0  0  0  0  0  0  0  0  0  0  0  0
    1.1033   -3.8189   -5.6602 H   0  0  0  0  0  0  0  0  0  0  0  0
   -0.8195   -5.2904   -6.7751 H   0  0  0  0  0  0  0  0  0  0  0  0
   -1.5997   -3.6738   -6.8390 H   0  0  0  0  0  0  0  0  0  0  0  0
   -0.0469   -3.9562   -7.6967 H   0  0  0  0  0  0  0  0  0  0  0  0
  1  3  1  0  0  0  0
  1  7  1  0  0  0  0
  1  2  2  0  0  0  0
 40 41  1  0  0  0  0
 41 49  1  0  0  0  0
 41 42  2  0  0  0  0
  8  9  1  0  0  0  0
  9 17  1  0  0  0  0
  9 10  2  0  0  0  0
 18 19  1  0  0  0  0
 19 39  1  0  0  0  0
 19 20  2  0  0  0  0
 40 43  1  0  0  0  0
  8 11  1  0  0  0  0
 49 50  1  0  0  0  0
 22 23  1  0  0  0  0
 21 22  1  0  0  0  0
 23 24  1  0  0  0  0
 18 21  1  0  0  0  0
 24 25  1  0  0  0  0
 39 40  1  0  0  0  0
  7  8  1  0  0  0  0
 17 18  1  0  0  0  0
  3  4  1  0  0  0  0
  3  5  1  0  0  0  0
  3  6  1  0  0  0  0
 43 46  1  0  0  0  0
 43 47  1  0  0  0  0
 43 48  1  0  0  0  0
 11 14  1  0  0  0  0
 11 15  1  0  0  0  0
 11 16  1  0  0  0  0
 50 52  1  0  0  0  0
 50 53  1  0  0  0  0
 50 54  1  0  0  0  0
 22 30  1  0  0  0  0
 22 31  1  0  0  0  0
 23 32  1  0  0  0  0
 23 33  1  0  0  0  0
 21 28  1  0  0  0  0
 21 29  1  0  0  0  0
 24 34  1  0  0  0  0
 24 35  1  0  0  0  0
 40 45  1  0  0  0  0
  8 13  1  0  0  0  0
 18 27  1  0  0  0  0
 49 51  1  0  0  0  0
  7 12  1  0  0  0  0
 39 44  1  0  0  0  0
 17 26  1  0  0  0  0
 25 36  1  0  0  0  0
 25 37  1  0  0  0  0
 25 38  1  0  0  0  0
M  CHG  1  25   1
M  END
$$$$

  -OEChem-05262214473D

 54 53  0     1  0  0  0  0  0999 V2000
    2.6714    2.8829   -3.0005 C   0  0  0  0  0  0  0  0  0  0  0  0
    3.1741    2.4398   -1.9745 O   0  0  0  0  0  0  0  0  0  0  0  0
    3.5527    3.3077   -4.1279 C   0  0  0  0  0  0  0  0  0  0  0  0
    3.8407    4.3691   -4.0597 H   0  0  0  0  0  0  0  0  0  0  0  0
    4.5024    2.7495   -4.1526 H   0  0  0  0  0  0  0  0  0  0  0  0
    3.1208    3.1887   -5.1345 H   0  0  0  0  0  0  0  0  0  0  0  0
    1.3174    3.0407   -3.2467 N   0  0  0  0  0  0  0  0  0  0  0  0
    0.2944    2.6927   -2.2960 C   0  0  2  0  0  0  0  0  0  0  0  0
    0.2976    1.1783   -2.1349 C   0  0  0  0  0  0  0  0  0  0  0  0
    0.7500    0.4142   -2.9850 O   0  0  0  0  0  0  0  0  0  0  0  0
   -1.0710    3.1886   -2.7460 C   0  0  0  0  0  0  0  0  0  0  0  0
    1.0312    3.4224   -4.1464 H   0  0  0  0  0  0  0  0  0  0  0  0
    0.5725    3.1622   -1.3461 H   0  0  0  0  0  0  0  0  0  0  0  0
   -1.3666    2.7292   -3.6963 H   0  0  0  0  0  0  0  0  0  0  0  0
   -1.8434    2.9482   -2.0082 H   0  0  0  0  0  0  0  0  0  0  0  0
   -1.0632    4.2744   -2.8901 H   0  0  0  0  0  0  0  0  0  0  0  0
   -0.3037    0.7742   -0.9484 N   0  0  0  0  0  0  0  0  0  0  0  0
   -0.4352   -0.6095   -0.5718 C   0  0  2  0  0  0  0  0  0  0  0  0
    0.4861   -1.4485   -1.4513 C   0  0  0  0  0  0  0  0  0  0  0  0
    1.6425   -1.7248   -1.1385 O   0  0  0  0  0  0  0  0  0  0  0  0
   -1.8938   -1.0799   -0.6176 C   0  0  0  0  0  0  0  0  0  0  0  0
   -2.7915   -0.4412    0.4502 C   0  0  0  0  0  0  0  0  0  0  0  0
   -4.2231   -0.9748    0.3599 C   0  0  0  0  0  0  0  0  0  0  0  0
   -5.1160   -0.3212    1.4042 C   0  0  0  0  0  0  0  0  0  0  0  0
   -6.4944   -0.8491    1.2639 N   0  3  0  0  0  0  0  0  0  0  0  0
   -0.6336    1.4811   -0.2948 H   0  0  0  0  0  0  0  0  0  0  0  0
   -0.0704   -0.6754    0.4603 H   0  0  0  0  0  0  0  0  0  0  0  0
   -2.3074   -0.8534   -1.6090 H   0  0  0  0  0  0  0  0  0  0  0  0
   -1.9291   -2.1705   -0.5038 H   0  0  0  0  0  0  0  0  0  0  0  0
   -2.3920   -0.6506    1.4493 H   0  0  0  0  0  0  0  0  0  0  0  0
   -2.8040    0.6481    0.3268 H   0  0  0  0  0  0  0  0  0  0  0  0
   -4.2192   -2.0626    0.5025 H   0  0  0  0  0  0  0  0  0  0  0  0
   -4.6236   -0.7838   -0.6435 H   0  0  0  0  0  0  0  0  0  0  0  0
   -4.7906   -0.5503    2.4233 H   0  0  0  0  0  0  0  0  0  0  0  0
   -5.1763    0.7631    1.2716 H   0  0  0  0  0  0  0  0  0  0  0  0
   -7.1757   -0.2199    1.7025 H   0  0  0  0  0  0  0  0  0  0  0  0
   -6.5824   -1.7691    1.7095 H   0  0  0  0  0  0  0  0  0  0  0  0
   -6.7502   -0.9514    0.2756 H   0  0  0  0  0  0  0  0  0  0  0  0
   -0.1427   -1.8807   -2.6100 N   0  0  0  0  0  0  0  0  0  0  0  0
    0.5278   -2.7042   -3.5878 C   0  0  2  0  0  0  0  0  0  0  0  0
   -0.3217   -2.7194   -4.8518 C   0  0  0  0  0  0  0  0  0  0  0  0
   -1.5262   -2.4740   -4.8535 O   0  0  0  0  0  0  0  0  0  0  0  0
    0.7493   -4.1148   -3.0647 C   0  0  0  0  0  0  0  0  0  0  0  0
   -1.1071   -1.6086   -2.7759 H   0  0  0  0  0  0  0  0  0  0  0  0
    1.4896   -2.2243   -3.7993 H   0  0  0  0  0  0  0  0  0  0  0  0
   -0.2033   -4.6116   -2.8472 H   0  0  0  0  0  0  0  0  0  0  0  0
    1.2833   -4.7300   -3.7964 H   0  0  0  0  0  0  0  0  0  0  0  0
    1.3352   -4.0999   -2.1394 H   0  0  0  0  0  0  0  0  0  0  0  0
    0.4146   -3.0816   -5.9711 N   0  0  0  0  0  0  0  0  0  0  0  0
   -0.1681   -3.1811   -7.2889 C   0  0  0  0  0  0  0  0  0  0  0  0
    1.4123   -3.2491   -5.8801 H   0  0  0  0  0  0  0  0  0  0  0  0
   -0.4999   -4.2147   -7.4666 H   0  0  0  0  0  0  0  0  0  0  0  0
   -1.0304   -2.5019   -7.3606 H   0  0  0  0  0  0  0  0  0  0  0  0
    0.5822   -2.9021   -8.0434 H   0  0  0  0  0  0  0  0  0  0  0  0
  1  3  1  0  0  0  0
  1  7  1  0  0  0  0
  1  2  2  0  0  0  0
 40 41  1  0  0  0  0
 41 49  1  0  0  0  0
 41 42  2  0  0  0  0
  8  9  1  0  0  0  0
  9 17  1  0  0  0  0
  9 10  2  0  0  0  0
 18 19  1  0  0  0  0
 19 39  1  0  0  0  0
 19 20  2  0  0  0  0
 40 43  1  0  0  0  0
  8 11  1  0  0  0  0
 49 50  1  0  0  0  0
 22 23  1  0  0  0  0
 21 22  1  0  0  0  0
 23 24  1  0  0  0  0
 18 21  1  0  0  0  0
 24 25  1  0  0  0  0
 39 40  1  0  0  0  0
  7  8  1  0  0  0  0
 17 18  1  0  0  0  0
  3  4  1  0  0  0  0
  3  5  1  0  0  0  0
  3  6  1  0  0  0  0
 43 46  1  0  0  0  0
 43 47  1  0  0  0  0
 43 48  1  0  0  0  0
 11 14  1  0  0  0  0
 11 15  1  0  0  0  0
 11 16  1  0  0  0  0
 50 52  1  0  0  0  0
 50 53  1  0  0  0  0
 50 54  1  0  0  0  0
 22 30  1  0  0  0  0
 22 31  1  0  0  0  0
 23 32  1  0  0  0  0
 23 33  1  0  0  0  0
 21 28  1  0  0  0  0
 21 29  1  0  0  0  0
 24 34  1  0  0  0  0
 24 35  1  0  0  0  0
 40 45  1  0  0  0  0
  8 13  1  0  0  0  0
 18 27  1  0  0  0  0
 49 51  1  0  0  0  0
  7 12  1  0  0  0  0
 39 44  1  0  0  0  0
 17 26  1  0  0  0  0
 25 36  1  0  0  0  0
 25 37  1  0  0  0  0
 25 38  1  0  0  0  0
M  CHG  1  25   1
M  END
$$$$

  -OEChem-05262214473D

 54 53  0     1  0  0  0  0  0999 V2000
    2.6714    2.8829   -3.0005 C   0  0  0  0  0  0  0  0  0  0  0  0
    3.1741    2.4398   -1.9745 O   0  0  0  0  0  0  0  0  0  0  0  0
    3.5527    3.3077   -4.1279 C   0  0  0  0  0  0  0  0  0  0  0  0
    3.8407    4.3691   -4.0597 H   0  0  0  0  0  0  0  0  0  0  0  0
    4.5024    2.7495   -4.1526 H   0  0  0  0  0  0  0  0  0  0  0  0
    3.1208    3.1887   -5.1345 H   0  0  0  0  0  0  0  0  0  0  0  0
    1.3174    3.0407   -3.2467 N   0  0  0  0  0  0  0  0  0  0  0  0
    0.2944    2.6927   -2.2960 C   0  0  2  0  0  0  0  0  0  0  0  0
    0.2976    1.1783   -2.1349 C   0  0  0  0  0  0  0  0  0  0  0  0
    0.7500    0.4142   -2.9850 O   0  0  0  0  0  0  0  0  0  0  0  0
   -1.0710    3.1886   -2.7460 C   0  0  0  0  0  0  0  0  0  0  0  0
    1.0312    3.4224   -4.1464 H   0  0  0  0  0  0  0  0  0  0  0  0
    0.5725    3.1622   -1.3461 H   0  0  0  0  0  0  0  0  0  0  0  0
   -1.3666    2.7292   -3.6963 H   0  0  0  0  0  0  0  0  0  0  0  0
   -1.8434    2.9482   -2.0082 H   0  0  0  0  0  0  0  0  0  0  0  0
   -1.0632    4.2744   -2.8901 H   0  0  0  0  0  0  0  0  0  0  0  0
   -0.3037    0.7742   -0.9484 N   0  0  0  0  0  0  0  0  0  0  0  0
   -0.4352   -0.6095   -0.5718 C   0  0  2  0  0  0  0  0  0  0  0  0
    0.4861   -1.4485   -1.4513 C   0  0  0  0  0  0  0  0  0  0  0  0
    1.5312   -1.9495   -1.0409 O   0  0  0  0  0  0  0  0  0  0  0  0
   -1.8938   -1.0799   -0.6176 C   0  0  0  0  0  0  0  0  0  0  0  0
   -2.7915   -0.4412    0.4502 C   0  0  0  0  0  0  0  0  0  0  0  0
   -4.2231   -0.9748    0.3599 C   0  0  0  0  0  0  0  0  0  0  0  0
   -5.1160   -0.3212    1.4042 C   0  0  0  0  0  0  0  0  0  0  0  0
   -6.4944   -0.8491    1.2639 N   0  3  0  0  0  0  0  0  0  0  0  0
   -0.6336    1.4811   -0.2948 H   0  0  0  0  0  0  0  0  0  0  0  0
   -0.0704   -0.6754    0.4603 H   0  0  0  0  0  0  0  0  0  0  0  0
   -2.3074   -0.8534   -1.6090 H   0  0  0  0  0  0  0  0  0  0  0  0
   -1.9291   -2.1705   -0.5038 H   0  0  0  0  0  0  0  0  0  0  0  0
   -2.3920   -0.6506    1.4493 H   0  0  0  0  0  0  0  0  0  0  0  0
   -2.8040    0.6481    0.3268 H   0  0  0  0  0  0  0  0  0  0  0  0
   -4.2192   -2.0626    0.5025 H   0  0  0  0  0  0  0  0  0  0  0  0
   -4.6236   -0.7838   -0.6435 H   0  0  0  0  0  0  0  0  0  0  0  0
   -4.7906   -0.5503    2.4233 H   0  0  0  0  0  0  0  0  0  0  0  0
   -5.1763    0.7631    1.2716 H   0  0  0  0  0  0  0  0  0  0  0  0
   -7.1757   -0.2199    1.7025 H   0  0  0  0  0  0  0  0  0  0  0  0
   -6.5824   -1.7691    1.7095 H   0  0  0  0  0  0  0  0  0  0  0  0
   -6.7502   -0.9514    0.2756 H   0  0  0  0  0  0  0  0  0  0  0  0
   -0.0100   -1.6008   -2.7380 N   0  0  0  0  0  0  0  0  0  0  0  0
    0.6833   -2.3701   -3.7436 C   0  0  2  0  0  0  0  0  0  0  0  0
    0.0450   -2.0646   -5.0923 C   0  0  0  0  0  0  0  0  0  0  0  0
   -1.0993   -1.6313   -5.2101 O   0  0  0  0  0  0  0  0  0  0  0  0
    0.6248   -3.8589   -3.4393 C   0  0  0  0  0  0  0  0  0  0  0  0
   -0.8904   -1.1562   -2.9804 H   0  0  0  0  0  0  0  0  0  0  0  0
    1.7231   -2.0253   -3.7446 H   0  0  0  0  0  0  0  0  0  0  0  0
   -0.4092   -4.2226   -3.4341 H   0  0  0  0  0  0  0  0  0  0  0  0
    1.1753   -4.4387   -4.1875 H   0  0  0  0  0  0  0  0  0  0  0  0
    1.0573   -4.0730   -2.4561 H   0  0  0  0  0  0  0  0  0  0  0  0
    0.8881   -2.3735   -6.1506 N   0  0  0  0  0  0  0  0  0  0  0  0
    0.5076   -2.1853   -7.5311 C   0  0  0  0  0  0  0  0  0  0  0  0
    1.8271   -2.7105   -5.9595 H   0  0  0  0  0  0  0  0  0  0  0  0
    0.0679   -3.1152   -7.9208 H   0  0  0  0  0  0  0  0  0  0  0  0
   -0.2313   -1.3734   -7.6002 H   0  0  0  0  0  0  0  0  0  0  0  0
    1.3965   -1.9236   -8.1239 H   0  0  0  0  0  0  0  0  0  0  0  0
  1  3  1  0  0  0  0
  1  7  1  0  0  0  0
  1  2  2  0  0  0  0
 40 41  1  0  0  0  0
 41 49  1  0  0  0  0
 41 42  2  0  0  0  0
  8  9  1  0  0  0  0
  9 17  1  0  0  0  0
  9 10  2  0  0  0  0
 18 19  1  0  0  0  0
 19 39  1  0  0  0  0
 19 20  2  0  0  0  0
 40 43  1  0  0  0  0
  8 11  1  0  0  0  0
 49 50  1  0  0  0  0
 22 23  1  0  0  0  0
 21 22  1  0  0  0  0
 23 24  1  0  0  0  0
 18 21  1  0  0  0  0
 24 25  1  0  0  0  0
 39 40  1  0  0  0  0
  7  8  1  0  0  0  0
 17 18  1  0  0  0  0
  3  4  1  0  0  0  0
  3  5  1  0  0  0  0
  3  6  1  0  0  0  0
 43 46  1  0  0  0  0
 43 47  1  0  0  0  0
 43 48  1  0  0  0  0
 11 14  1  0  0  0  0
 11 15  1  0  0  0  0
 11 16  1  0  0  0  0
 50 52  1  0  0  0  0
 50 53  1  0  0  0  0
 50 54  1  0  0  0  0
 22 30  1  0  0  0  0
 22 31  1  0  0  0  0
 23 32  1  0  0  0  0
 23 33  1  0  0  0  0
 21 28  1  0  0  0  0
 21 29  1  0  0  0  0
 24 34  1  0  0  0  0
 24 35  1  0  0  0  0
 40 45  1  0  0  0  0
  8 13  1  0  0  0  0
 18 27  1  0  0  0  0
 49 51  1  0  0  0  0
  7 12  1  0  0  0  0
 39 44  1  0  0  0  0
 17 26  1  0  0  0  0
 25 36  1  0  0  0  0
 25 37  1  0  0  0  0
 25 38  1  0  0  0  0
M  CHG  1  25   1
M  END
$$$$

  -OEChem-05262214473D

 54 53  0     1  0  0  0  0  0999 V2000
    2.6714    2.8829   -3.0005 C   0  0  0  0  0  0  0  0  0  0  0  0
    3.1741    2.4398   -1.9745 O   0  0  0  0  0  0  0  0  0  0  0  0
    3.5527    3.3077   -4.1279 C   0  0  0  0  0  0  0  0  0  0  0  0
    3.8407    4.3691   -4.0597 H   0  0  0  0  0  0  0  0  0  0  0  0
    4.5024    2.7495   -4.1526 H   0  0  0  0  0  0  0  0  0  0  0  0
    3.1208    3.1887   -5.1345 H   0  0  0  0  0  0  0  0  0  0  0  0
    1.3174    3.0407   -3.2467 N   0  0  0  0  0  0  0  0  0  0  0  0
    0.2944    2.6927   -2.2960 C   0  0  2  0  0  0  0  0  0  0  0  0
    0.2976    1.1783   -2.1349 C   0  0  0  0  0  0  0  0  0  0  0  0
    0.7500    0.4142   -2.9850 O   0  0  0  0  0  0  0  0  0  0  0  0
   -1.0710    3.1886   -2.7460 C   0  0  0  0  0  0  0  0  0  0  0  0
    1.0312    3.4224   -4.1464 H   0  0  0  0  0  0  0  0  0  0  0  0
    0.5725    3.1622   -1.3461 H   0  0  0  0  0  0  0  0  0  0  0  0
   -1.3666    2.7292   -3.6963 H   0  0  0  0  0  0  0  0  0  0  0  0
   -1.8434    2.9482   -2.0082 H   0  0  0  0  0  0  0  0  0  0  0  0
   -1.0632    4.2744   -2.8901 H   0  0  0  0  0  0  0  0  0  0  0  0
   -0.3037    0.7742   -0.9484 N   0  0  0  0  0  0  0  0  0  0  0  0
   -0.4352   -0.6095   -0.5718 C   0  0  2  0  0  0  0  0  0  0  0  0
    0.4861   -1.4485   -1.4513 C   0  0  0  0  0  0  0  0  0  0  0  0
    1.3762   -2.1651   -0.9976 O   0  0  0  0  0  0  0  0  0  0  0  0
   -1.8938   -1.0799   -0.6176 C   0  0  0  0  0  0  0  0  0  0  0  0
   -2.7915   -0.4412    0.4502 C   0  0  0  0  0  0  0  0  0  0  0  0
   -4.2231   -0.9748    0.3599 C   0  0  0  0  0  0  0  0  0  0  0  0
   -5.1160   -0.3212    1.4042 C   0  0  0  0  0  0  0  0  0  0  0  0
   -6.4944   -0.8491    1.2639 N   0  3  0  0  0  0  0  0  0  0  0  0
   -0.6336    1.4811   -0.2948 H   0  0  0  0  0  0  0  0  0  0  0  0
   -0.0704   -0.6754    0.4603 H   0  0  0  0  0  0  0  0  0  0  0  0
   -2.3074   -0.8534   -1.6090 H   0  0  0  0  0  0  0  0  0  0  0  0
   -1.9291   -2.1705   -0.5038 H   0  0  0  0  0  0  0  0  0  0  0  0
   -2.3920   -0.6506    1.4493 H   0  0  0  0  0  0  0  0  0  0  0  0
   -2.8040    0.6481    0.3268 H   0  0  0  0  0  0  0  0  0  0  0  0
   -4.2192   -2.0626    0.5025 H   0  0  0  0  0  0  0  0  0  0  0  0
   -4.6236   -0.7838   -0.6435 H   0  0  0  0  0  0  0  0  0  0  0  0
   -4.7906   -0.5503    2.4233 H   0  0  0  0  0  0  0  0  0  0  0  0
   -5.1763    0.7631    1.2716 H   0  0  0  0  0  0  0  0  0  0  0  0
   -7.1757   -0.2199    1.7025 H   0  0  0  0  0  0  0  0  0  0  0  0
   -6.5824   -1.7691    1.7095 H   0  0  0  0  0  0  0  0  0  0  0  0
   -6.7502   -0.9514    0.2756 H   0  0  0  0  0  0  0  0  0  0  0  0
    0.1782   -1.3303   -2.7989 N   0  0  0  0  0  0  0  0  0  0  0  0
    0.9055   -2.0462   -3.8198 C   0  0  2  0  0  0  0  0  0  0  0  0
    0.5312   -1.4493   -5.1700 C   0  0  0  0  0  0  0  0  0  0  0  0
   -0.5104   -0.8254   -5.3621 O   0  0  0  0  0  0  0  0  0  0  0  0
    0.5960   -3.5346   -3.7789 C   0  0  0  0  0  0  0  0  0  0  0  0
   -0.5844   -0.7196   -3.0765 H   0  0  0  0  0  0  0  0  0  0  0  0
    1.9705   -1.8764   -3.6274 H   0  0  0  0  0  0  0  0  0  0  0  0
   -0.4666   -3.7243   -3.9696 H   0  0  0  0  0  0  0  0  0  0  0  0
    1.1701   -4.0801   -4.5352 H   0  0  0  0  0  0  0  0  0  0  0  0
    0.8380   -3.9562   -2.7974 H   0  0  0  0  0  0  0  0  0  0  0  0
    1.4767   -1.7321   -6.1458 N   0  0  0  0  0  0  0  0  0  0  0  0
    1.3433   -1.2864   -7.5131 C   0  0  0  0  0  0  0  0  0  0  0  0
    2.3194   -2.2397   -5.8929 H   0  0  0  0  0  0  0  0  0  0  0  0
    0.8450   -2.0669   -8.1068 H   0  0  0  0  0  0  0  0  0  0  0  0
    0.7431   -0.3651   -7.5414 H   0  0  0  0  0  0  0  0  0  0  0  0
    2.3405   -1.0874   -7.9327 H   0  0  0  0  0  0  0  0  0  0  0  0
  1  3  1  0  0  0  0
  1  7  1  0  0  0  0
  1  2  2  0  0  0  0
 40 41  1  0  0  0  0
 41 49  1  0  0  0  0
 41 42  2  0  0  0  0
  8  9  1  0  0  0  0
  9 17  1  0  0  0  0
  9 10  2  0  0  0  0
 18 19  1  0  0  0  0
 19 39  1  0  0  0  0
 19 20  2  0  0  0  0
 40 43  1  0  0  0  0
  8 11  1  0  0  0  0
 49 50  1  0  0  0  0
 22 23  1  0  0  0  0
 21 22  1  0  0  0  0
 23 24  1  0  0  0  0
 18 21  1  0  0  0  0
 24 25  1  0  0  0  0
 39 40  1  0  0  0  0
  7  8  1  0  0  0  0
 17 18  1  0  0  0  0
  3  4  1  0  0  0  0
  3  5  1  0  0  0  0
  3  6  1  0  0  0  0
 43 46  1  0  0  0  0
 43 47  1  0  0  0  0
 43 48  1  0  0  0  0
 11 14  1  0  0  0  0
 11 15  1  0  0  0  0
 11 16  1  0  0  0  0
 50 52  1  0  0  0  0
 50 53  1  0  0  0  0
 50 54  1  0  0  0  0
 22 30  1  0  0  0  0
 22 31  1  0  0  0  0
 23 32  1  0  0  0  0
 23 33  1  0  0  0  0
 21 28  1  0  0  0  0
 21 29  1  0  0  0  0
 24 34  1  0  0  0  0
 24 35  1  0  0  0  0
 40 45  1  0  0  0  0
  8 13  1  0  0  0  0
 18 27  1  0  0  0  0
 49 51  1  0  0  0  0
  7 12  1  0  0  0  0
 39 44  1  0  0  0  0
 17 26  1  0  0  0  0
 25 36  1  0  0  0  0
 25 37  1  0  0  0  0
 25 38  1  0  0  0  0
M  CHG  1  25   1
M  END
$$$$

  -OEChem-05262214473D

 54 53  0     1  0  0  0  0  0999 V2000
    2.6714    2.8829   -3.0005 C   0  0  0  0  0  0  0  0  0  0  0  0
    3.1741    2.4398   -1.9745 O   0  0  0  0  0  0  0  0  0  0  0  0
    3.5527    3.3077   -4.1279 C   0  0  0  0  0  0  0  0  0  0  0  0
    3.8407    4.3691   -4.0597 H   0  0  0  0  0  0  0  0  0  0  0  0
    4.5024    2.7495   -4.1526 H   0  0  0  0  0  0  0  0  0  0  0  0
    3.1208    3.1887   -5.1345 H   0  0  0  0  0  0  0  0  0  0  0  0
    1.3174    3.0407   -3.2467 N   0  0  0  0  0  0  0  0  0  0  0  0
    0.2944    2.6927   -2.2960 C   0  0  2  0  0  0  0  0  0  0  0  0
    0.2976    1.1783   -2.1349 C   0  0  0  0  0  0  0  0  0  0  0  0
    0.7500    0.4142   -2.9850 O   0  0  0  0  0  0  0  0  0  0  0  0
   -1.0710    3.1886   -2.7460 C   0  0  0  0  0  0  0  0  0  0  0  0
    1.0312    3.4224   -4.1464 H   0  0  0  0  0  0  0  0  0  0  0  0
    0.5725    3.1622   -1.3461 H   0  0  0  0  0  0  0  0  0  0  0  0
   -1.3666    2.7292   -3.6963 H   0  0  0  0  0  0  0  0  0  0  0  0
   -1.8434    2.9482   -2.0082 H   0  0  0  0  0  0  0  0  0  0  0  0
   -1.0632    4.2744   -2.8901 H   0  0  0  0  0  0  0  0  0  0  0  0
   -0.3037    0.7742   -0.9484 N   0  0  0  0  0  0  0  0  0  0  0  0
   -0.4352   -0.6095   -0.5718 C   0  0  2  0  0  0  0  0  0  0  0  0
    0.4861   -1.4485   -1.4513 C   0  0  0  0  0  0  0  0  0  0  0  0
    1.1881   -2.3570   -1.0115 O   0  0  0  0  0  0  0  0  0  0  0  0
   -1.8938   -1.0799   -0.6176 C   0  0  0  0  0  0  0  0  0  0  0  0
   -2.7915   -0.4412    0.4502 C   0  0  0  0  0  0  0  0  0  0  0  0
   -4.2231   -0.9748    0.3599 C   0  0  0  0  0  0  0  0  0  0  0  0
   -5.1160   -0.3212    1.4042 C   0  0  0  0  0  0  0  0  0  0  0  0
   -6.4944   -0.8491    1.2639 N   0  3  0  0  0  0  0  0  0  0  0  0
   -0.6336    1.4811   -0.2948 H   0  0  0  0  0  0  0  0  0  0  0  0
   -0.0704   -0.6754    0.4603 H   0  0  0  0  0  0  0  0  0  0  0  0
   -2.3074   -0.8534   -1.6090 H   0  0  0  0  0  0  0  0  0  0  0  0
   -1.9291   -2.1705   -0.5038 H   0  0  0  0  0  0  0  0  0  0  0  0
   -2.3920   -0.6506    1.4493 H   0  0  0  0  0  0  0  0  0  0  0  0
   -2.8040    0.6481    0.3268 H   0  0  0  0  0  0  0  0  0  0  0  0
   -4.2192   -2.0626    0.5025 H   0  0  0  0  0  0  0  0  0  0  0  0
   -4.6236   -0.7838   -0.6435 H   0  0  0  0  0  0  0  0  0  0  0  0
   -4.7906   -0.5503    2.4233 H   0  0  0  0  0  0  0  0  0  0  0  0
   -5.1763    0.7631    1.2716 H   0  0  0  0  0  0  0  0  0  0  0  0
   -7.1757   -0.2199    1.7025 H   0  0  0  0  0  0  0  0  0  0  0  0
   -6.5824   -1.7691    1.7095 H   0  0  0  0  0  0  0  0  0  0  0  0
   -6.7502   -0.9514    0.2756 H   0  0  0  0  0  0  0  0  0  0  0  0
    0.4091   -1.0875   -2.7887 N   0  0  0  0  0  0  0  0  0  0  0  0
    1.1794   -1.7546   -3.8111 C   0  0  2  0  0  0  0  0  0  0  0  0
    1.1038   -0.9153   -5.0797 C   0  0  0  0  0  0  0  0  0  0  0  0
    0.2004   -0.1111   -5.2990 O   0  0  0  0  0  0  0  0  0  0  0  0
    0.6650   -3.1639   -4.0603 C   0  0  0  0  0  0  0  0  0  0  0  0
   -0.2100   -0.3285   -3.0574 H   0  0  0  0  0  0  0  0  0  0  0  0
    2.2150   -1.7879   -3.4557 H   0  0  0  0  0  0  0  0  0  0  0  0
   -0.3714   -3.1508   -4.4171 H   0  0  0  0  0  0  0  0  0  0  0  0
    1.2680   -3.6786   -4.8157 H   0  0  0  0  0  0  0  0  0  0  0  0
    0.6922   -3.7572   -3.1400 H   0  0  0  0  0  0  0  0  0  0  0  0
    2.1403   -1.2012   -5.9572 N   0  0  0  0  0  0  0  0  0  0  0  0
    2.2822   -0.5457   -7.2363 C   0  0  0  0  0  0  0  0  0  0  0  0
    2.8558   -1.8688   -5.6848 H   0  0  0  0  0  0  0  0  0  0  0  0
    1.7786   -1.1412   -8.0120 H   0  0  0  0  0  0  0  0  0  0  0  0
    1.8264    0.4543   -7.1882 H   0  0  0  0  0  0  0  0  0  0  0  0
    3.3500   -0.4504   -7.4829 H   0  0  0  0  0  0  0  0  0  0  0  0
  1  3  1  0  0  0  0
  1  7  1  0  0  0  0
  1  2  2  0  0  0  0
 40 41  1  0  0  0  0
 41 49  1  0  0  0  0
 41 42  2  0  0  0  0
  8  9  1  0  0  0  0
  9 17  1  0  0  0  0
  9 10  2  0  0  0  0
 18 19  1  0  0  0  0
 19 39  1  0  0  0  0
 19 20  2  0  0  0  0
 40 43  1  0  0  0  0
  8 11  1  0  0  0  0
 49 50  1  0  0  0  0
 22 23  1  0  0  0  0
 21 22  1  0  0  0  0
 23 24  1  0  0  0  0
 18 21  1  0  0  0  0
 24 25  1  0  0  0  0
 39 40  1  0  0  0  0
  7  8  1  0  0  0  0
 17 18  1  0  0  0  0
  3  4  1  0  0  0  0
  3  5  1  0  0  0  0
  3  6  1  0  0  0  0
 43 46  1  0  0  0  0
 43 47  1  0  0  0  0
 43 48  1  0  0  0  0
 11 14  1  0  0  0  0
 11 15  1  0  0  0  0
 11 16  1  0  0  0  0
 50 52  1  0  0  0  0
 50 53  1  0  0  0  0
 50 54  1  0  0  0  0
 22 30  1  0  0  0  0
 22 31  1  0  0  0  0
 23 32  1  0  0  0  0
 23 33  1  0  0  0  0
 21 28  1  0  0  0  0
 21 29  1  0  0  0  0
 24 34  1  0  0  0  0
 24 35  1  0  0  0  0
 40 45  1  0  0  0  0
  8 13  1  0  0  0  0
 18 27  1  0  0  0  0
 49 51  1  0  0  0  0
  7 12  1  0  0  0  0
 39 44  1  0  0  0  0
 17 26  1  0  0  0  0
 25 36  1  0  0  0  0
 25 37  1  0  0  0  0
 25 38  1  0  0  0  0
M  CHG  1  25   1
M  END
$$$$

  -OEChem-05262214473D

 54 53  0     1  0  0  0  0  0999 V2000
    2.6714    2.8829   -3.0005 C   0  0  0  0  0  0  0  0  0  0  0  0
    3.1741    2.4398   -1.9745 O   0  0  0  0  0  0  0  0  0  0  0  0
    3.5527    3.3077   -4.1279 C   0  0  0  0  0  0  0  0  0  0  0  0
    3.8407    4.3691   -4.0597 H   0  0  0  0  0  0  0  0  0  0  0  0
    4.5024    2.7495   -4.1526 H   0  0  0  0  0  0  0  0  0  0  0  0
    3.1208    3.1887   -5.1345 H   0  0  0  0  0  0  0  0  0  0  0  0
    1.3174    3.0407   -3.2467 N   0  0  0  0  0  0  0  0  0  0  0  0
    0.2944    2.6927   -2.2960 C   0  0  2  0  0  0  0  0  0  0  0  0
    0.2976    1.1783   -2.1349 C   0  0  0  0  0  0  0  0  0  0  0  0
    0.7500    0.4142   -2.9850 O   0  0  0  0  0  0  0  0  0  0  0  0
   -1.0710    3.1886   -2.7460 C   0  0  0  0  0  0  0  0  0  0  0  0
    1.0312    3.4224   -4.1464 H   0  0  0  0  0  0  0  0  0  0  0  0
    0.5725    3.1622   -1.3461 H   0  0  0  0  0  0  0  0  0  0  0  0
   -1.3666    2.7292   -3.6963 H   0  0  0  0  0  0  0  0  0  0  0  0
   -1.8434    2.9482   -2.0082 H   0  0  0  0  0  0  0  0  0  0  0  0
   -1.0632    4.2744   -2.8901 H   0  0  0  0  0  0  0  0  0  0  0  0
   -0.3037    0.7742   -0.9484 N   0  0  0  0  0  0  0  0  0  0  0  0
   -0.4352   -0.6095   -0.5718 C   0  0  2  0  0  0  0  0  0  0  0  0
    0.4861   -1.4485   -1.4513 C   0  0  0  0  0  0  0  0  0  0  0  0
    0.9798   -2.5121   -1.0817 O   0  0  0  0  0  0  0  0  0  0  0  0
   -1.8938   -1.0799   -0.6176 C   0  0  0  0  0  0  0  0  0  0  0  0
   -2.7915   -0.4412    0.4502 C   0  0  0  0  0  0  0  0  0  0  0  0
   -4.2231   -0.9748    0.3599 C   0  0  0  0  0  0  0  0  0  0  0  0
   -5.1160   -0.3212    1.4042 C   0  0  0  0  0  0  0  0  0  0  0  0
   -6.4944   -0.8491    1.2639 N   0  3  0  0  0  0  0  0  0  0  0  0
   -0.6336    1.4811   -0.2948 H   0  0  0  0  0  0  0  0  0  0  0  0
   -0.0704   -0.6754    0.4603 H   0  0  0  0  0  0  0  0  0  0  0  0
   -2.3074   -0.8534   -1.6090 H   0  0  0  0  0  0  0  0  0  0  0  0
   -1.9291   -2.1705   -0.5038 H   0  0  0  0  0  0  0  0  0  0  0  0
   -2.3920   -0.6506    1.4493 H   0  0  0  0  0  0  0  0  0  0  0  0
   -2.8040    0.6481    0.3268 H   0  0  0  0  0  0  0  0  0  0  0  0
   -4.2192   -2.0626    0.5025 H   0  0  0  0  0  0  0  0  0  0  0  0
   -4.6236   -0.7838   -0.6435 H   0  0  0  0  0  0  0  0  0  0  0  0
   -4.7906   -0.5503    2.4233 H   0  0  0  0  0  0  0  0  0  0  0  0
   -5.1763    0.7631    1.2716 H   0  0  0  0  0  0  0  0  0  0  0  0
   -7.1757   -0.2199    1.7025 H   0  0  0  0  0  0  0  0  0  0  0  0
   -6.5824   -1.7691    1.7095 H   0  0  0  0  0  0  0  0  0  0  0  0
   -6.7502   -0.9514    0.2756 H   0  0  0  0  0  0  0  0  0  0  0  0
    0.6668   -0.8891   -2.7080 N   0  0  0  0  0  0  0  0  0  0  0  0
    1.4862   -1.5152   -3.7181 C   0  0  2  0  0  0  0  0  0  0  0  0
    1.7237   -0.4991   -4.8274 C   0  0  0  0  0  0  0  0  0  0  0  0
    0.9845    0.4630   -5.0252 O   0  0  0  0  0  0  0  0  0  0  0  0
    0.8270   -2.7721   -4.2644 C   0  0  0  0  0  0  0  0  0  0  0  0
    0.2073   -0.0096   -2.9245 H   0  0  0  0  0  0  0  0  0  0  0  0
    2.4400   -1.7657   -3.2411 H   0  0  0  0  0  0  0  0  0  0  0  0
   -0.1301   -2.5411   -4.7460 H   0  0  0  0  0  0  0  0  0  0  0  0
    1.4625   -3.2615   -5.0098 H   0  0  0  0  0  0  0  0  0  0  0  0
    0.6299   -3.4896   -3.4605 H   0  0  0  0  0  0  0  0  0  0  0  0
    2.8337   -0.8169   -5.5974 N   0  0  0  0  0  0  0  0  0  0  0  0
    3.2602   -0.0136   -6.7193 C   0  0  0  0  0  0  0  0  0  0  0  0
    3.3996   -1.6232   -5.3495 H   0  0  0  0  0  0  0  0  0  0  0  0
    2.8050   -0.4012   -7.6427 H   0  0  0  0  0  0  0  0  0  0  0  0
    2.9447    1.0288   -6.5647 H   0  0  0  0  0  0  0  0  0  0  0  0
    4.3560   -0.0561   -6.8051 H   0  0  0  0  0  0  0  0  0  0  0  0
  1  3  1  0  0  0  0
  1  7  1  0  0  0  0
  1  2  2  0  0  0  0
 40 41  1  0  0  0  0
 41 49  1  0  0  0  0
 41 42  2  0  0  0  0
  8  9  1  0  0  0  0
  9 17  1  0  0  0  0
  9 10  2  0  0  0  0
 18 19  1  0  0  0  0
 19 39  1  0  0  0  0
 19 20  2  0  0  0  0
 40 43  1  0  0  0  0
  8 11  1  0  0  0  0
 49 50  1  0  0  0  0
 22 23  1  0  0  0  0
 21 22  1  0  0  0  0
 23 24  1  0  0  0  0
 18 21  1  0  0  0  0
 24 25  1  0  0  0  0
 39 40  1  0  0  0  0
  7  8  1  0  0  0  0
 17 18  1  0  0  0  0
  3  4  1  0  0  0  0
  3  5  1  0  0  0  0
  3  6  1  0  0  0  0
 43 46  1  0  0  0  0
 43 47  1  0  0  0  0
 43 48  1  0  0  0  0
 11 14  1  0  0  0  0
 11 15  1  0  0  0  0
 11 16  1  0  0  0  0
 50 52  1  0  0  0  0
 50 53  1  0  0  0  0
 50 54  1  0  0  0  0
 22 30  1  0  0  0  0
 22 31  1  0  0  0  0
 23 32  1  0  0  0  0
 23 33  1  0  0  0  0
 21 28  1  0  0  0  0
 21 29  1  0  0  0  0
 24 34  1  0  0  0  0
 24 35  1  0  0  0  0
 40 45  1  0  0  0  0
  8 13  1  0  0  0  0
 18 27  1  0  0  0  0
 49 51  1  0  0  0  0
  7 12  1  0  0  0  0
 39 44  1  0  0  0  0
 17 26  1  0  0  0  0
 25 36  1  0  0  0  0
 25 37  1  0  0  0  0
 25 38  1  0  0  0  0
M  CHG  1  25   1
M  END
$$$$

  -OEChem-05262214473D

 54 53  0     1  0  0  0  0  0999 V2000
    2.6714    2.8829   -3.0005 C   0  0  0  0  0  0  0  0  0  0  0  0
    3.1741    2.4398   -1.9745 O   0  0  0  0  0  0  0  0  0  0  0  0
    3.5527    3.3077   -4.1279 C   0  0  0  0  0  0  0  0  0  0  0  0
    3.8407    4.3691   -4.0597 H   0  0  0  0  0  0  0  0  0  0  0  0
    4.5024    2.7495   -4.1526 H   0  0  0  0  0  0  0  0  0  0  0  0
    3.1208    3.1887   -5.1345 H   0  0  0  0  0  0  0  0  0  0  0  0
    1.3174    3.0407   -3.2467 N   0  0  0  0  0  0  0  0  0  0  0  0
    0.2944    2.6927   -2.2960 C   0  0  2  0  0  0  0  0  0  0  0  0
    0.2976    1.1783   -2.1349 C   0  0  0  0  0  0  0  0  0  0  0  0
    0.7500    0.4142   -2.9850 O   0  0  0  0  0  0  0  0  0  0  0  0
   -1.0710    3.1886   -2.7460 C   0  0  0  0  0  0  0  0  0  0  0  0
    1.0312    3.4224   -4.1464 H   0  0  0  0  0  0  0  0  0  0  0  0
    0.5725    3.1622   -1.3461 H   0  0  0  0  0  0  0  0  0  0  0  0
   -1.3666    2.7292   -3.6963 H   0  0  0  0  0  0  0  0  0  0  0  0
   -1.8434    2.9482   -2.0082 H   0  0  0  0  0  0  0  0  0  0  0  0
   -1.0632    4.2744   -2.8901 H   0  0  0  0  0  0  0  0  0  0  0  0
   -0.3037    0.7742   -0.9484 N   0  0  0  0  0  0  0  0  0  0  0  0
   -0.4352   -0.6095   -0.5718 C   0  0  2  0  0  0  0  0  0  0  0  0
    0.4861   -1.4485   -1.4513 C   0  0  0  0  0  0  0  0  0  0  0  0
    0.7654   -2.6199   -1.2035 O   0  0  0  0  0  0  0  0  0  0  0  0
   -1.8938   -1.0799   -0.6176 C   0  0  0  0  0  0  0  0  0  0  0  0
   -2.7915   -0.4412    0.4502 C   0  0  0  0  0  0  0  0  0  0  0  0
   -4.2231   -0.9748    0.3599 C   0  0  0  0  0  0  0  0  0  0  0  0
   -5.1160   -0.3212    1.4042 C   0  0  0  0  0  0  0  0  0  0  0  0
   -6.4944   -0.8491    1.2639 N   0  3  0  0  0  0  0  0  0  0  0  0
   -0.6336    1.4811   -0.2948 H   0  0  0  0  0  0  0  0  0  0  0  0
   -0.0704   -0.6754    0.4603 H   0  0  0  0  0  0  0  0  0  0  0  0
   -2.3074   -0.8534   -1.6090 H   0  0  0  0  0  0  0  0  0  0  0  0
   -1.9291   -2.1705   -0.5038 H   0  0  0  0  0  0  0  0  0  0  0  0
   -2.3920   -0.6506    1.4493 H   0  0  0  0  0  0  0  0  0  0  0  0
   -2.8040    0.6481    0.3268 H   0  0  0  0  0  0  0  0  0  0  0  0
   -4.2192   -2.0626    0.5025 H   0  0  0  0  0  0  0  0  0  0  0  0
   -4.6236   -0.7838   -0.6435 H   0  0  0  0  0  0  0  0  0  0  0  0
   -4.7906   -0.5503    2.4233 H   0  0  0  0  0  0  0  0  0  0  0  0
   -5.1763    0.7631    1.2716 H   0  0  0  0  0  0  0  0  0  0  0  0
   -7.1757   -0.2199    1.7025 H   0  0  0  0  0  0  0  0  0  0  0  0
   -6.5824   -1.7691    1.7095 H   0  0  0  0  0  0  0  0  0  0  0  0
   -6.7502   -0.9514    0.2756 H   0  0  0  0  0  0  0  0  0  0  0  0
    0.9339   -0.7485   -2.5623 N   0  0  0  0  0  0  0  0  0  0  0  0
    1.8050   -1.3443   -3.5472 C   0  0  2  0  0  0  0  0  0  0  0  0
    2.3486   -0.2290   -4.4304 C   0  0  0  0  0  0  0  0  0  0  0  0
    1.7887    0.8577   -4.5594 O   0  0  0  0  0  0  0  0  0  0  0  0
    1.0710   -2.3860   -4.3771 C   0  0  0  0  0  0  0  0  0  0  0  0
    0.6390    0.2154   -2.6868 H   0  0  0  0  0  0  0  0  0  0  0  0
    2.6301   -1.8114   -2.9984 H   0  0  0  0  0  0  0  0  0  0  0  0
    0.2408   -1.9366   -4.9341 H   0  0  0  0  0  0  0  0  0  0  0  0
    1.7403   -2.8573   -5.1045 H   0  0  0  0  0  0  0  0  0  0  0  0
    0.6552   -3.1718   -3.7373 H   0  0  0  0  0  0  0  0  0  0  0  0
    3.5095   -0.6054   -5.0912 N   0  0  0  0  0  0  0  0  0  0  0  0
    4.2107    0.2736   -5.9976 C   0  0  0  0  0  0  0  0  0  0  0  0
    3.9137   -1.5195   -4.9097 H   0  0  0  0  0  0  0  0  0  0  0  0
    3.8543    0.1027   -7.0241 H   0  0  0  0  0  0  0  0  0  0  0  0
    4.0219    1.3194   -5.7135 H   0  0  0  0  0  0  0  0  0  0  0  0
    5.2901    0.0686   -5.9455 H   0  0  0  0  0  0  0  0  0  0  0  0
  1  3  1  0  0  0  0
  1  7  1  0  0  0  0
  1  2  2  0  0  0  0
 40 41  1  0  0  0  0
 41 49  1  0  0  0  0
 41 42  2  0  0  0  0
  8  9  1  0  0  0  0
  9 17  1  0  0  0  0
  9 10  2  0  0  0  0
 18 19  1  0  0  0  0
 19 39  1  0  0  0  0
 19 20  2  0  0  0  0
 40 43  1  0  0  0  0
  8 11  1  0  0  0  0
 49 50  1  0  0  0  0
 22 23  1  0  0  0  0
 21 22  1  0  0  0  0
 23 24  1  0  0  0  0
 18 21  1  0  0  0  0
 24 25  1  0  0  0  0
 39 40  1  0  0  0  0
  7  8  1  0  0  0  0
 17 18  1  0  0  0  0
  3  4  1  0  0  0  0
  3  5  1  0  0  0  0
  3  6  1  0  0  0  0
 43 46  1  0  0  0  0
 43 47  1  0  0  0  0
 43 48  1  0  0  0  0
 11 14  1  0  0  0  0
 11 15  1  0  0  0  0
 11 16  1  0  0  0  0
 50 52  1  0  0  0  0
 50 53  1  0  0  0  0
 50 54  1  0  0  0  0
 22 30  1  0  0  0  0
 22 31  1  0  0  0  0
 23 32  1  0  0  0  0
 23 33  1  0  0  0  0
 21 28  1  0  0  0  0
 21 29  1  0  0  0  0
 24 34  1  0  0  0  0
 24 35  1  0  0  0  0
 40 45  1  0  0  0  0
  8 13  1  0  0  0  0
 18 27  1  0  0  0  0
 49 51  1  0  0  0  0
  7 12  1  0  0  0  0
 39 44  1  0  0  0  0
 17 26  1  0  0  0  0
 25 36  1  0  0  0  0
 25 37  1  0  0  0  0
 25 38  1  0  0  0  0
M  CHG  1  25   1
M  END
$$$$

  -OEChem-05262214473D

 54 53  0     1  0  0  0  0  0999 V2000
    2.6714    2.8829   -3.0005 C   0  0  0  0  0  0  0  0  0  0  0  0
    3.1741    2.4398   -1.9745 O   0  0  0  0  0  0  0  0  0  0  0  0
    3.5527    3.3077   -4.1279 C   0  0  0  0  0  0  0  0  0  0  0  0
    3.8407    4.3691   -4.0597 H   0  0  0  0  0  0  0  0  0  0  0  0
    4.5024    2.7495   -4.1526 H   0  0  0  0  0  0  0  0  0  0  0  0
    3.1208    3.1887   -5.1345 H   0  0  0  0  0  0  0  0  0  0  0  0
    1.3174    3.0407   -3.2467 N   0  0  0  0  0  0  0  0  0  0  0  0
    0.2944    2.6927   -2.2960 C   0  0  2  0  0  0  0  0  0  0  0  0
    0.2976    1.1783   -2.1349 C   0  0  0  0  0  0  0  0  0  0  0  0
    0.7500    0.4142   -2.9850 O   0  0  0  0  0  0  0  0  0  0  0  0
   -1.0710    3.1886   -2.7460 C   0  0  0  0  0  0  0  0  0  0  0  0
    1.0312    3.4224   -4.1464 H   0  0  0  0  0  0  0  0  0  0  0  0
    0.5725    3.1622   -1.3461 H   0  0  0  0  0  0  0  0  0  0  0  0
   -1.3666    2.7292   -3.6963 H   0  0  0  0  0  0  0  0  0  0  0  0
   -1.8434    2.9482   -2.0082 H   0  0  0  0  0  0  0  0  0  0  0  0
   -1.0632    4.2744   -2.8901 H   0  0  0  0  0  0  0  0  0  0  0  0
   -0.3037    0.7742   -0.9484 N   0  0  0  0  0  0  0  0  0  0  0  0
   -0.4352   -0.6095   -0.5718 C   0  0  2  0  0  0  0  0  0  0  0  0
    0.4861   -1.4485   -1.4513 C   0  0  0  0  0  0  0  0  0  0  0  0
    0.5596   -2.6730   -1.3684 O   0  0  0  0  0  0  0  0  0  0  0  0
   -1.8938   -1.0799   -0.6176 C   0  0  0  0  0  0  0  0  0  0  0  0
   -2.7915   -0.4412    0.4502 C   0  0  0  0  0  0  0  0  0  0  0  0
   -4.2231   -0.9748    0.3599 C   0  0  0  0  0  0  0  0  0  0  0  0
   -5.1160   -0.3212    1.4042 C   0  0  0  0  0  0  0  0  0  0  0  0
   -6.4944   -0.8491    1.2639 N   0  3  0  0  0  0  0  0  0  0  0  0
   -0.6336    1.4811   -0.2948 H   0  0  0  0  0  0  0  0  0  0  0  0
   -0.0704   -0.6754    0.4603 H   0  0  0  0  0  0  0  0  0  0  0  0
   -2.3074   -0.8534   -1.6090 H   0  0  0  0  0  0  0  0  0  0  0  0
   -1.9291   -2.1705   -0.5038 H   0  0  0  0  0  0  0  0  0  0  0  0
   -2.3920   -0.6506    1.4493 H   0  0  0  0  0  0  0  0  0  0  0  0
   -2.8040    0.6481    0.3268 H   0  0  0  0  0  0  0  0  0  0  0  0
   -4.2192   -2.0626    0.5025 H   0  0  0  0  0  0  0  0  0  0  0  0
   -4.6236   -0.7838   -0.6435 H   0  0  0  0  0  0  0  0  0  0  0  0
   -4.7906   -0.5503    2.4233 H   0  0  0  0  0  0  0  0  0  0  0  0
   -5.1763    0.7631    1.2716 H   0  0  0  0  0  0  0  0  0  0  0  0
   -7.1757   -0.2199    1.7025 H   0  0  0  0  0  0  0  0  0  0  0  0
   -6.5824   -1.7691    1.7095 H   0  0  0  0  0  0  0  0  0  0  0  0
   -6.7502   -0.9514    0.2756 H   0  0  0  0  0  0  0  0  0  0  0  0
    1.1921   -0.6754   -2.3616 N   0  0  0  0  0  0  0  0  0  0  0  0
    2.1141   -1.2535   -3.3099 C   0  0  2  0  0  0  0  0  0  0  0  0
    2.9360   -0.1234   -3.9157 C   0  0  0  0  0  0  0  0  0  0  0  0
    2.5580    1.0461   -3.9332 O   0  0  0  0  0  0  0  0  0  0  0  0
    1.3804   -2.0318   -4.3909 C   0  0  0  0  0  0  0  0  0  0  0  0
    1.0557    0.3311   -2.3606 H   0  0  0  0  0  0  0  0  0  0  0  0
    2.7723   -1.9218   -2.7441 H   0  0  0  0  0  0  0  0  0  0  0  0
    0.7160   -1.3788   -4.9685 H   0  0  0  0  0  0  0  0  0  0  0  0
    2.0824   -2.4935   -5.0932 H   0  0  0  0  0  0  0  0  0  0  0  0
    0.7665   -2.8253   -3.9512 H   0  0  0  0  0  0  0  0  0  0  0  0
    4.1218   -0.5811   -4.4728 N   0  0  0  0  0  0  0  0  0  0  0  0
    5.0688    0.2964   -5.1202 C   0  0  0  0  0  0  0  0  0  0  0  0
    4.3633   -1.5648   -4.3956 H   0  0  0  0  0  0  0  0  0  0  0  0
    4.8549    0.3361   -6.1985 H   0  0  0  0  0  0  0  0  0  0  0  0
    4.9846    1.3062   -4.6924 H   0  0  0  0  0  0  0  0  0  0  0  0
    6.0886   -0.0847   -4.9626 H   0  0  0  0  0  0  0  0  0  0  0  0
  1  3  1  0  0  0  0
  1  7  1  0  0  0  0
  1  2  2  0  0  0  0
 40 41  1  0  0  0  0
 41 49  1  0  0  0  0
 41 42  2  0  0  0  0
  8  9  1  0  0  0  0
  9 17  1  0  0  0  0
  9 10  2  0  0  0  0
 18 19  1  0  0  0  0
 19 39  1  0  0  0  0
 19 20  2  0  0  0  0
 40 43  1  0  0  0  0
  8 11  1  0  0  0  0
 49 50  1  0  0  0  0
 22 23  1  0  0  0  0
 21 22  1  0  0  0  0
 23 24  1  0  0  0  0
 18 21  1  0  0  0  0
 24 25  1  0  0  0  0
 39 40  1  0  0  0  0
  7  8  1  0  0  0  0
 17 18  1  0  0  0  0
  3  4  1  0  0  0  0
  3  5  1  0  0  0  0
  3  6  1  0  0  0  0
 43 46  1  0  0  0  0
 43 47  1  0  0  0  0
 43 48  1  0  0  0  0
 11 14  1  0  0  0  0
 11 15  1  0  0  0  0
 11 16  1  0  0  0  0
 50 52  1  0  0  0  0
 50 53  1  0  0  0  0
 50 54  1  0  0  0  0
 22 30  1  0  0  0  0
 22 31  1  0  0  0  0
 23 32  1  0  0  0  0
 23 33  1  0  0  0  0
 21 28  1  0  0  0  0
 21 29  1  0  0  0  0
 24 34  1  0  0  0  0
 24 35  1  0  0  0  0
 40 45  1  0  0  0  0
  8 13  1  0  0  0  0
 18 27  1  0  0  0  0
 49 51  1  0  0  0  0
  7 12  1  0  0  0  0
 39 44  1  0  0  0  0
 17 26  1  0  0  0  0
 25 36  1  0  0  0  0
 25 37  1  0  0  0  0
 25 38  1  0  0  0  0
M  CHG  1  25   1
M  END
$$$$

  -OEChem-05262214473D

 54 53  0     1  0  0  0  0  0999 V2000
    2.6714    2.8829   -3.0005 C   0  0  0  0  0  0  0  0  0  0  0  0
    3.1741    2.4398   -1.9745 O   0  0  0  0  0  0  0  0  0  0  0  0
    3.5527    3.3077   -4.1279 C   0  0  0  0  0  0  0  0  0  0  0  0
    3.8407    4.3691   -4.0597 H   0  0  0  0  0  0  0  0  0  0  0  0
    4.5024    2.7495   -4.1526 H   0  0  0  0  0  0  0  0  0  0  0  0
    3.1208    3.1887   -5.1345 H   0  0  0  0  0  0  0  0  0  0  0  0
    1.3174    3.0407   -3.2467 N   0  0  0  0  0  0  0  0  0  0  0  0
    0.2944    2.6927   -2.2960 C   0  0  2  0  0  0  0  0  0  0  0  0
    0.2976    1.1783   -2.1349 C   0  0  0  0  0  0  0  0  0  0  0  0
    0.7500    0.4142   -2.9850 O   0  0  0  0  0  0  0  0  0  0  0  0
   -1.0710    3.1886   -2.7460 C   0  0  0  0  0  0  0  0  0  0  0  0
    1.0312    3.4224   -4.1464 H   0  0  0  0  0  0  0  0  0  0  0  0
    0.5725    3.1622   -1.3461 H   0  0  0  0  0  0  0  0  0  0  0  0
   -1.3666    2.7292   -3.6963 H   0  0  0  0  0  0  0  0  0  0  0  0
   -1.8434    2.9482   -2.0082 H   0  0  0  0  0  0  0  0  0  0  0  0
   -1.0632    4.2744   -2.8901 H   0  0  0  0  0  0  0  0  0  0  0  0
   -0.3037    0.7742   -0.9484 N   0  0  0  0  0  0  0  0  0  0  0  0
   -0.4352   -0.6095   -0.5718 C   0  0  2  0  0  0  0  0  0  0  0  0
    0.4861   -1.4485   -1.4513 C   0  0  0  0  0  0  0  0  0  0  0  0
    0.3764   -2.6677   -1.5654 O   0  0  0  0  0  0  0  0  0  0  0  0
   -1.8938   -1.0799   -0.6176 C   0  0  0  0  0  0  0  0  0  0  0  0
   -2.7915   -0.4412    0.4502 C   0  0  0  0  0  0  0  0  0  0  0  0
   -4.2231   -0.9748    0.3599 C   0  0  0  0  0  0  0  0  0  0  0  0
   -5.1160   -0.3212    1.4042 C   0  0  0  0  0  0  0  0  0  0  0  0
   -6.4944   -0.8491    1.2639 N   0  3  0  0  0  0  0  0  0  0  0  0
   -0.6336    1.4811   -0.2948 H   0  0  0  0  0  0  0  0  0  0  0  0
   -0.0704   -0.6754    0.4603 H   0  0  0  0  0  0  0  0  0  0  0  0
   -2.3074   -0.8534   -1.6090 H   0  0  0  0  0  0  0  0  0  0  0  0
   -1.9291   -2.1705   -0.5038 H   0  0  0  0  0  0  0  0  0  0  0  0
   -2.3920   -0.6506    1.4493 H   0  0  0  0  0  0  0  0  0  0  0  0
   -2.8040    0.6481    0.3268 H   0  0  0  0  0  0  0  0  0  0  0  0
   -4.2192   -2.0626    0.5025 H   0  0  0  0  0  0  0  0  0  0  0  0
   -4.6236   -0.7838   -0.6435 H   0  0  0  0  0  0  0  0  0  0  0  0
   -4.7906   -0.5503    2.4233 H   0  0  0  0  0  0  0  0  0  0  0  0
   -5.1763    0.7631    1.2716 H   0  0  0  0  0  0  0  0  0  0  0  0
   -7.1757   -0.2199    1.7025 H   0  0  0  0  0  0  0  0  0  0  0  0
   -6.5824   -1.7691    1.7095 H   0  0  0  0  0  0  0  0  0  0  0  0
   -6.7502   -0.9514    0.2756 H   0  0  0  0  0  0  0  0  0  0  0  0
    1.4239   -0.6746   -2.1195 N   0  0  0  0  0  0  0  0  0  0  0  0
    2.3925   -1.2490   -3.0226 C   0  0  2  0  0  0  0  0  0  0  0  0
    3.4459   -0.1896   -3.3184 C   0  0  0  0  0  0  0  0  0  0  0  0
    3.2400    1.0154   -3.1893 O   0  0  0  0  0  0  0  0  0  0  0  0
    1.7341   -1.7337   -4.3049 C   0  0  0  0  0  0  0  0  0  0  0  0
    1.4291    0.3297   -1.9681 H   0  0  0  0  0  0  0  0  0  0  0  0
    2.8569   -2.0895   -2.4954 H   0  0  0  0  0  0  0  0  0  0  0  0
    1.2632   -0.9055   -4.8469 H   0  0  0  0  0  0  0  0  0  0  0  0
    2.4655   -2.1949   -4.9767 H   0  0  0  0  0  0  0  0  0  0  0  0
    0.9562   -2.4738   -4.0879 H   0  0  0  0  0  0  0  0  0  0  0  0
    4.6289   -0.7457   -3.7846 N   0  0  0  0  0  0  0  0  0  0  0  0
    5.7763    0.0531   -4.1470 C   0  0  0  0  0  0  0  0  0  0  0  0
    4.7175   -1.7560   -3.8420 H   0  0  0  0  0  0  0  0  0  0  0  0
    5.7388    0.2832   -5.2220 H   0  0  0  0  0  0  0  0  0  0  0  0
    5.7671    0.9902   -3.5711 H   0  0  0  0  0  0  0  0  0  0  0  0
    6.6971   -0.5056   -3.9236 H   0  0  0  0  0  0  0  0  0  0  0  0
  1  3  1  0  0  0  0
  1  7  1  0  0  0  0
  1  2  2  0  0  0  0
 40 41  1  0  0  0  0
 41 49  1  0  0  0  0
 41 42  2  0  0  0  0
  8  9  1  0  0  0  0
  9 17  1  0  0  0  0
  9 10  2  0  0  0  0
 18 19  1  0  0  0  0
 19 39  1  0  0  0  0
 19 20  2  0  0  0  0
 40 43  1  0  0  0  0
  8 11  1  0  0  0  0
 49 50  1  0  0  0  0
 22 23  1  0  0  0  0
 21 22  1  0  0  0  0
 23 24  1  0  0  0  0
 18 21  1  0  0  0  0
 24 25  1  0  0  0  0
 39 40  1  0  0  0  0
  7  8  1  0  0  0  0
 17 18  1  0  0  0  0
  3  4  1  0  0  0  0
  3  5  1  0  0  0  0
  3  6  1  0  0  0  0
 43 46  1  0  0  0  0
 43 47  1  0  0  0  0
 43 48  1  0  0  0  0
 11 14  1  0  0  0  0
 11 15  1  0  0  0  0
 11 16  1  0  0  0  0
 50 52  1  0  0  0  0
 50 53  1  0  0  0  0
 50 54  1  0  0  0  0
 22 30  1  0  0  0  0
 22 31  1  0  0  0  0
 23 32  1  0  0  0  0
 23 33  1  0  0  0  0
 21 28  1  0  0  0  0
 21 29  1  0  0  0  0
 24 34  1  0  0  0  0
 24 35  1  0  0  0  0
 40 45  1  0  0  0  0
  8 13  1  0  0  0  0
 18 27  1  0  0  0  0
 49 51  1  0  0  0  0
  7 12  1  0  0  0  0
 39 44  1  0  0  0  0
 17 26  1  0  0  0  0
 25 36  1  0  0  0  0
 25 37  1  0  0  0  0
 25 38  1  0  0  0  0
M  CHG  1  25   1
M  END
$$$$

  -OEChem-05262214473D

 54 53  0     1  0  0  0  0  0999 V2000
    2.6714    2.8829   -3.0005 C   0  0  0  0  0  0  0  0  0  0  0  0
    3.1741    2.4398   -1.9745 O   0  0  0  0  0  0  0  0  0  0  0  0
    3.5527    3.3077   -4.1279 C   0  0  0  0  0  0  0  0  0  0  0  0
    3.8407    4.3691   -4.0597 H   0  0  0  0  0  0  0  0  0  0  0  0
    4.5024    2.7495   -4.1526 H   0  0  0  0  0  0  0  0  0  0  0  0
    3.1208    3.1887   -5.1345 H   0  0  0  0  0  0  0  0  0  0  0  0
    1.3174    3.0407   -3.2467 N   0  0  0  0  0  0  0  0  0  0  0  0
    0.2944    2.6927   -2.2960 C   0  0  2  0  0  0  0  0  0  0  0  0
    0.2976    1.1783   -2.1349 C   0  0  0  0  0  0  0  0  0  0  0  0
    0.7500    0.4142   -2.9850 O   0  0  0  0  0  0  0  0  0  0  0  0
   -1.0710    3.1886   -2.7460 C   0  0  0  0  0  0  0  0  0  0  0  0
    1.0312    3.4224   -4.1464 H   0  0  0  0  0  0  0  0  0  0  0  0
    0.5725    3.1622   -1.3461 H   0  0  0  0  0  0  0  0  0  0  0  0
   -1.3666    2.7292   -3.6963 H   0  0  0  0  0  0  0  0  0  0  0  0
   -1.8434    2.9482   -2.0082 H   0  0  0  0  0  0  0  0  0  0  0  0
   -1.0632    4.2744   -2.8901 H   0  0  0  0  0  0  0  0  0  0  0  0
   -0.3037    0.7742   -0.9484 N   0  0  0  0  0  0  0  0  0  0  0  0
   -0.4352   -0.6095   -0.5718 C   0  0  2  0  0  0  0  0  0  0  0  0
    0.4861   -1.4485   -1.4513 C   0  0  0  0  0  0  0  0  0  0  0  0
    0.2282   -2.6045   -1.7809 O   0  0  0  0  0  0  0  0  0  0  0  0
   -1.8938   -1.0799   -0.6176 C   0  0  0  0  0  0  0  0  0  0  0  0
   -2.7915   -0.4412    0.4502 C   0  0  0  0  0  0  0  0  0  0  0  0
   -4.2231   -0.9748    0.3599 C   0  0  0  0  0  0  0  0  0  0  0  0
   -5.1160   -0.3212    1.4042 C   0  0  0  0  0  0  0  0  0  0  0  0
   -6.4944   -0.8491    1.2639 N   0  3  0  0  0  0  0  0  0  0  0  0
   -0.6336    1.4811   -0.2948 H   0  0  0  0  0  0  0  0  0  0  0  0
   -0.0704   -0.6754    0.4603 H   0  0  0  0  0  0  0  0  0  0  0  0
   -2.3074   -0.8534   -1.6090 H   0  0  0  0  0  0  0  0  0  0  0  0
   -1.9291   -2.1705   -0.5038 H   0  0  0  0  0  0  0  0  0  0  0  0
   -2.3920   -0.6506    1.4493 H   0  0  0  0  0  0  0  0  0  0  0  0
   -2.8040    0.6481    0.3268 H   0  0  0  0  0  0  0  0  0  0  0  0
   -4.2192   -2.0626    0.5025 H   0  0  0  0  0  0  0  0  0  0  0  0
   -4.6236   -0.7838   -0.6435 H   0  0  0  0  0  0  0  0  0  0  0  0
   -4.7906   -0.5503    2.4233 H   0  0  0  0  0  0  0  0  0  0  0  0
   -5.1763    0.7631    1.2716 H   0  0  0  0  0  0  0  0  0  0  0  0
   -7.1757   -0.2199    1.7025 H   0  0  0  0  0  0  0  0  0  0  0  0
   -6.5824   -1.7691    1.7095 H   0  0  0  0  0  0  0  0  0  0  0  0
   -6.7502   -0.9514    0.2756 H   0  0  0  0  0  0  0  0  0  0  0  0
    1.6134   -0.7463   -1.8525 N   0  0  0  0  0  0  0  0  0  0  0  0
    2.6211   -1.3311   -2.7047 C   0  0  2  0  0  0  0  0  0  0  0  0
    3.8434   -0.4230   -2.6792 C   0  0  0  0  0  0  0  0  0  0  0  0
    3.7883    0.7677   -2.3785 O   0  0  0  0  0  0  0  0  0  0  0  0
    2.1079   -1.5120   -4.1247 C   0  0  0  0  0  0  0  0  0  0  0  0
    1.7337    0.2113   -1.5361 H   0  0  0  0  0  0  0  0  0  0  0  0
    2.8783   -2.3029   -2.2694 H   0  0  0  0  0  0  0  0  0  0  0  0
    1.8451   -0.5489   -4.5774 H   0  0  0  0  0  0  0  0  0  0  0  0
    2.8635   -1.9819   -4.7629 H   0  0  0  0  0  0  0  0  0  0  0  0
    1.2113   -2.1411   -4.1380 H   0  0  0  0  0  0  0  0  0  0  0  0
    4.9960   -1.0880   -3.0734 N   0  0  0  0  0  0  0  0  0  0  0  0
    6.2847   -0.4396   -3.1442 C   0  0  0  0  0  0  0  0  0  0  0  0
    4.9523   -2.0801   -3.2868 H   0  0  0  0  0  0  0  0  0  0  0  0
    6.4456   -0.0526   -4.1612 H   0  0  0  0  0  0  0  0  0  0  0  0
    6.3161    0.3929   -2.4259 H   0  0  0  0  0  0  0  0  0  0  0  0
    7.0741   -1.1654   -2.8991 H   0  0  0  0  0  0  0  0  0  0  0  0
  1  3  1  0  0  0  0
  1  7  1  0  0  0  0
  1  2  2  0  0  0  0
 40 41  1  0  0  0  0
 41 49  1  0  0  0  0
 41 42  2  0  0  0  0
  8  9  1  0  0  0  0
  9 17  1  0  0  0  0
  9 10  2  0  0  0  0
 18 19  1  0  0  0  0
 19 39  1  0  0  0  0
 19 20  2  0  0  0  0
 40 43  1  0  0  0  0
  8 11  1  0  0  0  0
 49 50  1  0  0  0  0
 22 23  1  0  0  0  0
 21 22  1  0  0  0  0
 23 24  1  0  0  0  0
 18 21  1  0  0  0  0
 24 25  1  0  0  0  0
 39 40  1  0  0  0  0
  7  8  1  0  0  0  0
 17 18  1  0  0  0  0
  3  4  1  0  0  0  0
  3  5  1  0  0  0  0
  3  6  1  0  0  0  0
 43 46  1  0  0  0  0
 43 47  1  0  0  0  0
 43 48  1  0  0  0  0
 11 14  1  0  0  0  0
 11 15  1  0  0  0  0
 11 16  1  0  0  0  0
 50 52  1  0  0  0  0
 50 53  1  0  0  0  0
 50 54  1  0  0  0  0
 22 30  1  0  0  0  0
 22 31  1  0  0  0  0
 23 32  1  0  0  0  0
 23 33  1  0  0  0  0
 21 28  1  0  0  0  0
 21 29  1  0  0  0  0
 24 34  1  0  0  0  0
 24 35  1  0  0  0  0
 40 45  1  0  0  0  0
  8 13  1  0  0  0  0
 18 27  1  0  0  0  0
 49 51  1  0  0  0  0
  7 12  1  0  0  0  0
 39 44  1  0  0  0  0
 17 26  1  0  0  0  0
 25 36  1  0  0  0  0
 25 37  1  0  0  0  0
 25 38  1  0  0  0  0
M  CHG  1  25   1
M  END
$$$$

  -OEChem-05262214473D

 54 53  0     1  0  0  0  0  0999 V2000
    2.6714    2.8829   -3.0005 C   0  0  0  0  0  0  0  0  0  0  0  0
    3.1741    2.4398   -1.9745 O   0  0  0  0  0  0  0  0  0  0  0  0
    3.5527    3.3077   -4.1279 C   0  0  0  0  0  0  0  0  0  0  0  0
    3.8407    4.3691   -4.0597 H   0  0  0  0  0  0  0  0  0  0  0  0
    4.5024    2.7495   -4.1526 H   0  0  0  0  0  0  0  0  0  0  0  0
    3.1208    3.1887   -5.1345 H   0  0  0  0  0  0  0  0  0  0  0  0
    1.3174    3.0407   -3.2467 N   0  0  0  0  0  0  0  0  0  0  0  0
    0.2944    2.6927   -2.2960 C   0  0  2  0  0  0  0  0  0  0  0  0
    0.2976    1.1783   -2.1349 C   0  0  0  0  0  0  0  0  0  0  0  0
    0.7500    0.4142   -2.9850 O   0  0  0  0  0  0  0  0  0  0  0  0
   -1.0710    3.1886   -2.7460 C   0  0  0  0  0  0  0  0  0  0  0  0
    1.0312    3.4224   -4.1464 H   0  0  0  0  0  0  0  0  0  0  0  0
    0.5725    3.1622   -1.3461 H   0  0  0  0  0  0  0  0  0  0  0  0
   -1.3666    2.7292   -3.6963 H   0  0  0  0  0  0  0  0  0  0  0  0
   -1.8434    2.9482   -2.0082 H   0  0  0  0  0  0  0  0  0  0  0  0
   -1.0632    4.2744   -2.8901 H   0  0  0  0  0  0  0  0  0  0  0  0
   -0.3037    0.7742   -0.9484 N   0  0  0  0  0  0  0  0  0  0  0  0
   -0.4352   -0.6095   -0.5718 C   0  0  2  0  0  0  0  0  0  0  0  0
    0.4861   -1.4485   -1.4513 C   0  0  0  0  0  0  0  0  0  0  0  0
    0.1252   -2.4877   -2.0003 O   0  0  0  0  0  0  0  0  0  0  0  0
   -1.8938   -1.0799   -0.6176 C   0  0  0  0  0  0  0  0  0  0  0  0
   -2.7915   -0.4412    0.4502 C   0  0  0  0  0  0  0  0  0  0  0  0
   -4.2231   -0.9748    0.3599 C   0  0  0  0  0  0  0  0  0  0  0  0
   -5.1160   -0.3212    1.4042 C   0  0  0  0  0  0  0  0  0  0  0  0
   -6.4944   -0.8491    1.2639 N   0  3  0  0  0  0  0  0  0  0  0  0
   -0.6336    1.4811   -0.2948 H   0  0  0  0  0  0  0  0  0  0  0  0
   -0.0704   -0.6754    0.4603 H   0  0  0  0  0  0  0  0  0  0  0  0
   -2.3074   -0.8534   -1.6090 H   0  0  0  0  0  0  0  0  0  0  0  0
   -1.9291   -2.1705   -0.5038 H   0  0  0  0  0  0  0  0  0  0  0  0
   -2.3920   -0.6506    1.4493 H   0  0  0  0  0  0  0  0  0  0  0  0
   -2.8040    0.6481    0.3268 H   0  0  0  0  0  0  0  0  0  0  0  0
   -4.2192   -2.0626    0.5025 H   0  0  0  0  0  0  0  0  0  0  0  0
   -4.6236   -0.7838   -0.6435 H   0  0  0  0  0  0  0  0  0  0  0  0
   -4.7906   -0.5503    2.4233 H   0  0  0  0  0  0  0  0  0  0  0  0
   -5.1763    0.7631    1.2716 H   0  0  0  0  0  0  0  0  0  0  0  0
   -7.1757   -0.2199    1.7025 H   0  0  0  0  0  0  0  0  0  0  0  0
   -6.5824   -1.7691    1.7095 H   0  0  0  0  0  0  0  0  0  0  0  0
   -6.7502   -0.9514    0.2756 H   0  0  0  0  0  0  0  0  0  0  0  0
    1.7478   -0.8856   -1.5789 N   0  0  0  0  0  0  0  0  0  0  0  0
    2.7845   -1.4943   -2.3779 C   0  0  2  0  0  0  0  0  0  0  0  0
    4.1016   -0.8077   -2.0416 C   0  0  0  0  0  0  0  0  0  0  0  0
    4.1655    0.3198   -1.5560 O   0  0  0  0  0  0  0  0  0  0  0  0
    2.4764   -1.3818   -3.8629 C   0  0  0  0  0  0  0  0  0  0  0  0
    1.9486   -0.0161   -1.0939 H   0  0  0  0  0  0  0  0  0  0  0  0
    2.8349   -2.5477   -2.0813 H   0  0  0  0  0  0  0  0  0  0  0  0
    2.4219   -0.3335   -4.1786 H   0  0  0  0  0  0  0  0  0  0  0  0
    3.2494   -1.8690   -4.4664 H   0  0  0  0  0  0  0  0  0  0  0  0
    1.5145   -1.8501   -4.0980 H   0  0  0  0  0  0  0  0  0  0  0  0
    5.1984   -1.5846   -2.3876 N   0  0  0  0  0  0  0  0  0  0  0  0
    6.5595   -1.1482   -2.1803 C   0  0  0  0  0  0  0  0  0  0  0  0
    5.0517   -2.5151   -2.7677 H   0  0  0  0  0  0  0  0  0  0  0  0
    6.9271   -0.6482   -3.0884 H   0  0  0  0  0  0  0  0  0  0  0  0
    6.5942   -0.4450   -1.3351 H   0  0  0  0  0  0  0  0  0  0  0  0
    7.1939   -2.0191   -1.9590 H   0  0  0  0  0  0  0  0  0  0  0  0
  1  3  1  0  0  0  0
  1  7  1  0  0  0  0
  1  2  2  0  0  0  0
 40 41  1  0  0  0  0
 41 49  1  0  0  0  0
 41 42  2  0  0  0  0
  8  9  1  0  0  0  0
  9 17  1  0  0  0  0
  9 10  2  0  0  0  0
 18 19  1  0  0  0  0
 19 39  1  0  0  0  0
 19 20  2  0  0  0  0
 40 43  1  0  0  0  0
  8 11  1  0  0  0  0
 49 50  1  0  0  0  0
 22 23  1  0  0  0  0
 21 22  1  0  0  0  0
 23 24  1  0  0  0  0
 18 21  1  0  0  0  0
 24 25  1  0  0  0  0
 39 40  1  0  0  0  0
  7  8  1  0  0  0  0
 17 18  1  0  0  0  0
  3  4  1  0  0  0  0
  3  5  1  0  0  0  0
  3  6  1  0  0  0  0
 43 46  1  0  0  0  0
 43 47  1  0  0  0  0
 43 48  1  0  0  0  0
 11 14  1  0  0  0  0
 11 15  1  0  0  0  0
 11 16  1  0  0  0  0
 50 52  1  0  0  0  0
 50 53  1  0  0  0  0
 50 54  1  0  0  0  0
 22 30  1  0  0  0  0
 22 31  1  0  0  0  0
 23 32  1  0  0  0  0
 23 33  1  0  0  0  0
 21 28  1  0  0  0  0
 21 29  1  0  0  0  0
 24 34  1  0  0  0  0
 24 35  1  0  0  0  0
 40 45  1  0  0  0  0
  8 13  1  0  0  0  0
 18 27  1  0  0  0  0
 49 51  1  0  0  0  0
  7 12  1  0  0  0  0
 39 44  1  0  0  0  0
 17 26  1  0  0  0  0
 25 36  1  0  0  0  0
 25 37  1  0  0  0  0
 25 38  1  0  0  0  0
M  CHG  1  25   1
M  END
$$$$

  -OEChem-05262214473D

 54 53  0     1  0  0  0  0  0999 V2000
    2.6714    2.8829   -3.0005 C   0  0  0  0  0  0  0  0  0  0  0  0
    3.1741    2.4398   -1.9745 O   0  0  0  0  0  0  0  0  0  0  0  0
    3.5527    3.3077   -4.1279 C   0  0  0  0  0  0  0  0  0  0  0  0
    3.8407    4.3691   -4.0597 H   0  0  0  0  0  0  0  0  0  0  0  0
    4.5024    2.7495   -4.1526 H   0  0  0  0  0  0  0  0  0  0  0  0
    3.1208    3.1887   -5.1345 H   0  0  0  0  0  0  0  0  0  0  0  0
    1.3174    3.0407   -3.2467 N   0  0  0  0  0  0  0  0  0  0  0  0
    0.2944    2.6927   -2.2960 C   0  0  2  0  0  0  0  0  0  0  0  0
    0.2976    1.1783   -2.1349 C   0  0  0  0  0  0  0  0  0  0  0  0
    0.7500    0.4142   -2.9850 O   0  0  0  0  0  0  0  0  0  0  0  0
   -1.0710    3.1886   -2.7460 C   0  0  0  0  0  0  0  0  0  0  0  0
    1.0312    3.4224   -4.1464 H   0  0  0  0  0  0  0  0  0  0  0  0
    0.5725    3.1622   -1.3461 H   0  0  0  0  0  0  0  0  0  0  0  0
   -1.3666    2.7292   -3.6963 H   0  0  0  0  0  0  0  0  0  0  0  0
   -1.8434    2.9482   -2.0082 H   0  0  0  0  0  0  0  0  0  0  0  0
   -1.0632    4.2744   -2.8901 H   0  0  0  0  0  0  0  0  0  0  0  0
   -0.3037    0.7742   -0.9484 N   0  0  0  0  0  0  0  0  0  0  0  0
   -0.4352   -0.6095   -0.5718 C   0  0  2  0  0  0  0  0  0  0  0  0
    0.4861   -1.4485   -1.4513 C   0  0  0  0  0  0  0  0  0  0  0  0
    0.0744   -2.3251   -2.2086 O   0  0  0  0  0  0  0  0  0  0  0  0
   -1.8938   -1.0799   -0.6176 C   0  0  0  0  0  0  0  0  0  0  0  0
   -2.7915   -0.4412    0.4502 C   0  0  0  0  0  0  0  0  0  0  0  0
   -4.2231   -0.9748    0.3599 C   0  0  0  0  0  0  0  0  0  0  0  0
   -5.1160   -0.3212    1.4042 C   0  0  0  0  0  0  0  0  0  0  0  0
   -6.4944   -0.8491    1.2639 N   0  3  0  0  0  0  0  0  0  0  0  0
   -0.6336    1.4811   -0.2948 H   0  0  0  0  0  0  0  0  0  0  0  0
   -0.0704   -0.6754    0.4603 H   0  0  0  0  0  0  0  0  0  0  0  0
   -2.3074   -0.8534   -1.6090 H   0  0  0  0  0  0  0  0  0  0  0  0
   -1.9291   -2.1705   -0.5038 H   0  0  0  0  0  0  0  0  0  0  0  0
   -2.3920   -0.6506    1.4493 H   0  0  0  0  0  0  0  0  0  0  0  0
   -2.8040    0.6481    0.3268 H   0  0  0  0  0  0  0  0  0  0  0  0
   -4.2192   -2.0626    0.5025 H   0  0  0  0  0  0  0  0  0  0  0  0
   -4.6236   -0.7838   -0.6435 H   0  0  0  0  0  0  0  0  0  0  0  0
   -4.7906   -0.5503    2.4233 H   0  0  0  0  0  0  0  0  0  0  0  0
   -5.1763    0.7631    1.2716 H   0  0  0  0  0  0  0  0  0  0  0  0
   -7.1757   -0.2199    1.7025 H   0  0  0  0  0  0  0  0  0  0  0  0
   -6.5824   -1.7691    1.7095 H   0  0  0  0  0  0  0  0  0  0  0  0
   -6.7502   -0.9514    0.2756 H   0  0  0  0  0  0  0  0  0  0  0  0
    1.8178   -1.0830   -1.3172 N   0  0  0  0  0  0  0  0  0  0  0  0
    2.8713   -1.7274   -2.0645 C   0  0  2  0  0  0  0  0  0  0  0  0
    4.2028   -1.3175   -1.4492 C   0  0  0  0  0  0  0  0  0  0  0  0
    4.3459   -0.2978   -0.7778 O   0  0  0  0  0  0  0  0  0  0  0  0
    2.8146   -1.3520   -3.5371 C   0  0  0  0  0  0  0  0  0  0  0  0
    2.0594   -0.3370   -0.6717 H   0  0  0  0  0  0  0  0  0  0  0  0
    2.7297   -2.8069   -1.9442 H   0  0  0  0  0  0  0  0  0  0  0  0
    2.9545   -0.2739   -3.6775 H   0  0  0  0  0  0  0  0  0  0  0  0
    3.5967   -1.8638   -4.1075 H   0  0  0  0  0  0  0  0  0  0  0  0
    1.8452   -1.6205   -3.9707 H   0  0  0  0  0  0  0  0  0  0  0  0
    5.2221   -2.2017   -1.7740 N   0  0  0  0  0  0  0  0  0  0  0  0
    6.5819   -2.0244   -1.3208 C   0  0  0  0  0  0  0  0  0  0  0  0
    5.0088   -3.0312   -2.3201 H   0  0  0  0  0  0  0  0  0  0  0  0
    7.1507   -1.4631   -2.0768 H   0  0  0  0  0  0  0  0  0  0  0  0
    6.5825   -1.4665   -0.3728 H   0  0  0  0  0  0  0  0  0  0  0  0
    7.0484   -3.0087   -1.1674 H   0  0  0  0  0  0  0  0  0  0  0  0
  1  3  1  0  0  0  0
  1  7  1  0  0  0  0
  1  2  2  0  0  0  0
 40 41  1  0  0  0  0
 41 49  1  0  0  0  0
 41 42  2  0  0  0  0
  8  9  1  0  0  0  0
  9 17  1  0  0  0  0
  9 10  2  0  0  0  0
 18 19  1  0  0  0  0
 19 39  1  0  0  0  0
 19 20  2  0  0  0  0
 40 43  1  0  0  0  0
  8 11  1  0  0  0  0
 49 50  1  0  0  0  0
 22 23  1  0  0  0  0
 21 22  1  0  0  0  0
 23 24  1  0  0  0  0
 18 21  1  0  0  0  0
 24 25  1  0  0  0  0
 39 40  1  0  0  0  0
  7  8  1  0  0  0  0
 17 18  1  0  0  0  0
  3  4  1  0  0  0  0
  3  5  1  0  0  0  0
  3  6  1  0  0  0  0
 43 46  1  0  0  0  0
 43 47  1  0  0  0  0
 43 48  1  0  0  0  0
 11 14  1  0  0  0  0
 11 15  1  0  0  0  0
 11 16  1  0  0  0  0
 50 52  1  0  0  0  0
 50 53  1  0  0  0  0
 50 54  1  0  0  0  0
 22 30  1  0  0  0  0
 22 31  1  0  0  0  0
 23 32  1  0  0  0  0
 23 33  1  0  0  0  0
 21 28  1  0  0  0  0
 21 29  1  0  0  0  0
 24 34  1  0  0  0  0
 24 35  1  0  0  0  0
 40 45  1  0  0  0  0
  8 13  1  0  0  0  0
 18 27  1  0  0  0  0
 49 51  1  0  0  0  0
  7 12  1  0  0  0  0
 39 44  1  0  0  0  0
 17 26  1  0  0  0  0
 25 36  1  0  0  0  0
 25 37  1  0  0  0  0
 25 38  1  0  0  0  0
M  CHG  1  25   1
M  END
$$$$

  -OEChem-05262214473D

 54 53  0     1  0  0  0  0  0999 V2000
    2.6714    2.8829   -3.0005 C   0  0  0  0  0  0  0  0  0  0  0  0
    3.1741    2.4398   -1.9745 O   0  0  0  0  0  0  0  0  0  0  0  0
    3.5527    3.3077   -4.1279 C   0  0  0  0  0  0  0  0  0  0  0  0
    3.8407    4.3691   -4.0597 H   0  0  0  0  0  0  0  0  0  0  0  0
    4.5024    2.7495   -4.1526 H   0  0  0  0  0  0  0  0  0  0  0  0
    3.1208    3.1887   -5.1345 H   0  0  0  0  0  0  0  0  0  0  0  0
    1.3174    3.0407   -3.2467 N   0  0  0  0  0  0  0  0  0  0  0  0
    0.2944    2.6927   -2.2960 C   0  0  2  0  0  0  0  0  0  0  0  0
    0.2976    1.1783   -2.1349 C   0  0  0  0  0  0  0  0  0  0  0  0
    0.7500    0.4142   -2.9850 O   0  0  0  0  0  0  0  0  0  0  0  0
   -1.0710    3.1886   -2.7460 C   0  0  0  0  0  0  0  0  0  0  0  0
    1.0312    3.4224   -4.1464 H   0  0  0  0  0  0  0  0  0  0  0  0
    0.5725    3.1622   -1.3461 H   0  0  0  0  0  0  0  0  0  0  0  0
   -1.3666    2.7292   -3.6963 H   0  0  0  0  0  0  0  0  0  0  0  0
   -1.8434    2.9482   -2.0082 H   0  0  0  0  0  0  0  0  0  0  0  0
   -1.0632    4.2744   -2.8901 H   0  0  0  0  0  0  0  0  0  0  0  0
   -0.3037    0.7742   -0.9484 N   0  0  0  0  0  0  0  0  0  0  0  0
   -0.4352   -0.6095   -0.5718 C   0  0  2  0  0  0  0  0  0  0  0  0
    0.4861   -1.4485   -1.4513 C   0  0  0  0  0  0  0  0  0  0  0  0
    0.0793   -2.1280   -2.3916 O   0  0  0  0  0  0  0  0  0  0  0  0
   -1.8938   -1.0799   -0.6176 C   0  0  0  0  0  0  0  0  0  0  0  0
   -2.7915   -0.4412    0.4502 C   0  0  0  0  0  0  0  0  0  0  0  0
   -4.2231   -0.9748    0.3599 C   0  0  0  0  0  0  0  0  0  0  0  0
   -5.1160   -0.3212    1.4042 C   0  0  0  0  0  0  0  0  0  0  0  0
   -6.4944   -0.8491    1.2639 N   0  3  0  0  0  0  0  0  0  0  0  0
   -0.6336    1.4811   -0.2948 H   0  0  0  0  0  0  0  0  0  0  0  0
   -0.0704   -0.6754    0.4603 H   0  0  0  0  0  0  0  0  0  0  0  0
   -2.3074   -0.8534   -1.6090 H   0  0  0  0  0  0  0  0  0  0  0  0
   -1.9291   -2.1705   -0.5038 H   0  0  0  0  0  0  0  0  0  0  0  0
   -2.3920   -0.6506    1.4493 H   0  0  0  0  0  0  0  0  0  0  0  0
   -2.8040    0.6481    0.3268 H   0  0  0  0  0  0  0  0  0  0  0  0
   -4.2192   -2.0626    0.5025 H   0  0  0  0  0  0  0  0  0  0  0  0
   -4.6236   -0.7838   -0.6435 H   0  0  0  0  0  0  0  0  0  0  0  0
   -4.7906   -0.5503    2.4233 H   0  0  0  0  0  0  0  0  0  0  0  0
   -5.1763    0.7631    1.2716 H   0  0  0  0  0  0  0  0  0  0  0  0
   -7.1757   -0.2199    1.7025 H   0  0  0  0  0  0  0  0  0  0  0  0
   -6.5824   -1.7691    1.7095 H   0  0  0  0  0  0  0  0  0  0  0  0
   -6.7502   -0.9514    0.2756 H   0  0  0  0  0  0  0  0  0  0  0  0
    1.8187   -1.3250   -1.0854 N   0  0  0  0  0  0  0  0  0  0  0  0
    2.8759   -2.0145   -1.7858 C   0  0  2  0  0  0  0  0  0  0  0  0
    4.1402   -1.9176   -0.9422 C   0  0  0  0  0  0  0  0  0  0  0  0
    4.3172   -1.0428   -0.0970 O   0  0  0  0  0  0  0  0  0  0  0  0
    3.0992   -1.4245   -3.1696 C   0  0  0  0  0  0  0  0  0  0  0  0
    2.0584   -0.7295   -0.2983 H   0  0  0  0  0  0  0  0  0  0  0  0
    2.5698   -3.0632   -1.8672 H   0  0  0  0  0  0  0  0  0  0  0  0
    3.4065   -0.3742   -3.1084 H   0  0  0  0  0  0  0  0  0  0  0  0
    3.8818   -1.9668   -3.7105 H   0  0  0  0  0  0  0  0  0  0  0  0
    2.1807   -1.4680   -3.7647 H   0  0  0  0  0  0  0  0  0  0  0  0
    5.0655   -2.8972   -1.2744 N   0  0  0  0  0  0  0  0  0  0  0  0
    6.3505   -3.0084   -0.6244 C   0  0  0  0  0  0  0  0  0  0  0  0
    4.8267   -3.5933   -1.9746 H   0  0  0  0  0  0  0  0  0  0  0  0
    7.1009   -2.4417   -1.1951 H   0  0  0  0  0  0  0  0  0  0  0  0
    6.2818   -2.6019    0.3954 H   0  0  0  0  0  0  0  0  0  0  0  0
    6.6474   -4.0665   -0.5781 H   0  0  0  0  0  0  0  0  0  0  0  0
  1  3  1  0  0  0  0
  1  7  1  0  0  0  0
  1  2  2  0  0  0  0
 40 41  1  0  0  0  0
 41 49  1  0  0  0  0
 41 42  2  0  0  0  0
  8  9  1  0  0  0  0
  9 17  1  0  0  0  0
  9 10  2  0  0  0  0
 18 19  1  0  0  0  0
 19 39  1  0  0  0  0
 19 20  2  0  0  0  0
 40 43  1  0  0  0  0
  8 11  1  0  0  0  0
 49 50  1  0  0  0  0
 22 23  1  0  0  0  0
 21 22  1  0  0  0  0
 23 24  1  0  0  0  0
 18 21  1  0  0  0  0
 24 25  1  0  0  0  0
 39 40  1  0  0  0  0
  7  8  1  0  0  0  0
 17 18  1  0  0  0  0
  3  4  1  0  0  0  0
  3  5  1  0  0  0  0
  3  6  1  0  0  0  0
 43 46  1  0  0  0  0
 43 47  1  0  0  0  0
 43 48  1  0  0  0  0
 11 14  1  0  0  0  0
 11 15  1  0  0  0  0
 11 16  1  0  0  0  0
 50 52  1  0  0  0  0
 50 53  1  0  0  0  0
 50 54  1  0  0  0  0
 22 30  1  0  0  0  0
 22 31  1  0  0  0  0
 23 32  1  0  0  0  0
 23 33  1  0  0  0  0
 21 28  1  0  0  0  0
 21 29  1  0  0  0  0
 24 34  1  0  0  0  0
 24 35  1  0  0  0  0
 40 45  1  0  0  0  0
  8 13  1  0  0  0  0
 18 27  1  0  0  0  0
 49 51  1  0  0  0  0
  7 12  1  0  0  0  0
 39 44  1  0  0  0  0
 17 26  1  0  0  0  0
 25 36  1  0  0  0  0
 25 37  1  0  0  0  0
 25 38  1  0  0  0  0
M  CHG  1  25   1
M  END
$$$$

  -OEChem-05262214473D

 54 53  0     1  0  0  0  0  0999 V2000
    2.6714    2.8829   -3.0005 C   0  0  0  0  0  0  0  0  0  0  0  0
    3.1741    2.4398   -1.9745 O   0  0  0  0  0  0  0  0  0  0  0  0
    3.5527    3.3077   -4.1279 C   0  0  0  0  0  0  0  0  0  0  0  0
    3.8407    4.3691   -4.0597 H   0  0  0  0  0  0  0  0  0  0  0  0
    4.5024    2.7495   -4.1526 H   0  0  0  0  0  0  0  0  0  0  0  0
    3.1208    3.1887   -5.1345 H   0  0  0  0  0  0  0  0  0  0  0  0
    1.3174    3.0407   -3.2467 N   0  0  0  0  0  0  0  0  0  0  0  0
    0.2944    2.6927   -2.2960 C   0  0  2  0  0  0  0  0  0  0  0  0
    0.2976    1.1783   -2.1349 C   0  0  0  0  0  0  0  0  0  0  0  0
    0.7500    0.4142   -2.9850 O   0  0  0  0  0  0  0  0  0  0  0  0
   -1.0710    3.1886   -2.7460 C   0  0  0  0  0  0  0  0  0  0  0  0
    1.0312    3.4224   -4.1464 H   0  0  0  0  0  0  0  0  0  0  0  0
    0.5725    3.1622   -1.3461 H   0  0  0  0  0  0  0  0  0  0  0  0
   -1.3666    2.7292   -3.6963 H   0  0  0  0  0  0  0  0  0  0  0  0
   -1.8434    2.9482   -2.0082 H   0  0  0  0  0  0  0  0  0  0  0  0
   -1.0632    4.2744   -2.8901 H   0  0  0  0  0  0  0  0  0  0  0  0
   -0.3037    0.7742   -0.9484 N   0  0  0  0  0  0  0  0  0  0  0  0
   -0.4352   -0.6095   -0.5718 C   0  0  2  0  0  0  0  0  0  0  0  0
    0.4861   -1.4485   -1.4513 C   0  0  0  0  0  0  0  0  0  0  0  0
    0.1394   -1.9097   -2.5369 O   0  0  0  0  0  0  0  0  0  0  0  0
   -1.8938   -1.0799   -0.6176 C   0  0  0  0  0  0  0  0  0  0  0  0
   -2.7915   -0.4412    0.4502 C   0  0  0  0  0  0  0  0  0  0  0  0
   -4.2231   -0.9748    0.3599 C   0  0  0  0  0  0  0  0  0  0  0  0
   -5.1160   -0.3212    1.4042 C   0  0  0  0  0  0  0  0  0  0  0  0
   -6.4944   -0.8491    1.2639 N   0  3  0  0  0  0  0  0  0  0  0  0
   -0.6336    1.4811   -0.2948 H   0  0  0  0  0  0  0  0  0  0  0  0
   -0.0704   -0.6754    0.4603 H   0  0  0  0  0  0  0  0  0  0  0  0
   -2.3074   -0.8534   -1.6090 H   0  0  0  0  0  0  0  0  0  0  0  0
   -1.9291   -2.1705   -0.5038 H   0  0  0  0  0  0  0  0  0  0  0  0
   -2.3920   -0.6506    1.4493 H   0  0  0  0  0  0  0  0  0  0  0  0
   -2.8040    0.6481    0.3268 H   0  0  0  0  0  0  0  0  0  0  0  0
   -4.2192   -2.0626    0.5025 H   0  0  0  0  0  0  0  0  0  0  0  0
   -4.6236   -0.7838   -0.6435 H   0  0  0  0  0  0  0  0  0  0  0  0
   -4.7906   -0.5503    2.4233 H   0  0  0  0  0  0  0  0  0  0  0  0
   -5.1763    0.7631    1.2716 H   0  0  0  0  0  0  0  0  0  0  0  0
   -7.1757   -0.2199    1.7025 H   0  0  0  0  0  0  0  0  0  0  0  0
   -6.5824   -1.7691    1.7095 H   0  0  0  0  0  0  0  0  0  0  0  0
   -6.7502   -0.9514    0.2756 H   0  0  0  0  0  0  0  0  0  0  0  0
    1.7504   -1.5951   -0.8991 N   0  0  0  0  0  0  0  0  0  0  0  0
    2.7977   -2.3360   -1.5609 C   0  0  2  0  0  0  0  0  0  0  0  0
    3.9179   -2.5673   -0.5553 C   0  0  0  0  0  0  0  0  0  0  0  0
    4.0813   -1.8647    0.4400 O   0  0  0  0  0  0  0  0  0  0  0  0
    3.3110   -1.5946   -2.7855 C   0  0  0  0  0  0  0  0  0  0  0  0
    1.9457   -1.1668    0.0009 H   0  0  0  0  0  0  0  0  0  0  0  0
    2.3662   -3.2988   -1.8557 H   0  0  0  0  0  0  0  0  0  0  0  0
    3.7471   -0.6274   -2.5099 H   0  0  0  0  0  0  0  0  0  0  0  0
    4.0853   -2.1709   -3.3026 H   0  0  0  0  0  0  0  0  0  0  0  0
    2.4982   -1.4029   -3.4942 H   0  0  0  0  0  0  0  0  0  0  0  0
    4.7393   -3.6238   -0.9229 N   0  0  0  0  0  0  0  0  0  0  0  0
    5.8809   -4.0332   -0.1386 C   0  0  0  0  0  0  0  0  0  0  0  0
    4.5178   -4.1630   -1.7547 H   0  0  0  0  0  0  0  0  0  0  0  0
    6.7813   -3.5174   -0.5037 H   0  0  0  0  0  0  0  0  0  0  0  0
    5.7124   -3.7737    0.9170 H   0  0  0  0  0  0  0  0  0  0  0  0
    6.0184   -5.1206   -0.2314 H   0  0  0  0  0  0  0  0  0  0  0  0
  1  3  1  0  0  0  0
  1  7  1  0  0  0  0
  1  2  2  0  0  0  0
 40 41  1  0  0  0  0
 41 49  1  0  0  0  0
 41 42  2  0  0  0  0
  8  9  1  0  0  0  0
  9 17  1  0  0  0  0
  9 10  2  0  0  0  0
 18 19  1  0  0  0  0
 19 39  1  0  0  0  0
 19 20  2  0  0  0  0
 40 43  1  0  0  0  0
  8 11  1  0  0  0  0
 49 50  1  0  0  0  0
 22 23  1  0  0  0  0
 21 22  1  0  0  0  0
 23 24  1  0  0  0  0
 18 21  1  0  0  0  0
 24 25  1  0  0  0  0
 39 40  1  0  0  0  0
  7  8  1  0  0  0  0
 17 18  1  0  0  0  0
  3  4  1  0  0  0  0
  3  5  1  0  0  0  0
  3  6  1  0  0  0  0
 43 46  1  0  0  0  0
 43 47  1  0  0  0  0
 43 48  1  0  0  0  0
 11 14  1  0  0  0  0
 11 15  1  0  0  0  0
 11 16  1  0  0  0  0
 50 52  1  0  0  0  0
 50 53  1  0  0  0  0
 50 54  1  0  0  0  0
 22 30  1  0  0  0  0
 22 31  1  0  0  0  0
 23 32  1  0  0  0  0
 23 33  1  0  0  0  0
 21 28  1  0  0  0  0
 21 29  1  0  0  0  0
 24 34  1  0  0  0  0
 24 35  1  0  0  0  0
 40 45  1  0  0  0  0
  8 13  1  0  0  0  0
 18 27  1  0  0  0  0
 49 51  1  0  0  0  0
  7 12  1  0  0  0  0
 39 44  1  0  0  0  0
 17 26  1  0  0  0  0
 25 36  1  0  0  0  0
 25 37  1  0  0  0  0
 25 38  1  0  0  0  0
M  CHG  1  25   1
M  END
$$$$

  -OEChem-05262214473D

 54 53  0     1  0  0  0  0  0999 V2000
    2.6714    2.8829   -3.0005 C   0  0  0  0  0  0  0  0  0  0  0  0
    3.1741    2.4398   -1.9745 O   0  0  0  0  0  0  0  0  0  0  0  0
    3.5527    3.3077   -4.1279 C   0  0  0  0  0  0  0  0  0  0  0  0
    3.8407    4.3691   -4.0597 H   0  0  0  0  0  0  0  0  0  0  0  0
    4.5024    2.7495   -4.1526 H   0  0  0  0  0  0  0  0  0  0  0  0
    3.1208    3.1887   -5.1345 H   0  0  0  0  0  0  0  0  0  0  0  0
    1.3174    3.0407   -3.2467 N   0  0  0  0  0  0  0  0  0  0  0  0
    0.2944    2.6927   -2.2960 C   0  0  2  0  0  0  0  0  0  0  0  0
    0.2976    1.1783   -2.1349 C   0  0  0  0  0  0  0  0  0  0  0  0
    0.7500    0.4142   -2.9850 O   0  0  0  0  0  0  0  0  0  0  0  0
   -1.0710    3.1886   -2.7460 C   0  0  0  0  0  0  0  0  0  0  0  0
    1.0312    3.4224   -4.1464 H   0  0  0  0  0  0  0  0  0  0  0  0
    0.5725    3.1622   -1.3461 H   0  0  0  0  0  0  0  0  0  0  0  0
   -1.3666    2.7292   -3.6963 H   0  0  0  0  0  0  0  0  0  0  0  0
   -1.8434    2.9482   -2.0082 H   0  0  0  0  0  0  0  0  0  0  0  0
   -1.0632    4.2744   -2.8901 H   0  0  0  0  0  0  0  0  0  0  0  0
   -0.3037    0.7742   -0.9484 N   0  0  0  0  0  0  0  0  0  0  0  0
   -0.4352   -0.6095   -0.5718 C   0  0  2  0  0  0  0  0  0  0  0  0
    0.4861   -1.4485   -1.4513 C   0  0  0  0  0  0  0  0  0  0  0  0
    0.2508   -1.6850   -2.6345 O   0  0  0  0  0  0  0  0  0  0  0  0
   -1.8938   -1.0799   -0.6176 C   0  0  0  0  0  0  0  0  0  0  0  0
   -2.7915   -0.4412    0.4502 C   0  0  0  0  0  0  0  0  0  0  0  0
   -4.2231   -0.9748    0.3599 C   0  0  0  0  0  0  0  0  0  0  0  0
   -5.1160   -0.3212    1.4042 C   0  0  0  0  0  0  0  0  0  0  0  0
   -6.4944   -0.8491    1.2639 N   0  3  0  0  0  0  0  0  0  0  0  0
   -0.6336    1.4811   -0.2948 H   0  0  0  0  0  0  0  0  0  0  0  0
   -0.0704   -0.6754    0.4603 H   0  0  0  0  0  0  0  0  0  0  0  0
   -2.3074   -0.8534   -1.6090 H   0  0  0  0  0  0  0  0  0  0  0  0
   -1.9291   -2.1705   -0.5038 H   0  0  0  0  0  0  0  0  0  0  0  0
   -2.3920   -0.6506    1.4493 H   0  0  0  0  0  0  0  0  0  0  0  0
   -2.8040    0.6481    0.3268 H   0  0  0  0  0  0  0  0  0  0  0  0
   -4.2192   -2.0626    0.5025 H   0  0  0  0  0  0  0  0  0  0  0  0
   -4.6236   -0.7838   -0.6435 H   0  0  0  0  0  0  0  0  0  0  0  0
   -4.7906   -0.5503    2.4233 H   0  0  0  0  0  0  0  0  0  0  0  0
   -5.1763    0.7631    1.2716 H   0  0  0  0  0  0  0  0  0  0  0  0
   -7.1757   -0.2199    1.7025 H   0  0  0  0  0  0  0  0  0  0  0  0
   -6.5824   -1.7691    1.7095 H   0  0  0  0  0  0  0  0  0  0  0  0
   -6.7502   -0.9514    0.2756 H   0  0  0  0  0  0  0  0  0  0  0  0
    1.6177   -1.8750   -0.7711 N   0  0  0  0  0  0  0  0  0  0  0  0
    2.6422   -2.6701   -1.4051 C   0  0  2  0  0  0  0  0  0  0  0  0
    3.5511   -3.2221   -0.3148 C   0  0  0  0  0  0  0  0  0  0  0  0
    3.6544   -2.7073    0.7967 O   0  0  0  0  0  0  0  0  0  0  0  0
    3.4356   -1.8505   -2.4108 C   0  0  0  0  0  0  0  0  0  0  0  0
    1.7290   -1.6192    0.2055 H   0  0  0  0  0  0  0  0  0  0  0  0
    2.1327   -3.4978   -1.9104 H   0  0  0  0  0  0  0  0  0  0  0  0
    3.9530   -1.0164   -1.9230 H   0  0  0  0  0  0  0  0  0  0  0  0
    4.1934   -2.4622   -2.9114 H   0  0  0  0  0  0  0  0  0  0  0  0
    2.7760   -1.4297   -3.1775 H   0  0  0  0  0  0  0  0  0  0  0  0
    4.2658   -4.3318   -0.7434 N   0  0  0  0  0  0  0  0  0  0  0  0
    5.2052   -5.0290    0.1036 C   0  0  0  0  0  0  0  0  0  0  0  0
    4.1030   -4.7017   -1.6753 H   0  0  0  0  0  0  0  0  0  0  0  0
    6.2136   -4.6169   -0.0494 H   0  0  0  0  0  0  0  0  0  0  0  0
    4.9134   -4.9023    1.1566 H   0  0  0  0  0  0  0  0  0  0  0  0
    5.2041   -6.0992   -0.1509 H   0  0  0  0  0  0  0  0  0  0  0  0
  1  3  1  0  0  0  0
  1  7  1  0  0  0  0
  1  2  2  0  0  0  0
 40 41  1  0  0  0  0
 41 49  1  0  0  0  0
 41 42  2  0  0  0  0
  8  9  1  0  0  0  0
  9 17  1  0  0  0  0
  9 10  2  0  0  0  0
 18 19  1  0  0  0  0
 19 39  1  0  0  0  0
 19 20  2  0  0  0  0
 40 43  1  0  0  0  0
  8 11  1  0  0  0  0
 49 50  1  0  0  0  0
 22 23  1  0  0  0  0
 21 22  1  0  0  0  0
 23 24  1  0  0  0  0
 18 21  1  0  0  0  0
 24 25  1  0  0  0  0
 39 40  1  0  0  0  0
  7  8  1  0  0  0  0
 17 18  1  0  0  0  0
  3  4  1  0  0  0  0
  3  5  1  0  0  0  0
  3  6  1  0  0  0  0
 43 46  1  0  0  0  0
 43 47  1  0  0  0  0
 43 48  1  0  0  0  0
 11 14  1  0  0  0  0
 11 15  1  0  0  0  0
 11 16  1  0  0  0  0
 50 52  1  0  0  0  0
 50 53  1  0  0  0  0
 50 54  1  0  0  0  0
 22 30  1  0  0  0  0
 22 31  1  0  0  0  0
 23 32  1  0  0  0  0
 23 33  1  0  0  0  0
 21 28  1  0  0  0  0
 21 29  1  0  0  0  0
 24 34  1  0  0  0  0
 24 35  1  0  0  0  0
 40 45  1  0  0  0  0
  8 13  1  0  0  0  0
 18 27  1  0  0  0  0
 49 51  1  0  0  0  0
  7 12  1  0  0  0  0
 39 44  1  0  0  0  0
 17 26  1  0  0  0  0
 25 36  1  0  0  0  0
 25 37  1  0  0  0  0
 25 38  1  0  0  0  0
M  CHG  1  25   1
M  END
$$$$

  -OEChem-05262214473D

 54 53  0     1  0  0  0  0  0999 V2000
    2.6714    2.8829   -3.0005 C   0  0  0  0  0  0  0  0  0  0  0  0
    3.1741    2.4398   -1.9745 O   0  0  0  0  0  0  0  0  0  0  0  0
    3.5527    3.3077   -4.1279 C   0  0  0  0  0  0  0  0  0  0  0  0
    3.8407    4.3691   -4.0597 H   0  0  0  0  0  0  0  0  0  0  0  0
    4.5024    2.7495   -4.1526 H   0  0  0  0  0  0  0  0  0  0  0  0
    3.1208    3.1887   -5.1345 H   0  0  0  0  0  0  0  0  0  0  0  0
    1.3174    3.0407   -3.2467 N   0  0  0  0  0  0  0  0  0  0  0  0
    0.2944    2.6927   -2.2960 C   0  0  2  0  0  0  0  0  0  0  0  0
    0.2976    1.1783   -2.1349 C   0  0  0  0  0  0  0  0  0  0  0  0
    0.7500    0.4142   -2.9850 O   0  0  0  0  0  0  0  0  0  0  0  0
   -1.0710    3.1886   -2.7460 C   0  0  0  0  0  0  0  0  0  0  0  0
    1.0312    3.4224   -4.1464 H   0  0  0  0  0  0  0  0  0  0  0  0
    0.5725    3.1622   -1.3461 H   0  0  0  0  0  0  0  0  0  0  0  0
   -1.3666    2.7292   -3.6963 H   0  0  0  0  0  0  0  0  0  0  0  0
   -1.8434    2.9482   -2.0082 H   0  0  0  0  0  0  0  0  0  0  0  0
   -1.0632    4.2744   -2.8901 H   0  0  0  0  0  0  0  0  0  0  0  0
   -0.3037    0.7742   -0.9484 N   0  0  0  0  0  0  0  0  0  0  0  0
   -0.4352   -0.6095   -0.5718 C   0  0  2  0  0  0  0  0  0  0  0  0
    0.4861   -1.4485   -1.4513 C   0  0  0  0  0  0  0  0  0  0  0  0
    0.4058   -1.4694   -2.6779 O   0  0  0  0  0  0  0  0  0  0  0  0
   -1.8938   -1.0799   -0.6176 C   0  0  0  0  0  0  0  0  0  0  0  0
   -2.7915   -0.4412    0.4502 C   0  0  0  0  0  0  0  0  0  0  0  0
   -4.2231   -0.9748    0.3599 C   0  0  0  0  0  0  0  0  0  0  0  0
   -5.1160   -0.3212    1.4042 C   0  0  0  0  0  0  0  0  0  0  0  0
   -6.4944   -0.8491    1.2639 N   0  3  0  0  0  0  0  0  0  0  0  0
   -0.6336    1.4811   -0.2948 H   0  0  0  0  0  0  0  0  0  0  0  0
   -0.0704   -0.6754    0.4603 H   0  0  0  0  0  0  0  0  0  0  0  0
   -2.3074   -0.8534   -1.6090 H   0  0  0  0  0  0  0  0  0  0  0  0
   -1.9291   -2.1705   -0.5038 H   0  0  0  0  0  0  0  0  0  0  0  0
   -2.3920   -0.6506    1.4493 H   0  0  0  0  0  0  0  0  0  0  0  0
   -2.8040    0.6481    0.3268 H   0  0  0  0  0  0  0  0  0  0  0  0
   -4.2192   -2.0626    0.5025 H   0  0  0  0  0  0  0  0  0  0  0  0
   -4.6236   -0.7838   -0.6435 H   0  0  0  0  0  0  0  0  0  0  0  0
   -4.7906   -0.5503    2.4233 H   0  0  0  0  0  0  0  0  0  0  0  0
   -5.1763    0.7631    1.2716 H   0  0  0  0  0  0  0  0  0  0  0  0
   -7.1757   -0.2199    1.7025 H   0  0  0  0  0  0  0  0  0  0  0  0
   -6.5824   -1.7691    1.7095 H   0  0  0  0  0  0  0  0  0  0  0  0
   -6.7502   -0.9514    0.2756 H   0  0  0  0  0  0  0  0  0  0  0  0
    1.4295   -2.1455   -0.7102 N   0  0  0  0  0  0  0  0  0  0  0  0
    2.4200   -2.9940   -1.3289 C   0  0  2  0  0  0  0  0  0  0  0  0
    3.0649   -3.8374   -0.2371 C   0  0  0  0  0  0  0  0  0  0  0  0
    3.0655   -3.5132    0.9487 O   0  0  0  0  0  0  0  0  0  0  0  0
    3.4643   -2.1748   -2.0712 C   0  0  0  0  0  0  0  0  0  0  0  0
    1.4230   -2.0558    0.3015 H   0  0  0  0  0  0  0  0  0  0  0  0
    1.8853   -3.6467   -2.0276 H   0  0  0  0  0  0  0  0  0  0  0  0
    4.0104   -1.5147   -1.3875 H   0  0  0  0  0  0  0  0  0  0  0  0
    4.1986   -2.8208   -2.5638 H   0  0  0  0  0  0  0  0  0  0  0  0
    2.9954   -1.5466   -2.8362 H   0  0  0  0  0  0  0  0  0  0  0  0
    3.6772   -4.9732   -0.7482 N   0  0  0  0  0  0  0  0  0  0  0  0
    4.3695   -5.9279    0.0857 C   0  0  0  0  0  0  0  0  0  0  0  0
    3.6106   -5.1725   -1.7420 H   0  0  0  0  0  0  0  0  0  0  0  0
    5.4364   -5.6652    0.1366 H   0  0  0  0  0  0  0  0  0  0  0  0
    3.9390   -5.9106    1.0978 H   0  0  0  0  0  0  0  0  0  0  0  0
    4.2600   -6.9354   -0.3421 H   0  0  0  0  0  0  0  0  0  0  0  0
  1  3  1  0  0  0  0
  1  7  1  0  0  0  0
  1  2  2  0  0  0  0
 40 41  1  0  0  0  0
 41 49  1  0  0  0  0
 41 42  2  0  0  0  0
  8  9  1  0  0  0  0
  9 17  1  0  0  0  0
  9 10  2  0  0  0  0
 18 19  1  0  0  0  0
 19 39  1  0  0  0  0
 19 20  2  0  0  0  0
 40 43  1  0  0  0  0
  8 11  1  0  0  0  0
 49 50  1  0  0  0  0
 22 23  1  0  0  0  0
 21 22  1  0  0  0  0
 23 24  1  0  0  0  0
 18 21  1  0  0  0  0
 24 25  1  0  0  0  0
 39 40  1  0  0  0  0
  7  8  1  0  0  0  0
 17 18  1  0  0  0  0
  3  4  1  0  0  0  0
  3  5  1  0  0  0  0
  3  6  1  0  0  0  0
 43 46  1  0  0  0  0
 43 47  1  0  0  0  0
 43 48  1  0  0  0  0
 11 14  1  0  0  0  0
 11 15  1  0  0  0  0
 11 16  1  0  0  0  0
 50 52  1  0  0  0  0
 50 53  1  0  0  0  0
 50 54  1  0  0  0  0
 22 30  1  0  0  0  0
 22 31  1  0  0  0  0
 23 32  1  0  0  0  0
 23 33  1  0  0  0  0
 21 28  1  0  0  0  0
 21 29  1  0  0  0  0
 24 34  1  0  0  0  0
 24 35  1  0  0  0  0
 40 45  1  0  0  0  0
  8 13  1  0  0  0  0
 18 27  1  0  0  0  0
 49 51  1  0  0  0  0
  7 12  1  0  0  0  0
 39 44  1  0  0  0  0
 17 26  1  0  0  0  0
 25 36  1  0  0  0  0
 25 37  1  0  0  0  0
 25 38  1  0  0  0  0
M  CHG  1  25   1
M  END
$$$$

  -OEChem-05262214473D

 54 53  0     1  0  0  0  0  0999 V2000
    2.6714    2.8829   -3.0005 C   0  0  0  0  0  0  0  0  0  0  0  0
    3.1741    2.4398   -1.9745 O   0  0  0  0  0  0  0  0  0  0  0  0
    3.5527    3.3077   -4.1279 C   0  0  0  0  0  0  0  0  0  0  0  0
    3.8407    4.3691   -4.0597 H   0  0  0  0  0  0  0  0  0  0  0  0
    4.5024    2.7495   -4.1526 H   0  0  0  0  0  0  0  0  0  0  0  0
    3.1208    3.1887   -5.1345 H   0  0  0  0  0  0  0  0  0  0  0  0
    1.3174    3.0407   -3.2467 N   0  0  0  0  0  0  0  0  0  0  0  0
    0.2944    2.6927   -2.2960 C   0  0  2  0  0  0  0  0  0  0  0  0
    0.2976    1.1783   -2.1349 C   0  0  0  0  0  0  0  0  0  0  0  0
    0.7500    0.4142   -2.9850 O   0  0  0  0  0  0  0  0  0  0  0  0
   -1.0710    3.1886   -2.7460 C   0  0  0  0  0  0  0  0  0  0  0  0
    1.0312    3.4224   -4.1464 H   0  0  0  0  0  0  0  0  0  0  0  0
    0.5725    3.1622   -1.3461 H   0  0  0  0  0  0  0  0  0  0  0  0
   -1.3666    2.7292   -3.6963 H   0  0  0  0  0  0  0  0  0  0  0  0
   -1.8434    2.9482   -2.0082 H   0  0  0  0  0  0  0  0  0  0  0  0
   -1.0632    4.2744   -2.8901 H   0  0  0  0  0  0  0  0  0  0  0  0
   -0.3037    0.7742   -0.9484 N   0  0  0  0  0  0  0  0  0  0  0  0
   -0.4352   -0.6095   -0.5718 C   0  0  2  0  0  0  0  0  0  0  0  0
    0.4861   -1.4485   -1.4513 C   0  0  0  0  0  0  0  0  0  0  0  0
    0.5939   -1.2775   -2.6639 O   0  0  0  0  0  0  0  0  0  0  0  0
   -1.8938   -1.0799   -0.6176 C   0  0  0  0  0  0  0  0  0  0  0  0
   -2.7915   -0.4412    0.4502 C   0  0  0  0  0  0  0  0  0  0  0  0
   -4.2231   -0.9748    0.3599 C   0  0  0  0  0  0  0  0  0  0  0  0
   -5.1160   -0.3212    1.4042 C   0  0  0  0  0  0  0  0  0  0  0  0
   -6.4944   -0.8491    1.2639 N   0  3  0  0  0  0  0  0  0  0  0  0
   -0.6336    1.4811   -0.2948 H   0  0  0  0  0  0  0  0  0  0  0  0
   -0.0704   -0.6754    0.4603 H   0  0  0  0  0  0  0  0  0  0  0  0
   -2.3074   -0.8534   -1.6090 H   0  0  0  0  0  0  0  0  0  0  0  0
   -1.9291   -2.1705   -0.5038 H   0  0  0  0  0  0  0  0  0  0  0  0
   -2.3920   -0.6506    1.4493 H   0  0  0  0  0  0  0  0  0  0  0  0
   -2.8040    0.6481    0.3268 H   0  0  0  0  0  0  0  0  0  0  0  0
   -4.2192   -2.0626    0.5025 H   0  0  0  0  0  0  0  0  0  0  0  0
   -4.6236   -0.7838   -0.6435 H   0  0  0  0  0  0  0  0  0  0  0  0
   -4.7906   -0.5503    2.4233 H   0  0  0  0  0  0  0  0  0  0  0  0
   -5.1763    0.7631    1.2716 H   0  0  0  0  0  0  0  0  0  0  0  0
   -7.1757   -0.2199    1.7025 H   0  0  0  0  0  0  0  0  0  0  0  0
   -6.5824   -1.7691    1.7095 H   0  0  0  0  0  0  0  0  0  0  0  0
   -6.7502   -0.9514    0.2756 H   0  0  0  0  0  0  0  0  0  0  0  0
    1.1986   -2.3883   -0.7204 N   0  0  0  0  0  0  0  0  0  0  0  0
    2.1461   -3.2855   -1.3376 C   0  0  2  0  0  0  0  0  0  0  0  0
    2.4924   -4.3714   -0.3274 C   0  0  0  0  0  0  0  0  0  0  0  0
    2.3548   -4.2276    0.8856 O   0  0  0  0  0  0  0  0  0  0  0  0
    3.3953   -2.5455   -1.7899 C   0  0  0  0  0  0  0  0  0  0  0  0
    1.0486   -2.4469    0.2824 H   0  0  0  0  0  0  0  0  0  0  0  0
    1.6408   -3.7353   -2.1993 H   0  0  0  0  0  0  0  0  0  0  0  0
    3.9152   -2.0882   -0.9401 H   0  0  0  0  0  0  0  0  0  0  0  0
    4.1006   -3.2223   -2.2833 H   0  0  0  0  0  0  0  0  0  0  0  0
    3.1412   -1.7456   -2.4936 H   0  0  0  0  0  0  0  0  0  0  0  0
    3.0136   -5.5041   -0.9369 N   0  0  0  0  0  0  0  0  0  0  0  0
    3.4306   -6.6686   -0.1912 C   0  0  0  0  0  0  0  0  0  0  0  0
    3.0743   -5.5433   -1.9500 H   0  0  0  0  0  0  0  0  0  0  0  0
    4.5029   -6.5909    0.0417 H   0  0  0  0  0  0  0  0  0  0  0  0
    2.8557   -6.7299    0.7446 H   0  0  0  0  0  0  0  0  0  0  0  0
    3.2506   -7.5724   -0.7919 H   0  0  0  0  0  0  0  0  0  0  0  0
  1  3  1  0  0  0  0
  1  7  1  0  0  0  0
  1  2  2  0  0  0  0
 40 41  1  0  0  0  0
 41 49  1  0  0  0  0
 41 42  2  0  0  0  0
  8  9  1  0  0  0  0
  9 17  1  0  0  0  0
  9 10  2  0  0  0  0
 18 19  1  0  0  0  0
 19 39  1  0  0  0  0
 19 20  2  0  0  0  0
 40 43  1  0  0  0  0
  8 11  1  0  0  0  0
 49 50  1  0  0  0  0
 22 23  1  0  0  0  0
 21 22  1  0  0  0  0
 23 24  1  0  0  0  0
 18 21  1  0  0  0  0
 24 25  1  0  0  0  0
 39 40  1  0  0  0  0
  7  8  1  0  0  0  0
 17 18  1  0  0  0  0
  3  4  1  0  0  0  0
  3  5  1  0  0  0  0
  3  6  1  0  0  0  0
 43 46  1  0  0  0  0
 43 47  1  0  0  0  0
 43 48  1  0  0  0  0
 11 14  1  0  0  0  0
 11 15  1  0  0  0  0
 11 16  1  0  0  0  0
 50 52  1  0  0  0  0
 50 53  1  0  0  0  0
 50 54  1  0  0  0  0
 22 30  1  0  0  0  0
 22 31  1  0  0  0  0
 23 32  1  0  0  0  0
 23 33  1  0  0  0  0
 21 28  1  0  0  0  0
 21 29  1  0  0  0  0
 24 34  1  0  0  0  0
 24 35  1  0  0  0  0
 40 45  1  0  0  0  0
  8 13  1  0  0  0  0
 18 27  1  0  0  0  0
 49 51  1  0  0  0  0
  7 12  1  0  0  0  0
 39 44  1  0  0  0  0
 17 26  1  0  0  0  0
 25 36  1  0  0  0  0
 25 37  1  0  0  0  0
 25 38  1  0  0  0  0
M  CHG  1  25   1
M  END
$$$$

  -OEChem-05262214473D

 54 53  0     1  0  0  0  0  0999 V2000
    2.6714    2.8829   -3.0005 C   0  0  0  0  0  0  0  0  0  0  0  0
    3.1741    2.4398   -1.9745 O   0  0  0  0  0  0  0  0  0  0  0  0
    3.5527    3.3077   -4.1279 C   0  0  0  0  0  0  0  0  0  0  0  0
    3.8407    4.3691   -4.0597 H   0  0  0  0  0  0  0  0  0  0  0  0
    4.5024    2.7495   -4.1526 H   0  0  0  0  0  0  0  0  0  0  0  0
    3.1208    3.1887   -5.1345 H   0  0  0  0  0  0  0  0  0  0  0  0
    1.3174    3.0407   -3.2467 N   0  0  0  0  0  0  0  0  0  0  0  0
    0.2944    2.6927   -2.2960 C   0  0  2  0  0  0  0  0  0  0  0  0
    0.2976    1.1783   -2.1349 C   0  0  0  0  0  0  0  0  0  0  0  0
    0.7500    0.4142   -2.9850 O   0  0  0  0  0  0  0  0  0  0  0  0
   -1.0710    3.1886   -2.7460 C   0  0  0  0  0  0  0  0  0  0  0  0
    1.0312    3.4224   -4.1464 H   0  0  0  0  0  0  0  0  0  0  0  0
    0.5725    3.1622   -1.3461 H   0  0  0  0  0  0  0  0  0  0  0  0
   -1.3666    2.7292   -3.6963 H   0  0  0  0  0  0  0  0  0  0  0  0
   -1.8434    2.9482   -2.0082 H   0  0  0  0  0  0  0  0  0  0  0  0
   -1.0632    4.2744   -2.8901 H   0  0  0  0  0  0  0  0  0  0  0  0
   -0.3037    0.7742   -0.9484 N   0  0  0  0  0  0  0  0  0  0  0  0
   -0.4352   -0.6095   -0.5718 C   0  0  2  0  0  0  0  0  0  0  0  0
    0.4861   -1.4485   -1.4513 C   0  0  0  0  0  0  0  0  0  0  0  0
    0.8022   -1.1224   -2.5937 O   0  0  0  0  0  0  0  0  0  0  0  0
   -1.8938   -1.0799   -0.6176 C   0  0  0  0  0  0  0  0  0  0  0  0
   -2.7915   -0.4412    0.4502 C   0  0  0  0  0  0  0  0  0  0  0  0
   -4.2231   -0.9748    0.3599 C   0  0  0  0  0  0  0  0  0  0  0  0
   -5.1160   -0.3212    1.4042 C   0  0  0  0  0  0  0  0  0  0  0  0
   -6.4944   -0.8491    1.2639 N   0  3  0  0  0  0  0  0  0  0  0  0
   -0.6336    1.4811   -0.2948 H   0  0  0  0  0  0  0  0  0  0  0  0
   -0.0704   -0.6754    0.4603 H   0  0  0  0  0  0  0  0  0  0  0  0
   -2.3074   -0.8534   -1.6090 H   0  0  0  0  0  0  0  0  0  0  0  0
   -1.9291   -2.1705   -0.5038 H   0  0  0  0  0  0  0  0  0  0  0  0
   -2.3920   -0.6506    1.4493 H   0  0  0  0  0  0  0  0  0  0  0  0
   -2.8040    0.6481    0.3268 H   0  0  0  0  0  0  0  0  0  0  0  0
   -4.2192   -2.0626    0.5025 H   0  0  0  0  0  0  0  0  0  0  0  0
   -4.6236   -0.7838   -0.6435 H   0  0  0  0  0  0  0  0  0  0  0  0
   -4.7906   -0.5503    2.4233 H   0  0  0  0  0  0  0  0  0  0  0  0
   -5.1763    0.7631    1.2716 H   0  0  0  0  0  0  0  0  0  0  0  0
   -7.1757   -0.2199    1.7025 H   0  0  0  0  0  0  0  0  0  0  0  0
   -6.5824   -1.7691    1.7095 H   0  0  0  0  0  0  0  0  0  0  0  0
   -6.7502   -0.9514    0.2756 H   0  0  0  0  0  0  0  0  0  0  0  0
    0.9409   -2.5867   -0.8012 N   0  0  0  0  0  0  0  0  0  0  0  0
    1.8393   -3.5250   -1.4306 C   0  0  2  0  0  0  0  0  0  0  0  0
    1.8725   -4.7876   -0.5797 C   0  0  0  0  0  0  0  0  0  0  0  0
    1.5706   -4.8017    0.6118 O   0  0  0  0  0  0  0  0  0  0  0  0
    3.2333   -2.9373   -1.5858 C   0  0  0  0  0  0  0  0  0  0  0  0
    0.6313   -2.7658    0.1495 H   0  0  0  0  0  0  0  0  0  0  0  0
    1.4158   -3.7574   -2.4138 H   0  0  0  0  0  0  0  0  0  0  0  0
    3.6739   -2.6980   -0.6111 H   0  0  0  0  0  0  0  0  0  0  0  0
    3.9061   -3.6394   -2.0892 H   0  0  0  0  0  0  0  0  0  0  0  0
    3.2035   -2.0131   -2.1730 H   0  0  0  0  0  0  0  0  0  0  0  0
    2.3203   -5.8884   -1.2966 N   0  0  0  0  0  0  0  0  0  0  0  0
    2.4526   -7.2007   -0.7081 C   0  0  0  0  0  0  0  0  0  0  0  0
    2.5305   -5.7890   -2.2854 H   0  0  0  0  0  0  0  0  0  0  0  0
    3.4764   -7.3309   -0.3275 H   0  0  0  0  0  0  0  0  0  0  0  0
    1.7374   -7.3044    0.1211 H   0  0  0  0  0  0  0  0  0  0  0  0
    2.2445   -7.9667   -1.4698 H   0  0  0  0  0  0  0  0  0  0  0  0
  1  3  1  0  0  0  0
  1  7  1  0  0  0  0
  1  2  2  0  0  0  0
 40 41  1  0  0  0  0
 41 49  1  0  0  0  0
 41 42  2  0  0  0  0
  8  9  1  0  0  0  0
  9 17  1  0  0  0  0
  9 10  2  0  0  0  0
 18 19  1  0  0  0  0
 19 39  1  0  0  0  0
 19 20  2  0  0  0  0
 40 43  1  0  0  0  0
  8 11  1  0  0  0  0
 49 50  1  0  0  0  0
 22 23  1  0  0  0  0
 21 22  1  0  0  0  0
 23 24  1  0  0  0  0
 18 21  1  0  0  0  0
 24 25  1  0  0  0  0
 39 40  1  0  0  0  0
  7  8  1  0  0  0  0
 17 18  1  0  0  0  0
  3  4  1  0  0  0  0
  3  5  1  0  0  0  0
  3  6  1  0  0  0  0
 43 46  1  0  0  0  0
 43 47  1  0  0  0  0
 43 48  1  0  0  0  0
 11 14  1  0  0  0  0
 11 15  1  0  0  0  0
 11 16  1  0  0  0  0
 50 52  1  0  0  0  0
 50 53  1  0  0  0  0
 50 54  1  0  0  0  0
 22 30  1  0  0  0  0
 22 31  1  0  0  0  0
 23 32  1  0  0  0  0
 23 33  1  0  0  0  0
 21 28  1  0  0  0  0
 21 29  1  0  0  0  0
 24 34  1  0  0  0  0
 24 35  1  0  0  0  0
 40 45  1  0  0  0  0
  8 13  1  0  0  0  0
 18 27  1  0  0  0  0
 49 51  1  0  0  0  0
  7 12  1  0  0  0  0
 39 44  1  0  0  0  0
 17 26  1  0  0  0  0
 25 36  1  0  0  0  0
 25 37  1  0  0  0  0
 25 38  1  0  0  0  0
M  CHG  1  25   1
M  END
$$$$

  -OEChem-05262214473D

 54 53  0     1  0  0  0  0  0999 V2000
    2.6714    2.8829   -3.0005 C   0  0  0  0  0  0  0  0  0  0  0  0
    3.1741    2.4398   -1.9745 O   0  0  0  0  0  0  0  0  0  0  0  0
    3.5527    3.3077   -4.1279 C   0  0  0  0  0  0  0  0  0  0  0  0
    3.8407    4.3691   -4.0597 H   0  0  0  0  0  0  0  0  0  0  0  0
    4.5024    2.7495   -4.1526 H   0  0  0  0  0  0  0  0  0  0  0  0
    3.1208    3.1887   -5.1345 H   0  0  0  0  0  0  0  0  0  0  0  0
    1.3174    3.0407   -3.2467 N   0  0  0  0  0  0  0  0  0  0  0  0
    0.2944    2.6927   -2.2960 C   0  0  2  0  0  0  0  0  0  0  0  0
    0.2976    1.1783   -2.1349 C   0  0  0  0  0  0  0  0  0  0  0  0
    0.7500    0.4142   -2.9850 O   0  0  0  0  0  0  0  0  0  0  0  0
   -1.0710    3.1886   -2.7460 C   0  0  0  0  0  0  0  0  0  0  0  0
    1.0312    3.4224   -4.1464 H   0  0  0  0  0  0  0  0  0  0  0  0
    0.5725    3.1622   -1.3461 H   0  0  0  0  0  0  0  0  0  0  0  0
   -1.3666    2.7292   -3.6963 H   0  0  0  0  0  0  0  0  0  0  0  0
   -1.8434    2.9482   -2.0082 H   0  0  0  0  0  0  0  0  0  0  0  0
   -1.0632    4.2744   -2.8901 H   0  0  0  0  0  0  0  0  0  0  0  0
   -0.3037    0.7742   -0.9484 N   0  0  0  0  0  0  0  0  0  0  0  0
   -0.4352   -0.6095   -0.5718 C   0  0  2  0  0  0  0  0  0  0  0  0
    0.4861   -1.4485   -1.4513 C   0  0  0  0  0  0  0  0  0  0  0  0
    1.0165   -1.0146   -2.4720 O   0  0  0  0  0  0  0  0  0  0  0  0
   -1.8938   -1.0799   -0.6176 C   0  0  0  0  0  0  0  0  0  0  0  0
   -2.7915   -0.4412    0.4502 C   0  0  0  0  0  0  0  0  0  0  0  0
   -4.2231   -0.9748    0.3599 C   0  0  0  0  0  0  0  0  0  0  0  0
   -5.1160   -0.3212    1.4042 C   0  0  0  0  0  0  0  0  0  0  0  0
   -6.4944   -0.8491    1.2639 N   0  3  0  0  0  0  0  0  0  0  0  0
   -0.6336    1.4811   -0.2948 H   0  0  0  0  0  0  0  0  0  0  0  0
   -0.0704   -0.6754    0.4603 H   0  0  0  0  0  0  0  0  0  0  0  0
   -2.3074   -0.8534   -1.6090 H   0  0  0  0  0  0  0  0  0  0  0  0
   -1.9291   -2.1705   -0.5038 H   0  0  0  0  0  0  0  0  0  0  0  0
   -2.3920   -0.6506    1.4493 H   0  0  0  0  0  0  0  0  0  0  0  0
   -2.8040    0.6481    0.3268 H   0  0  0  0  0  0  0  0  0  0  0  0
   -4.2192   -2.0626    0.5025 H   0  0  0  0  0  0  0  0  0  0  0  0
   -4.6236   -0.7838   -0.6435 H   0  0  0  0  0  0  0  0  0  0  0  0
   -4.7906   -0.5503    2.4233 H   0  0  0  0  0  0  0  0  0  0  0  0
   -5.1763    0.7631    1.2716 H   0  0  0  0  0  0  0  0  0  0  0  0
   -7.1757   -0.2199    1.7025 H   0  0  0  0  0  0  0  0  0  0  0  0
   -6.5824   -1.7691    1.7095 H   0  0  0  0  0  0  0  0  0  0  0  0
   -6.7502   -0.9514    0.2756 H   0  0  0  0  0  0  0  0  0  0  0  0
    0.6738   -2.7273   -0.9468 N   0  0  0  0  0  0  0  0  0  0  0  0
    1.5205   -3.6959   -1.6016 C   0  0  2  0  0  0  0  0  0  0  0  0
    1.2476   -5.0577   -0.9767 C   0  0  0  0  0  0  0  0  0  0  0  0
    0.7665   -5.1964    0.1459 O   0  0  0  0  0  0  0  0  0  0  0  0
    2.9893   -3.3234   -1.4731 C   0  0  0  0  0  0  0  0  0  0  0  0
    0.1996   -2.9908   -0.0882 H   0  0  0  0  0  0  0  0  0  0  0  0
    1.2257   -3.7118   -2.6565 H   0  0  0  0  0  0  0  0  0  0  0  0
    3.3030   -3.3024   -0.4230 H   0  0  0  0  0  0  0  0  0  0  0  0
    3.6284   -4.0436   -1.9945 H   0  0  0  0  0  0  0  0  0  0  0  0
    3.1782   -2.3309   -1.8963 H   0  0  0  0  0  0  0  0  0  0  0  0
    1.6444   -6.0999   -1.8029 N   0  0  0  0  0  0  0  0  0  0  0  0
    1.5022   -7.4880   -1.4299 C   0  0  0  0  0  0  0  0  0  0  0  0
    2.0163   -5.8927   -2.7251 H   0  0  0  0  0  0  0  0  0  0  0  0
    2.4272   -7.8348   -0.9461 H   0  0  0  0  0  0  0  0  0  0  0  0
    0.6602   -7.5950   -0.7302 H   0  0  0  0  0  0  0  0  0  0  0  0
    1.3104   -8.0914   -2.3294 H   0  0  0  0  0  0  0  0  0  0  0  0
  1  3  1  0  0  0  0
  1  7  1  0  0  0  0
  1  2  2  0  0  0  0
 40 41  1  0  0  0  0
 41 49  1  0  0  0  0
 41 42  2  0  0  0  0
  8  9  1  0  0  0  0
  9 17  1  0  0  0  0
  9 10  2  0  0  0  0
 18 19  1  0  0  0  0
 19 39  1  0  0  0  0
 19 20  2  0  0  0  0
 40 43  1  0  0  0  0
  8 11  1  0  0  0  0
 49 50  1  0  0  0  0
 22 23  1  0  0  0  0
 21 22  1  0  0  0  0
 23 24  1  0  0  0  0
 18 21  1  0  0  0  0
 24 25  1  0  0  0  0
 39 40  1  0  0  0  0
  7  8  1  0  0  0  0
 17 18  1  0  0  0  0
  3  4  1  0  0  0  0
  3  5  1  0  0  0  0
  3  6  1  0  0  0  0
 43 46  1  0  0  0  0
 43 47  1  0  0  0  0
 43 48  1  0  0  0  0
 11 14  1  0  0  0  0
 11 15  1  0  0  0  0
 11 16  1  0  0  0  0
 50 52  1  0  0  0  0
 50 53  1  0  0  0  0
 50 54  1  0  0  0  0
 22 30  1  0  0  0  0
 22 31  1  0  0  0  0
 23 32  1  0  0  0  0
 23 33  1  0  0  0  0
 21 28  1  0  0  0  0
 21 29  1  0  0  0  0
 24 34  1  0  0  0  0
 24 35  1  0  0  0  0
 40 45  1  0  0  0  0
  8 13  1  0  0  0  0
 18 27  1  0  0  0  0
 49 51  1  0  0  0  0
  7 12  1  0  0  0  0
 39 44  1  0  0  0  0
 17 26  1  0  0  0  0
 25 36  1  0  0  0  0
 25 37  1  0  0  0  0
 25 38  1  0  0  0  0
M  CHG  1  25   1
M  END
$$$$

  -OEChem-05262214473D

 54 53  0     1  0  0  0  0  0999 V2000
    2.6714    2.8829   -3.0005 C   0  0  0  0  0  0  0  0  0  0  0  0
    3.1741    2.4398   -1.9745 O   0  0  0  0  0  0  0  0  0  0  0  0
    3.5527    3.3077   -4.1279 C   0  0  0  0  0  0  0  0  0  0  0  0
    3.8407    4.3691   -4.0597 H   0  0  0  0  0  0  0  0  0  0  0  0
    4.5024    2.7495   -4.1526 H   0  0  0  0  0  0  0  0  0  0  0  0
    3.1208    3.1887   -5.1345 H   0  0  0  0  0  0  0  0  0  0  0  0
    1.3174    3.0407   -3.2467 N   0  0  0  0  0  0  0  0  0  0  0  0
    0.2944    2.6927   -2.2960 C   0  0  2  0  0  0  0  0  0  0  0  0
    0.2976    1.1783   -2.1349 C   0  0  0  0  0  0  0  0  0  0  0  0
    0.7500    0.4142   -2.9850 O   0  0  0  0  0  0  0  0  0  0  0  0
   -1.0710    3.1886   -2.7460 C   0  0  0  0  0  0  0  0  0  0  0  0
    1.0312    3.4224   -4.1464 H   0  0  0  0  0  0  0  0  0  0  0  0
    0.5725    3.1622   -1.3461 H   0  0  0  0  0  0  0  0  0  0  0  0
   -1.3666    2.7292   -3.6963 H   0  0  0  0  0  0  0  0  0  0  0  0
   -1.8434    2.9482   -2.0082 H   0  0  0  0  0  0  0  0  0  0  0  0
   -1.0632    4.2744   -2.8901 H   0  0  0  0  0  0  0  0  0  0  0  0
   -0.3037    0.7742   -0.9484 N   0  0  0  0  0  0  0  0  0  0  0  0
   -0.4352   -0.6095   -0.5718 C   0  0  2  0  0  0  0  0  0  0  0  0
    0.7287   -1.3945   -1.1679 C   0  0  0  0  0  0  0  0  0  0  0  0
    1.6220   -0.8697   -1.8297 O   0  0  0  0  0  0  0  0  0  0  0  0
   -1.8027   -1.1825   -0.9626 C   0  0  0  0  0  0  0  0  0  0  0  0
   -2.9778   -0.5927   -0.1717 C   0  0  0  0  0  0  0  0  0  0  0  0
   -4.3039   -1.2274   -0.5968 C   0  0  0  0  0  0  0  0  0  0  0  0
   -5.4695   -0.6229    0.1719 C   0  0  0  0  0  0  0  0  0  0  0  0
   -6.7322   -1.2489   -0.2887 N   0  3  0  0  0  0  0  0  0  0  0  0
   -0.6336    1.4811   -0.2948 H   0  0  0  0  0  0  0  0  0  0  0  0
   -0.3360   -0.6339    0.5201 H   0  0  0  0  0  0  0  0  0  0  0  0
   -1.9696   -1.0007   -2.0322 H   0  0  0  0  0  0  0  0  0  0  0  0
   -1.7946   -2.2709   -0.8259 H   0  0  0  0  0  0  0  0  0  0  0  0
   -2.8275   -0.7583    0.9014 H   0  0  0  0  0  0  0  0  0  0  0  0
   -3.0295    0.4909   -0.3295 H   0  0  0  0  0  0  0  0  0  0  0  0
   -4.2654   -2.3100   -0.4227 H   0  0  0  0  0  0  0  0  0  0  0  0
   -4.4529   -1.0804   -1.6738 H   0  0  0  0  0  0  0  0  0  0  0  0
   -5.3945   -0.8131    1.2467 H   0  0  0  0  0  0  0  0  0  0  0  0
   -5.5648    0.4523   -0.0064 H   0  0  0  0  0  0  0  0  0  0  0  0
   -7.5406   -0.6629   -0.0531 H   0  0  0  0  0  0  0  0  0  0  0  0
   -6.8689   -2.1661    0.1506 H   0  0  0  0  0  0  0  0  0  0  0  0
   -6.7261   -1.3840   -1.3057 H   0  0  0  0  0  0  0  0  0  0  0  0
    0.6722   -2.7433   -0.8478 N   0  0  0  0  0  0  0  0  0  0  0  0
    1.6774   -3.6811   -1.2881 C   0  0  2  0  0  0  0  0  0  0  0  0
    1.1471   -5.0878   -1.0441 C   0  0  0  0  0  0  0  0  0  0  0  0
    0.2686   -5.3404   -0.2222 O   0  0  0  0  0  0  0  0  0  0  0  0
    2.9946   -3.4628   -0.5601 C   0  0  0  0  0  0  0  0  0  0  0  0
   -0.1023   -3.0822   -0.2849 H   0  0  0  0  0  0  0  0  0  0  0  0
    1.8093   -3.5215   -2.3638 H   0  0  0  0  0  0  0  0  0  0  0  0
    2.8821   -3.6184    0.5191 H   0  0  0  0  0  0  0  0  0  0  0  0
    3.7640   -4.1561   -0.9155 H   0  0  0  0  0  0  0  0  0  0  0  0
    3.3594   -2.4413   -0.7124 H   0  0  0  0  0  0  0  0  0  0  0  0
    1.8007   -6.0340   -1.8212 N   0  0  0  0  0  0  0  0  0  0  0  0
    1.4869   -7.4426   -1.7624 C   0  0  0  0  0  0  0  0  0  0  0  0
    2.5035   -5.7325   -2.4896 H   0  0  0  0  0  0  0  0  0  0  0  0
    2.1454   -7.9353   -1.0319 H   0  0  0  0  0  0  0  0  0  0  0  0
    0.4383   -7.5721   -1.4564 H   0  0  0  0  0  0  0  0  0  0  0  0
    1.6377   -7.8934   -2.7544 H   0  0  0  0  0  0  0  0  0  0  0  0
  1  3  1  0  0  0  0
  1  7  1  0  0  0  0
  1  2  2  0  0  0  0
 40 41  1  0  0  0  0
 41 49  1  0  0  0  0
 41 42  2  0  0  0  0
  8  9  1  0  0  0  0
  9 17  1  0  0  0  0
  9 10  2  0  0  0  0
 18 19  1  0  0  0  0
 19 39  1  0  0  0  0
 19 20  2  0  0  0  0
 40 43  1  0  0  0  0
  8 11  1  0  0  0  0
 49 50  1  0  0  0  0
 22 23  1  0  0  0  0
 21 22  1  0  0  0  0
 23 24  1  0  0  0  0
 18 21  1  0  0  0  0
 24 25  1  0  0  0  0
 39 40  1  0  0  0  0
  7  8  1  0  0  0  0
 17 18  1  0  0  0  0
  3  4  1  0  0  0  0
  3  5  1  0  0  0  0
  3  6  1  0  0  0  0
 43 46  1  0  0  0  0
 43 47  1  0  0  0  0
 43 48  1  0  0  0  0
 11 14  1  0  0  0  0
 11 15  1  0  0  0  0
 11 16  1  0  0  0  0
 50 52  1  0  0  0  0
 50 53  1  0  0  0  0
 50 54  1  0  0  0  0
 22 30  1  0  0  0  0
 22 31  1  0  0  0  0
 23 32  1  0  0  0  0
 23 33  1  0  0  0  0
 21 28  1  0  0  0  0
 21 29  1  0  0  0  0
 24 34  1  0  0  0  0
 24 35  1  0  0  0  0
 40 45  1  0  0  0  0
  8 13  1  0  0  0  0
 18 27  1  0  0  0  0
 49 51  1  0  0  0  0
  7 12  1  0  0  0  0
 39 44  1  0  0  0  0
 17 26  1  0  0  0  0
 25 36  1  0  0  0  0
 25 37  1  0  0  0  0
 25 38  1  0  0  0  0
M  CHG  1  25   1
M  END
$$$$

  -OEChem-05262214473D

 54 53  0     1  0  0  0  0  0999 V2000
    2.6714    2.8829   -3.0005 C   0  0  0  0  0  0  0  0  0  0  0  0
    3.1741    2.4398   -1.9745 O   0  0  0  0  0  0  0  0  0  0  0  0
    3.5527    3.3077   -4.1279 C   0  0  0  0  0  0  0  0  0  0  0  0
    3.8407    4.3691   -4.0597 H   0  0  0  0  0  0  0  0  0  0  0  0
    4.5024    2.7495   -4.1526 H   0  0  0  0  0  0  0  0  0  0  0  0
    3.1208    3.1887   -5.1345 H   0  0  0  0  0  0  0  0  0  0  0  0
    1.3174    3.0407   -3.2467 N   0  0  0  0  0  0  0  0  0  0  0  0
    0.2944    2.6927   -2.2960 C   0  0  2  0  0  0  0  0  0  0  0  0
    0.2976    1.1783   -2.1349 C   0  0  0  0  0  0  0  0  0  0  0  0
    0.7500    0.4142   -2.9850 O   0  0  0  0  0  0  0  0  0  0  0  0
   -1.0710    3.1886   -2.7460 C   0  0  0  0  0  0  0  0  0  0  0  0
    1.0312    3.4224   -4.1464 H   0  0  0  0  0  0  0  0  0  0  0  0
    0.5725    3.1622   -1.3461 H   0  0  0  0  0  0  0  0  0  0  0  0
   -1.3666    2.7292   -3.6963 H   0  0  0  0  0  0  0  0  0  0  0  0
   -1.8434    2.9482   -2.0082 H   0  0  0  0  0  0  0  0  0  0  0  0
   -1.0632    4.2744   -2.8901 H   0  0  0  0  0  0  0  0  0  0  0  0
   -0.3037    0.7742   -0.9484 N   0  0  0  0  0  0  0  0  0  0  0  0
   -0.4352   -0.6095   -0.5718 C   0  0  2  0  0  0  0  0  0  0  0  0
    0.7287   -1.3945   -1.1679 C   0  0  0  0  0  0  0  0  0  0  0  0
    1.7503   -0.8590   -1.5934 O   0  0  0  0  0  0  0  0  0  0  0  0
   -1.8027   -1.1825   -0.9626 C   0  0  0  0  0  0  0  0  0  0  0  0
   -2.9778   -0.5927   -0.1717 C   0  0  0  0  0  0  0  0  0  0  0  0
   -4.3039   -1.2274   -0.5968 C   0  0  0  0  0  0  0  0  0  0  0  0
   -5.4695   -0.6229    0.1719 C   0  0  0  0  0  0  0  0  0  0  0  0
   -6.7322   -1.2489   -0.2887 N   0  3  0  0  0  0  0  0  0  0  0  0
   -0.6336    1.4811   -0.2948 H   0  0  0  0  0  0  0  0  0  0  0  0
   -0.3360   -0.6339    0.5201 H   0  0  0  0  0  0  0  0  0  0  0  0
   -1.9696   -1.0007   -2.0322 H   0  0  0  0  0  0  0  0  0  0  0  0
   -1.7946   -2.2709   -0.8259 H   0  0  0  0  0  0  0  0  0  0  0  0
   -2.8275   -0.7583    0.9014 H   0  0  0  0  0  0  0  0  0  0  0  0
   -3.0295    0.4909   -0.3295 H   0  0  0  0  0  0  0  0  0  0  0  0
   -4.2654   -2.3100   -0.4227 H   0  0  0  0  0  0  0  0  0  0  0  0
   -4.4529   -1.0804   -1.6738 H   0  0  0  0  0  0  0  0  0  0  0  0
   -5.3945   -0.8131    1.2467 H   0  0  0  0  0  0  0  0  0  0  0  0
   -5.5648    0.4523   -0.0064 H   0  0  0  0  0  0  0  0  0  0  0  0
   -7.5406   -0.6629   -0.0531 H   0  0  0  0  0  0  0  0  0  0  0  0
   -6.8689   -2.1661    0.1506 H   0  0  0  0  0  0  0  0  0  0  0  0
   -6.7261   -1.3840   -1.3057 H   0  0  0  0  0  0  0  0  0  0  0  0
    0.5087   -2.7641   -1.1397 N   0  0  0  0  0  0  0  0  0  0  0  0
    1.4804   -3.7096   -1.6352 C   0  0  2  0  0  0  0  0  0  0  0  0
    0.7993   -5.0669   -1.7509 C   0  0  0  0  0  0  0  0  0  0  0  0
   -0.2068   -5.3691   -1.1125 O   0  0  0  0  0  0  0  0  0  0  0  0
    2.6936   -3.7864   -0.7215 C   0  0  0  0  0  0  0  0  0  0  0  0
   -0.3652   -3.1131   -0.7575 H   0  0  0  0  0  0  0  0  0  0  0  0
    1.7787   -3.3640   -2.6310 H   0  0  0  0  0  0  0  0  0  0  0  0
    2.4143   -4.1310    0.2809 H   0  0  0  0  0  0  0  0  0  0  0  0
    3.4422   -4.4828   -1.1136 H   0  0  0  0  0  0  0  0  0  0  0  0
    3.1647   -2.8033   -0.6157 H   0  0  0  0  0  0  0  0  0  0  0  0
    1.4718   -5.9160   -2.6185 N   0  0  0  0  0  0  0  0  0  0  0  0
    1.0305   -7.2646   -2.8879 C   0  0  0  0  0  0  0  0  0  0  0  0
    2.2870   -5.5751   -3.1196 H   0  0  0  0  0  0  0  0  0  0  0  0
    1.5317   -7.9597   -2.1982 H   0  0  0  0  0  0  0  0  0  0  0  0
   -0.0584   -7.3291   -2.7462 H   0  0  0  0  0  0  0  0  0  0  0  0
    1.2818   -7.5322   -3.9249 H   0  0  0  0  0  0  0  0  0  0  0  0
  1  3  1  0  0  0  0
  1  7  1  0  0  0  0
  1  2  2  0  0  0  0
 40 41  1  0  0  0  0
 41 49  1  0  0  0  0
 41 42  2  0  0  0  0
  8  9  1  0  0  0  0
  9 17  1  0  0  0  0
  9 10  2  0  0  0  0
 18 19  1  0  0  0  0
 19 39  1  0  0  0  0
 19 20  2  0  0  0  0
 40 43  1  0  0  0  0
  8 11  1  0  0  0  0
 49 50  1  0  0  0  0
 22 23  1  0  0  0  0
 21 22  1  0  0  0  0
 23 24  1  0  0  0  0
 18 21  1  0  0  0  0
 24 25  1  0  0  0  0
 39 40  1  0  0  0  0
  7  8  1  0  0  0  0
 17 18  1  0  0  0  0
  3  4  1  0  0  0  0
  3  5  1  0  0  0  0
  3  6  1  0  0  0  0
 43 46  1  0  0  0  0
 43 47  1  0  0  0  0
 43 48  1  0  0  0  0
 11 14  1  0  0  0  0
 11 15  1  0  0  0  0
 11 16  1  0  0  0  0
 50 52  1  0  0  0  0
 50 53  1  0  0  0  0
 50 54  1  0  0  0  0
 22 30  1  0  0  0  0
 22 31  1  0  0  0  0
 23 32  1  0  0  0  0
 23 33  1  0  0  0  0
 21 28  1  0  0  0  0
 21 29  1  0  0  0  0
 24 34  1  0  0  0  0
 24 35  1  0  0  0  0
 40 45  1  0  0  0  0
  8 13  1  0  0  0  0
 18 27  1  0  0  0  0
 49 51  1  0  0  0  0
  7 12  1  0  0  0  0
 39 44  1  0  0  0  0
 17 26  1  0  0  0  0
 25 36  1  0  0  0  0
 25 37  1  0  0  0  0
 25 38  1  0  0  0  0
M  CHG  1  25   1
M  END
$$$$

  -OEChem-05262214473D

 54 53  0     1  0  0  0  0  0999 V2000
    2.6714    2.8829   -3.0005 C   0  0  0  0  0  0  0  0  0  0  0  0
    3.1741    2.4398   -1.9745 O   0  0  0  0  0  0  0  0  0  0  0  0
    3.5527    3.3077   -4.1279 C   0  0  0  0  0  0  0  0  0  0  0  0
    3.8407    4.3691   -4.0597 H   0  0  0  0  0  0  0  0  0  0  0  0
    4.5024    2.7495   -4.1526 H   0  0  0  0  0  0  0  0  0  0  0  0
    3.1208    3.1887   -5.1345 H   0  0  0  0  0  0  0  0  0  0  0  0
    1.3174    3.0407   -3.2467 N   0  0  0  0  0  0  0  0  0  0  0  0
    0.2944    2.6927   -2.2960 C   0  0  2  0  0  0  0  0  0  0  0  0
    0.2976    1.1783   -2.1349 C   0  0  0  0  0  0  0  0  0  0  0  0
    0.7500    0.4142   -2.9850 O   0  0  0  0  0  0  0  0  0  0  0  0
   -1.0710    3.1886   -2.7460 C   0  0  0  0  0  0  0  0  0  0  0  0
    1.0312    3.4224   -4.1464 H   0  0  0  0  0  0  0  0  0  0  0  0
    0.5725    3.1622   -1.3461 H   0  0  0  0  0  0  0  0  0  0  0  0
   -1.3666    2.7292   -3.6963 H   0  0  0  0  0  0  0  0  0  0  0  0
   -1.8434    2.9482   -2.0082 H   0  0  0  0  0  0  0  0  0  0  0  0
   -1.0632    4.2744   -2.8901 H   0  0  0  0  0  0  0  0  0  0  0  0
   -0.3037    0.7742   -0.9484 N   0  0  0  0  0  0  0  0  0  0  0  0
   -0.4352   -0.6095   -0.5718 C   0  0  2  0  0  0  0  0  0  0  0  0
    0.7287   -1.3945   -1.1679 C   0  0  0  0  0  0  0  0  0  0  0  0
    1.8437   -0.9083   -1.3460 O   0  0  0  0  0  0  0  0  0  0  0  0
   -1.8027   -1.1825   -0.9626 C   0  0  0  0  0  0  0  0  0  0  0  0
   -2.9778   -0.5927   -0.1717 C   0  0  0  0  0  0  0  0  0  0  0  0
   -4.3039   -1.2274   -0.5968 C   0  0  0  0  0  0  0  0  0  0  0  0
   -5.4695   -0.6229    0.1719 C   0  0  0  0  0  0  0  0  0  0  0  0
   -6.7322   -1.2489   -0.2887 N   0  3  0  0  0  0  0  0  0  0  0  0
   -0.6336    1.4811   -0.2948 H   0  0  0  0  0  0  0  0  0  0  0  0
   -0.3360   -0.6339    0.5201 H   0  0  0  0  0  0  0  0  0  0  0  0
   -1.9696   -1.0007   -2.0322 H   0  0  0  0  0  0  0  0  0  0  0  0
   -1.7946   -2.2709   -0.8259 H   0  0  0  0  0  0  0  0  0  0  0  0
   -2.8275   -0.7583    0.9014 H   0  0  0  0  0  0  0  0  0  0  0  0
   -3.0295    0.4909   -0.3295 H   0  0  0  0  0  0  0  0  0  0  0  0
   -4.2654   -2.3100   -0.4227 H   0  0  0  0  0  0  0  0  0  0  0  0
   -4.4529   -1.0804   -1.6738 H   0  0  0  0  0  0  0  0  0  0  0  0
   -5.3945   -0.8131    1.2467 H   0  0  0  0  0  0  0  0  0  0  0  0
   -5.5648    0.4523   -0.0064 H   0  0  0  0  0  0  0  0  0  0  0  0
   -7.5406   -0.6629   -0.0531 H   0  0  0  0  0  0  0  0  0  0  0  0
   -6.8689   -2.1661    0.1506 H   0  0  0  0  0  0  0  0  0  0  0  0
   -6.7261   -1.3840   -1.3057 H   0  0  0  0  0  0  0  0  0  0  0  0
    0.3876   -2.7100   -1.4474 N   0  0  0  0  0  0  0  0  0  0  0  0
    1.3335   -3.6486   -2.0023 C   0  0  2  0  0  0  0  0  0  0  0  0
    0.5595   -4.8718   -2.4759 C   0  0  0  0  0  0  0  0  0  0  0  0
   -0.5503   -5.1730   -2.0415 O   0  0  0  0  0  0  0  0  0  0  0  0
    2.3917   -4.0367   -0.9814 C   0  0  0  0  0  0  0  0  0  0  0  0
   -0.5593   -3.0230   -1.2552 H   0  0  0  0  0  0  0  0  0  0  0  0
    1.8007   -3.1560   -2.8620 H   0  0  0  0  0  0  0  0  0  0  0  0
    1.9424   -4.5317   -0.1127 H   0  0  0  0  0  0  0  0  0  0  0  0
    3.1247   -4.7266   -1.4124 H   0  0  0  0  0  0  0  0  0  0  0  0
    2.9272   -3.1523   -0.6198 H   0  0  0  0  0  0  0  0  0  0  0  0
    1.2724   -5.6113   -3.4092 N   0  0  0  0  0  0  0  0  0  0  0  0
    0.7576   -6.8242   -4.0008 C   0  0  0  0  0  0  0  0  0  0  0  0
    2.1777   -5.2768   -3.7259 H   0  0  0  0  0  0  0  0  0  0  0  0
    1.0917   -7.6908   -3.4113 H   0  0  0  0  0  0  0  0  0  0  0  0
   -0.3418   -6.7894   -4.0103 H   0  0  0  0  0  0  0  0  0  0  0  0
    1.1305   -6.9162   -5.0315 H   0  0  0  0  0  0  0  0  0  0  0  0
  1  3  1  0  0  0  0
  1  7  1  0  0  0  0
  1  2  2  0  0  0  0
 40 41  1  0  0  0  0
 41 49  1  0  0  0  0
 41 42  2  0  0  0  0
  8  9  1  0  0  0  0
  9 17  1  0  0  0  0
  9 10  2  0  0  0  0
 18 19  1  0  0  0  0
 19 39  1  0  0  0  0
 19 20  2  0  0  0  0
 40 43  1  0  0  0  0
  8 11  1  0  0  0  0
 49 50  1  0  0  0  0
 22 23  1  0  0  0  0
 21 22  1  0  0  0  0
 23 24  1  0  0  0  0
 18 21  1  0  0  0  0
 24 25  1  0  0  0  0
 39 40  1  0  0  0  0
  7  8  1  0  0  0  0
 17 18  1  0  0  0  0
  3  4  1  0  0  0  0
  3  5  1  0  0  0  0
  3  6  1  0  0  0  0
 43 46  1  0  0  0  0
 43 47  1  0  0  0  0
 43 48  1  0  0  0  0
 11 14  1  0  0  0  0
 11 15  1  0  0  0  0
 11 16  1  0  0  0  0
 50 52  1  0  0  0  0
 50 53  1  0  0  0  0
 50 54  1  0  0  0  0
 22 30  1  0  0  0  0
 22 31  1  0  0  0  0
 23 32  1  0  0  0  0
 23 33  1  0  0  0  0
 21 28  1  0  0  0  0
 21 29  1  0  0  0  0
 24 34  1  0  0  0  0
 24 35  1  0  0  0  0
 40 45  1  0  0  0  0
  8 13  1  0  0  0  0
 18 27  1  0  0  0  0
 49 51  1  0  0  0  0
  7 12  1  0  0  0  0
 39 44  1  0  0  0  0
 17 26  1  0  0  0  0
 25 36  1  0  0  0  0
 25 37  1  0  0  0  0
 25 38  1  0  0  0  0
M  CHG  1  25   1
M  END
$$$$

  -OEChem-05262214473D

 54 53  0     1  0  0  0  0  0999 V2000
    2.6714    2.8829   -3.0005 C   0  0  0  0  0  0  0  0  0  0  0  0
    3.1741    2.4398   -1.9745 O   0  0  0  0  0  0  0  0  0  0  0  0
    3.5527    3.3077   -4.1279 C   0  0  0  0  0  0  0  0  0  0  0  0
    3.8407    4.3691   -4.0597 H   0  0  0  0  0  0  0  0  0  0  0  0
    4.5024    2.7495   -4.1526 H   0  0  0  0  0  0  0  0  0  0  0  0
    3.1208    3.1887   -5.1345 H   0  0  0  0  0  0  0  0  0  0  0  0
    1.3174    3.0407   -3.2467 N   0  0  0  0  0  0  0  0  0  0  0  0
    0.2944    2.6927   -2.2960 C   0  0  2  0  0  0  0  0  0  0  0  0
    0.2976    1.1783   -2.1349 C   0  0  0  0  0  0  0  0  0  0  0  0
    0.7500    0.4142   -2.9850 O   0  0  0  0  0  0  0  0  0  0  0  0
   -1.0710    3.1886   -2.7460 C   0  0  0  0  0  0  0  0  0  0  0  0
    1.0312    3.4224   -4.1464 H   0  0  0  0  0  0  0  0  0  0  0  0
    0.5725    3.1622   -1.3461 H   0  0  0  0  0  0  0  0  0  0  0  0
   -1.3666    2.7292   -3.6963 H   0  0  0  0  0  0  0  0  0  0  0  0
   -1.8434    2.9482   -2.0082 H   0  0  0  0  0  0  0  0  0  0  0  0
   -1.0632    4.2744   -2.8901 H   0  0  0  0  0  0  0  0  0  0  0  0
   -0.3037    0.7742   -0.9484 N   0  0  0  0  0  0  0  0  0  0  0  0
   -0.4352   -0.6095   -0.5718 C   0  0  2  0  0  0  0  0  0  0  0  0
    0.7287   -1.3945   -1.1679 C   0  0  0  0  0  0  0  0  0  0  0  0
    1.8961   -1.0142   -1.1042 O   0  0  0  0  0  0  0  0  0  0  0  0
   -1.8027   -1.1825   -0.9626 C   0  0  0  0  0  0  0  0  0  0  0  0
   -2.9778   -0.5927   -0.1717 C   0  0  0  0  0  0  0  0  0  0  0  0
   -4.3039   -1.2274   -0.5968 C   0  0  0  0  0  0  0  0  0  0  0  0
   -5.4695   -0.6229    0.1719 C   0  0  0  0  0  0  0  0  0  0  0  0
   -6.7322   -1.2489   -0.2887 N   0  3  0  0  0  0  0  0  0  0  0  0
   -0.6336    1.4811   -0.2948 H   0  0  0  0  0  0  0  0  0  0  0  0
   -0.3360   -0.6339    0.5201 H   0  0  0  0  0  0  0  0  0  0  0  0
   -1.9696   -1.0007   -2.0322 H   0  0  0  0  0  0  0  0  0  0  0  0
   -1.7946   -2.2709   -0.8259 H   0  0  0  0  0  0  0  0  0  0  0  0
   -2.8275   -0.7583    0.9014 H   0  0  0  0  0  0  0  0  0  0  0  0
   -3.0295    0.4909   -0.3295 H   0  0  0  0  0  0  0  0  0  0  0  0
   -4.2654   -2.3100   -0.4227 H   0  0  0  0  0  0  0  0  0  0  0  0
   -4.4529   -1.0804   -1.6738 H   0  0  0  0  0  0  0  0  0  0  0  0
   -5.3945   -0.8131    1.2467 H   0  0  0  0  0  0  0  0  0  0  0  0
   -5.5648    0.4523   -0.0064 H   0  0  0  0  0  0  0  0  0  0  0  0
   -7.5406   -0.6629   -0.0531 H   0  0  0  0  0  0  0  0  0  0  0  0
   -6.8689   -2.1661    0.1506 H   0  0  0  0  0  0  0  0  0  0  0  0
   -6.7261   -1.3840   -1.3057 H   0  0  0  0  0  0  0  0  0  0  0  0
    0.3170   -2.5847   -1.7502 N   0  0  0  0  0  0  0  0  0  0  0  0
    1.2466   -3.5024   -2.3645 C   0  0  2  0  0  0  0  0  0  0  0  0
    0.4442   -4.5160   -3.1696 C   0  0  0  0  0  0  0  0  0  0  0  0
   -0.7385   -4.7653   -2.9458 O   0  0  0  0  0  0  0  0  0  0  0  0
    2.1094   -4.1966   -1.3221 C   0  0  0  0  0  0  0  0  0  0  0  0
   -0.6714   -2.8181   -1.7440 H   0  0  0  0  0  0  0  0  0  0  0  0
    1.8737   -2.9117   -3.0412 H   0  0  0  0  0  0  0  0  0  0  0  0
    1.4985   -4.7934   -0.6350 H   0  0  0  0  0  0  0  0  0  0  0  0
    2.8332   -4.8709   -1.7915 H   0  0  0  0  0  0  0  0  0  0  0  0
    2.6631   -3.4646   -0.7243 H   0  0  0  0  0  0  0  0  0  0  0  0
    1.2159   -5.1407   -4.1394 N   0  0  0  0  0  0  0  0  0  0  0  0
    0.6867   -6.1514   -5.0250 C   0  0  0  0  0  0  0  0  0  0  0  0
    2.1830   -4.8579   -4.2671 H   0  0  0  0  0  0  0  0  0  0  0  0
    0.8556   -7.1469   -4.5886 H   0  0  0  0  0  0  0  0  0  0  0  0
   -0.3926   -5.9897   -5.1625 H   0  0  0  0  0  0  0  0  0  0  0  0
    1.1940   -6.0874   -5.9990 H   0  0  0  0  0  0  0  0  0  0  0  0
  1  3  1  0  0  0  0
  1  7  1  0  0  0  0
  1  2  2  0  0  0  0
 40 41  1  0  0  0  0
 41 49  1  0  0  0  0
 41 42  2  0  0  0  0
  8  9  1  0  0  0  0
  9 17  1  0  0  0  0
  9 10  2  0  0  0  0
 18 19  1  0  0  0  0
 19 39  1  0  0  0  0
 19 20  2  0  0  0  0
 40 43  1  0  0  0  0
  8 11  1  0  0  0  0
 49 50  1  0  0  0  0
 22 23  1  0  0  0  0
 21 22  1  0  0  0  0
 23 24  1  0  0  0  0
 18 21  1  0  0  0  0
 24 25  1  0  0  0  0
 39 40  1  0  0  0  0
  7  8  1  0  0  0  0
 17 18  1  0  0  0  0
  3  4  1  0  0  0  0
  3  5  1  0  0  0  0
  3  6  1  0  0  0  0
 43 46  1  0  0  0  0
 43 47  1  0  0  0  0
 43 48  1  0  0  0  0
 11 14  1  0  0  0  0
 11 15  1  0  0  0  0
 11 16  1  0  0  0  0
 50 52  1  0  0  0  0
 50 53  1  0  0  0  0
 50 54  1  0  0  0  0
 22 30  1  0  0  0  0
 22 31  1  0  0  0  0
 23 32  1  0  0  0  0
 23 33  1  0  0  0  0
 21 28  1  0  0  0  0
 21 29  1  0  0  0  0
 24 34  1  0  0  0  0
 24 35  1  0  0  0  0
 40 45  1  0  0  0  0
  8 13  1  0  0  0  0
 18 27  1  0  0  0  0
 49 51  1  0  0  0  0
  7 12  1  0  0  0  0
 39 44  1  0  0  0  0
 17 26  1  0  0  0  0
 25 36  1  0  0  0  0
 25 37  1  0  0  0  0
 25 38  1  0  0  0  0
M  CHG  1  25   1
M  END
$$$$

  -OEChem-05262214473D

 54 53  0     1  0  0  0  0  0999 V2000
    2.6714    2.8829   -3.0005 C   0  0  0  0  0  0  0  0  0  0  0  0
    3.1741    2.4398   -1.9745 O   0  0  0  0  0  0  0  0  0  0  0  0
    3.5527    3.3077   -4.1279 C   0  0  0  0  0  0  0  0  0  0  0  0
    3.8407    4.3691   -4.0597 H   0  0  0  0  0  0  0  0  0  0  0  0
    4.5024    2.7495   -4.1526 H   0  0  0  0  0  0  0  0  0  0  0  0
    3.1208    3.1887   -5.1345 H   0  0  0  0  0  0  0  0  0  0  0  0
    1.3174    3.0407   -3.2467 N   0  0  0  0  0  0  0  0  0  0  0  0
    0.2944    2.6927   -2.2960 C   0  0  2  0  0  0  0  0  0  0  0  0
    0.2976    1.1783   -2.1349 C   0  0  0  0  0  0  0  0  0  0  0  0
    0.7500    0.4142   -2.9850 O   0  0  0  0  0  0  0  0  0  0  0  0
   -1.0710    3.1886   -2.7460 C   0  0  0  0  0  0  0  0  0  0  0  0
    1.0312    3.4224   -4.1464 H   0  0  0  0  0  0  0  0  0  0  0  0
    0.5725    3.1622   -1.3461 H   0  0  0  0  0  0  0  0  0  0  0  0
   -1.3666    2.7292   -3.6963 H   0  0  0  0  0  0  0  0  0  0  0  0
   -1.8434    2.9482   -2.0082 H   0  0  0  0  0  0  0  0  0  0  0  0
   -1.0632    4.2744   -2.8901 H   0  0  0  0  0  0  0  0  0  0  0  0
   -0.3037    0.7742   -0.9484 N   0  0  0  0  0  0  0  0  0  0  0  0
   -0.4352   -0.6095   -0.5718 C   0  0  2  0  0  0  0  0  0  0  0  0
    0.7287   -1.3945   -1.1679 C   0  0  0  0  0  0  0  0  0  0  0  0
    1.9037   -1.1696   -0.8847 O   0  0  0  0  0  0  0  0  0  0  0  0
   -1.8027   -1.1825   -0.9626 C   0  0  0  0  0  0  0  0  0  0  0  0
   -2.9778   -0.5927   -0.1717 C   0  0  0  0  0  0  0  0  0  0  0  0
   -4.3039   -1.2274   -0.5968 C   0  0  0  0  0  0  0  0  0  0  0  0
   -5.4695   -0.6229    0.1719 C   0  0  0  0  0  0  0  0  0  0  0  0
   -6.7322   -1.2489   -0.2887 N   0  3  0  0  0  0  0  0  0  0  0  0
   -0.6336    1.4811   -0.2948 H   0  0  0  0  0  0  0  0  0  0  0  0
   -0.3360   -0.6339    0.5201 H   0  0  0  0  0  0  0  0  0  0  0  0
   -1.9696   -1.0007   -2.0322 H   0  0  0  0  0  0  0  0  0  0  0  0
   -1.7946   -2.2709   -0.8259 H   0  0  0  0  0  0  0  0  0  0  0  0
   -2.8275   -0.7583    0.9014 H   0  0  0  0  0  0  0  0  0  0  0  0
   -3.0295    0.4909   -0.3295 H   0  0  0  0  0  0  0  0  0  0  0  0
   -4.2654   -2.3100   -0.4227 H   0  0  0  0  0  0  0  0  0  0  0  0
   -4.4529   -1.0804   -1.6738 H   0  0  0  0  0  0  0  0  0  0  0  0
   -5.3945   -0.8131    1.2467 H   0  0  0  0  0  0  0  0  0  0  0  0
   -5.5648    0.4523   -0.0064 H   0  0  0  0  0  0  0  0  0  0  0  0
   -7.5406   -0.6629   -0.0531 H   0  0  0  0  0  0  0  0  0  0  0  0
   -6.8689   -2.1661    0.1506 H   0  0  0  0  0  0  0  0  0  0  0  0
   -6.7261   -1.3840   -1.3057 H   0  0  0  0  0  0  0  0  0  0  0  0
    0.3019   -2.3967   -2.0272 N   0  0  0  0  0  0  0  0  0  0  0  0
    1.2258   -3.2808   -2.6970 C   0  0  2  0  0  0  0  0  0  0  0  0
    0.4613   -4.0236   -3.7847 C   0  0  0  0  0  0  0  0  0  0  0  0
   -0.7586   -4.1739   -3.7639 O   0  0  0  0  0  0  0  0  0  0  0  0
    1.8659   -4.2551   -1.7204 C   0  0  0  0  0  0  0  0  0  0  0  0
   -0.6939   -2.5122   -2.1905 H   0  0  0  0  0  0  0  0  0  0  0  0
    1.9928   -2.6477   -3.1562 H   0  0  0  0  0  0  0  0  0  0  0  0
    1.1128   -4.8980   -1.2502 H   0  0  0  0  0  0  0  0  0  0  0  0
    2.5875   -4.9060   -2.2250 H   0  0  0  0  0  0  0  0  0  0  0  0
    2.3902   -3.7189   -0.9221 H   0  0  0  0  0  0  0  0  0  0  0  0
    1.3062   -4.5362   -4.7592 N   0  0  0  0  0  0  0  0  0  0  0  0
    0.8228   -5.2921   -5.8910 C   0  0  0  0  0  0  0  0  0  0  0  0
    2.3027   -4.3468   -4.7064 H   0  0  0  0  0  0  0  0  0  0  0  0
    0.8393   -6.3652   -5.6498 H   0  0  0  0  0  0  0  0  0  0  0  0
   -0.2072   -4.9846   -6.1242 H   0  0  0  0  0  0  0  0  0  0  0  0
    1.4682   -5.1021   -6.7613 H   0  0  0  0  0  0  0  0  0  0  0  0
  1  3  1  0  0  0  0
  1  7  1  0  0  0  0
  1  2  2  0  0  0  0
 40 41  1  0  0  0  0
 41 49  1  0  0  0  0
 41 42  2  0  0  0  0
  8  9  1  0  0  0  0
  9 17  1  0  0  0  0
  9 10  2  0  0  0  0
 18 19  1  0  0  0  0
 19 39  1  0  0  0  0
 19 20  2  0  0  0  0
 40 43  1  0  0  0  0
  8 11  1  0  0  0  0
 49 50  1  0  0  0  0
 22 23  1  0  0  0  0
 21 22  1  0  0  0  0
 23 24  1  0  0  0  0
 18 21  1  0  0  0  0
 24 25  1  0  0  0  0
 39 40  1  0  0  0  0
  7  8  1  0  0  0  0
 17 18  1  0  0  0  0
  3  4  1  0  0  0  0
  3  5  1  0  0  0  0
  3  6  1  0  0  0  0
 43 46  1  0  0  0  0
 43 47  1  0  0  0  0
 43 48  1  0  0  0  0
 11 14  1  0  0  0  0
 11 15  1  0  0  0  0
 11 16  1  0  0  0  0
 50 52  1  0  0  0  0
 50 53  1  0  0  0  0
 50 54  1  0  0  0  0
 22 30  1  0  0  0  0
 22 31  1  0  0  0  0
 23 32  1  0  0  0  0
 23 33  1  0  0  0  0
 21 28  1  0  0  0  0
 21 29  1  0  0  0  0
 24 34  1  0  0  0  0
 24 35  1  0  0  0  0
 40 45  1  0  0  0  0
  8 13  1  0  0  0  0
 18 27  1  0  0  0  0
 49 51  1  0  0  0  0
  7 12  1  0  0  0  0
 39 44  1  0  0  0  0
 17 26  1  0  0  0  0
 25 36  1  0  0  0  0
 25 37  1  0  0  0  0
 25 38  1  0  0  0  0
M  CHG  1  25   1
M  END
$$$$

  -OEChem-05262214473D

 54 53  0     1  0  0  0  0  0999 V2000
    2.6714    2.8829   -3.0005 C   0  0  0  0  0  0  0  0  0  0  0  0
    3.1741    2.4398   -1.9745 O   0  0  0  0  0  0  0  0  0  0  0  0
    3.5527    3.3077   -4.1279 C   0  0  0  0  0  0  0  0  0  0  0  0
    3.8407    4.3691   -4.0597 H   0  0  0  0  0  0  0  0  0  0  0  0
    4.5024    2.7495   -4.1526 H   0  0  0  0  0  0  0  0  0  0  0  0
    3.1208    3.1887   -5.1345 H   0  0  0  0  0  0  0  0  0  0  0  0
    1.3174    3.0407   -3.2467 N   0  0  0  0  0  0  0  0  0  0  0  0
    0.2944    2.6927   -2.2960 C   0  0  2  0  0  0  0  0  0  0  0  0
    0.2976    1.1783   -2.1349 C   0  0  0  0  0  0  0  0  0  0  0  0
    0.7500    0.4142   -2.9850 O   0  0  0  0  0  0  0  0  0  0  0  0
   -1.0710    3.1886   -2.7460 C   0  0  0  0  0  0  0  0  0  0  0  0
    1.0312    3.4224   -4.1464 H   0  0  0  0  0  0  0  0  0  0  0  0
    0.5725    3.1622   -1.3461 H   0  0  0  0  0  0  0  0  0  0  0  0
   -1.3666    2.7292   -3.6963 H   0  0  0  0  0  0  0  0  0  0  0  0
   -1.8434    2.9482   -2.0082 H   0  0  0  0  0  0  0  0  0  0  0  0
   -1.0632    4.2744   -2.8901 H   0  0  0  0  0  0  0  0  0  0  0  0
   -0.3037    0.7742   -0.9484 N   0  0  0  0  0  0  0  0  0  0  0  0
   -0.4352   -0.6095   -0.5718 C   0  0  2  0  0  0  0  0  0  0  0  0
    0.7287   -1.3945   -1.1679 C   0  0  0  0  0  0  0  0  0  0  0  0
    1.8661   -1.3638   -0.7024 O   0  0  0  0  0  0  0  0  0  0  0  0
   -1.8027   -1.1825   -0.9626 C   0  0  0  0  0  0  0  0  0  0  0  0
   -2.9778   -0.5927   -0.1717 C   0  0  0  0  0  0  0  0  0  0  0  0
   -4.3039   -1.2274   -0.5968 C   0  0  0  0  0  0  0  0  0  0  0  0
   -5.4695   -0.6229    0.1719 C   0  0  0  0  0  0  0  0  0  0  0  0
   -6.7322   -1.2489   -0.2887 N   0  3  0  0  0  0  0  0  0  0  0  0
   -0.6336    1.4811   -0.2948 H   0  0  0  0  0  0  0  0  0  0  0  0
   -0.3360   -0.6339    0.5201 H   0  0  0  0  0  0  0  0  0  0  0  0
   -1.9696   -1.0007   -2.0322 H   0  0  0  0  0  0  0  0  0  0  0  0
   -1.7946   -2.2709   -0.8259 H   0  0  0  0  0  0  0  0  0  0  0  0
   -2.8275   -0.7583    0.9014 H   0  0  0  0  0  0  0  0  0  0  0  0
   -3.0295    0.4909   -0.3295 H   0  0  0  0  0  0  0  0  0  0  0  0
   -4.2654   -2.3100   -0.4227 H   0  0  0  0  0  0  0  0  0  0  0  0
   -4.4529   -1.0804   -1.6738 H   0  0  0  0  0  0  0  0  0  0  0  0
   -5.3945   -0.8131    1.2467 H   0  0  0  0  0  0  0  0  0  0  0  0
   -5.5648    0.4523   -0.0064 H   0  0  0  0  0  0  0  0  0  0  0  0
   -7.5406   -0.6629   -0.0531 H   0  0  0  0  0  0  0  0  0  0  0  0
   -6.8689   -2.1661    0.1506 H   0  0  0  0  0  0  0  0  0  0  0  0
   -6.7261   -1.3840   -1.3057 H   0  0  0  0  0  0  0  0  0  0  0  0
    0.3432   -2.1589   -2.2598 N   0  0  0  0  0  0  0  0  0  0  0  0
    1.2724   -2.9990   -2.9771 C   0  0  2  0  0  0  0  0  0  0  0  0
    0.6095   -3.4282   -4.2794 C   0  0  0  0  0  0  0  0  0  0  0  0
   -0.6092   -3.4390   -4.4400 O   0  0  0  0  0  0  0  0  0  0  0  0
    1.6778   -4.2084   -2.1491 C   0  0  0  0  0  0  0  0  0  0  0  0
   -0.6251   -2.1263   -2.5645 H   0  0  0  0  0  0  0  0  0  0  0  0
    2.1499   -2.3820   -3.1994 H   0  0  0  0  0  0  0  0  0  0  0  0
    0.8116   -4.8386   -1.9166 H   0  0  0  0  0  0  0  0  0  0  0  0
    2.4044   -4.8295   -2.6833 H   0  0  0  0  0  0  0  0  0  0  0  0
    2.1273   -3.8978   -1.1998 H   0  0  0  0  0  0  0  0  0  0  0  0
    1.5371   -3.8389   -5.2265 N   0  0  0  0  0  0  0  0  0  0  0  0
    1.1566   -4.3048   -6.5396 C   0  0  0  0  0  0  0  0  0  0  0  0
    2.5285   -3.7785   -5.0139 H   0  0  0  0  0  0  0  0  0  0  0  0
    1.0440   -5.3989   -6.5226 H   0  0  0  0  0  0  0  0  0  0  0  0
    0.2016   -3.8426   -6.8300 H   0  0  0  0  0  0  0  0  0  0  0  0
    1.9342   -4.0275   -7.2665 H   0  0  0  0  0  0  0  0  0  0  0  0
  1  3  1  0  0  0  0
  1  7  1  0  0  0  0
  1  2  2  0  0  0  0
 40 41  1  0  0  0  0
 41 49  1  0  0  0  0
 41 42  2  0  0  0  0
  8  9  1  0  0  0  0
  9 17  1  0  0  0  0
  9 10  2  0  0  0  0
 18 19  1  0  0  0  0
 19 39  1  0  0  0  0
 19 20  2  0  0  0  0
 40 43  1  0  0  0  0
  8 11  1  0  0  0  0
 49 50  1  0  0  0  0
 22 23  1  0  0  0  0
 21 22  1  0  0  0  0
 23 24  1  0  0  0  0
 18 21  1  0  0  0  0
 24 25  1  0  0  0  0
 39 40  1  0  0  0  0
  7  8  1  0  0  0  0
 17 18  1  0  0  0  0
  3  4  1  0  0  0  0
  3  5  1  0  0  0  0
  3  6  1  0  0  0  0
 43 46  1  0  0  0  0
 43 47  1  0  0  0  0
 43 48  1  0  0  0  0
 11 14  1  0  0  0  0
 11 15  1  0  0  0  0
 11 16  1  0  0  0  0
 50 52  1  0  0  0  0
 50 53  1  0  0  0  0
 50 54  1  0  0  0  0
 22 30  1  0  0  0  0
 22 31  1  0  0  0  0
 23 32  1  0  0  0  0
 23 33  1  0  0  0  0
 21 28  1  0  0  0  0
 21 29  1  0  0  0  0
 24 34  1  0  0  0  0
 24 35  1  0  0  0  0
 40 45  1  0  0  0  0
  8 13  1  0  0  0  0
 18 27  1  0  0  0  0
 49 51  1  0  0  0  0
  7 12  1  0  0  0  0
 39 44  1  0  0  0  0
 17 26  1  0  0  0  0
 25 36  1  0  0  0  0
 25 37  1  0  0  0  0
 25 38  1  0  0  0  0
M  CHG  1  25   1
M  END
$$$$

  -OEChem-05262214473D

 54 53  0     1  0  0  0  0  0999 V2000
    2.6714    2.8829   -3.0005 C   0  0  0  0  0  0  0  0  0  0  0  0
    3.1741    2.4398   -1.9745 O   0  0  0  0  0  0  0  0  0  0  0  0
    3.5527    3.3077   -4.1279 C   0  0  0  0  0  0  0  0  0  0  0  0
    3.8407    4.3691   -4.0597 H   0  0  0  0  0  0  0  0  0  0  0  0
    4.5024    2.7495   -4.1526 H   0  0  0  0  0  0  0  0  0  0  0  0
    3.1208    3.1887   -5.1345 H   0  0  0  0  0  0  0  0  0  0  0  0
    1.3174    3.0407   -3.2467 N   0  0  0  0  0  0  0  0  0  0  0  0
    0.2944    2.6927   -2.2960 C   0  0  2  0  0  0  0  0  0  0  0  0
    0.2976    1.1783   -2.1349 C   0  0  0  0  0  0  0  0  0  0  0  0
    0.7500    0.4142   -2.9850 O   0  0  0  0  0  0  0  0  0  0  0  0
   -1.0710    3.1886   -2.7460 C   0  0  0  0  0  0  0  0  0  0  0  0
    1.0312    3.4224   -4.1464 H   0  0  0  0  0  0  0  0  0  0  0  0
    0.5725    3.1622   -1.3461 H   0  0  0  0  0  0  0  0  0  0  0  0
   -1.3666    2.7292   -3.6963 H   0  0  0  0  0  0  0  0  0  0  0  0
   -1.8434    2.9482   -2.0082 H   0  0  0  0  0  0  0  0  0  0  0  0
   -1.0632    4.2744   -2.8901 H   0  0  0  0  0  0  0  0  0  0  0  0
   -0.3037    0.7742   -0.9484 N   0  0  0  0  0  0  0  0  0  0  0  0
   -0.4352   -0.6095   -0.5718 C   0  0  2  0  0  0  0  0  0  0  0  0
    0.7287   -1.3945   -1.1679 C   0  0  0  0  0  0  0  0  0  0  0  0
    1.7859   -1.5836   -0.5696 O   0  0  0  0  0  0  0  0  0  0  0  0
   -1.8027   -1.1825   -0.9626 C   0  0  0  0  0  0  0  0  0  0  0  0
   -2.9778   -0.5927   -0.1717 C   0  0  0  0  0  0  0  0  0  0  0  0
   -4.3039   -1.2274   -0.5968 C   0  0  0  0  0  0  0  0  0  0  0  0
   -5.4695   -0.6229    0.1719 C   0  0  0  0  0  0  0  0  0  0  0  0
   -6.7322   -1.2489   -0.2887 N   0  3  0  0  0  0  0  0  0  0  0  0
   -0.6336    1.4811   -0.2948 H   0  0  0  0  0  0  0  0  0  0  0  0
   -0.3360   -0.6339    0.5201 H   0  0  0  0  0  0  0  0  0  0  0  0
   -1.9696   -1.0007   -2.0322 H   0  0  0  0  0  0  0  0  0  0  0  0
   -1.7946   -2.2709   -0.8259 H   0  0  0  0  0  0  0  0  0  0  0  0
   -2.8275   -0.7583    0.9014 H   0  0  0  0  0  0  0  0  0  0  0  0
   -3.0295    0.4909   -0.3295 H   0  0  0  0  0  0  0  0  0  0  0  0
   -4.2654   -2.3100   -0.4227 H   0  0  0  0  0  0  0  0  0  0  0  0
   -4.4529   -1.0804   -1.6738 H   0  0  0  0  0  0  0  0  0  0  0  0
   -5.3945   -0.8131    1.2467 H   0  0  0  0  0  0  0  0  0  0  0  0
   -5.5648    0.4523   -0.0064 H   0  0  0  0  0  0  0  0  0  0  0  0
   -7.5406   -0.6629   -0.0531 H   0  0  0  0  0  0  0  0  0  0  0  0
   -6.8689   -2.1661    0.1506 H   0  0  0  0  0  0  0  0  0  0  0  0
   -6.7261   -1.3840   -1.3057 H   0  0  0  0  0  0  0  0  0  0  0  0
    0.4382   -1.8875   -2.4319 N   0  0  0  0  0  0  0  0  0  0  0  0
    1.3832   -2.6761   -3.1859 C   0  0  2  0  0  0  0  0  0  0  0  0
    0.8788   -2.7705   -4.6198 C   0  0  0  0  0  0  0  0  0  0  0  0
   -0.3004   -2.6108   -4.9279 O   0  0  0  0  0  0  0  0  0  0  0  0
    1.5580   -4.0596   -2.5791 C   0  0  0  0  0  0  0  0  0  0  0  0
   -0.4698   -1.6867   -2.8403 H   0  0  0  0  0  0  0  0  0  0  0  0
    2.3343   -2.1328   -3.1677 H   0  0  0  0  0  0  0  0  0  0  0  0
    0.6155   -4.6191   -2.5886 H   0  0  0  0  0  0  0  0  0  0  0  0
    2.2963   -4.6465   -3.1354 H   0  0  0  0  0  0  0  0  0  0  0  0
    1.8923   -3.9893   -1.5383 H   0  0  0  0  0  0  0  0  0  0  0  0
    1.8929   -3.0965   -5.5094 N   0  0  0  0  0  0  0  0  0  0  0  0
    1.6652   -3.2568   -6.9266 C   0  0  0  0  0  0  0  0  0  0  0  0
    2.8451   -3.1917   -5.1686 H   0  0  0  0  0  0  0  0  0  0  0  0
    1.4558   -4.3138   -7.1476 H   0  0  0  0  0  0  0  0  0  0  0  0
    0.8060   -2.6414   -7.2317 H   0  0  0  0  0  0  0  0  0  0  0  0
    2.5603   -2.9369   -7.4802 H   0  0  0  0  0  0  0  0  0  0  0  0
  1  3  1  0  0  0  0
  1  7  1  0  0  0  0
  1  2  2  0  0  0  0
 40 41  1  0  0  0  0
 41 49  1  0  0  0  0
 41 42  2  0  0  0  0
  8  9  1  0  0  0  0
  9 17  1  0  0  0  0
  9 10  2  0  0  0  0
 18 19  1  0  0  0  0
 19 39  1  0  0  0  0
 19 20  2  0  0  0  0
 40 43  1  0  0  0  0
  8 11  1  0  0  0  0
 49 50  1  0  0  0  0
 22 23  1  0  0  0  0
 21 22  1  0  0  0  0
 23 24  1  0  0  0  0
 18 21  1  0  0  0  0
 24 25  1  0  0  0  0
 39 40  1  0  0  0  0
  7  8  1  0  0  0  0
 17 18  1  0  0  0  0
  3  4  1  0  0  0  0
  3  5  1  0  0  0  0
  3  6  1  0  0  0  0
 43 46  1  0  0  0  0
 43 47  1  0  0  0  0
 43 48  1  0  0  0  0
 11 14  1  0  0  0  0
 11 15  1  0  0  0  0
 11 16  1  0  0  0  0
 50 52  1  0  0  0  0
 50 53  1  0  0  0  0
 50 54  1  0  0  0  0
 22 30  1  0  0  0  0
 22 31  1  0  0  0  0
 23 32  1  0  0  0  0
 23 33  1  0  0  0  0
 21 28  1  0  0  0  0
 21 29  1  0  0  0  0
 24 34  1  0  0  0  0
 24 35  1  0  0  0  0
 40 45  1  0  0  0  0
  8 13  1  0  0  0  0
 18 27  1  0  0  0  0
 49 51  1  0  0  0  0
  7 12  1  0  0  0  0
 39 44  1  0  0  0  0
 17 26  1  0  0  0  0
 25 36  1  0  0  0  0
 25 37  1  0  0  0  0
 25 38  1  0  0  0  0
M  CHG  1  25   1
M  END
$$$$

  -OEChem-05262214473D

 54 53  0     1  0  0  0  0  0999 V2000
    2.6714    2.8829   -3.0005 C   0  0  0  0  0  0  0  0  0  0  0  0
    3.1741    2.4398   -1.9745 O   0  0  0  0  0  0  0  0  0  0  0  0
    3.5527    3.3077   -4.1279 C   0  0  0  0  0  0  0  0  0  0  0  0
    3.8407    4.3691   -4.0597 H   0  0  0  0  0  0  0  0  0  0  0  0
    4.5024    2.7495   -4.1526 H   0  0  0  0  0  0  0  0  0  0  0  0
    3.1208    3.1887   -5.1345 H   0  0  0  0  0  0  0  0  0  0  0  0
    1.3174    3.0407   -3.2467 N   0  0  0  0  0  0  0  0  0  0  0  0
    0.2944    2.6927   -2.2960 C   0  0  2  0  0  0  0  0  0  0  0  0
    0.2976    1.1783   -2.1349 C   0  0  0  0  0  0  0  0  0  0  0  0
    0.7500    0.4142   -2.9850 O   0  0  0  0  0  0  0  0  0  0  0  0
   -1.0710    3.1886   -2.7460 C   0  0  0  0  0  0  0  0  0  0  0  0
    1.0312    3.4224   -4.1464 H   0  0  0  0  0  0  0  0  0  0  0  0
    0.5725    3.1622   -1.3461 H   0  0  0  0  0  0  0  0  0  0  0  0
   -1.3666    2.7292   -3.6963 H   0  0  0  0  0  0  0  0  0  0  0  0
   -1.8434    2.9482   -2.0082 H   0  0  0  0  0  0  0  0  0  0  0  0
   -1.0632    4.2744   -2.8901 H   0  0  0  0  0  0  0  0  0  0  0  0
   -0.3037    0.7742   -0.9484 N   0  0  0  0  0  0  0  0  0  0  0  0
   -0.4352   -0.6095   -0.5718 C   0  0  2  0  0  0  0  0  0  0  0  0
    0.7287   -1.3945   -1.1679 C   0  0  0  0  0  0  0  0  0  0  0  0
    1.6684   -1.8141   -0.4954 O   0  0  0  0  0  0  0  0  0  0  0  0
   -1.8027   -1.1825   -0.9626 C   0  0  0  0  0  0  0  0  0  0  0  0
   -2.9778   -0.5927   -0.1717 C   0  0  0  0  0  0  0  0  0  0  0  0
   -4.3039   -1.2274   -0.5968 C   0  0  0  0  0  0  0  0  0  0  0  0
   -5.4695   -0.6229    0.1719 C   0  0  0  0  0  0  0  0  0  0  0  0
   -6.7322   -1.2489   -0.2887 N   0  3  0  0  0  0  0  0  0  0  0  0
   -0.6336    1.4811   -0.2948 H   0  0  0  0  0  0  0  0  0  0  0  0
   -0.3360   -0.6339    0.5201 H   0  0  0  0  0  0  0  0  0  0  0  0
   -1.9696   -1.0007   -2.0322 H   0  0  0  0  0  0  0  0  0  0  0  0
   -1.7946   -2.2709   -0.8259 H   0  0  0  0  0  0  0  0  0  0  0  0
   -2.8275   -0.7583    0.9014 H   0  0  0  0  0  0  0  0  0  0  0  0
   -3.0295    0.4909   -0.3295 H   0  0  0  0  0  0  0  0  0  0  0  0
   -4.2654   -2.3100   -0.4227 H   0  0  0  0  0  0  0  0  0  0  0  0
   -4.4529   -1.0804   -1.6738 H   0  0  0  0  0  0  0  0  0  0  0  0
   -5.3945   -0.8131    1.2467 H   0  0  0  0  0  0  0  0  0  0  0  0
   -5.5648    0.4523   -0.0064 H   0  0  0  0  0  0  0  0  0  0  0  0
   -7.5406   -0.6629   -0.0531 H   0  0  0  0  0  0  0  0  0  0  0  0
   -6.8689   -2.1661    0.1506 H   0  0  0  0  0  0  0  0  0  0  0  0
   -6.7261   -1.3840   -1.3057 H   0  0  0  0  0  0  0  0  0  0  0  0
    0.5802   -1.6009   -2.5319 N   0  0  0  0  0  0  0  0  0  0  0  0
    1.5507   -2.3343   -3.3090 C   0  0  2  0  0  0  0  0  0  0  0  0
    1.2508   -2.0951   -4.7829 C   0  0  0  0  0  0  0  0  0  0  0  0
    0.1465   -1.7456   -5.1946 O   0  0  0  0  0  0  0  0  0  0  0  0
    1.5146   -3.8188   -2.9809 C   0  0  0  0  0  0  0  0  0  0  0  0
   -0.2387   -1.2233   -2.9992 H   0  0  0  0  0  0  0  0  0  0  0  0
    2.5333   -1.9169   -3.0632 H   0  0  0  0  0  0  0  0  0  0  0  0
    0.5378   -4.2545   -3.2205 H   0  0  0  0  0  0  0  0  0  0  0  0
    2.2707   -4.3695   -3.5502 H   0  0  0  0  0  0  0  0  0  0  0  0
    1.7011   -3.9869   -1.9147 H   0  0  0  0  0  0  0  0  0  0  0  0
    2.3494   -2.3595   -5.5886 N   0  0  0  0  0  0  0  0  0  0  0  0
    2.3140   -2.2195   -7.0257 C   0  0  0  0  0  0  0  0  0  0  0  0
    3.2308   -2.6264   -5.1600 H   0  0  0  0  0  0  0  0  0  0  0  0
    2.0466   -3.1840   -7.4821 H   0  0  0  0  0  0  0  0  0  0  0  0
    1.5649   -1.4630   -7.3019 H   0  0  0  0  0  0  0  0  0  0  0  0
    3.3039   -1.9047   -7.3878 H   0  0  0  0  0  0  0  0  0  0  0  0
  1  3  1  0  0  0  0
  1  7  1  0  0  0  0
  1  2  2  0  0  0  0
 40 41  1  0  0  0  0
 41 49  1  0  0  0  0
 41 42  2  0  0  0  0
  8  9  1  0  0  0  0
  9 17  1  0  0  0  0
  9 10  2  0  0  0  0
 18 19  1  0  0  0  0
 19 39  1  0  0  0  0
 19 20  2  0  0  0  0
 40 43  1  0  0  0  0
  8 11  1  0  0  0  0
 49 50  1  0  0  0  0
 22 23  1  0  0  0  0
 21 22  1  0  0  0  0
 23 24  1  0  0  0  0
 18 21  1  0  0  0  0
 24 25  1  0  0  0  0
 39 40  1  0  0  0  0
  7  8  1  0  0  0  0
 17 18  1  0  0  0  0
  3  4  1  0  0  0  0
  3  5  1  0  0  0  0
  3  6  1  0  0  0  0
 43 46  1  0  0  0  0
 43 47  1  0  0  0  0
 43 48  1  0  0  0  0
 11 14  1  0  0  0  0
 11 15  1  0  0  0  0
 11 16  1  0  0  0  0
 50 52  1  0  0  0  0
 50 53  1  0  0  0  0
 50 54  1  0  0  0  0
 22 30  1  0  0  0  0
 22 31  1  0  0  0  0
 23 32  1  0  0  0  0
 23 33  1  0  0  0  0
 21 28  1  0  0  0  0
 21 29  1  0  0  0  0
 24 34  1  0  0  0  0
 24 35  1  0  0  0  0
 40 45  1  0  0  0  0
  8 13  1  0  0  0  0
 18 27  1  0  0  0  0
 49 51  1  0  0  0  0
  7 12  1  0  0  0  0
 39 44  1  0  0  0  0
 17 26  1  0  0  0  0
 25 36  1  0  0  0  0
 25 37  1  0  0  0  0
 25 38  1  0  0  0  0
M  CHG  1  25   1
M  END
$$$$

  -OEChem-05262214473D

 54 53  0     1  0  0  0  0  0999 V2000
    2.6714    2.8829   -3.0005 C   0  0  0  0  0  0  0  0  0  0  0  0
    3.1741    2.4398   -1.9745 O   0  0  0  0  0  0  0  0  0  0  0  0
    3.5527    3.3077   -4.1279 C   0  0  0  0  0  0  0  0  0  0  0  0
    3.8407    4.3691   -4.0597 H   0  0  0  0  0  0  0  0  0  0  0  0
    4.5024    2.7495   -4.1526 H   0  0  0  0  0  0  0  0  0  0  0  0
    3.1208    3.1887   -5.1345 H   0  0  0  0  0  0  0  0  0  0  0  0
    1.3174    3.0407   -3.2467 N   0  0  0  0  0  0  0  0  0  0  0  0
    0.2944    2.6927   -2.2960 C   0  0  2  0  0  0  0  0  0  0  0  0
    0.2976    1.1783   -2.1349 C   0  0  0  0  0  0  0  0  0  0  0  0
    0.7500    0.4142   -2.9850 O   0  0  0  0  0  0  0  0  0  0  0  0
   -1.0710    3.1886   -2.7460 C   0  0  0  0  0  0  0  0  0  0  0  0
    1.0312    3.4224   -4.1464 H   0  0  0  0  0  0  0  0  0  0  0  0
    0.5725    3.1622   -1.3461 H   0  0  0  0  0  0  0  0  0  0  0  0
   -1.3666    2.7292   -3.6963 H   0  0  0  0  0  0  0  0  0  0  0  0
   -1.8434    2.9482   -2.0082 H   0  0  0  0  0  0  0  0  0  0  0  0
   -1.0632    4.2744   -2.8901 H   0  0  0  0  0  0  0  0  0  0  0  0
   -0.3037    0.7742   -0.9484 N   0  0  0  0  0  0  0  0  0  0  0  0
   -0.4352   -0.6095   -0.5718 C   0  0  2  0  0  0  0  0  0  0  0  0
    0.7287   -1.3945   -1.1679 C   0  0  0  0  0  0  0  0  0  0  0  0
    1.5218   -2.0394   -0.4849 O   0  0  0  0  0  0  0  0  0  0  0  0
   -1.8027   -1.1825   -0.9626 C   0  0  0  0  0  0  0  0  0  0  0  0
   -2.9778   -0.5927   -0.1717 C   0  0  0  0  0  0  0  0  0  0  0  0
   -4.3039   -1.2274   -0.5968 C   0  0  0  0  0  0  0  0  0  0  0  0
   -5.4695   -0.6229    0.1719 C   0  0  0  0  0  0  0  0  0  0  0  0
   -6.7322   -1.2489   -0.2887 N   0  3  0  0  0  0  0  0  0  0  0  0
   -0.6336    1.4811   -0.2948 H   0  0  0  0  0  0  0  0  0  0  0  0
   -0.3360   -0.6339    0.5201 H   0  0  0  0  0  0  0  0  0  0  0  0
   -1.9696   -1.0007   -2.0322 H   0  0  0  0  0  0  0  0  0  0  0  0
   -1.7946   -2.2709   -0.8259 H   0  0  0  0  0  0  0  0  0  0  0  0
   -2.8275   -0.7583    0.9014 H   0  0  0  0  0  0  0  0  0  0  0  0
   -3.0295    0.4909   -0.3295 H   0  0  0  0  0  0  0  0  0  0  0  0
   -4.2654   -2.3100   -0.4227 H   0  0  0  0  0  0  0  0  0  0  0  0
   -4.4529   -1.0804   -1.6738 H   0  0  0  0  0  0  0  0  0  0  0  0
   -5.3945   -0.8131    1.2467 H   0  0  0  0  0  0  0  0  0  0  0  0
   -5.5648    0.4523   -0.0064 H   0  0  0  0  0  0  0  0  0  0  0  0
   -7.5406   -0.6629   -0.0531 H   0  0  0  0  0  0  0  0  0  0  0  0
   -6.8689   -2.1661    0.1506 H   0  0  0  0  0  0  0  0  0  0  0  0
   -6.7261   -1.3840   -1.3057 H   0  0  0  0  0  0  0  0  0  0  0  0
    0.7598   -1.3187   -2.5529 N   0  0  0  0  0  0  0  0  0  0  0  0
    1.7635   -1.9967   -3.3381 C   0  0  2  0  0  0  0  0  0  0  0  0
    1.7002   -1.4481   -4.7574 C   0  0  0  0  0  0  0  0  0  0  0  0
    0.7013   -0.9024   -5.2217 O   0  0  0  0  0  0  0  0  0  0  0  0
    1.5506   -3.5024   -3.3273 C   0  0  0  0  0  0  0  0  0  0  0  0
    0.0527   -0.7676   -3.0304 H   0  0  0  0  0  0  0  0  0  0  0  0
    2.7335   -1.7492   -2.8932 H   0  0  0  0  0  0  0  0  0  0  0  0
    0.5837   -3.7697   -3.7692 H   0  0  0  0  0  0  0  0  0  0  0  0
    2.3292   -4.0174   -3.8997 H   0  0  0  0  0  0  0  0  0  0  0  0
    1.5668   -3.8910   -2.3033 H   0  0  0  0  0  0  0  0  0  0  0  0
    2.8755   -1.6782   -5.4588 N   0  0  0  0  0  0  0  0  0  0  0  0
    3.0589   -1.2637   -6.8301 C   0  0  0  0  0  0  0  0  0  0  0  0
    3.6594   -2.1210   -4.9886 H   0  0  0  0  0  0  0  0  0  0  0  0
    2.7760   -2.0863   -7.5033 H   0  0  0  0  0  0  0  0  0  0  0  0
    2.4264   -0.3876   -7.0359 H   0  0  0  0  0  0  0  0  0  0  0  0
    4.1142   -1.0010   -6.9956 H   0  0  0  0  0  0  0  0  0  0  0  0
  1  3  1  0  0  0  0
  1  7  1  0  0  0  0
  1  2  2  0  0  0  0
 40 41  1  0  0  0  0
 41 49  1  0  0  0  0
 41 42  2  0  0  0  0
  8  9  1  0  0  0  0
  9 17  1  0  0  0  0
  9 10  2  0  0  0  0
 18 19  1  0  0  0  0
 19 39  1  0  0  0  0
 19 20  2  0  0  0  0
 40 43  1  0  0  0  0
  8 11  1  0  0  0  0
 49 50  1  0  0  0  0
 22 23  1  0  0  0  0
 21 22  1  0  0  0  0
 23 24  1  0  0  0  0
 18 21  1  0  0  0  0
 24 25  1  0  0  0  0
 39 40  1  0  0  0  0
  7  8  1  0  0  0  0
 17 18  1  0  0  0  0
  3  4  1  0  0  0  0
  3  5  1  0  0  0  0
  3  6  1  0  0  0  0
 43 46  1  0  0  0  0
 43 47  1  0  0  0  0
 43 48  1  0  0  0  0
 11 14  1  0  0  0  0
 11 15  1  0  0  0  0
 11 16  1  0  0  0  0
 50 52  1  0  0  0  0
 50 53  1  0  0  0  0
 50 54  1  0  0  0  0
 22 30  1  0  0  0  0
 22 31  1  0  0  0  0
 23 32  1  0  0  0  0
 23 33  1  0  0  0  0
 21 28  1  0  0  0  0
 21 29  1  0  0  0  0
 24 34  1  0  0  0  0
 24 35  1  0  0  0  0
 40 45  1  0  0  0  0
  8 13  1  0  0  0  0
 18 27  1  0  0  0  0
 49 51  1  0  0  0  0
  7 12  1  0  0  0  0
 39 44  1  0  0  0  0
 17 26  1  0  0  0  0
 25 36  1  0  0  0  0
 25 37  1  0  0  0  0
 25 38  1  0  0  0  0
M  CHG  1  25   1
M  END
$$$$

  -OEChem-05262214473D

 54 53  0     1  0  0  0  0  0999 V2000
    2.6714    2.8829   -3.0005 C   0  0  0  0  0  0  0  0  0  0  0  0
    3.1741    2.4398   -1.9745 O   0  0  0  0  0  0  0  0  0  0  0  0
    3.5527    3.3077   -4.1279 C   0  0  0  0  0  0  0  0  0  0  0  0
    3.8407    4.3691   -4.0597 H   0  0  0  0  0  0  0  0  0  0  0  0
    4.5024    2.7495   -4.1526 H   0  0  0  0  0  0  0  0  0  0  0  0
    3.1208    3.1887   -5.1345 H   0  0  0  0  0  0  0  0  0  0  0  0
    1.3174    3.0407   -3.2467 N   0  0  0  0  0  0  0  0  0  0  0  0
    0.2944    2.6927   -2.2960 C   0  0  2  0  0  0  0  0  0  0  0  0
    0.2976    1.1783   -2.1349 C   0  0  0  0  0  0  0  0  0  0  0  0
    0.7500    0.4142   -2.9850 O   0  0  0  0  0  0  0  0  0  0  0  0
   -1.0710    3.1886   -2.7460 C   0  0  0  0  0  0  0  0  0  0  0  0
    1.0312    3.4224   -4.1464 H   0  0  0  0  0  0  0  0  0  0  0  0
    0.5725    3.1622   -1.3461 H   0  0  0  0  0  0  0  0  0  0  0  0
   -1.3666    2.7292   -3.6963 H   0  0  0  0  0  0  0  0  0  0  0  0
   -1.8434    2.9482   -2.0082 H   0  0  0  0  0  0  0  0  0  0  0  0
   -1.0632    4.2744   -2.8901 H   0  0  0  0  0  0  0  0  0  0  0  0
   -0.3037    0.7742   -0.9484 N   0  0  0  0  0  0  0  0  0  0  0  0
   -0.4352   -0.6095   -0.5718 C   0  0  2  0  0  0  0  0  0  0  0  0
    0.7287   -1.3945   -1.1679 C   0  0  0  0  0  0  0  0  0  0  0  0
    1.3560   -2.2443   -0.5389 O   0  0  0  0  0  0  0  0  0  0  0  0
   -1.8027   -1.1825   -0.9626 C   0  0  0  0  0  0  0  0  0  0  0  0
   -2.9778   -0.5927   -0.1717 C   0  0  0  0  0  0  0  0  0  0  0  0
   -4.3039   -1.2274   -0.5968 C   0  0  0  0  0  0  0  0  0  0  0  0
   -5.4695   -0.6229    0.1719 C   0  0  0  0  0  0  0  0  0  0  0  0
   -6.7322   -1.2489   -0.2887 N   0  3  0  0  0  0  0  0  0  0  0  0
   -0.6336    1.4811   -0.2948 H   0  0  0  0  0  0  0  0  0  0  0  0
   -0.3360   -0.6339    0.5201 H   0  0  0  0  0  0  0  0  0  0  0  0
   -1.9696   -1.0007   -2.0322 H   0  0  0  0  0  0  0  0  0  0  0  0
   -1.7946   -2.2709   -0.8259 H   0  0  0  0  0  0  0  0  0  0  0  0
   -2.8275   -0.7583    0.9014 H   0  0  0  0  0  0  0  0  0  0  0  0
   -3.0295    0.4909   -0.3295 H   0  0  0  0  0  0  0  0  0  0  0  0
   -4.2654   -2.3100   -0.4227 H   0  0  0  0  0  0  0  0  0  0  0  0
   -4.4529   -1.0804   -1.6738 H   0  0  0  0  0  0  0  0  0  0  0  0
   -5.3945   -0.8131    1.2467 H   0  0  0  0  0  0  0  0  0  0  0  0
   -5.5648    0.4523   -0.0064 H   0  0  0  0  0  0  0  0  0  0  0  0
   -7.5406   -0.6629   -0.0531 H   0  0  0  0  0  0  0  0  0  0  0  0
   -6.8689   -2.1661    0.1506 H   0  0  0  0  0  0  0  0  0  0  0  0
   -6.7261   -1.3840   -1.3057 H   0  0  0  0  0  0  0  0  0  0  0  0
    0.9646   -1.0601   -2.4936 N   0  0  0  0  0  0  0  0  0  0  0  0
    2.0071   -1.6864   -3.2712 C   0  0  2  0  0  0  0  0  0  0  0  0
    2.1963   -0.8737   -4.5452 C   0  0  0  0  0  0  0  0  0  0  0  0
    1.3261   -0.1387   -5.0075 O   0  0  0  0  0  0  0  0  0  0  0  0
    1.6635   -3.1321   -3.5946 C   0  0  0  0  0  0  0  0  0  0  0  0
    0.3844   -0.3508   -2.9317 H   0  0  0  0  0  0  0  0  0  0  0  0
    2.9212   -1.6410   -2.6692 H   0  0  0  0  0  0  0  0  0  0  0  0
    0.7503   -3.1976   -4.1973 H   0  0  0  0  0  0  0  0  0  0  0  0
    2.4679   -3.6142   -4.1599 H   0  0  0  0  0  0  0  0  0  0  0  0
    1.4985   -3.7080   -2.6776 H   0  0  0  0  0  0  0  0  0  0  0  0
    3.4352   -1.0989   -5.1287 N   0  0  0  0  0  0  0  0  0  0  0  0
    3.8491   -0.4543   -6.3532 C   0  0  0  0  0  0  0  0  0  0  0  0
    4.1018   -1.7101   -4.6662 H   0  0  0  0  0  0  0  0  0  0  0  0
    3.5945   -1.0956   -7.2099 H   0  0  0  0  0  0  0  0  0  0  0  0
    3.3320    0.5115   -6.4519 H   0  0  0  0  0  0  0  0  0  0  0  0
    4.9361   -0.2876   -6.3303 H   0  0  0  0  0  0  0  0  0  0  0  0
  1  3  1  0  0  0  0
  1  7  1  0  0  0  0
  1  2  2  0  0  0  0
 40 41  1  0  0  0  0
 41 49  1  0  0  0  0
 41 42  2  0  0  0  0
  8  9  1  0  0  0  0
  9 17  1  0  0  0  0
  9 10  2  0  0  0  0
 18 19  1  0  0  0  0
 19 39  1  0  0  0  0
 19 20  2  0  0  0  0
 40 43  1  0  0  0  0
  8 11  1  0  0  0  0
 49 50  1  0  0  0  0
 22 23  1  0  0  0  0
 21 22  1  0  0  0  0
 23 24  1  0  0  0  0
 18 21  1  0  0  0  0
 24 25  1  0  0  0  0
 39 40  1  0  0  0  0
  7  8  1  0  0  0  0
 17 18  1  0  0  0  0
  3  4  1  0  0  0  0
  3  5  1  0  0  0  0
  3  6  1  0  0  0  0
 43 46  1  0  0  0  0
 43 47  1  0  0  0  0
 43 48  1  0  0  0  0
 11 14  1  0  0  0  0
 11 15  1  0  0  0  0
 11 16  1  0  0  0  0
 50 52  1  0  0  0  0
 50 53  1  0  0  0  0
 50 54  1  0  0  0  0
 22 30  1  0  0  0  0
 22 31  1  0  0  0  0
 23 32  1  0  0  0  0
 23 33  1  0  0  0  0
 21 28  1  0  0  0  0
 21 29  1  0  0  0  0
 24 34  1  0  0  0  0
 24 35  1  0  0  0  0
 40 45  1  0  0  0  0
  8 13  1  0  0  0  0
 18 27  1  0  0  0  0
 49 51  1  0  0  0  0
  7 12  1  0  0  0  0
 39 44  1  0  0  0  0
 17 26  1  0  0  0  0
 25 36  1  0  0  0  0
 25 37  1  0  0  0  0
 25 38  1  0  0  0  0
M  CHG  1  25   1
M  END
$$$$

  -OEChem-05262214473D

 54 53  0     1  0  0  0  0  0999 V2000
    2.6714    2.8829   -3.0005 C   0  0  0  0  0  0  0  0  0  0  0  0
    3.1741    2.4398   -1.9745 O   0  0  0  0  0  0  0  0  0  0  0  0
    3.5527    3.3077   -4.1279 C   0  0  0  0  0  0  0  0  0  0  0  0
    3.8407    4.3691   -4.0597 H   0  0  0  0  0  0  0  0  0  0  0  0
    4.5024    2.7495   -4.1526 H   0  0  0  0  0  0  0  0  0  0  0  0
    3.1208    3.1887   -5.1345 H   0  0  0  0  0  0  0  0  0  0  0  0
    1.3174    3.0407   -3.2467 N   0  0  0  0  0  0  0  0  0  0  0  0
    0.2944    2.6927   -2.2960 C   0  0  2  0  0  0  0  0  0  0  0  0
    0.2976    1.1783   -2.1349 C   0  0  0  0  0  0  0  0  0  0  0  0
    0.7500    0.4142   -2.9850 O   0  0  0  0  0  0  0  0  0  0  0  0
   -1.0710    3.1886   -2.7460 C   0  0  0  0  0  0  0  0  0  0  0  0
    1.0312    3.4224   -4.1464 H   0  0  0  0  0  0  0  0  0  0  0  0
    0.5725    3.1622   -1.3461 H   0  0  0  0  0  0  0  0  0  0  0  0
   -1.3666    2.7292   -3.6963 H   0  0  0  0  0  0  0  0  0  0  0  0
   -1.8434    2.9482   -2.0082 H   0  0  0  0  0  0  0  0  0  0  0  0
   -1.0632    4.2744   -2.8901 H   0  0  0  0  0  0  0  0  0  0  0  0
   -0.3037    0.7742   -0.9484 N   0  0  0  0  0  0  0  0  0  0  0  0
   -0.4352   -0.6095   -0.5718 C   0  0  2  0  0  0  0  0  0  0  0  0
    0.7287   -1.3945   -1.1679 C   0  0  0  0  0  0  0  0  0  0  0  0
    1.1822   -2.4148   -0.6535 O   0  0  0  0  0  0  0  0  0  0  0  0
   -1.8027   -1.1825   -0.9626 C   0  0  0  0  0  0  0  0  0  0  0  0
   -2.9778   -0.5927   -0.1717 C   0  0  0  0  0  0  0  0  0  0  0  0
   -4.3039   -1.2274   -0.5968 C   0  0  0  0  0  0  0  0  0  0  0  0
   -5.4695   -0.6229    0.1719 C   0  0  0  0  0  0  0  0  0  0  0  0
   -6.7322   -1.2489   -0.2887 N   0  3  0  0  0  0  0  0  0  0  0  0
   -0.6336    1.4811   -0.2948 H   0  0  0  0  0  0  0  0  0  0  0  0
   -0.3360   -0.6339    0.5201 H   0  0  0  0  0  0  0  0  0  0  0  0
   -1.9696   -1.0007   -2.0322 H   0  0  0  0  0  0  0  0  0  0  0  0
   -1.7946   -2.2709   -0.8259 H   0  0  0  0  0  0  0  0  0  0  0  0
   -2.8275   -0.7583    0.9014 H   0  0  0  0  0  0  0  0  0  0  0  0
   -3.0295    0.4909   -0.3295 H   0  0  0  0  0  0  0  0  0  0  0  0
   -4.2654   -2.3100   -0.4227 H   0  0  0  0  0  0  0  0  0  0  0  0
   -4.4529   -1.0804   -1.6738 H   0  0  0  0  0  0  0  0  0  0  0  0
   -5.3945   -0.8131    1.2467 H   0  0  0  0  0  0  0  0  0  0  0  0
   -5.5648    0.4523   -0.0064 H   0  0  0  0  0  0  0  0  0  0  0  0
   -7.5406   -0.6629   -0.0531 H   0  0  0  0  0  0  0  0  0  0  0  0
   -6.8689   -2.1661    0.1506 H   0  0  0  0  0  0  0  0  0  0  0  0
   -6.7261   -1.3840   -1.3057 H   0  0  0  0  0  0  0  0  0  0  0  0
    1.1807   -0.8427   -2.3580 N   0  0  0  0  0  0  0  0  0  0  0  0
    2.2648   -1.4245   -3.1128 C   0  0  2  0  0  0  0  0  0  0  0  0
    2.7054   -0.4110   -4.1607 C   0  0  0  0  0  0  0  0  0  0  0  0
    1.9783    0.4934   -4.5665 O   0  0  0  0  0  0  0  0  0  0  0  0
    1.8456   -2.7330   -3.7646 C   0  0  0  0  0  0  0  0  0  0  0  0
    0.7337   -0.0013   -2.7098 H   0  0  0  0  0  0  0  0  0  0  0  0
    3.0836   -1.5998   -2.4065 H   0  0  0  0  0  0  0  0  0  0  0  0
    1.0260   -2.5774   -4.4757 H   0  0  0  0  0  0  0  0  0  0  0  0
    2.6773   -3.1874   -4.3131 H   0  0  0  0  0  0  0  0  0  0  0  0
    1.5009   -3.4504   -3.0121 H   0  0  0  0  0  0  0  0  0  0  0  0
    3.9906   -0.6612   -4.6209 N   0  0  0  0  0  0  0  0  0  0  0  0
    4.6306    0.1533   -5.6274 C   0  0  0  0  0  0  0  0  0  0  0  0
    4.5276   -1.4216   -4.2146 H   0  0  0  0  0  0  0  0  0  0  0  0
    4.4462   -0.2794   -6.6217 H   0  0  0  0  0  0  0  0  0  0  0  0
    4.2198    1.1730   -5.5895 H   0  0  0  0  0  0  0  0  0  0  0  0
    5.7136    0.1870   -5.4374 H   0  0  0  0  0  0  0  0  0  0  0  0
  1  3  1  0  0  0  0
  1  7  1  0  0  0  0
  1  2  2  0  0  0  0
 40 41  1  0  0  0  0
 41 49  1  0  0  0  0
 41 42  2  0  0  0  0
  8  9  1  0  0  0  0
  9 17  1  0  0  0  0
  9 10  2  0  0  0  0
 18 19  1  0  0  0  0
 19 39  1  0  0  0  0
 19 20  2  0  0  0  0
 40 43  1  0  0  0  0
  8 11  1  0  0  0  0
 49 50  1  0  0  0  0
 22 23  1  0  0  0  0
 21 22  1  0  0  0  0
 23 24  1  0  0  0  0
 18 21  1  0  0  0  0
 24 25  1  0  0  0  0
 39 40  1  0  0  0  0
  7  8  1  0  0  0  0
 17 18  1  0  0  0  0
  3  4  1  0  0  0  0
  3  5  1  0  0  0  0
  3  6  1  0  0  0  0
 43 46  1  0  0  0  0
 43 47  1  0  0  0  0
 43 48  1  0  0  0  0
 11 14  1  0  0  0  0
 11 15  1  0  0  0  0
 11 16  1  0  0  0  0
 50 52  1  0  0  0  0
 50 53  1  0  0  0  0
 50 54  1  0  0  0  0
 22 30  1  0  0  0  0
 22 31  1  0  0  0  0
 23 32  1  0  0  0  0
 23 33  1  0  0  0  0
 21 28  1  0  0  0  0
 21 29  1  0  0  0  0
 24 34  1  0  0  0  0
 24 35  1  0  0  0  0
 40 45  1  0  0  0  0
  8 13  1  0  0  0  0
 18 27  1  0  0  0  0
 49 51  1  0  0  0  0
  7 12  1  0  0  0  0
 39 44  1  0  0  0  0
 17 26  1  0  0  0  0
 25 36  1  0  0  0  0
 25 37  1  0  0  0  0
 25 38  1  0  0  0  0
M  CHG  1  25   1
M  END
$$$$

  -OEChem-05262214473D

 54 53  0     1  0  0  0  0  0999 V2000
    2.6714    2.8829   -3.0005 C   0  0  0  0  0  0  0  0  0  0  0  0
    3.1741    2.4398   -1.9745 O   0  0  0  0  0  0  0  0  0  0  0  0
    3.5527    3.3077   -4.1279 C   0  0  0  0  0  0  0  0  0  0  0  0
    3.8407    4.3691   -4.0597 H   0  0  0  0  0  0  0  0  0  0  0  0
    4.5024    2.7495   -4.1526 H   0  0  0  0  0  0  0  0  0  0  0  0
    3.1208    3.1887   -5.1345 H   0  0  0  0  0  0  0  0  0  0  0  0
    1.3174    3.0407   -3.2467 N   0  0  0  0  0  0  0  0  0  0  0  0
    0.2944    2.6927   -2.2960 C   0  0  2  0  0  0  0  0  0  0  0  0
    0.2976    1.1783   -2.1349 C   0  0  0  0  0  0  0  0  0  0  0  0
    0.7500    0.4142   -2.9850 O   0  0  0  0  0  0  0  0  0  0  0  0
   -1.0710    3.1886   -2.7460 C   0  0  0  0  0  0  0  0  0  0  0  0
    1.0312    3.4224   -4.1464 H   0  0  0  0  0  0  0  0  0  0  0  0
    0.5725    3.1622   -1.3461 H   0  0  0  0  0  0  0  0  0  0  0  0
   -1.3666    2.7292   -3.6963 H   0  0  0  0  0  0  0  0  0  0  0  0
   -1.8434    2.9482   -2.0082 H   0  0  0  0  0  0  0  0  0  0  0  0
   -1.0632    4.2744   -2.8901 H   0  0  0  0  0  0  0  0  0  0  0  0
   -0.3037    0.7742   -0.9484 N   0  0  0  0  0  0  0  0  0  0  0  0
   -0.4352   -0.6095   -0.5718 C   0  0  2  0  0  0  0  0  0  0  0  0
    0.7287   -1.3945   -1.1679 C   0  0  0  0  0  0  0  0  0  0  0  0
    1.0125   -2.5393   -0.8211 O   0  0  0  0  0  0  0  0  0  0  0  0
   -1.8027   -1.1825   -0.9626 C   0  0  0  0  0  0  0  0  0  0  0  0
   -2.9778   -0.5927   -0.1717 C   0  0  0  0  0  0  0  0  0  0  0  0
   -4.3039   -1.2274   -0.5968 C   0  0  0  0  0  0  0  0  0  0  0  0
   -5.4695   -0.6229    0.1719 C   0  0  0  0  0  0  0  0  0  0  0  0
   -6.7322   -1.2489   -0.2887 N   0  3  0  0  0  0  0  0  0  0  0  0
   -0.6336    1.4811   -0.2948 H   0  0  0  0  0  0  0  0  0  0  0  0
   -0.3360   -0.6339    0.5201 H   0  0  0  0  0  0  0  0  0  0  0  0
   -1.9696   -1.0007   -2.0322 H   0  0  0  0  0  0  0  0  0  0  0  0
   -1.7946   -2.2709   -0.8259 H   0  0  0  0  0  0  0  0  0  0  0  0
   -2.8275   -0.7583    0.9014 H   0  0  0  0  0  0  0  0  0  0  0  0
   -3.0295    0.4909   -0.3295 H   0  0  0  0  0  0  0  0  0  0  0  0
   -4.2654   -2.3100   -0.4227 H   0  0  0  0  0  0  0  0  0  0  0  0
   -4.4529   -1.0804   -1.6738 H   0  0  0  0  0  0  0  0  0  0  0  0
   -5.3945   -0.8131    1.2467 H   0  0  0  0  0  0  0  0  0  0  0  0
   -5.5648    0.4523   -0.0064 H   0  0  0  0  0  0  0  0  0  0  0  0
   -7.5406   -0.6629   -0.0531 H   0  0  0  0  0  0  0  0  0  0  0  0
   -6.8689   -2.1661    0.1506 H   0  0  0  0  0  0  0  0  0  0  0  0
   -6.7261   -1.3840   -1.3057 H   0  0  0  0  0  0  0  0  0  0  0  0
    1.3933   -0.6814   -2.1552 N   0  0  0  0  0  0  0  0  0  0  0  0
    2.5192   -1.2289   -2.8738 C   0  0  2  0  0  0  0  0  0  0  0  0
    3.1926   -0.0914   -3.6301 C   0  0  0  0  0  0  0  0  0  0  0  0
    2.6135    0.9509   -3.9288 O   0  0  0  0  0  0  0  0  0  0  0  0
    2.0845   -2.3323   -3.8257 C   0  0  0  0  0  0  0  0  0  0  0  0
    1.0770    0.2572   -2.3800 H   0  0  0  0  0  0  0  0  0  0  0  0
    3.2097   -1.6282   -2.1229 H   0  0  0  0  0  0  0  0  0  0  0  0
    1.3922   -1.9512   -4.5853 H   0  0  0  0  0  0  0  0  0  0  0  0
    2.9431   -2.7660   -4.3489 H   0  0  0  0  0  0  0  0  0  0  0  0
    1.5739   -3.1358   -3.2840 H   0  0  0  0  0  0  0  0  0  0  0  0
    4.5036   -0.3948   -3.9700 N   0  0  0  0  0  0  0  0  0  0  0  0
    5.3503    0.5178   -4.7022 C   0  0  0  0  0  0  0  0  0  0  0  0
    4.9080   -1.2752   -3.6647 H   0  0  0  0  0  0  0  0  0  0  0  0
    5.2732    0.3066   -5.7790 H   0  0  0  0  0  0  0  0  0  0  0  0
    5.0294    1.5518   -4.5075 H   0  0  0  0  0  0  0  0  0  0  0  0
    6.3936    0.3904   -4.3775 H   0  0  0  0  0  0  0  0  0  0  0  0
  1  3  1  0  0  0  0
  1  7  1  0  0  0  0
  1  2  2  0  0  0  0
 40 41  1  0  0  0  0
 41 49  1  0  0  0  0
 41 42  2  0  0  0  0
  8  9  1  0  0  0  0
  9 17  1  0  0  0  0
  9 10  2  0  0  0  0
 18 19  1  0  0  0  0
 19 39  1  0  0  0  0
 19 20  2  0  0  0  0
 40 43  1  0  0  0  0
  8 11  1  0  0  0  0
 49 50  1  0  0  0  0
 22 23  1  0  0  0  0
 21 22  1  0  0  0  0
 23 24  1  0  0  0  0
 18 21  1  0  0  0  0
 24 25  1  0  0  0  0
 39 40  1  0  0  0  0
  7  8  1  0  0  0  0
 17 18  1  0  0  0  0
  3  4  1  0  0  0  0
  3  5  1  0  0  0  0
  3  6  1  0  0  0  0
 43 46  1  0  0  0  0
 43 47  1  0  0  0  0
 43 48  1  0  0  0  0
 11 14  1  0  0  0  0
 11 15  1  0  0  0  0
 11 16  1  0  0  0  0
 50 52  1  0  0  0  0
 50 53  1  0  0  0  0
 50 54  1  0  0  0  0
 22 30  1  0  0  0  0
 22 31  1  0  0  0  0
 23 32  1  0  0  0  0
 23 33  1  0  0  0  0
 21 28  1  0  0  0  0
 21 29  1  0  0  0  0
 24 34  1  0  0  0  0
 24 35  1  0  0  0  0
 40 45  1  0  0  0  0
  8 13  1  0  0  0  0
 18 27  1  0  0  0  0
 49 51  1  0  0  0  0
  7 12  1  0  0  0  0
 39 44  1  0  0  0  0
 17 26  1  0  0  0  0
 25 36  1  0  0  0  0
 25 37  1  0  0  0  0
 25 38  1  0  0  0  0
M  CHG  1  25   1
M  END
$$$$

  -OEChem-05262214473D

 54 53  0     1  0  0  0  0  0999 V2000
    2.6714    2.8829   -3.0005 C   0  0  0  0  0  0  0  0  0  0  0  0
    3.1741    2.4398   -1.9745 O   0  0  0  0  0  0  0  0  0  0  0  0
    3.5527    3.3077   -4.1279 C   0  0  0  0  0  0  0  0  0  0  0  0
    3.8407    4.3691   -4.0597 H   0  0  0  0  0  0  0  0  0  0  0  0
    4.5024    2.7495   -4.1526 H   0  0  0  0  0  0  0  0  0  0  0  0
    3.1208    3.1887   -5.1345 H   0  0  0  0  0  0  0  0  0  0  0  0
    1.3174    3.0407   -3.2467 N   0  0  0  0  0  0  0  0  0  0  0  0
    0.2944    2.6927   -2.2960 C   0  0  2  0  0  0  0  0  0  0  0  0
    0.2976    1.1783   -2.1349 C   0  0  0  0  0  0  0  0  0  0  0  0
    0.7500    0.4142   -2.9850 O   0  0  0  0  0  0  0  0  0  0  0  0
   -1.0710    3.1886   -2.7460 C   0  0  0  0  0  0  0  0  0  0  0  0
    1.0312    3.4224   -4.1464 H   0  0  0  0  0  0  0  0  0  0  0  0
    0.5725    3.1622   -1.3461 H   0  0  0  0  0  0  0  0  0  0  0  0
   -1.3666    2.7292   -3.6963 H   0  0  0  0  0  0  0  0  0  0  0  0
   -1.8434    2.9482   -2.0082 H   0  0  0  0  0  0  0  0  0  0  0  0
   -1.0632    4.2744   -2.8901 H   0  0  0  0  0  0  0  0  0  0  0  0
   -0.3037    0.7742   -0.9484 N   0  0  0  0  0  0  0  0  0  0  0  0
   -0.4352   -0.6095   -0.5718 C   0  0  2  0  0  0  0  0  0  0  0  0
    0.7287   -1.3945   -1.1679 C   0  0  0  0  0  0  0  0  0  0  0  0
    0.8582   -2.6093   -1.0301 O   0  0  0  0  0  0  0  0  0  0  0  0
   -1.8027   -1.1825   -0.9626 C   0  0  0  0  0  0  0  0  0  0  0  0
   -2.9778   -0.5927   -0.1717 C   0  0  0  0  0  0  0  0  0  0  0  0
   -4.3039   -1.2274   -0.5968 C   0  0  0  0  0  0  0  0  0  0  0  0
   -5.4695   -0.6229    0.1719 C   0  0  0  0  0  0  0  0  0  0  0  0
   -6.7322   -1.2489   -0.2887 N   0  3  0  0  0  0  0  0  0  0  0  0
   -0.6336    1.4811   -0.2948 H   0  0  0  0  0  0  0  0  0  0  0  0
   -0.3360   -0.6339    0.5201 H   0  0  0  0  0  0  0  0  0  0  0  0
   -1.9696   -1.0007   -2.0322 H   0  0  0  0  0  0  0  0  0  0  0  0
   -1.7946   -2.2709   -0.8259 H   0  0  0  0  0  0  0  0  0  0  0  0
   -2.8275   -0.7583    0.9014 H   0  0  0  0  0  0  0  0  0  0  0  0
   -3.0295    0.4909   -0.3295 H   0  0  0  0  0  0  0  0  0  0  0  0
   -4.2654   -2.3100   -0.4227 H   0  0  0  0  0  0  0  0  0  0  0  0
   -4.4529   -1.0804   -1.6738 H   0  0  0  0  0  0  0  0  0  0  0  0
   -5.3945   -0.8131    1.2467 H   0  0  0  0  0  0  0  0  0  0  0  0
   -5.5648    0.4523   -0.0064 H   0  0  0  0  0  0  0  0  0  0  0  0
   -7.5406   -0.6629   -0.0531 H   0  0  0  0  0  0  0  0  0  0  0  0
   -6.8689   -2.1661    0.1506 H   0  0  0  0  0  0  0  0  0  0  0  0
   -6.7261   -1.3840   -1.3057 H   0  0  0  0  0  0  0  0  0  0  0  0
    1.5880   -0.5872   -1.8992 N   0  0  0  0  0  0  0  0  0  0  0  0
    2.7528   -1.1130   -2.5703 C   0  0  2  0  0  0  0  0  0  0  0  0
    3.6250    0.0631   -2.9895 C   0  0  0  0  0  0  0  0  0  0  0  0
    3.1884    1.2026   -3.1378 O   0  0  0  0  0  0  0  0  0  0  0  0
    2.3640   -1.9574   -3.7738 C   0  0  0  0  0  0  0  0  0  0  0  0
    1.3908    0.4070   -1.9646 H   0  0  0  0  0  0  0  0  0  0  0  0
    3.2908   -1.7245   -1.8378 H   0  0  0  0  0  0  0  0  0  0  0  0
    1.8239   -1.3617   -4.5188 H   0  0  0  0  0  0  0  0  0  0  0  0
    3.2473   -2.3788   -4.2649 H   0  0  0  0  0  0  0  0  0  0  0  0
    1.7124   -2.7856   -3.4747 H   0  0  0  0  0  0  0  0  0  0  0  0
    4.9393   -0.3180   -3.2203 N   0  0  0  0  0  0  0  0  0  0  0  0
    5.9591    0.6143   -3.6407 C   0  0  0  0  0  0  0  0  0  0  0  0
    5.2170   -1.2809   -3.0540 H   0  0  0  0  0  0  0  0  0  0  0  0
    6.0189    0.6226   -4.7390 H   0  0  0  0  0  0  0  0  0  0  0  0
    5.7056    1.6221   -3.2798 H   0  0  0  0  0  0  0  0  0  0  0  0
    6.9298    0.3088   -3.2230 H   0  0  0  0  0  0  0  0  0  0  0  0
  1  3  1  0  0  0  0
  1  7  1  0  0  0  0
  1  2  2  0  0  0  0
 40 41  1  0  0  0  0
 41 49  1  0  0  0  0
 41 42  2  0  0  0  0
  8  9  1  0  0  0  0
  9 17  1  0  0  0  0
  9 10  2  0  0  0  0
 18 19  1  0  0  0  0
 19 39  1  0  0  0  0
 19 20  2  0  0  0  0
 40 43  1  0  0  0  0
  8 11  1  0  0  0  0
 49 50  1  0  0  0  0
 22 23  1  0  0  0  0
 21 22  1  0  0  0  0
 23 24  1  0  0  0  0
 18 21  1  0  0  0  0
 24 25  1  0  0  0  0
 39 40  1  0  0  0  0
  7  8  1  0  0  0  0
 17 18  1  0  0  0  0
  3  4  1  0  0  0  0
  3  5  1  0  0  0  0
  3  6  1  0  0  0  0
 43 46  1  0  0  0  0
 43 47  1  0  0  0  0
 43 48  1  0  0  0  0
 11 14  1  0  0  0  0
 11 15  1  0  0  0  0
 11 16  1  0  0  0  0
 50 52  1  0  0  0  0
 50 53  1  0  0  0  0
 50 54  1  0  0  0  0
 22 30  1  0  0  0  0
 22 31  1  0  0  0  0
 23 32  1  0  0  0  0
 23 33  1  0  0  0  0
 21 28  1  0  0  0  0
 21 29  1  0  0  0  0
 24 34  1  0  0  0  0
 24 35  1  0  0  0  0
 40 45  1  0  0  0  0
  8 13  1  0  0  0  0
 18 27  1  0  0  0  0
 49 51  1  0  0  0  0
  7 12  1  0  0  0  0
 39 44  1  0  0  0  0
 17 26  1  0  0  0  0
 25 36  1  0  0  0  0
 25 37  1  0  0  0  0
 25 38  1  0  0  0  0
M  CHG  1  25   1
M  END
$$$$

  -OEChem-05262214473D

 54 53  0     1  0  0  0  0  0999 V2000
    2.6714    2.8829   -3.0005 C   0  0  0  0  0  0  0  0  0  0  0  0
    3.1741    2.4398   -1.9745 O   0  0  0  0  0  0  0  0  0  0  0  0
    3.5527    3.3077   -4.1279 C   0  0  0  0  0  0  0  0  0  0  0  0
    3.8407    4.3691   -4.0597 H   0  0  0  0  0  0  0  0  0  0  0  0
    4.5024    2.7495   -4.1526 H   0  0  0  0  0  0  0  0  0  0  0  0
    3.1208    3.1887   -5.1345 H   0  0  0  0  0  0  0  0  0  0  0  0
    1.3174    3.0407   -3.2467 N   0  0  0  0  0  0  0  0  0  0  0  0
    0.2944    2.6927   -2.2960 C   0  0  2  0  0  0  0  0  0  0  0  0
    0.2976    1.1783   -2.1349 C   0  0  0  0  0  0  0  0  0  0  0  0
    0.7500    0.4142   -2.9850 O   0  0  0  0  0  0  0  0  0  0  0  0
   -1.0710    3.1886   -2.7460 C   0  0  0  0  0  0  0  0  0  0  0  0
    1.0312    3.4224   -4.1464 H   0  0  0  0  0  0  0  0  0  0  0  0
    0.5725    3.1622   -1.3461 H   0  0  0  0  0  0  0  0  0  0  0  0
   -1.3666    2.7292   -3.6963 H   0  0  0  0  0  0  0  0  0  0  0  0
   -1.8434    2.9482   -2.0082 H   0  0  0  0  0  0  0  0  0  0  0  0
   -1.0632    4.2744   -2.8901 H   0  0  0  0  0  0  0  0  0  0  0  0
   -0.3037    0.7742   -0.9484 N   0  0  0  0  0  0  0  0  0  0  0  0
   -0.4352   -0.6095   -0.5718 C   0  0  2  0  0  0  0  0  0  0  0  0
    0.7287   -1.3945   -1.1679 C   0  0  0  0  0  0  0  0  0  0  0  0
    0.7300   -2.6200   -1.2664 O   0  0  0  0  0  0  0  0  0  0  0  0
   -1.8027   -1.1825   -0.9626 C   0  0  0  0  0  0  0  0  0  0  0  0
   -2.9778   -0.5927   -0.1717 C   0  0  0  0  0  0  0  0  0  0  0  0
   -4.3039   -1.2274   -0.5968 C   0  0  0  0  0  0  0  0  0  0  0  0
   -5.4695   -0.6229    0.1719 C   0  0  0  0  0  0  0  0  0  0  0  0
   -6.7322   -1.2489   -0.2887 N   0  3  0  0  0  0  0  0  0  0  0  0
   -0.6336    1.4811   -0.2948 H   0  0  0  0  0  0  0  0  0  0  0  0
   -0.3360   -0.6339    0.5201 H   0  0  0  0  0  0  0  0  0  0  0  0
   -1.9696   -1.0007   -2.0322 H   0  0  0  0  0  0  0  0  0  0  0  0
   -1.7946   -2.2709   -0.8259 H   0  0  0  0  0  0  0  0  0  0  0  0
   -2.8275   -0.7583    0.9014 H   0  0  0  0  0  0  0  0  0  0  0  0
   -3.0295    0.4909   -0.3295 H   0  0  0  0  0  0  0  0  0  0  0  0
   -4.2654   -2.3100   -0.4227 H   0  0  0  0  0  0  0  0  0  0  0  0
   -4.4529   -1.0804   -1.6738 H   0  0  0  0  0  0  0  0  0  0  0  0
   -5.3945   -0.8131    1.2467 H   0  0  0  0  0  0  0  0  0  0  0  0
   -5.5648    0.4523   -0.0064 H   0  0  0  0  0  0  0  0  0  0  0  0
   -7.5406   -0.6629   -0.0531 H   0  0  0  0  0  0  0  0  0  0  0  0
   -6.8689   -2.1661    0.1506 H   0  0  0  0  0  0  0  0  0  0  0  0
   -6.7261   -1.3840   -1.3057 H   0  0  0  0  0  0  0  0  0  0  0  0
    1.7514   -0.5664   -1.6074 N   0  0  0  0  0  0  0  0  0  0  0  0
    2.9498   -1.0845   -2.2233 C   0  0  2  0  0  0  0  0  0  0  0  0
    3.9728    0.0422   -2.2827 C   0  0  0  0  0  0  0  0  0  0  0  0
    3.6638    1.2314   -2.2475 O   0  0  0  0  0  0  0  0  0  0  0  0
    2.6649   -1.6338   -3.6124 C   0  0  0  0  0  0  0  0  0  0  0  0
    1.6537    0.4379   -1.4919 H   0  0  0  0  0  0  0  0  0  0  0  0
    3.3214   -1.8820   -1.5706 H   0  0  0  0  0  0  0  0  0  0  0  0
    2.2916   -0.8491   -4.2806 H   0  0  0  0  0  0  0  0  0  0  0  0
    3.5691   -2.0522   -4.0667 H   0  0  0  0  0  0  0  0  0  0  0  0
    1.9070   -2.4236   -3.5713 H   0  0  0  0  0  0  0  0  0  0  0  0
    5.2682   -0.4360   -2.4229 N   0  0  0  0  0  0  0  0  0  0  0  0
    6.4155    0.4364   -2.5151 C   0  0  0  0  0  0  0  0  0  0  0  0
    5.4335   -1.4382   -2.4240 H   0  0  0  0  0  0  0  0  0  0  0  0
    6.6327    0.6470   -3.5727 H   0  0  0  0  0  0  0  0  0  0  0  0
    6.2023    1.3791   -1.9899 H   0  0  0  0  0  0  0  0  0  0  0  0
    7.2857   -0.0524   -2.0526 H   0  0  0  0  0  0  0  0  0  0  0  0
  1  3  1  0  0  0  0
  1  7  1  0  0  0  0
  1  2  2  0  0  0  0
 40 41  1  0  0  0  0
 41 49  1  0  0  0  0
 41 42  2  0  0  0  0
  8  9  1  0  0  0  0
  9 17  1  0  0  0  0
  9 10  2  0  0  0  0
 18 19  1  0  0  0  0
 19 39  1  0  0  0  0
 19 20  2  0  0  0  0
 40 43  1  0  0  0  0
  8 11  1  0  0  0  0
 49 50  1  0  0  0  0
 22 23  1  0  0  0  0
 21 22  1  0  0  0  0
 23 24  1  0  0  0  0
 18 21  1  0  0  0  0
 24 25  1  0  0  0  0
 39 40  1  0  0  0  0
  7  8  1  0  0  0  0
 17 18  1  0  0  0  0
  3  4  1  0  0  0  0
  3  5  1  0  0  0  0
  3  6  1  0  0  0  0
 43 46  1  0  0  0  0
 43 47  1  0  0  0  0
 43 48  1  0  0  0  0
 11 14  1  0  0  0  0
 11 15  1  0  0  0  0
 11 16  1  0  0  0  0
 50 52  1  0  0  0  0
 50 53  1  0  0  0  0
 50 54  1  0  0  0  0
 22 30  1  0  0  0  0
 22 31  1  0  0  0  0
 23 32  1  0  0  0  0
 23 33  1  0  0  0  0
 21 28  1  0  0  0  0
 21 29  1  0  0  0  0
 24 34  1  0  0  0  0
 24 35  1  0  0  0  0
 40 45  1  0  0  0  0
  8 13  1  0  0  0  0
 18 27  1  0  0  0  0
 49 51  1  0  0  0  0
  7 12  1  0  0  0  0
 39 44  1  0  0  0  0
 17 26  1  0  0  0  0
 25 36  1  0  0  0  0
 25 37  1  0  0  0  0
 25 38  1  0  0  0  0
M  CHG  1  25   1
M  END
$$$$

  -OEChem-05262214473D

 54 53  0     1  0  0  0  0  0999 V2000
    2.6714    2.8829   -3.0005 C   0  0  0  0  0  0  0  0  0  0  0  0
    3.1741    2.4398   -1.9745 O   0  0  0  0  0  0  0  0  0  0  0  0
    3.5527    3.3077   -4.1279 C   0  0  0  0  0  0  0  0  0  0  0  0
    3.8407    4.3691   -4.0597 H   0  0  0  0  0  0  0  0  0  0  0  0
    4.5024    2.7495   -4.1526 H   0  0  0  0  0  0  0  0  0  0  0  0
    3.1208    3.1887   -5.1345 H   0  0  0  0  0  0  0  0  0  0  0  0
    1.3174    3.0407   -3.2467 N   0  0  0  0  0  0  0  0  0  0  0  0
    0.2944    2.6927   -2.2960 C   0  0  2  0  0  0  0  0  0  0  0  0
    0.2976    1.1783   -2.1349 C   0  0  0  0  0  0  0  0  0  0  0  0
    0.7500    0.4142   -2.9850 O   0  0  0  0  0  0  0  0  0  0  0  0
   -1.0710    3.1886   -2.7460 C   0  0  0  0  0  0  0  0  0  0  0  0
    1.0312    3.4224   -4.1464 H   0  0  0  0  0  0  0  0  0  0  0  0
    0.5725    3.1622   -1.3461 H   0  0  0  0  0  0  0  0  0  0  0  0
   -1.3666    2.7292   -3.6963 H   0  0  0  0  0  0  0  0  0  0  0  0
   -1.8434    2.9482   -2.0082 H   0  0  0  0  0  0  0  0  0  0  0  0
   -1.0632    4.2744   -2.8901 H   0  0  0  0  0  0  0  0  0  0  0  0
   -0.3037    0.7742   -0.9484 N   0  0  0  0  0  0  0  0  0  0  0  0
   -0.4352   -0.6095   -0.5718 C   0  0  2  0  0  0  0  0  0  0  0  0
    0.7287   -1.3945   -1.1679 C   0  0  0  0  0  0  0  0  0  0  0  0
    0.6365   -2.5707   -1.5138 O   0  0  0  0  0  0  0  0  0  0  0  0
   -1.8027   -1.1825   -0.9626 C   0  0  0  0  0  0  0  0  0  0  0  0
   -2.9778   -0.5927   -0.1717 C   0  0  0  0  0  0  0  0  0  0  0  0
   -4.3039   -1.2274   -0.5968 C   0  0  0  0  0  0  0  0  0  0  0  0
   -5.4695   -0.6229    0.1719 C   0  0  0  0  0  0  0  0  0  0  0  0
   -6.7322   -1.2489   -0.2887 N   0  3  0  0  0  0  0  0  0  0  0  0
   -0.6336    1.4811   -0.2948 H   0  0  0  0  0  0  0  0  0  0  0  0
   -0.3360   -0.6339    0.5201 H   0  0  0  0  0  0  0  0  0  0  0  0
   -1.9696   -1.0007   -2.0322 H   0  0  0  0  0  0  0  0  0  0  0  0
   -1.7946   -2.2709   -0.8259 H   0  0  0  0  0  0  0  0  0  0  0  0
   -2.8275   -0.7583    0.9014 H   0  0  0  0  0  0  0  0  0  0  0  0
   -3.0295    0.4909   -0.3295 H   0  0  0  0  0  0  0  0  0  0  0  0
   -4.2654   -2.3100   -0.4227 H   0  0  0  0  0  0  0  0  0  0  0  0
   -4.4529   -1.0804   -1.6738 H   0  0  0  0  0  0  0  0  0  0  0  0
   -5.3945   -0.8131    1.2467 H   0  0  0  0  0  0  0  0  0  0  0  0
   -5.5648    0.4523   -0.0064 H   0  0  0  0  0  0  0  0  0  0  0  0
   -7.5406   -0.6629   -0.0531 H   0  0  0  0  0  0  0  0  0  0  0  0
   -6.8689   -2.1661    0.1506 H   0  0  0  0  0  0  0  0  0  0  0  0
   -6.7261   -1.3840   -1.3057 H   0  0  0  0  0  0  0  0  0  0  0  0
    1.8726   -0.6205   -1.2996 N   0  0  0  0  0  0  0  0  0  0  0  0
    3.0967   -1.1455   -1.8561 C   0  0  2  0  0  0  0  0  0  0  0  0
    4.2126   -0.1529   -1.5577 C   0  0  0  0  0  0  0  0  0  0  0  0
    4.0073    1.0353   -1.3186 O   0  0  0  0  0  0  0  0  0  0  0  0
    2.9668   -1.3835   -3.3525 C   0  0  0  0  0  0  0  0  0  0  0  0
    1.8479    0.3479   -0.9943 H   0  0  0  0  0  0  0  0  0  0  0  0
    3.2994   -2.0900   -1.3396 H   0  0  0  0  0  0  0  0  0  0  0  0
    2.7635   -0.4484   -3.8870 H   0  0  0  0  0  0  0  0  0  0  0  0
    3.8865   -1.8084   -3.7680 H   0  0  0  0  0  0  0  0  0  0  0  0
    2.1445   -2.0746   -3.5673 H   0  0  0  0  0  0  0  0  0  0  0  0
    5.4676   -0.7407   -1.6322 N   0  0  0  0  0  0  0  0  0  0  0  0
    6.6885   -0.0040   -1.4023 C   0  0  0  0  0  0  0  0  0  0  0  0
    5.5428   -1.7365   -1.8178 H   0  0  0  0  0  0  0  0  0  0  0  0
    7.0726    0.3781   -2.3596 H   0  0  0  0  0  0  0  0  0  0  0  0
    6.4857    0.8394   -0.7259 H   0  0  0  0  0  0  0  0  0  0  0  0
    7.4370   -0.6684   -0.9459 H   0  0  0  0  0  0  0  0  0  0  0  0
  1  3  1  0  0  0  0
  1  7  1  0  0  0  0
  1  2  2  0  0  0  0
 40 41  1  0  0  0  0
 41 49  1  0  0  0  0
 41 42  2  0  0  0  0
  8  9  1  0  0  0  0
  9 17  1  0  0  0  0
  9 10  2  0  0  0  0
 18 19  1  0  0  0  0
 19 39  1  0  0  0  0
 19 20  2  0  0  0  0
 40 43  1  0  0  0  0
  8 11  1  0  0  0  0
 49 50  1  0  0  0  0
 22 23  1  0  0  0  0
 21 22  1  0  0  0  0
 23 24  1  0  0  0  0
 18 21  1  0  0  0  0
 24 25  1  0  0  0  0
 39 40  1  0  0  0  0
  7  8  1  0  0  0  0
 17 18  1  0  0  0  0
  3  4  1  0  0  0  0
  3  5  1  0  0  0  0
  3  6  1  0  0  0  0
 43 46  1  0  0  0  0
 43 47  1  0  0  0  0
 43 48  1  0  0  0  0
 11 14  1  0  0  0  0
 11 15  1  0  0  0  0
 11 16  1  0  0  0  0
 50 52  1  0  0  0  0
 50 53  1  0  0  0  0
 50 54  1  0  0  0  0
 22 30  1  0  0  0  0
 22 31  1  0  0  0  0
 23 32  1  0  0  0  0
 23 33  1  0  0  0  0
 21 28  1  0  0  0  0
 21 29  1  0  0  0  0
 24 34  1  0  0  0  0
 24 35  1  0  0  0  0
 40 45  1  0  0  0  0
  8 13  1  0  0  0  0
 18 27  1  0  0  0  0
 49 51  1  0  0  0  0
  7 12  1  0  0  0  0
 39 44  1  0  0  0  0
 17 26  1  0  0  0  0
 25 36  1  0  0  0  0
 25 37  1  0  0  0  0
 25 38  1  0  0  0  0
M  CHG  1  25   1
M  END
$$$$

  -OEChem-05262214473D

 54 53  0     1  0  0  0  0  0999 V2000
    2.6714    2.8829   -3.0005 C   0  0  0  0  0  0  0  0  0  0  0  0
    3.1741    2.4398   -1.9745 O   0  0  0  0  0  0  0  0  0  0  0  0
    3.5527    3.3077   -4.1279 C   0  0  0  0  0  0  0  0  0  0  0  0
    3.8407    4.3691   -4.0597 H   0  0  0  0  0  0  0  0  0  0  0  0
    4.5024    2.7495   -4.1526 H   0  0  0  0  0  0  0  0  0  0  0  0
    3.1208    3.1887   -5.1345 H   0  0  0  0  0  0  0  0  0  0  0  0
    1.3174    3.0407   -3.2467 N   0  0  0  0  0  0  0  0  0  0  0  0
    0.2944    2.6927   -2.2960 C   0  0  2  0  0  0  0  0  0  0  0  0
    0.2976    1.1783   -2.1349 C   0  0  0  0  0  0  0  0  0  0  0  0
    0.7500    0.4142   -2.9850 O   0  0  0  0  0  0  0  0  0  0  0  0
   -1.0710    3.1886   -2.7460 C   0  0  0  0  0  0  0  0  0  0  0  0
    1.0312    3.4224   -4.1464 H   0  0  0  0  0  0  0  0  0  0  0  0
    0.5725    3.1622   -1.3461 H   0  0  0  0  0  0  0  0  0  0  0  0
   -1.3666    2.7292   -3.6963 H   0  0  0  0  0  0  0  0  0  0  0  0
   -1.8434    2.9482   -2.0082 H   0  0  0  0  0  0  0  0  0  0  0  0
   -1.0632    4.2744   -2.8901 H   0  0  0  0  0  0  0  0  0  0  0  0
   -0.3037    0.7742   -0.9484 N   0  0  0  0  0  0  0  0  0  0  0  0
   -0.4352   -0.6095   -0.5718 C   0  0  2  0  0  0  0  0  0  0  0  0
    0.7287   -1.3945   -1.1679 C   0  0  0  0  0  0  0  0  0  0  0  0
    0.5842   -2.4647   -1.7555 O   0  0  0  0  0  0  0  0  0  0  0  0
   -1.8027   -1.1825   -0.9626 C   0  0  0  0  0  0  0  0  0  0  0  0
   -2.9778   -0.5927   -0.1717 C   0  0  0  0  0  0  0  0  0  0  0  0
   -4.3039   -1.2274   -0.5968 C   0  0  0  0  0  0  0  0  0  0  0  0
   -5.4695   -0.6229    0.1719 C   0  0  0  0  0  0  0  0  0  0  0  0
   -6.7322   -1.2489   -0.2887 N   0  3  0  0  0  0  0  0  0  0  0  0
   -0.6336    1.4811   -0.2948 H   0  0  0  0  0  0  0  0  0  0  0  0
   -0.3360   -0.6339    0.5201 H   0  0  0  0  0  0  0  0  0  0  0  0
   -1.9696   -1.0007   -2.0322 H   0  0  0  0  0  0  0  0  0  0  0  0
   -1.7946   -2.2709   -0.8259 H   0  0  0  0  0  0  0  0  0  0  0  0
   -2.8275   -0.7583    0.9014 H   0  0  0  0  0  0  0  0  0  0  0  0
   -3.0295    0.4909   -0.3295 H   0  0  0  0  0  0  0  0  0  0  0  0
   -4.2654   -2.3100   -0.4227 H   0  0  0  0  0  0  0  0  0  0  0  0
   -4.4529   -1.0804   -1.6738 H   0  0  0  0  0  0  0  0  0  0  0  0
   -5.3945   -0.8131    1.2467 H   0  0  0  0  0  0  0  0  0  0  0  0
   -5.5648    0.4523   -0.0064 H   0  0  0  0  0  0  0  0  0  0  0  0
   -7.5406   -0.6629   -0.0531 H   0  0  0  0  0  0  0  0  0  0  0  0
   -6.8689   -2.1661    0.1506 H   0  0  0  0  0  0  0  0  0  0  0  0
   -6.7261   -1.3840   -1.3057 H   0  0  0  0  0  0  0  0  0  0  0  0
    1.9431   -0.7458   -0.9969 N   0  0  0  0  0  0  0  0  0  0  0  0
    3.1835   -1.2917   -1.4940 C   0  0  2  0  0  0  0  0  0  0  0  0
    4.3279   -0.5087   -0.8640 C   0  0  0  0  0  0  0  0  0  0  0  0
    4.1955    0.6276   -0.4142 O   0  0  0  0  0  0  0  0  0  0  0  0
    3.2491   -1.2237   -3.0118 C   0  0  0  0  0  0  0  0  0  0  0  0
    1.9600    0.1429   -0.5055 H   0  0  0  0  0  0  0  0  0  0  0  0
    3.2264   -2.3343   -1.1604 H   0  0  0  0  0  0  0  0  0  0  0  0
    3.2075   -0.1868   -3.3647 H   0  0  0  0  0  0  0  0  0  0  0  0
    4.1780   -1.6640   -3.3889 H   0  0  0  0  0  0  0  0  0  0  0  0
    2.4087   -1.7623   -3.4628 H   0  0  0  0  0  0  0  0  0  0  0  0
    5.5241   -1.2113   -0.9021 N   0  0  0  0  0  0  0  0  0  0  0  0
    6.7593   -0.6768   -0.3780 C   0  0  0  0  0  0  0  0  0  0  0  0
    5.5374   -2.1555   -1.2765 H   0  0  0  0  0  0  0  0  0  0  0  0
    7.3088   -0.1658   -1.1823 H   0  0  0  0  0  0  0  0  0  0  0  0
    6.5365    0.0397    0.4263 H   0  0  0  0  0  0  0  0  0  0  0  0
    7.3734   -1.4973    0.0215 H   0  0  0  0  0  0  0  0  0  0  0  0
  1  3  1  0  0  0  0
  1  7  1  0  0  0  0
  1  2  2  0  0  0  0
 40 41  1  0  0  0  0
 41 49  1  0  0  0  0
 41 42  2  0  0  0  0
  8  9  1  0  0  0  0
  9 17  1  0  0  0  0
  9 10  2  0  0  0  0
 18 19  1  0  0  0  0
 19 39  1  0  0  0  0
 19 20  2  0  0  0  0
 40 43  1  0  0  0  0
  8 11  1  0  0  0  0
 49 50  1  0  0  0  0
 22 23  1  0  0  0  0
 21 22  1  0  0  0  0
 23 24  1  0  0  0  0
 18 21  1  0  0  0  0
 24 25  1  0  0  0  0
 39 40  1  0  0  0  0
  7  8  1  0  0  0  0
 17 18  1  0  0  0  0
  3  4  1  0  0  0  0
  3  5  1  0  0  0  0
  3  6  1  0  0  0  0
 43 46  1  0  0  0  0
 43 47  1  0  0  0  0
 43 48  1  0  0  0  0
 11 14  1  0  0  0  0
 11 15  1  0  0  0  0
 11 16  1  0  0  0  0
 50 52  1  0  0  0  0
 50 53  1  0  0  0  0
 50 54  1  0  0  0  0
 22 30  1  0  0  0  0
 22 31  1  0  0  0  0
 23 32  1  0  0  0  0
 23 33  1  0  0  0  0
 21 28  1  0  0  0  0
 21 29  1  0  0  0  0
 24 34  1  0  0  0  0
 24 35  1  0  0  0  0
 40 45  1  0  0  0  0
  8 13  1  0  0  0  0
 18 27  1  0  0  0  0
 49 51  1  0  0  0  0
  7 12  1  0  0  0  0
 39 44  1  0  0  0  0
 17 26  1  0  0  0  0
 25 36  1  0  0  0  0
 25 37  1  0  0  0  0
 25 38  1  0  0  0  0
M  CHG  1  25   1
M  END
$$$$

  -OEChem-05262214473D

 54 53  0     1  0  0  0  0  0999 V2000
    2.6714    2.8829   -3.0005 C   0  0  0  0  0  0  0  0  0  0  0  0
    3.1741    2.4398   -1.9745 O   0  0  0  0  0  0  0  0  0  0  0  0
    3.5527    3.3077   -4.1279 C   0  0  0  0  0  0  0  0  0  0  0  0
    3.8407    4.3691   -4.0597 H   0  0  0  0  0  0  0  0  0  0  0  0
    4.5024    2.7495   -4.1526 H   0  0  0  0  0  0  0  0  0  0  0  0
    3.1208    3.1887   -5.1345 H   0  0  0  0  0  0  0  0  0  0  0  0
    1.3174    3.0407   -3.2467 N   0  0  0  0  0  0  0  0  0  0  0  0
    0.2944    2.6927   -2.2960 C   0  0  2  0  0  0  0  0  0  0  0  0
    0.2976    1.1783   -2.1349 C   0  0  0  0  0  0  0  0  0  0  0  0
    0.7500    0.4142   -2.9850 O   0  0  0  0  0  0  0  0  0  0  0  0
   -1.0710    3.1886   -2.7460 C   0  0  0  0  0  0  0  0  0  0  0  0
    1.0312    3.4224   -4.1464 H   0  0  0  0  0  0  0  0  0  0  0  0
    0.5725    3.1622   -1.3461 H   0  0  0  0  0  0  0  0  0  0  0  0
   -1.3666    2.7292   -3.6963 H   0  0  0  0  0  0  0  0  0  0  0  0
   -1.8434    2.9482   -2.0082 H   0  0  0  0  0  0  0  0  0  0  0  0
   -1.0632    4.2744   -2.8901 H   0  0  0  0  0  0  0  0  0  0  0  0
   -0.3037    0.7742   -0.9484 N   0  0  0  0  0  0  0  0  0  0  0  0
   -0.4352   -0.6095   -0.5718 C   0  0  2  0  0  0  0  0  0  0  0  0
    0.7287   -1.3945   -1.1679 C   0  0  0  0  0  0  0  0  0  0  0  0
    0.5766   -2.3093   -1.9751 O   0  0  0  0  0  0  0  0  0  0  0  0
   -1.8027   -1.1825   -0.9626 C   0  0  0  0  0  0  0  0  0  0  0  0
   -2.9778   -0.5927   -0.1717 C   0  0  0  0  0  0  0  0  0  0  0  0
   -4.3039   -1.2274   -0.5968 C   0  0  0  0  0  0  0  0  0  0  0  0
   -5.4695   -0.6229    0.1719 C   0  0  0  0  0  0  0  0  0  0  0  0
   -6.7322   -1.2489   -0.2887 N   0  3  0  0  0  0  0  0  0  0  0  0
   -0.6336    1.4811   -0.2948 H   0  0  0  0  0  0  0  0  0  0  0  0
   -0.3360   -0.6339    0.5201 H   0  0  0  0  0  0  0  0  0  0  0  0
   -1.9696   -1.0007   -2.0322 H   0  0  0  0  0  0  0  0  0  0  0  0
   -1.7946   -2.2709   -0.8259 H   0  0  0  0  0  0  0  0  0  0  0  0
   -2.8275   -0.7583    0.9014 H   0  0  0  0  0  0  0  0  0  0  0  0
   -3.0295    0.4909   -0.3295 H   0  0  0  0  0  0  0  0  0  0  0  0
   -4.2654   -2.3100   -0.4227 H   0  0  0  0  0  0  0  0  0  0  0  0
   -4.4529   -1.0804   -1.6738 H   0  0  0  0  0  0  0  0  0  0  0  0
   -5.3945   -0.8131    1.2467 H   0  0  0  0  0  0  0  0  0  0  0  0
   -5.5648    0.4523   -0.0064 H   0  0  0  0  0  0  0  0  0  0  0  0
   -7.5406   -0.6629   -0.0531 H   0  0  0  0  0  0  0  0  0  0  0  0
   -6.8689   -2.1661    0.1506 H   0  0  0  0  0  0  0  0  0  0  0  0
   -6.7261   -1.3840   -1.3057 H   0  0  0  0  0  0  0  0  0  0  0  0
    1.9582   -0.9338   -0.7198 N   0  0  0  0  0  0  0  0  0  0  0  0
    3.2043   -1.5133   -1.1615 C   0  0  2  0  0  0  0  0  0  0  0  0
    4.3108   -1.0011   -0.2489 C   0  0  0  0  0  0  0  0  0  0  0  0
    4.2156    0.0362    0.4038 O   0  0  0  0  0  0  0  0  0  0  0  0
    3.4926   -1.1651   -2.6135 C   0  0  0  0  0  0  0  0  0  0  0  0
    1.9824   -0.1629   -0.0589 H   0  0  0  0  0  0  0  0  0  0  0  0
    3.1073   -2.5983   -1.0453 H   0  0  0  0  0  0  0  0  0  0  0  0
    3.5932   -0.0821   -2.7495 H   0  0  0  0  0  0  0  0  0  0  0  0
    4.4237   -1.6290   -2.9554 H   0  0  0  0  0  0  0  0  0  0  0  0
    2.6815   -1.5080   -3.2649 H   0  0  0  0  0  0  0  0  0  0  0  0
    5.4339   -1.8159   -0.2822 N   0  0  0  0  0  0  0  0  0  0  0  0
    6.6232   -1.5361    0.4879 C   0  0  0  0  0  0  0  0  0  0  0  0
    5.4177   -2.6665   -0.8372 H   0  0  0  0  0  0  0  0  0  0  0  0
    7.3250   -0.9475   -0.1211 H   0  0  0  0  0  0  0  0  0  0  0  0
    6.3512   -0.9653    1.3881 H   0  0  0  0  0  0  0  0  0  0  0  0
    7.0993   -2.4825    0.7839 H   0  0  0  0  0  0  0  0  0  0  0  0
  1  3  1  0  0  0  0
  1  7  1  0  0  0  0
  1  2  2  0  0  0  0
 40 41  1  0  0  0  0
 41 49  1  0  0  0  0
 41 42  2  0  0  0  0
  8  9  1  0  0  0  0
  9 17  1  0  0  0  0
  9 10  2  0  0  0  0
 18 19  1  0  0  0  0
 19 39  1  0  0  0  0
 19 20  2  0  0  0  0
 40 43  1  0  0  0  0
  8 11  1  0  0  0  0
 49 50  1  0  0  0  0
 22 23  1  0  0  0  0
 21 22  1  0  0  0  0
 23 24  1  0  0  0  0
 18 21  1  0  0  0  0
 24 25  1  0  0  0  0
 39 40  1  0  0  0  0
  7  8  1  0  0  0  0
 17 18  1  0  0  0  0
  3  4  1  0  0  0  0
  3  5  1  0  0  0  0
  3  6  1  0  0  0  0
 43 46  1  0  0  0  0
 43 47  1  0  0  0  0
 43 48  1  0  0  0  0
 11 14  1  0  0  0  0
 11 15  1  0  0  0  0
 11 16  1  0  0  0  0
 50 52  1  0  0  0  0
 50 53  1  0  0  0  0
 50 54  1  0  0  0  0
 22 30  1  0  0  0  0
 22 31  1  0  0  0  0
 23 32  1  0  0  0  0
 23 33  1  0  0  0  0
 21 28  1  0  0  0  0
 21 29  1  0  0  0  0
 24 34  1  0  0  0  0
 24 35  1  0  0  0  0
 40 45  1  0  0  0  0
  8 13  1  0  0  0  0
 18 27  1  0  0  0  0
 49 51  1  0  0  0  0
  7 12  1  0  0  0  0
 39 44  1  0  0  0  0
 17 26  1  0  0  0  0
 25 36  1  0  0  0  0
 25 37  1  0  0  0  0
 25 38  1  0  0  0  0
M  CHG  1  25   1
M  END
$$$$

  -OEChem-05262214473D

 54 53  0     1  0  0  0  0  0999 V2000
    2.6714    2.8829   -3.0005 C   0  0  0  0  0  0  0  0  0  0  0  0
    3.1741    2.4398   -1.9745 O   0  0  0  0  0  0  0  0  0  0  0  0
    3.5527    3.3077   -4.1279 C   0  0  0  0  0  0  0  0  0  0  0  0
    3.8407    4.3691   -4.0597 H   0  0  0  0  0  0  0  0  0  0  0  0
    4.5024    2.7495   -4.1526 H   0  0  0  0  0  0  0  0  0  0  0  0
    3.1208    3.1887   -5.1345 H   0  0  0  0  0  0  0  0  0  0  0  0
    1.3174    3.0407   -3.2467 N   0  0  0  0  0  0  0  0  0  0  0  0
    0.2944    2.6927   -2.2960 C   0  0  2  0  0  0  0  0  0  0  0  0
    0.2976    1.1783   -2.1349 C   0  0  0  0  0  0  0  0  0  0  0  0
    0.7500    0.4142   -2.9850 O   0  0  0  0  0  0  0  0  0  0  0  0
   -1.0710    3.1886   -2.7460 C   0  0  0  0  0  0  0  0  0  0  0  0
    1.0312    3.4224   -4.1464 H   0  0  0  0  0  0  0  0  0  0  0  0
    0.5725    3.1622   -1.3461 H   0  0  0  0  0  0  0  0  0  0  0  0
   -1.3666    2.7292   -3.6963 H   0  0  0  0  0  0  0  0  0  0  0  0
   -1.8434    2.9482   -2.0082 H   0  0  0  0  0  0  0  0  0  0  0  0
   -1.0632    4.2744   -2.8901 H   0  0  0  0  0  0  0  0  0  0  0  0
   -0.3037    0.7742   -0.9484 N   0  0  0  0  0  0  0  0  0  0  0  0
   -0.4352   -0.6095   -0.5718 C   0  0  2  0  0  0  0  0  0  0  0  0
    0.7287   -1.3945   -1.1679 C   0  0  0  0  0  0  0  0  0  0  0  0
    0.6142   -2.1151   -2.1574 O   0  0  0  0  0  0  0  0  0  0  0  0
   -1.8027   -1.1825   -0.9626 C   0  0  0  0  0  0  0  0  0  0  0  0
   -2.9778   -0.5927   -0.1717 C   0  0  0  0  0  0  0  0  0  0  0  0
   -4.3039   -1.2274   -0.5968 C   0  0  0  0  0  0  0  0  0  0  0  0
   -5.4695   -0.6229    0.1719 C   0  0  0  0  0  0  0  0  0  0  0  0
   -6.7322   -1.2489   -0.2887 N   0  3  0  0  0  0  0  0  0  0  0  0
   -0.6336    1.4811   -0.2948 H   0  0  0  0  0  0  0  0  0  0  0  0
   -0.3360   -0.6339    0.5201 H   0  0  0  0  0  0  0  0  0  0  0  0
   -1.9696   -1.0007   -2.0322 H   0  0  0  0  0  0  0  0  0  0  0  0
   -1.7946   -2.2709   -0.8259 H   0  0  0  0  0  0  0  0  0  0  0  0
   -2.8275   -0.7583    0.9014 H   0  0  0  0  0  0  0  0  0  0  0  0
   -3.0295    0.4909   -0.3295 H   0  0  0  0  0  0  0  0  0  0  0  0
   -4.2654   -2.3100   -0.4227 H   0  0  0  0  0  0  0  0  0  0  0  0
   -4.4529   -1.0804   -1.6738 H   0  0  0  0  0  0  0  0  0  0  0  0
   -5.3945   -0.8131    1.2467 H   0  0  0  0  0  0  0  0  0  0  0  0
   -5.5648    0.4523   -0.0064 H   0  0  0  0  0  0  0  0  0  0  0  0
   -7.5406   -0.6629   -0.0531 H   0  0  0  0  0  0  0  0  0  0  0  0
   -6.8689   -2.1661    0.1506 H   0  0  0  0  0  0  0  0  0  0  0  0
   -6.7261   -1.3840   -1.3057 H   0  0  0  0  0  0  0  0  0  0  0  0
    1.9169   -1.1716   -0.4873 N   0  0  0  0  0  0  0  0  0  0  0  0
    3.1578   -1.7951   -0.8813 C   0  0  2  0  0  0  0  0  0  0  0  0
    4.1626   -1.5965    0.2458 C   0  0  0  0  0  0  0  0  0  0  0  0
    4.0662   -0.6987    1.0799 O   0  0  0  0  0  0  0  0  0  0  0  0
    3.6807   -1.2118   -2.1848 C   0  0  0  0  0  0  0  0  0  0  0  0
    1.9136   -0.5488    0.3150 H   0  0  0  0  0  0  0  0  0  0  0  0
    2.9502   -2.8639   -1.0022 H   0  0  0  0  0  0  0  0  0  0  0  0
    3.8943   -0.1416   -2.0831 H   0  0  0  0  0  0  0  0  0  0  0  0
    4.6069   -1.7055   -2.4971 H   0  0  0  0  0  0  0  0  0  0  0  0
    2.9444   -1.3290   -2.9873 H   0  0  0  0  0  0  0  0  0  0  0  0
    5.2029   -2.5131    0.1851 N   0  0  0  0  0  0  0  0  0  0  0  0
    6.2895   -2.5234    1.1365 C   0  0  0  0  0  0  0  0  0  0  0  0
    5.1919   -3.2348   -0.5297 H   0  0  0  0  0  0  0  0  0  0  0  0
    7.1203   -1.9138    0.7517 H   0  0  0  0  0  0  0  0  0  0  0  0
    5.9423   -2.1074    2.0938 H   0  0  0  0  0  0  0  0  0  0  0  0
    6.6333   -3.5571    1.2891 H   0  0  0  0  0  0  0  0  0  0  0  0
  1  3  1  0  0  0  0
  1  7  1  0  0  0  0
  1  2  2  0  0  0  0
 40 41  1  0  0  0  0
 41 49  1  0  0  0  0
 41 42  2  0  0  0  0
  8  9  1  0  0  0  0
  9 17  1  0  0  0  0
  9 10  2  0  0  0  0
 18 19  1  0  0  0  0
 19 39  1  0  0  0  0
 19 20  2  0  0  0  0
 40 43  1  0  0  0  0
  8 11  1  0  0  0  0
 49 50  1  0  0  0  0
 22 23  1  0  0  0  0
 21 22  1  0  0  0  0
 23 24  1  0  0  0  0
 18 21  1  0  0  0  0
 24 25  1  0  0  0  0
 39 40  1  0  0  0  0
  7  8  1  0  0  0  0
 17 18  1  0  0  0  0
  3  4  1  0  0  0  0
  3  5  1  0  0  0  0
  3  6  1  0  0  0  0
 43 46  1  0  0  0  0
 43 47  1  0  0  0  0
 43 48  1  0  0  0  0
 11 14  1  0  0  0  0
 11 15  1  0  0  0  0
 11 16  1  0  0  0  0
 50 52  1  0  0  0  0
 50 53  1  0  0  0  0
 50 54  1  0  0  0  0
 22 30  1  0  0  0  0
 22 31  1  0  0  0  0
 23 32  1  0  0  0  0
 23 33  1  0  0  0  0
 21 28  1  0  0  0  0
 21 29  1  0  0  0  0
 24 34  1  0  0  0  0
 24 35  1  0  0  0  0
 40 45  1  0  0  0  0
  8 13  1  0  0  0  0
 18 27  1  0  0  0  0
 49 51  1  0  0  0  0
  7 12  1  0  0  0  0
 39 44  1  0  0  0  0
 17 26  1  0  0  0  0
 25 36  1  0  0  0  0
 25 37  1  0  0  0  0
 25 38  1  0  0  0  0
M  CHG  1  25   1
M  END
$$$$

  -OEChem-05262214473D

 54 53  0     1  0  0  0  0  0999 V2000
    2.6714    2.8829   -3.0005 C   0  0  0  0  0  0  0  0  0  0  0  0
    3.1741    2.4398   -1.9745 O   0  0  0  0  0  0  0  0  0  0  0  0
    3.5527    3.3077   -4.1279 C   0  0  0  0  0  0  0  0  0  0  0  0
    3.8407    4.3691   -4.0597 H   0  0  0  0  0  0  0  0  0  0  0  0
    4.5024    2.7495   -4.1526 H   0  0  0  0  0  0  0  0  0  0  0  0
    3.1208    3.1887   -5.1345 H   0  0  0  0  0  0  0  0  0  0  0  0
    1.3174    3.0407   -3.2467 N   0  0  0  0  0  0  0  0  0  0  0  0
    0.2944    2.6927   -2.2960 C   0  0  2  0  0  0  0  0  0  0  0  0
    0.2976    1.1783   -2.1349 C   0  0  0  0  0  0  0  0  0  0  0  0
    0.7500    0.4142   -2.9850 O   0  0  0  0  0  0  0  0  0  0  0  0
   -1.0710    3.1886   -2.7460 C   0  0  0  0  0  0  0  0  0  0  0  0
    1.0312    3.4224   -4.1464 H   0  0  0  0  0  0  0  0  0  0  0  0
    0.5725    3.1622   -1.3461 H   0  0  0  0  0  0  0  0  0  0  0  0
   -1.3666    2.7292   -3.6963 H   0  0  0  0  0  0  0  0  0  0  0  0
   -1.8434    2.9482   -2.0082 H   0  0  0  0  0  0  0  0  0  0  0  0
   -1.0632    4.2744   -2.8901 H   0  0  0  0  0  0  0  0  0  0  0  0
   -0.3037    0.7742   -0.9484 N   0  0  0  0  0  0  0  0  0  0  0  0
   -0.4352   -0.6095   -0.5718 C   0  0  2  0  0  0  0  0  0  0  0  0
    0.7287   -1.3945   -1.1679 C   0  0  0  0  0  0  0  0  0  0  0  0
    0.6944   -1.8953   -2.2902 O   0  0  0  0  0  0  0  0  0  0  0  0
   -1.8027   -1.1825   -0.9626 C   0  0  0  0  0  0  0  0  0  0  0  0
   -2.9778   -0.5927   -0.1717 C   0  0  0  0  0  0  0  0  0  0  0  0
   -4.3039   -1.2274   -0.5968 C   0  0  0  0  0  0  0  0  0  0  0  0
   -5.4695   -0.6229    0.1719 C   0  0  0  0  0  0  0  0  0  0  0  0
   -6.7322   -1.2489   -0.2887 N   0  3  0  0  0  0  0  0  0  0  0  0
   -0.6336    1.4811   -0.2948 H   0  0  0  0  0  0  0  0  0  0  0  0
   -0.3360   -0.6339    0.5201 H   0  0  0  0  0  0  0  0  0  0  0  0
   -1.9696   -1.0007   -2.0322 H   0  0  0  0  0  0  0  0  0  0  0  0
   -1.7946   -2.2709   -0.8259 H   0  0  0  0  0  0  0  0  0  0  0  0
   -2.8275   -0.7583    0.9014 H   0  0  0  0  0  0  0  0  0  0  0  0
   -3.0295    0.4909   -0.3295 H   0  0  0  0  0  0  0  0  0  0  0  0
   -4.2654   -2.3100   -0.4227 H   0  0  0  0  0  0  0  0  0  0  0  0
   -4.4529   -1.0804   -1.6738 H   0  0  0  0  0  0  0  0  0  0  0  0
   -5.3945   -0.8131    1.2467 H   0  0  0  0  0  0  0  0  0  0  0  0
   -5.5648    0.4523   -0.0064 H   0  0  0  0  0  0  0  0  0  0  0  0
   -7.5406   -0.6629   -0.0531 H   0  0  0  0  0  0  0  0  0  0  0  0
   -6.8689   -2.1661    0.1506 H   0  0  0  0  0  0  0  0  0  0  0  0
   -6.7261   -1.3840   -1.3057 H   0  0  0  0  0  0  0  0  0  0  0  0
    1.8220   -1.4430   -0.3152 N   0  0  0  0  0  0  0  0  0  0  0  0
    3.0469   -2.1180   -0.6726 C   0  0  2  0  0  0  0  0  0  0  0  0
    3.8933   -2.2543    0.5862 C   0  0  0  0  0  0  0  0  0  0  0  0
    3.7575   -1.5270    1.5679 O   0  0  0  0  0  0  0  0  0  0  0  0
    3.8005   -1.3607   -1.7548 C   0  0  0  0  0  0  0  0  0  0  0  0
    1.7584   -0.9885    0.5909 H   0  0  0  0  0  0  0  0  0  0  0  0
    2.7658   -3.1132   -1.0339 H   0  0  0  0  0  0  0  0  0  0  0  0
    4.0905   -0.3610   -1.4111 H   0  0  0  0  0  0  0  0  0  0  0  0
    4.7149   -1.8885   -2.0450 H   0  0  0  0  0  0  0  0  0  0  0  0
    3.1795   -1.2376   -2.6487 H   0  0  0  0  0  0  0  0  0  0  0  0
    4.8471   -3.2555    0.4680 N   0  0  0  0  0  0  0  0  0  0  0  0
    5.7808   -3.5714    1.5235 C   0  0  0  0  0  0  0  0  0  0  0  0
    4.8754   -3.8216   -0.3750 H   0  0  0  0  0  0  0  0  0  0  0  0
    6.7085   -2.9989    1.3767 H   0  0  0  0  0  0  0  0  0  0  0  0
    5.3379   -3.3086    2.4955 H   0  0  0  0  0  0  0  0  0  0  0  0
    6.0072   -4.6477    1.5028 H   0  0  0  0  0  0  0  0  0  0  0  0
  1  3  1  0  0  0  0
  1  7  1  0  0  0  0
  1  2  2  0  0  0  0
 40 41  1  0  0  0  0
 41 49  1  0  0  0  0
 41 42  2  0  0  0  0
  8  9  1  0  0  0  0
  9 17  1  0  0  0  0
  9 10  2  0  0  0  0
 18 19  1  0  0  0  0
 19 39  1  0  0  0  0
 19 20  2  0  0  0  0
 40 43  1  0  0  0  0
  8 11  1  0  0  0  0
 49 50  1  0  0  0  0
 22 23  1  0  0  0  0
 21 22  1  0  0  0  0
 23 24  1  0  0  0  0
 18 21  1  0  0  0  0
 24 25  1  0  0  0  0
 39 40  1  0  0  0  0
  7  8  1  0  0  0  0
 17 18  1  0  0  0  0
  3  4  1  0  0  0  0
  3  5  1  0  0  0  0
  3  6  1  0  0  0  0
 43 46  1  0  0  0  0
 43 47  1  0  0  0  0
 43 48  1  0  0  0  0
 11 14  1  0  0  0  0
 11 15  1  0  0  0  0
 11 16  1  0  0  0  0
 50 52  1  0  0  0  0
 50 53  1  0  0  0  0
 50 54  1  0  0  0  0
 22 30  1  0  0  0  0
 22 31  1  0  0  0  0
 23 32  1  0  0  0  0
 23 33  1  0  0  0  0
 21 28  1  0  0  0  0
 21 29  1  0  0  0  0
 24 34  1  0  0  0  0
 24 35  1  0  0  0  0
 40 45  1  0  0  0  0
  8 13  1  0  0  0  0
 18 27  1  0  0  0  0
 49 51  1  0  0  0  0
  7 12  1  0  0  0  0
 39 44  1  0  0  0  0
 17 26  1  0  0  0  0
 25 36  1  0  0  0  0
 25 37  1  0  0  0  0
 25 38  1  0  0  0  0
M  CHG  1  25   1
M  END
$$$$

  -OEChem-05262214473D

 54 53  0     1  0  0  0  0  0999 V2000
    2.6714    2.8829   -3.0005 C   0  0  0  0  0  0  0  0  0  0  0  0
    3.1741    2.4398   -1.9745 O   0  0  0  0  0  0  0  0  0  0  0  0
    3.5527    3.3077   -4.1279 C   0  0  0  0  0  0  0  0  0  0  0  0
    3.8407    4.3691   -4.0597 H   0  0  0  0  0  0  0  0  0  0  0  0
    4.5024    2.7495   -4.1526 H   0  0  0  0  0  0  0  0  0  0  0  0
    3.1208    3.1887   -5.1345 H   0  0  0  0  0  0  0  0  0  0  0  0
    1.3174    3.0407   -3.2467 N   0  0  0  0  0  0  0  0  0  0  0  0
    0.2944    2.6927   -2.2960 C   0  0  2  0  0  0  0  0  0  0  0  0
    0.2976    1.1783   -2.1349 C   0  0  0  0  0  0  0  0  0  0  0  0
    0.7500    0.4142   -2.9850 O   0  0  0  0  0  0  0  0  0  0  0  0
   -1.0710    3.1886   -2.7460 C   0  0  0  0  0  0  0  0  0  0  0  0
    1.0312    3.4224   -4.1464 H   0  0  0  0  0  0  0  0  0  0  0  0
    0.5725    3.1622   -1.3461 H   0  0  0  0  0  0  0  0  0  0  0  0
   -1.3666    2.7292   -3.6963 H   0  0  0  0  0  0  0  0  0  0  0  0
   -1.8434    2.9482   -2.0082 H   0  0  0  0  0  0  0  0  0  0  0  0
   -1.0632    4.2744   -2.8901 H   0  0  0  0  0  0  0  0  0  0  0  0
   -0.3037    0.7742   -0.9484 N   0  0  0  0  0  0  0  0  0  0  0  0
   -0.4352   -0.6095   -0.5718 C   0  0  2  0  0  0  0  0  0  0  0  0
    0.7287   -1.3945   -1.1679 C   0  0  0  0  0  0  0  0  0  0  0  0
    0.8118   -1.6649   -2.3644 O   0  0  0  0  0  0  0  0  0  0  0  0
   -1.8027   -1.1825   -0.9626 C   0  0  0  0  0  0  0  0  0  0  0  0
   -2.9778   -0.5927   -0.1717 C   0  0  0  0  0  0  0  0  0  0  0  0
   -4.3039   -1.2274   -0.5968 C   0  0  0  0  0  0  0  0  0  0  0  0
   -5.4695   -0.6229    0.1719 C   0  0  0  0  0  0  0  0  0  0  0  0
   -6.7322   -1.2489   -0.2887 N   0  3  0  0  0  0  0  0  0  0  0  0
   -0.6336    1.4811   -0.2948 H   0  0  0  0  0  0  0  0  0  0  0  0
   -0.3360   -0.6339    0.5201 H   0  0  0  0  0  0  0  0  0  0  0  0
   -1.9696   -1.0007   -2.0322 H   0  0  0  0  0  0  0  0  0  0  0  0
   -1.7946   -2.2709   -0.8259 H   0  0  0  0  0  0  0  0  0  0  0  0
   -2.8275   -0.7583    0.9014 H   0  0  0  0  0  0  0  0  0  0  0  0
   -3.0295    0.4909   -0.3295 H   0  0  0  0  0  0  0  0  0  0  0  0
   -4.2654   -2.3100   -0.4227 H   0  0  0  0  0  0  0  0  0  0  0  0
   -4.4529   -1.0804   -1.6738 H   0  0  0  0  0  0  0  0  0  0  0  0
   -5.3945   -0.8131    1.2467 H   0  0  0  0  0  0  0  0  0  0  0  0
   -5.5648    0.4523   -0.0064 H   0  0  0  0  0  0  0  0  0  0  0  0
   -7.5406   -0.6629   -0.0531 H   0  0  0  0  0  0  0  0  0  0  0  0
   -6.8689   -2.1661    0.1506 H   0  0  0  0  0  0  0  0  0  0  0  0
   -6.7261   -1.3840   -1.3057 H   0  0  0  0  0  0  0  0  0  0  0  0
    1.6799   -1.7296   -0.2152 N   0  0  0  0  0  0  0  0  0  0  0  0
    2.8794   -2.4598   -0.5494 C   0  0  2  0  0  0  0  0  0  0  0  0
    3.5213   -2.9297    0.7493 C   0  0  0  0  0  0  0  0  0  0  0  0
    3.3105   -2.3922    1.8345 O   0  0  0  0  0  0  0  0  0  0  0  0
    3.8439   -1.6015   -1.3530 C   0  0  0  0  0  0  0  0  0  0  0  0
    1.5272   -1.4519    0.7498 H   0  0  0  0  0  0  0  0  0  0  0  0
    2.5668   -3.3290   -1.1383 H   0  0  0  0  0  0  0  0  0  0  0  0
    4.1682   -0.7256   -0.7792 H   0  0  0  0  0  0  0  0  0  0  0  0
    4.7406   -2.1655   -1.6302 H   0  0  0  0  0  0  0  0  0  0  0  0
    3.3707   -1.2399   -2.2723 H   0  0  0  0  0  0  0  0  0  0  0  0
    4.3906   -3.9925    0.5472 N   0  0  0  0  0  0  0  0  0  0  0  0
    5.1320   -4.6087    1.6226 C   0  0  0  0  0  0  0  0  0  0  0  0
    4.4896   -4.3869   -0.3836 H   0  0  0  0  0  0  0  0  0  0  0  0
    6.1178   -4.1287    1.7112 H   0  0  0  0  0  0  0  0  0  0  0  0
    4.5791   -4.4870    2.5658 H   0  0  0  0  0  0  0  0  0  0  0  0
    5.2636   -5.6800    1.4104 H   0  0  0  0  0  0  0  0  0  0  0  0
  1  3  1  0  0  0  0
  1  7  1  0  0  0  0
  1  2  2  0  0  0  0
 40 41  1  0  0  0  0
 41 49  1  0  0  0  0
 41 42  2  0  0  0  0
  8  9  1  0  0  0  0
  9 17  1  0  0  0  0
  9 10  2  0  0  0  0
 18 19  1  0  0  0  0
 19 39  1  0  0  0  0
 19 20  2  0  0  0  0
 40 43  1  0  0  0  0
  8 11  1  0  0  0  0
 49 50  1  0  0  0  0
 22 23  1  0  0  0  0
 21 22  1  0  0  0  0
 23 24  1  0  0  0  0
 18 21  1  0  0  0  0
 24 25  1  0  0  0  0
 39 40  1  0  0  0  0
  7  8  1  0  0  0  0
 17 18  1  0  0  0  0
  3  4  1  0  0  0  0
  3  5  1  0  0  0  0
  3  6  1  0  0  0  0
 43 46  1  0  0  0  0
 43 47  1  0  0  0  0
 43 48  1  0  0  0  0
 11 14  1  0  0  0  0
 11 15  1  0  0  0  0
 11 16  1  0  0  0  0
 50 52  1  0  0  0  0
 50 53  1  0  0  0  0
 50 54  1  0  0  0  0
 22 30  1  0  0  0  0
 22 31  1  0  0  0  0
 23 32  1  0  0  0  0
 23 33  1  0  0  0  0
 21 28  1  0  0  0  0
 21 29  1  0  0  0  0
 24 34  1  0  0  0  0
 24 35  1  0  0  0  0
 40 45  1  0  0  0  0
  8 13  1  0  0  0  0
 18 27  1  0  0  0  0
 49 51  1  0  0  0  0
  7 12  1  0  0  0  0
 39 44  1  0  0  0  0
 17 26  1  0  0  0  0
 25 36  1  0  0  0  0
 25 37  1  0  0  0  0
 25 38  1  0  0  0  0
M  CHG  1  25   1
M  END
$$$$

  -OEChem-05262214473D

 54 53  0     1  0  0  0  0  0999 V2000
    2.6714    2.8829   -3.0005 C   0  0  0  0  0  0  0  0  0  0  0  0
    3.1741    2.4398   -1.9745 O   0  0  0  0  0  0  0  0  0  0  0  0
    3.5527    3.3077   -4.1279 C   0  0  0  0  0  0  0  0  0  0  0  0
    3.8407    4.3691   -4.0597 H   0  0  0  0  0  0  0  0  0  0  0  0
    4.5024    2.7495   -4.1526 H   0  0  0  0  0  0  0  0  0  0  0  0
    3.1208    3.1887   -5.1345 H   0  0  0  0  0  0  0  0  0  0  0  0
    1.3174    3.0407   -3.2467 N   0  0  0  0  0  0  0  0  0  0  0  0
    0.2944    2.6927   -2.2960 C   0  0  2  0  0  0  0  0  0  0  0  0
    0.2976    1.1783   -2.1349 C   0  0  0  0  0  0  0  0  0  0  0  0
    0.7500    0.4142   -2.9850 O   0  0  0  0  0  0  0  0  0  0  0  0
   -1.0710    3.1886   -2.7460 C   0  0  0  0  0  0  0  0  0  0  0  0
    1.0312    3.4224   -4.1464 H   0  0  0  0  0  0  0  0  0  0  0  0
    0.5725    3.1622   -1.3461 H   0  0  0  0  0  0  0  0  0  0  0  0
   -1.3666    2.7292   -3.6963 H   0  0  0  0  0  0  0  0  0  0  0  0
   -1.8434    2.9482   -2.0082 H   0  0  0  0  0  0  0  0  0  0  0  0
   -1.0632    4.2744   -2.8901 H   0  0  0  0  0  0  0  0  0  0  0  0
   -0.3037    0.7742   -0.9484 N   0  0  0  0  0  0  0  0  0  0  0  0
   -0.4352   -0.6095   -0.5718 C   0  0  2  0  0  0  0  0  0  0  0  0
    0.7287   -1.3945   -1.1679 C   0  0  0  0  0  0  0  0  0  0  0  0
    0.9585   -1.4395   -2.3748 O   0  0  0  0  0  0  0  0  0  0  0  0
   -1.8027   -1.1825   -0.9626 C   0  0  0  0  0  0  0  0  0  0  0  0
   -2.9778   -0.5927   -0.1717 C   0  0  0  0  0  0  0  0  0  0  0  0
   -4.3039   -1.2274   -0.5968 C   0  0  0  0  0  0  0  0  0  0  0  0
   -5.4695   -0.6229    0.1719 C   0  0  0  0  0  0  0  0  0  0  0  0
   -6.7322   -1.2489   -0.2887 N   0  3  0  0  0  0  0  0  0  0  0  0
   -0.6336    1.4811   -0.2948 H   0  0  0  0  0  0  0  0  0  0  0  0
   -0.3360   -0.6339    0.5201 H   0  0  0  0  0  0  0  0  0  0  0  0
   -1.9696   -1.0007   -2.0322 H   0  0  0  0  0  0  0  0  0  0  0  0
   -1.7946   -2.2709   -0.8259 H   0  0  0  0  0  0  0  0  0  0  0  0
   -2.8275   -0.7583    0.9014 H   0  0  0  0  0  0  0  0  0  0  0  0
   -3.0295    0.4909   -0.3295 H   0  0  0  0  0  0  0  0  0  0  0  0
   -4.2654   -2.3100   -0.4227 H   0  0  0  0  0  0  0  0  0  0  0  0
   -4.4529   -1.0804   -1.6738 H   0  0  0  0  0  0  0  0  0  0  0  0
   -5.3945   -0.8131    1.2467 H   0  0  0  0  0  0  0  0  0  0  0  0
   -5.5648    0.4523   -0.0064 H   0  0  0  0  0  0  0  0  0  0  0  0
   -7.5406   -0.6629   -0.0531 H   0  0  0  0  0  0  0  0  0  0  0  0
   -6.8689   -2.1661    0.1506 H   0  0  0  0  0  0  0  0  0  0  0  0
   -6.7261   -1.3840   -1.3057 H   0  0  0  0  0  0  0  0  0  0  0  0
    1.5004   -2.0118   -0.1941 N   0  0  0  0  0  0  0  0  0  0  0  0
    2.6666   -2.7974   -0.5204 C   0  0  2  0  0  0  0  0  0  0  0  0
    3.0719   -3.5766    0.7239 C   0  0  0  0  0  0  0  0  0  0  0  0
    2.7557   -3.2353    1.8617 O   0  0  0  0  0  0  0  0  0  0  0  0
    3.8079   -1.9178   -1.0066 C   0  0  0  0  0  0  0  0  0  0  0  0
    1.2358   -1.9075    0.7809 H   0  0  0  0  0  0  0  0  0  0  0  0
    2.3666   -3.4967   -1.3083 H   0  0  0  0  0  0  0  0  0  0  0  0
    4.1222   -1.2104   -0.2305 H   0  0  0  0  0  0  0  0  0  0  0  0
    4.6821   -2.5176   -1.2807 H   0  0  0  0  0  0  0  0  0  0  0  0
    3.5050   -1.3359   -1.8838 H   0  0  0  0  0  0  0  0  0  0  0  0
    3.8645   -4.6739    0.4173 N   0  0  0  0  0  0  0  0  0  0  0  0
    4.3871   -5.5646    1.4271 C   0  0  0  0  0  0  0  0  0  0  0  0
    4.0610   -4.8923   -0.5550 H   0  0  0  0  0  0  0  0  0  0  0  0
    5.3883   -5.2264    1.7324 H   0  0  0  0  0  0  0  0  0  0  0  0
    3.7175   -5.5624    2.2998 H   0  0  0  0  0  0  0  0  0  0  0  0
    4.4533   -6.5836    1.0182 H   0  0  0  0  0  0  0  0  0  0  0  0
  1  3  1  0  0  0  0
  1  7  1  0  0  0  0
  1  2  2  0  0  0  0
 40 41  1  0  0  0  0
 41 49  1  0  0  0  0
 41 42  2  0  0  0  0
  8  9  1  0  0  0  0
  9 17  1  0  0  0  0
  9 10  2  0  0  0  0
 18 19  1  0  0  0  0
 19 39  1  0  0  0  0
 19 20  2  0  0  0  0
 40 43  1  0  0  0  0
  8 11  1  0  0  0  0
 49 50  1  0  0  0  0
 22 23  1  0  0  0  0
 21 22  1  0  0  0  0
 23 24  1  0  0  0  0
 18 21  1  0  0  0  0
 24 25  1  0  0  0  0
 39 40  1  0  0  0  0
  7  8  1  0  0  0  0
 17 18  1  0  0  0  0
  3  4  1  0  0  0  0
  3  5  1  0  0  0  0
  3  6  1  0  0  0  0
 43 46  1  0  0  0  0
 43 47  1  0  0  0  0
 43 48  1  0  0  0  0
 11 14  1  0  0  0  0
 11 15  1  0  0  0  0
 11 16  1  0  0  0  0
 50 52  1  0  0  0  0
 50 53  1  0  0  0  0
 50 54  1  0  0  0  0
 22 30  1  0  0  0  0
 22 31  1  0  0  0  0
 23 32  1  0  0  0  0
 23 33  1  0  0  0  0
 21 28  1  0  0  0  0
 21 29  1  0  0  0  0
 24 34  1  0  0  0  0
 24 35  1  0  0  0  0
 40 45  1  0  0  0  0
  8 13  1  0  0  0  0
 18 27  1  0  0  0  0
 49 51  1  0  0  0  0
  7 12  1  0  0  0  0
 39 44  1  0  0  0  0
 17 26  1  0  0  0  0
 25 36  1  0  0  0  0
 25 37  1  0  0  0  0
 25 38  1  0  0  0  0
M  CHG  1  25   1
M  END
$$$$

  -OEChem-05262214473D

 54 53  0     1  0  0  0  0  0999 V2000
    2.6714    2.8829   -3.0005 C   0  0  0  0  0  0  0  0  0  0  0  0
    3.1741    2.4398   -1.9745 O   0  0  0  0  0  0  0  0  0  0  0  0
    3.5527    3.3077   -4.1279 C   0  0  0  0  0  0  0  0  0  0  0  0
    3.8407    4.3691   -4.0597 H   0  0  0  0  0  0  0  0  0  0  0  0
    4.5024    2.7495   -4.1526 H   0  0  0  0  0  0  0  0  0  0  0  0
    3.1208    3.1887   -5.1345 H   0  0  0  0  0  0  0  0  0  0  0  0
    1.3174    3.0407   -3.2467 N   0  0  0  0  0  0  0  0  0  0  0  0
    0.2944    2.6927   -2.2960 C   0  0  2  0  0  0  0  0  0  0  0  0
    0.2976    1.1783   -2.1349 C   0  0  0  0  0  0  0  0  0  0  0  0
    0.7500    0.4142   -2.9850 O   0  0  0  0  0  0  0  0  0  0  0  0
   -1.0710    3.1886   -2.7460 C   0  0  0  0  0  0  0  0  0  0  0  0
    1.0312    3.4224   -4.1464 H   0  0  0  0  0  0  0  0  0  0  0  0
    0.5725    3.1622   -1.3461 H   0  0  0  0  0  0  0  0  0  0  0  0
   -1.3666    2.7292   -3.6963 H   0  0  0  0  0  0  0  0  0  0  0  0
   -1.8434    2.9482   -2.0082 H   0  0  0  0  0  0  0  0  0  0  0  0
   -1.0632    4.2744   -2.8901 H   0  0  0  0  0  0  0  0  0  0  0  0
   -0.3037    0.7742   -0.9484 N   0  0  0  0  0  0  0  0  0  0  0  0
   -0.4352   -0.6095   -0.5718 C   0  0  2  0  0  0  0  0  0  0  0  0
    0.7287   -1.3945   -1.1679 C   0  0  0  0  0  0  0  0  0  0  0  0
    1.1243   -1.2346   -2.3209 O   0  0  0  0  0  0  0  0  0  0  0  0
   -1.8027   -1.1825   -0.9626 C   0  0  0  0  0  0  0  0  0  0  0  0
   -2.9778   -0.5927   -0.1717 C   0  0  0  0  0  0  0  0  0  0  0  0
   -4.3039   -1.2274   -0.5968 C   0  0  0  0  0  0  0  0  0  0  0  0
   -5.4695   -0.6229    0.1719 C   0  0  0  0  0  0  0  0  0  0  0  0
   -6.7322   -1.2489   -0.2887 N   0  3  0  0  0  0  0  0  0  0  0  0
   -0.6336    1.4811   -0.2948 H   0  0  0  0  0  0  0  0  0  0  0  0
   -0.3360   -0.6339    0.5201 H   0  0  0  0  0  0  0  0  0  0  0  0
   -1.9696   -1.0007   -2.0322 H   0  0  0  0  0  0  0  0  0  0  0  0
   -1.7946   -2.2709   -0.8259 H   0  0  0  0  0  0  0  0  0  0  0  0
   -2.8275   -0.7583    0.9014 H   0  0  0  0  0  0  0  0  0  0  0  0
   -3.0295    0.4909   -0.3295 H   0  0  0  0  0  0  0  0  0  0  0  0
   -4.2654   -2.3100   -0.4227 H   0  0  0  0  0  0  0  0  0  0  0  0
   -4.4529   -1.0804   -1.6738 H   0  0  0  0  0  0  0  0  0  0  0  0
   -5.3945   -0.8131    1.2467 H   0  0  0  0  0  0  0  0  0  0  0  0
   -5.5648    0.4523   -0.0064 H   0  0  0  0  0  0  0  0  0  0  0  0
   -7.5406   -0.6629   -0.0531 H   0  0  0  0  0  0  0  0  0  0  0  0
   -6.8689   -2.1661    0.1506 H   0  0  0  0  0  0  0  0  0  0  0  0
   -6.7261   -1.3840   -1.3057 H   0  0  0  0  0  0  0  0  0  0  0  0
    1.2956   -2.2704   -0.2534 N   0  0  0  0  0  0  0  0  0  0  0  0
    2.4231   -3.1077   -0.5873 C   0  0  2  0  0  0  0  0  0  0  0  0
    2.5758   -4.1510    0.5116 C   0  0  0  0  0  0  0  0  0  0  0  0
    2.1309   -3.9990    1.6474 O   0  0  0  0  0  0  0  0  0  0  0  0
    3.6950   -2.2882   -0.7393 C   0  0  0  0  0  0  0  0  0  0  0  0
    0.9042   -2.3243    0.6822 H   0  0  0  0  0  0  0  0  0  0  0  0
    2.1789   -3.6049   -1.5324 H   0  0  0  0  0  0  0  0  0  0  0  0
    3.9557   -1.7825    0.1976 H   0  0  0  0  0  0  0  0  0  0  0  0
    4.5434   -2.9208   -1.0205 H   0  0  0  0  0  0  0  0  0  0  0  0
    3.5733   -1.5188   -1.5095 H   0  0  0  0  0  0  0  0  0  0  0  0
    3.3048   -5.2531    0.0873 N   0  0  0  0  0  0  0  0  0  0  0  0
    3.5969   -6.3739    0.9501 C   0  0  0  0  0  0  0  0  0  0  0  0
    3.6187   -5.3032   -0.8775 H   0  0  0  0  0  0  0  0  0  0  0  0
    4.5698   -6.2171    1.4389 H   0  0  0  0  0  0  0  0  0  0  0  0
    2.8119   -6.4615    1.7157 H   0  0  0  0  0  0  0  0  0  0  0  0
    3.6314   -7.2970    0.3529 H   0  0  0  0  0  0  0  0  0  0  0  0
  1  3  1  0  0  0  0
  1  7  1  0  0  0  0
  1  2  2  0  0  0  0
 40 41  1  0  0  0  0
 41 49  1  0  0  0  0
 41 42  2  0  0  0  0
  8  9  1  0  0  0  0
  9 17  1  0  0  0  0
  9 10  2  0  0  0  0
 18 19  1  0  0  0  0
 19 39  1  0  0  0  0
 19 20  2  0  0  0  0
 40 43  1  0  0  0  0
  8 11  1  0  0  0  0
 49 50  1  0  0  0  0
 22 23  1  0  0  0  0
 21 22  1  0  0  0  0
 23 24  1  0  0  0  0
 18 21  1  0  0  0  0
 24 25  1  0  0  0  0
 39 40  1  0  0  0  0
  7  8  1  0  0  0  0
 17 18  1  0  0  0  0
  3  4  1  0  0  0  0
  3  5  1  0  0  0  0
  3  6  1  0  0  0  0
 43 46  1  0  0  0  0
 43 47  1  0  0  0  0
 43 48  1  0  0  0  0
 11 14  1  0  0  0  0
 11 15  1  0  0  0  0
 11 16  1  0  0  0  0
 50 52  1  0  0  0  0
 50 53  1  0  0  0  0
 50 54  1  0  0  0  0
 22 30  1  0  0  0  0
 22 31  1  0  0  0  0
 23 32  1  0  0  0  0
 23 33  1  0  0  0  0
 21 28  1  0  0  0  0
 21 29  1  0  0  0  0
 24 34  1  0  0  0  0
 24 35  1  0  0  0  0
 40 45  1  0  0  0  0
  8 13  1  0  0  0  0
 18 27  1  0  0  0  0
 49 51  1  0  0  0  0
  7 12  1  0  0  0  0
 39 44  1  0  0  0  0
 17 26  1  0  0  0  0
 25 36  1  0  0  0  0
 25 37  1  0  0  0  0
 25 38  1  0  0  0  0
M  CHG  1  25   1
M  END
$$$$

  -OEChem-05262214473D

 54 53  0     1  0  0  0  0  0999 V2000
    2.6714    2.8829   -3.0005 C   0  0  0  0  0  0  0  0  0  0  0  0
    3.1741    2.4398   -1.9745 O   0  0  0  0  0  0  0  0  0  0  0  0
    3.5527    3.3077   -4.1279 C   0  0  0  0  0  0  0  0  0  0  0  0
    3.8407    4.3691   -4.0597 H   0  0  0  0  0  0  0  0  0  0  0  0
    4.5024    2.7495   -4.1526 H   0  0  0  0  0  0  0  0  0  0  0  0
    3.1208    3.1887   -5.1345 H   0  0  0  0  0  0  0  0  0  0  0  0
    1.3174    3.0407   -3.2467 N   0  0  0  0  0  0  0  0  0  0  0  0
    0.2944    2.6927   -2.2960 C   0  0  2  0  0  0  0  0  0  0  0  0
    0.2976    1.1783   -2.1349 C   0  0  0  0  0  0  0  0  0  0  0  0
    0.7500    0.4142   -2.9850 O   0  0  0  0  0  0  0  0  0  0  0  0
   -1.0710    3.1886   -2.7460 C   0  0  0  0  0  0  0  0  0  0  0  0
    1.0312    3.4224   -4.1464 H   0  0  0  0  0  0  0  0  0  0  0  0
    0.5725    3.1622   -1.3461 H   0  0  0  0  0  0  0  0  0  0  0  0
   -1.3666    2.7292   -3.6963 H   0  0  0  0  0  0  0  0  0  0  0  0
   -1.8434    2.9482   -2.0082 H   0  0  0  0  0  0  0  0  0  0  0  0
   -1.0632    4.2744   -2.8901 H   0  0  0  0  0  0  0  0  0  0  0  0
   -0.3037    0.7742   -0.9484 N   0  0  0  0  0  0  0  0  0  0  0  0
   -0.4352   -0.6095   -0.5718 C   0  0  2  0  0  0  0  0  0  0  0  0
    0.7287   -1.3945   -1.1679 C   0  0  0  0  0  0  0  0  0  0  0  0
    1.2980   -1.0641   -2.2063 O   0  0  0  0  0  0  0  0  0  0  0  0
   -1.8027   -1.1825   -0.9626 C   0  0  0  0  0  0  0  0  0  0  0  0
   -2.9778   -0.5927   -0.1717 C   0  0  0  0  0  0  0  0  0  0  0  0
   -4.3039   -1.2274   -0.5968 C   0  0  0  0  0  0  0  0  0  0  0  0
   -5.4695   -0.6229    0.1719 C   0  0  0  0  0  0  0  0  0  0  0  0
   -6.7322   -1.2489   -0.2887 N   0  3  0  0  0  0  0  0  0  0  0  0
   -0.6336    1.4811   -0.2948 H   0  0  0  0  0  0  0  0  0  0  0  0
   -0.3360   -0.6339    0.5201 H   0  0  0  0  0  0  0  0  0  0  0  0
   -1.9696   -1.0007   -2.0322 H   0  0  0  0  0  0  0  0  0  0  0  0
   -1.7946   -2.2709   -0.8259 H   0  0  0  0  0  0  0  0  0  0  0  0
   -2.8275   -0.7583    0.9014 H   0  0  0  0  0  0  0  0  0  0  0  0
   -3.0295    0.4909   -0.3295 H   0  0  0  0  0  0  0  0  0  0  0  0
   -4.2654   -2.3100   -0.4227 H   0  0  0  0  0  0  0  0  0  0  0  0
   -4.4529   -1.0804   -1.6738 H   0  0  0  0  0  0  0  0  0  0  0  0
   -5.3945   -0.8131    1.2467 H   0  0  0  0  0  0  0  0  0  0  0  0
   -5.5648    0.4523   -0.0064 H   0  0  0  0  0  0  0  0  0  0  0  0
   -7.5406   -0.6629   -0.0531 H   0  0  0  0  0  0  0  0  0  0  0  0
   -6.8689   -2.1661    0.1506 H   0  0  0  0  0  0  0  0  0  0  0  0
   -6.7261   -1.3840   -1.3057 H   0  0  0  0  0  0  0  0  0  0  0  0
    1.0795   -2.4878   -0.3891 N   0  0  0  0  0  0  0  0  0  0  0  0
    2.1653   -3.3696   -0.7457 C   0  0  2  0  0  0  0  0  0  0  0  0
    2.0668   -4.6137    0.1271 C   0  0  0  0  0  0  0  0  0  0  0  0
    1.4787   -4.6311    1.2064 O   0  0  0  0  0  0  0  0  0  0  0  0
    3.5129   -2.6873   -0.5693 C   0  0  0  0  0  0  0  0  0  0  0  0
    0.5548   -2.6739    0.4604 H   0  0  0  0  0  0  0  0  0  0  0  0
    2.0165   -3.6462   -1.7951 H   0  0  0  0  0  0  0  0  0  0  0  0
    3.6799   -2.4027    0.4760 H   0  0  0  0  0  0  0  0  0  0  0  0
    4.3340   -3.3476   -0.8673 H   0  0  0  0  0  0  0  0  0  0  0  0
    3.5709   -1.7764   -1.1750 H   0  0  0  0  0  0  0  0  0  0  0  0
    2.7494   -5.6908   -0.4205 N   0  0  0  0  0  0  0  0  0  0  0  0
    2.8154   -6.9815    0.2243 C   0  0  0  0  0  0  0  0  0  0  0  0
    3.1928   -5.5917   -1.3290 H   0  0  0  0  0  0  0  0  0  0  0  0
    3.7181   -7.0333    0.8508 H   0  0  0  0  0  0  0  0  0  0  0  0
    1.9241   -7.1230    0.8533 H   0  0  0  0  0  0  0  0  0  0  0  0
    2.8539   -7.7716   -0.5401 H   0  0  0  0  0  0  0  0  0  0  0  0
  1  3  1  0  0  0  0
  1  7  1  0  0  0  0
  1  2  2  0  0  0  0
 40 41  1  0  0  0  0
 41 49  1  0  0  0  0
 41 42  2  0  0  0  0
  8  9  1  0  0  0  0
  9 17  1  0  0  0  0
  9 10  2  0  0  0  0
 18 19  1  0  0  0  0
 19 39  1  0  0  0  0
 19 20  2  0  0  0  0
 40 43  1  0  0  0  0
  8 11  1  0  0  0  0
 49 50  1  0  0  0  0
 22 23  1  0  0  0  0
 21 22  1  0  0  0  0
 23 24  1  0  0  0  0
 18 21  1  0  0  0  0
 24 25  1  0  0  0  0
 39 40  1  0  0  0  0
  7  8  1  0  0  0  0
 17 18  1  0  0  0  0
  3  4  1  0  0  0  0
  3  5  1  0  0  0  0
  3  6  1  0  0  0  0
 43 46  1  0  0  0  0
 43 47  1  0  0  0  0
 43 48  1  0  0  0  0
 11 14  1  0  0  0  0
 11 15  1  0  0  0  0
 11 16  1  0  0  0  0
 50 52  1  0  0  0  0
 50 53  1  0  0  0  0
 50 54  1  0  0  0  0
 22 30  1  0  0  0  0
 22 31  1  0  0  0  0
 23 32  1  0  0  0  0
 23 33  1  0  0  0  0
 21 28  1  0  0  0  0
 21 29  1  0  0  0  0
 24 34  1  0  0  0  0
 24 35  1  0  0  0  0
 40 45  1  0  0  0  0
  8 13  1  0  0  0  0
 18 27  1  0  0  0  0
 49 51  1  0  0  0  0
  7 12  1  0  0  0  0
 39 44  1  0  0  0  0
 17 26  1  0  0  0  0
 25 36  1  0  0  0  0
 25 37  1  0  0  0  0
 25 38  1  0  0  0  0
M  CHG  1  25   1
M  END
$$$$

  -OEChem-05262214473D

 54 53  0     1  0  0  0  0  0999 V2000
    2.6714    2.8829   -3.0005 C   0  0  0  0  0  0  0  0  0  0  0  0
    3.1741    2.4398   -1.9745 O   0  0  0  0  0  0  0  0  0  0  0  0
    3.5527    3.3077   -4.1279 C   0  0  0  0  0  0  0  0  0  0  0  0
    3.8407    4.3691   -4.0597 H   0  0  0  0  0  0  0  0  0  0  0  0
    4.5024    2.7495   -4.1526 H   0  0  0  0  0  0  0  0  0  0  0  0
    3.1208    3.1887   -5.1345 H   0  0  0  0  0  0  0  0  0  0  0  0
    1.3174    3.0407   -3.2467 N   0  0  0  0  0  0  0  0  0  0  0  0
    0.2944    2.6927   -2.2960 C   0  0  2  0  0  0  0  0  0  0  0  0
    0.2976    1.1783   -2.1349 C   0  0  0  0  0  0  0  0  0  0  0  0
    0.7500    0.4142   -2.9850 O   0  0  0  0  0  0  0  0  0  0  0  0
   -1.0710    3.1886   -2.7460 C   0  0  0  0  0  0  0  0  0  0  0  0
    1.0312    3.4224   -4.1464 H   0  0  0  0  0  0  0  0  0  0  0  0
    0.5725    3.1622   -1.3461 H   0  0  0  0  0  0  0  0  0  0  0  0
   -1.3666    2.7292   -3.6963 H   0  0  0  0  0  0  0  0  0  0  0  0
   -1.8434    2.9482   -2.0082 H   0  0  0  0  0  0  0  0  0  0  0  0
   -1.0632    4.2744   -2.8901 H   0  0  0  0  0  0  0  0  0  0  0  0
   -0.3037    0.7742   -0.9484 N   0  0  0  0  0  0  0  0  0  0  0  0
   -0.4352   -0.6095   -0.5718 C   0  0  2  0  0  0  0  0  0  0  0  0
    0.7287   -1.3945   -1.1679 C   0  0  0  0  0  0  0  0  0  0  0  0
    1.4678   -0.9396   -2.0387 O   0  0  0  0  0  0  0  0  0  0  0  0
   -1.8027   -1.1825   -0.9626 C   0  0  0  0  0  0  0  0  0  0  0  0
   -2.9778   -0.5927   -0.1717 C   0  0  0  0  0  0  0  0  0  0  0  0
   -4.3039   -1.2274   -0.5968 C   0  0  0  0  0  0  0  0  0  0  0  0
   -5.4695   -0.6229    0.1719 C   0  0  0  0  0  0  0  0  0  0  0  0
   -6.7322   -1.2489   -0.2887 N   0  3  0  0  0  0  0  0  0  0  0  0
   -0.6336    1.4811   -0.2948 H   0  0  0  0  0  0  0  0  0  0  0  0
   -0.3360   -0.6339    0.5201 H   0  0  0  0  0  0  0  0  0  0  0  0
   -1.9696   -1.0007   -2.0322 H   0  0  0  0  0  0  0  0  0  0  0  0
   -1.7946   -2.2709   -0.8259 H   0  0  0  0  0  0  0  0  0  0  0  0
   -2.8275   -0.7583    0.9014 H   0  0  0  0  0  0  0  0  0  0  0  0
   -3.0295    0.4909   -0.3295 H   0  0  0  0  0  0  0  0  0  0  0  0
   -4.2654   -2.3100   -0.4227 H   0  0  0  0  0  0  0  0  0  0  0  0
   -4.4529   -1.0804   -1.6738 H   0  0  0  0  0  0  0  0  0  0  0  0
   -5.3945   -0.8131    1.2467 H   0  0  0  0  0  0  0  0  0  0  0  0
   -5.5648    0.4523   -0.0064 H   0  0  0  0  0  0  0  0  0  0  0  0
   -7.5406   -0.6629   -0.0531 H   0  0  0  0  0  0  0  0  0  0  0  0
   -6.8689   -2.1661    0.1506 H   0  0  0  0  0  0  0  0  0  0  0  0
   -6.7261   -1.3840   -1.3057 H   0  0  0  0  0  0  0  0  0  0  0  0
    0.8669   -2.6491   -0.5918 N   0  0  0  0  0  0  0  0  0  0  0  0
    1.9110   -3.5652   -0.9847 C   0  0  2  0  0  0  0  0  0  0  0  0
    1.5795   -4.9333   -0.4035 C   0  0  0  0  0  0  0  0  0  0  0  0
    0.8435   -5.0886    0.5687 O   0  0  0  0  0  0  0  0  0  0  0  0
    3.2740   -3.0879   -0.5082 C   0  0  0  0  0  0  0  0  0  0  0  0
    0.2115   -2.9324    0.1305 H   0  0  0  0  0  0  0  0  0  0  0  0
    1.8904   -3.6177   -2.0787 H   0  0  0  0  0  0  0  0  0  0  0  0
    3.3137   -3.0289    0.5856 H   0  0  0  0  0  0  0  0  0  0  0  0
    4.0682   -3.7690   -0.8314 H   0  0  0  0  0  0  0  0  0  0  0  0
    3.4979   -2.0911   -0.9031 H   0  0  0  0  0  0  0  0  0  0  0  0
    2.2364   -5.9572   -1.0715 N   0  0  0  0  0  0  0  0  0  0  0  0
    2.0957   -7.3460   -0.7009 C   0  0  0  0  0  0  0  0  0  0  0  0
    2.8125   -5.7381   -1.8789 H   0  0  0  0  0  0  0  0  0  0  0  0
    2.8912   -7.6193    0.0080 H   0  0  0  0  0  0  0  0  0  0  0  0
    1.1145   -7.5018   -0.2286 H   0  0  0  0  0  0  0  0  0  0  0  0
    2.1739   -7.9750   -1.5999 H   0  0  0  0  0  0  0  0  0  0  0  0
  1  3  1  0  0  0  0
  1  7  1  0  0  0  0
  1  2  2  0  0  0  0
 40 41  1  0  0  0  0
 41 49  1  0  0  0  0
 41 42  2  0  0  0  0
  8  9  1  0  0  0  0
  9 17  1  0  0  0  0
  9 10  2  0  0  0  0
 18 19  1  0  0  0  0
 19 39  1  0  0  0  0
 19 20  2  0  0  0  0
 40 43  1  0  0  0  0
  8 11  1  0  0  0  0
 49 50  1  0  0  0  0
 22 23  1  0  0  0  0
 21 22  1  0  0  0  0
 23 24  1  0  0  0  0
 18 21  1  0  0  0  0
 24 25  1  0  0  0  0
 39 40  1  0  0  0  0
  7  8  1  0  0  0  0
 17 18  1  0  0  0  0
  3  4  1  0  0  0  0
  3  5  1  0  0  0  0
  3  6  1  0  0  0  0
 43 46  1  0  0  0  0
 43 47  1  0  0  0  0
 43 48  1  0  0  0  0
 11 14  1  0  0  0  0
 11 15  1  0  0  0  0
 11 16  1  0  0  0  0
 50 52  1  0  0  0  0
 50 53  1  0  0  0  0
 50 54  1  0  0  0  0
 22 30  1  0  0  0  0
 22 31  1  0  0  0  0
 23 32  1  0  0  0  0
 23 33  1  0  0  0  0
 21 28  1  0  0  0  0
 21 29  1  0  0  0  0
 24 34  1  0  0  0  0
 24 35  1  0  0  0  0
 40 45  1  0  0  0  0
  8 13  1  0  0  0  0
 18 27  1  0  0  0  0
 49 51  1  0  0  0  0
  7 12  1  0  0  0  0
 39 44  1  0  0  0  0
 17 26  1  0  0  0  0
 25 36  1  0  0  0  0
 25 37  1  0  0  0  0
 25 38  1  0  0  0  0
M  CHG  1  25   1
M  END
$$$$

  -OEChem-05262214473D

 54 53  0     1  0  0  0  0  0999 V2000
    2.6714    2.8829   -3.0005 C   0  0  0  0  0  0  0  0  0  0  0  0
    3.1741    2.4398   -1.9745 O   0  0  0  0  0  0  0  0  0  0  0  0
    3.5527    3.3077   -4.1279 C   0  0  0  0  0  0  0  0  0  0  0  0
    3.8407    4.3691   -4.0597 H   0  0  0  0  0  0  0  0  0  0  0  0
    4.5024    2.7495   -4.1526 H   0  0  0  0  0  0  0  0  0  0  0  0
    3.1208    3.1887   -5.1345 H   0  0  0  0  0  0  0  0  0  0  0  0
    1.3174    3.0407   -3.2467 N   0  0  0  0  0  0  0  0  0  0  0  0
    0.2944    2.6927   -2.2960 C   0  0  2  0  0  0  0  0  0  0  0  0
    0.2976    1.1783   -2.1349 C   0  0  0  0  0  0  0  0  0  0  0  0
    0.7500    0.4142   -2.9850 O   0  0  0  0  0  0  0  0  0  0  0  0
   -1.0710    3.1886   -2.7460 C   0  0  0  0  0  0  0  0  0  0  0  0
    1.0312    3.4224   -4.1464 H   0  0  0  0  0  0  0  0  0  0  0  0
    0.5725    3.1622   -1.3461 H   0  0  0  0  0  0  0  0  0  0  0  0
   -1.3666    2.7292   -3.6963 H   0  0  0  0  0  0  0  0  0  0  0  0
   -1.8434    2.9482   -2.0082 H   0  0  0  0  0  0  0  0  0  0  0  0
   -1.0632    4.2744   -2.8901 H   0  0  0  0  0  0  0  0  0  0  0  0
   -0.3037    0.7742   -0.9484 N   0  0  0  0  0  0  0  0  0  0  0  0
   -0.4352   -0.6095   -0.5718 C   0  0  2  0  0  0  0  0  0  0  0  0
    0.8888   -1.3192   -0.8352 C   0  0  0  0  0  0  0  0  0  0  0  0
    1.8832   -0.7426   -1.2714 O   0  0  0  0  0  0  0  0  0  0  0  0
   -1.6219   -1.2835   -1.2707 C   0  0  0  0  0  0  0  0  0  0  0  0
   -2.9928   -0.7664   -0.8152 C   0  0  0  0  0  0  0  0  0  0  0  0
   -4.1270   -1.4996   -1.5351 C   0  0  0  0  0  0  0  0  0  0  0  0
   -5.4841   -0.9674   -1.0992 C   0  0  0  0  0  0  0  0  0  0  0  0
   -6.5487   -1.6880   -1.8379 N   0  3  0  0  0  0  0  0  0  0  0  0
   -0.6336    1.4811   -0.2948 H   0  0  0  0  0  0  0  0  0  0  0  0
   -0.6102   -0.6103    0.5108 H   0  0  0  0  0  0  0  0  0  0  0  0
   -1.5280   -1.1302   -2.3536 H   0  0  0  0  0  0  0  0  0  0  0  0
   -1.5778   -2.3665   -1.1013 H   0  0  0  0  0  0  0  0  0  0  0  0
   -3.1046   -0.9047    0.2665 H   0  0  0  0  0  0  0  0  0  0  0  0
   -3.0735    0.3084   -1.0157 H   0  0  0  0  0  0  0  0  0  0  0  0
   -4.0632   -2.5740   -1.3221 H   0  0  0  0  0  0  0  0  0  0  0  0
   -4.0117   -1.3797   -2.6196 H   0  0  0  0  0  0  0  0  0  0  0  0
   -5.6675   -1.1356   -0.0338 H   0  0  0  0  0  0  0  0  0  0  0  0
   -5.6012    0.0956   -1.3300 H   0  0  0  0  0  0  0  0  0  0  0  0
   -7.4265   -1.1571   -1.8291 H   0  0  0  0  0  0  0  0  0  0  0  0
   -6.7310   -2.6058   -1.4169 H   0  0  0  0  0  0  0  0  0  0  0  0
   -6.2804   -1.8376   -2.8168 H   0  0  0  0  0  0  0  0  0  0  0  0
    0.8417   -2.6636   -0.4958 N   0  0  0  0  0  0  0  0  0  0  0  0
    1.9834   -3.5346   -0.6428 C   0  0  2  0  0  0  0  0  0  0  0  0
    1.5012   -4.9714   -0.4926 C   0  0  0  0  0  0  0  0  0  0  0  0
    0.4636   -5.2730    0.0935 O   0  0  0  0  0  0  0  0  0  0  0  0
    3.0603   -3.2128    0.3816 C   0  0  0  0  0  0  0  0  0  0  0  0
   -0.0252   -3.0479   -0.1318 H   0  0  0  0  0  0  0  0  0  0  0  0
    2.3690   -3.3823   -1.6567 H   0  0  0  0  0  0  0  0  0  0  0  0
    2.6924   -3.3597    1.4037 H   0  0  0  0  0  0  0  0  0  0  0  0
    3.9372   -3.8553    0.2506 H   0  0  0  0  0  0  0  0  0  0  0  0
    3.3847   -2.1705    0.2917 H   0  0  0  0  0  0  0  0  0  0  0  0
    2.3877   -5.8807   -1.0526 N   0  0  0  0  0  0  0  0  0  0  0  0
    2.1610   -7.3068   -1.0281 C   0  0  0  0  0  0  0  0  0  0  0  0
    3.2141   -5.5403   -1.5353 H   0  0  0  0  0  0  0  0  0  0  0  0
    2.6469   -7.7407   -0.1417 H   0  0  0  0  0  0  0  0  0  0  0  0
    1.0798   -7.5055   -0.9875 H   0  0  0  0  0  0  0  0  0  0  0  0
    2.5833   -7.7608   -1.9367 H   0  0  0  0  0  0  0  0  0  0  0  0
  1  3  1  0  0  0  0
  1  7  1  0  0  0  0
  1  2  2  0  0  0  0
 40 41  1  0  0  0  0
 41 49  1  0  0  0  0
 41 42  2  0  0  0  0
  8  9  1  0  0  0  0
  9 17  1  0  0  0  0
  9 10  2  0  0  0  0
 18 19  1  0  0  0  0
 19 39  1  0  0  0  0
 19 20  2  0  0  0  0
 40 43  1  0  0  0  0
  8 11  1  0  0  0  0
 49 50  1  0  0  0  0
 22 23  1  0  0  0  0
 21 22  1  0  0  0  0
 23 24  1  0  0  0  0
 18 21  1  0  0  0  0
 24 25  1  0  0  0  0
 39 40  1  0  0  0  0
  7  8  1  0  0  0  0
 17 18  1  0  0  0  0
  3  4  1  0  0  0  0
  3  5  1  0  0  0  0
  3  6  1  0  0  0  0
 43 46  1  0  0  0  0
 43 47  1  0  0  0  0
 43 48  1  0  0  0  0
 11 14  1  0  0  0  0
 11 15  1  0  0  0  0
 11 16  1  0  0  0  0
 50 52  1  0  0  0  0
 50 53  1  0  0  0  0
 50 54  1  0  0  0  0
 22 30  1  0  0  0  0
 22 31  1  0  0  0  0
 23 32  1  0  0  0  0
 23 33  1  0  0  0  0
 21 28  1  0  0  0  0
 21 29  1  0  0  0  0
 24 34  1  0  0  0  0
 24 35  1  0  0  0  0
 40 45  1  0  0  0  0
  8 13  1  0  0  0  0
 18 27  1  0  0  0  0
 49 51  1  0  0  0  0
  7 12  1  0  0  0  0
 39 44  1  0  0  0  0
 17 26  1  0  0  0  0
 25 36  1  0  0  0  0
 25 37  1  0  0  0  0
 25 38  1  0  0  0  0
M  CHG  1  25   1
M  END
$$$$

  -OEChem-05262214473D

 54 53  0     1  0  0  0  0  0999 V2000
    2.6714    2.8829   -3.0005 C   0  0  0  0  0  0  0  0  0  0  0  0
    3.1741    2.4398   -1.9745 O   0  0  0  0  0  0  0  0  0  0  0  0
    3.5527    3.3077   -4.1279 C   0  0  0  0  0  0  0  0  0  0  0  0
    3.8407    4.3691   -4.0597 H   0  0  0  0  0  0  0  0  0  0  0  0
    4.5024    2.7495   -4.1526 H   0  0  0  0  0  0  0  0  0  0  0  0
    3.1208    3.1887   -5.1345 H   0  0  0  0  0  0  0  0  0  0  0  0
    1.3174    3.0407   -3.2467 N   0  0  0  0  0  0  0  0  0  0  0  0
    0.2944    2.6927   -2.2960 C   0  0  2  0  0  0  0  0  0  0  0  0
    0.2976    1.1783   -2.1349 C   0  0  0  0  0  0  0  0  0  0  0  0
    0.7500    0.4142   -2.9850 O   0  0  0  0  0  0  0  0  0  0  0  0
   -1.0710    3.1886   -2.7460 C   0  0  0  0  0  0  0  0  0  0  0  0
    1.0312    3.4224   -4.1464 H   0  0  0  0  0  0  0  0  0  0  0  0
    0.5725    3.1622   -1.3461 H   0  0  0  0  0  0  0  0  0  0  0  0
   -1.3666    2.7292   -3.6963 H   0  0  0  0  0  0  0  0  0  0  0  0
   -1.8434    2.9482   -2.0082 H   0  0  0  0  0  0  0  0  0  0  0  0
   -1.0632    4.2744   -2.8901 H   0  0  0  0  0  0  0  0  0  0  0  0
   -0.3037    0.7742   -0.9484 N   0  0  0  0  0  0  0  0  0  0  0  0
   -0.4352   -0.6095   -0.5718 C   0  0  2  0  0  0  0  0  0  0  0  0
    0.8888   -1.3192   -0.8352 C   0  0  0  0  0  0  0  0  0  0  0  0
    1.9474   -0.7193   -1.0112 O   0  0  0  0  0  0  0  0  0  0  0  0
   -1.6219   -1.2835   -1.2707 C   0  0  0  0  0  0  0  0  0  0  0  0
   -2.9928   -0.7664   -0.8152 C   0  0  0  0  0  0  0  0  0  0  0  0
   -4.1270   -1.4996   -1.5351 C   0  0  0  0  0  0  0  0  0  0  0  0
   -5.4841   -0.9674   -1.0992 C   0  0  0  0  0  0  0  0  0  0  0  0
   -6.5487   -1.6880   -1.8379 N   0  3  0  0  0  0  0  0  0  0  0  0
   -0.6336    1.4811   -0.2948 H   0  0  0  0  0  0  0  0  0  0  0  0
   -0.6102   -0.6103    0.5108 H   0  0  0  0  0  0  0  0  0  0  0  0
   -1.5280   -1.1302   -2.3536 H   0  0  0  0  0  0  0  0  0  0  0  0
   -1.5778   -2.3665   -1.1013 H   0  0  0  0  0  0  0  0  0  0  0  0
   -3.1046   -0.9047    0.2665 H   0  0  0  0  0  0  0  0  0  0  0  0
   -3.0735    0.3084   -1.0157 H   0  0  0  0  0  0  0  0  0  0  0  0
   -4.0632   -2.5740   -1.3221 H   0  0  0  0  0  0  0  0  0  0  0  0
   -4.0117   -1.3797   -2.6196 H   0  0  0  0  0  0  0  0  0  0  0  0
   -5.6675   -1.1356   -0.0338 H   0  0  0  0  0  0  0  0  0  0  0  0
   -5.6012    0.0956   -1.3300 H   0  0  0  0  0  0  0  0  0  0  0  0
   -7.4265   -1.1571   -1.8291 H   0  0  0  0  0  0  0  0  0  0  0  0
   -6.7310   -2.6058   -1.4169 H   0  0  0  0  0  0  0  0  0  0  0  0
   -6.2804   -1.8376   -2.8168 H   0  0  0  0  0  0  0  0  0  0  0  0
    0.7579   -2.7003   -0.8183 N   0  0  0  0  0  0  0  0  0  0  0  0
    1.8815   -3.5822   -1.0268 C   0  0  2  0  0  0  0  0  0  0  0  0
    1.3401   -4.9858   -1.2639 C   0  0  0  0  0  0  0  0  0  0  0  0
    0.2283   -5.3487   -0.8854 O   0  0  0  0  0  0  0  0  0  0  0  0
    2.8307   -3.5593    0.1612 C   0  0  0  0  0  0  0  0  0  0  0  0
   -0.1593   -3.1044   -0.6536 H   0  0  0  0  0  0  0  0  0  0  0  0
    2.3959   -3.2314   -1.9281 H   0  0  0  0  0  0  0  0  0  0  0  0
    2.3331   -3.9075    1.0736 H   0  0  0  0  0  0  0  0  0  0  0  0
    3.6969   -4.2068   -0.0106 H   0  0  0  0  0  0  0  0  0  0  0  0
    3.1959   -2.5438    0.3487 H   0  0  0  0  0  0  0  0  0  0  0  0
    2.2613   -5.7983   -1.9099 N   0  0  0  0  0  0  0  0  0  0  0  0
    1.9893   -7.1786   -2.2368 C   0  0  0  0  0  0  0  0  0  0  0  0
    3.1519   -5.4082   -2.2040 H   0  0  0  0  0  0  0  0  0  0  0  0
    2.3464   -7.8260   -1.4223 H   0  0  0  0  0  0  0  0  0  0  0  0
    0.9060   -7.3177   -2.3674 H   0  0  0  0  0  0  0  0  0  0  0  0
    2.5082   -7.4434   -3.1699 H   0  0  0  0  0  0  0  0  0  0  0  0
  1  3  1  0  0  0  0
  1  7  1  0  0  0  0
  1  2  2  0  0  0  0
 40 41  1  0  0  0  0
 41 49  1  0  0  0  0
 41 42  2  0  0  0  0
  8  9  1  0  0  0  0
  9 17  1  0  0  0  0
  9 10  2  0  0  0  0
 18 19  1  0  0  0  0
 19 39  1  0  0  0  0
 19 20  2  0  0  0  0
 40 43  1  0  0  0  0
  8 11  1  0  0  0  0
 49 50  1  0  0  0  0
 22 23  1  0  0  0  0
 21 22  1  0  0  0  0
 23 24  1  0  0  0  0
 18 21  1  0  0  0  0
 24 25  1  0  0  0  0
 39 40  1  0  0  0  0
  7  8  1  0  0  0  0
 17 18  1  0  0  0  0
  3  4  1  0  0  0  0
  3  5  1  0  0  0  0
  3  6  1  0  0  0  0
 43 46  1  0  0  0  0
 43 47  1  0  0  0  0
 43 48  1  0  0  0  0
 11 14  1  0  0  0  0
 11 15  1  0  0  0  0
 11 16  1  0  0  0  0
 50 52  1  0  0  0  0
 50 53  1  0  0  0  0
 50 54  1  0  0  0  0
 22 30  1  0  0  0  0
 22 31  1  0  0  0  0
 23 32  1  0  0  0  0
 23 33  1  0  0  0  0
 21 28  1  0  0  0  0
 21 29  1  0  0  0  0
 24 34  1  0  0  0  0
 24 35  1  0  0  0  0
 40 45  1  0  0  0  0
  8 13  1  0  0  0  0
 18 27  1  0  0  0  0
 49 51  1  0  0  0  0
  7 12  1  0  0  0  0
 39 44  1  0  0  0  0
 17 26  1  0  0  0  0
 25 36  1  0  0  0  0
 25 37  1  0  0  0  0
 25 38  1  0  0  0  0
M  CHG  1  25   1
M  END
$$$$

  -OEChem-05262214473D

 54 53  0     1  0  0  0  0  0999 V2000
    2.6714    2.8829   -3.0005 C   0  0  0  0  0  0  0  0  0  0  0  0
    3.1741    2.4398   -1.9745 O   0  0  0  0  0  0  0  0  0  0  0  0
    3.5527    3.3077   -4.1279 C   0  0  0  0  0  0  0  0  0  0  0  0
    3.8407    4.3691   -4.0597 H   0  0  0  0  0  0  0  0  0  0  0  0
    4.5024    2.7495   -4.1526 H   0  0  0  0  0  0  0  0  0  0  0  0
    3.1208    3.1887   -5.1345 H   0  0  0  0  0  0  0  0  0  0  0  0
    1.3174    3.0407   -3.2467 N   0  0  0  0  0  0  0  0  0  0  0  0
    0.2944    2.6927   -2.2960 C   0  0  2  0  0  0  0  0  0  0  0  0
    0.2976    1.1783   -2.1349 C   0  0  0  0  0  0  0  0  0  0  0  0
    0.7500    0.4142   -2.9850 O   0  0  0  0  0  0  0  0  0  0  0  0
   -1.0710    3.1886   -2.7460 C   0  0  0  0  0  0  0  0  0  0  0  0
    1.0312    3.4224   -4.1464 H   0  0  0  0  0  0  0  0  0  0  0  0
    0.5725    3.1622   -1.3461 H   0  0  0  0  0  0  0  0  0  0  0  0
   -1.3666    2.7292   -3.6963 H   0  0  0  0  0  0  0  0  0  0  0  0
   -1.8434    2.9482   -2.0082 H   0  0  0  0  0  0  0  0  0  0  0  0
   -1.0632    4.2744   -2.8901 H   0  0  0  0  0  0  0  0  0  0  0  0
   -0.3037    0.7742   -0.9484 N   0  0  0  0  0  0  0  0  0  0  0  0
   -0.4352   -0.6095   -0.5718 C   0  0  2  0  0  0  0  0  0  0  0  0
    0.8888   -1.3192   -0.8352 C   0  0  0  0  0  0  0  0  0  0  0  0
    1.9792   -0.7581   -0.7469 O   0  0  0  0  0  0  0  0  0  0  0  0
   -1.6219   -1.2835   -1.2707 C   0  0  0  0  0  0  0  0  0  0  0  0
   -2.9928   -0.7664   -0.8152 C   0  0  0  0  0  0  0  0  0  0  0  0
   -4.1270   -1.4996   -1.5351 C   0  0  0  0  0  0  0  0  0  0  0  0
   -5.4841   -0.9674   -1.0992 C   0  0  0  0  0  0  0  0  0  0  0  0
   -6.5487   -1.6880   -1.8379 N   0  3  0  0  0  0  0  0  0  0  0  0
   -0.6336    1.4811   -0.2948 H   0  0  0  0  0  0  0  0  0  0  0  0
   -0.6102   -0.6103    0.5108 H   0  0  0  0  0  0  0  0  0  0  0  0
   -1.5280   -1.1302   -2.3536 H   0  0  0  0  0  0  0  0  0  0  0  0
   -1.5778   -2.3665   -1.1013 H   0  0  0  0  0  0  0  0  0  0  0  0
   -3.1046   -0.9047    0.2665 H   0  0  0  0  0  0  0  0  0  0  0  0
   -3.0735    0.3084   -1.0157 H   0  0  0  0  0  0  0  0  0  0  0  0
   -4.0632   -2.5740   -1.3221 H   0  0  0  0  0  0  0  0  0  0  0  0
   -4.0117   -1.3797   -2.6196 H   0  0  0  0  0  0  0  0  0  0  0  0
   -5.6675   -1.1356   -0.0338 H   0  0  0  0  0  0  0  0  0  0  0  0
   -5.6012    0.0956   -1.3300 H   0  0  0  0  0  0  0  0  0  0  0  0
   -7.4265   -1.1571   -1.8291 H   0  0  0  0  0  0  0  0  0  0  0  0
   -6.7310   -2.6058   -1.4169 H   0  0  0  0  0  0  0  0  0  0  0  0
   -6.2804   -1.8376   -2.8168 H   0  0  0  0  0  0  0  0  0  0  0  0
    0.7141   -2.6596   -1.1480 N   0  0  0  0  0  0  0  0  0  0  0  0
    1.8272   -3.5373   -1.4206 C   0  0  2  0  0  0  0  0  0  0  0  0
    1.2767   -4.8191   -2.0316 C   0  0  0  0  0  0  0  0  0  0  0  0
    0.1155   -5.1914   -1.8764 O   0  0  0  0  0  0  0  0  0  0  0  0
    2.6200   -3.8342   -0.1573 C   0  0  0  0  0  0  0  0  0  0  0  0
   -0.2285   -3.0358   -1.1865 H   0  0  0  0  0  0  0  0  0  0  0  0
    2.4613   -3.0259   -2.1531 H   0  0  0  0  0  0  0  0  0  0  0  0
    2.0012   -4.3465    0.5884 H   0  0  0  0  0  0  0  0  0  0  0  0
    3.4805   -4.4769   -0.3707 H   0  0  0  0  0  0  0  0  0  0  0  0
    2.9901   -2.9087    0.2971 H   0  0  0  0  0  0  0  0  0  0  0  0
    2.2462   -5.5204   -2.7348 N   0  0  0  0  0  0  0  0  0  0  0  0
    1.9748   -6.7754   -3.3961 C   0  0  0  0  0  0  0  0  0  0  0  0
    3.1782   -5.1275   -2.8277 H   0  0  0  0  0  0  0  0  0  0  0  0
    2.2066   -7.6072   -2.7146 H   0  0  0  0  0  0  0  0  0  0  0  0
    0.9127   -6.8185   -3.6790 H   0  0  0  0  0  0  0  0  0  0  0  0
    2.5982   -6.8564   -4.2987 H   0  0  0  0  0  0  0  0  0  0  0  0
  1  3  1  0  0  0  0
  1  7  1  0  0  0  0
  1  2  2  0  0  0  0
 40 41  1  0  0  0  0
 41 49  1  0  0  0  0
 41 42  2  0  0  0  0
  8  9  1  0  0  0  0
  9 17  1  0  0  0  0
  9 10  2  0  0  0  0
 18 19  1  0  0  0  0
 19 39  1  0  0  0  0
 19 20  2  0  0  0  0
 40 43  1  0  0  0  0
  8 11  1  0  0  0  0
 49 50  1  0  0  0  0
 22 23  1  0  0  0  0
 21 22  1  0  0  0  0
 23 24  1  0  0  0  0
 18 21  1  0  0  0  0
 24 25  1  0  0  0  0
 39 40  1  0  0  0  0
  7  8  1  0  0  0  0
 17 18  1  0  0  0  0
  3  4  1  0  0  0  0
  3  5  1  0  0  0  0
  3  6  1  0  0  0  0
 43 46  1  0  0  0  0
 43 47  1  0  0  0  0
 43 48  1  0  0  0  0
 11 14  1  0  0  0  0
 11 15  1  0  0  0  0
 11 16  1  0  0  0  0
 50 52  1  0  0  0  0
 50 53  1  0  0  0  0
 50 54  1  0  0  0  0
 22 30  1  0  0  0  0
 22 31  1  0  0  0  0
 23 32  1  0  0  0  0
 23 33  1  0  0  0  0
 21 28  1  0  0  0  0
 21 29  1  0  0  0  0
 24 34  1  0  0  0  0
 24 35  1  0  0  0  0
 40 45  1  0  0  0  0
  8 13  1  0  0  0  0
 18 27  1  0  0  0  0
 49 51  1  0  0  0  0
  7 12  1  0  0  0  0
 39 44  1  0  0  0  0
 17 26  1  0  0  0  0
 25 36  1  0  0  0  0
 25 37  1  0  0  0  0
 25 38  1  0  0  0  0
M  CHG  1  25   1
M  END
$$$$

  -OEChem-05262214473D

 54 53  0     1  0  0  0  0  0999 V2000
    2.6714    2.8829   -3.0005 C   0  0  0  0  0  0  0  0  0  0  0  0
    3.1741    2.4398   -1.9745 O   0  0  0  0  0  0  0  0  0  0  0  0
    3.5527    3.3077   -4.1279 C   0  0  0  0  0  0  0  0  0  0  0  0
    3.8407    4.3691   -4.0597 H   0  0  0  0  0  0  0  0  0  0  0  0
    4.5024    2.7495   -4.1526 H   0  0  0  0  0  0  0  0  0  0  0  0
    3.1208    3.1887   -5.1345 H   0  0  0  0  0  0  0  0  0  0  0  0
    1.3174    3.0407   -3.2467 N   0  0  0  0  0  0  0  0  0  0  0  0
    0.2944    2.6927   -2.2960 C   0  0  2  0  0  0  0  0  0  0  0  0
    0.2976    1.1783   -2.1349 C   0  0  0  0  0  0  0  0  0  0  0  0
    0.7500    0.4142   -2.9850 O   0  0  0  0  0  0  0  0  0  0  0  0
   -1.0710    3.1886   -2.7460 C   0  0  0  0  0  0  0  0  0  0  0  0
    1.0312    3.4224   -4.1464 H   0  0  0  0  0  0  0  0  0  0  0  0
    0.5725    3.1622   -1.3461 H   0  0  0  0  0  0  0  0  0  0  0  0
   -1.3666    2.7292   -3.6963 H   0  0  0  0  0  0  0  0  0  0  0  0
   -1.8434    2.9482   -2.0082 H   0  0  0  0  0  0  0  0  0  0  0  0
   -1.0632    4.2744   -2.8901 H   0  0  0  0  0  0  0  0  0  0  0  0
   -0.3037    0.7742   -0.9484 N   0  0  0  0  0  0  0  0  0  0  0  0
   -0.4352   -0.6095   -0.5718 C   0  0  2  0  0  0  0  0  0  0  0  0
    0.8888   -1.3192   -0.8352 C   0  0  0  0  0  0  0  0  0  0  0  0
    1.9763   -0.8565   -0.4964 O   0  0  0  0  0  0  0  0  0  0  0  0
   -1.6219   -1.2835   -1.2707 C   0  0  0  0  0  0  0  0  0  0  0  0
   -2.9928   -0.7664   -0.8152 C   0  0  0  0  0  0  0  0  0  0  0  0
   -4.1270   -1.4996   -1.5351 C   0  0  0  0  0  0  0  0  0  0  0  0
   -5.4841   -0.9674   -1.0992 C   0  0  0  0  0  0  0  0  0  0  0  0
   -6.5487   -1.6880   -1.8379 N   0  3  0  0  0  0  0  0  0  0  0  0
   -0.6336    1.4811   -0.2948 H   0  0  0  0  0  0  0  0  0  0  0  0
   -0.6102   -0.6103    0.5108 H   0  0  0  0  0  0  0  0  0  0  0  0
   -1.5280   -1.1302   -2.3536 H   0  0  0  0  0  0  0  0  0  0  0  0
   -1.5778   -2.3665   -1.1013 H   0  0  0  0  0  0  0  0  0  0  0  0
   -3.1046   -0.9047    0.2665 H   0  0  0  0  0  0  0  0  0  0  0  0
   -3.0735    0.3084   -1.0157 H   0  0  0  0  0  0  0  0  0  0  0  0
   -4.0632   -2.5740   -1.3221 H   0  0  0  0  0  0  0  0  0  0  0  0
   -4.0117   -1.3797   -2.6196 H   0  0  0  0  0  0  0  0  0  0  0  0
   -5.6675   -1.1356   -0.0338 H   0  0  0  0  0  0  0  0  0  0  0  0
   -5.6012    0.0956   -1.3300 H   0  0  0  0  0  0  0  0  0  0  0  0
   -7.4265   -1.1571   -1.8291 H   0  0  0  0  0  0  0  0  0  0  0  0
   -6.7310   -2.6058   -1.4169 H   0  0  0  0  0  0  0  0  0  0  0  0
   -6.2804   -1.8376   -2.8168 H   0  0  0  0  0  0  0  0  0  0  0  0
    0.7134   -2.5441   -1.4627 N   0  0  0  0  0  0  0  0  0  0  0  0
    1.8242   -3.4030   -1.7975 C   0  0  2  0  0  0  0  0  0  0  0  0
    1.3154   -4.4828   -2.7433 C   0  0  0  0  0  0  0  0  0  0  0  0
    0.1329   -4.8117   -2.8118 O   0  0  0  0  0  0  0  0  0  0  0  0
    2.4426   -4.0187   -0.5520 C   0  0  0  0  0  0  0  0  0  0  0  0
   -0.2281   -2.8467   -1.6942 H   0  0  0  0  0  0  0  0  0  0  0  0
    2.5607   -2.7798   -2.3163 H   0  0  0  0  0  0  0  0  0  0  0  0
    1.7195   -4.6467   -0.0189 H   0  0  0  0  0  0  0  0  0  0  0  0
    3.3027   -4.6472   -0.8053 H   0  0  0  0  0  0  0  0  0  0  0  0
    2.7811   -3.2405    0.1405 H   0  0  0  0  0  0  0  0  0  0  0  0
    2.3433   -5.0660   -3.4709 N   0  0  0  0  0  0  0  0  0  0  0  0
    2.1184   -6.1248   -4.4271 C   0  0  0  0  0  0  0  0  0  0  0  0
    3.2914   -4.7175   -3.3640 H   0  0  0  0  0  0  0  0  0  0  0  0
    2.2370   -7.0992   -3.9306 H   0  0  0  0  0  0  0  0  0  0  0  0
    1.0994   -6.0419   -4.8329 H   0  0  0  0  0  0  0  0  0  0  0  0
    2.8474   -6.0398   -5.2464 H   0  0  0  0  0  0  0  0  0  0  0  0
  1  3  1  0  0  0  0
  1  7  1  0  0  0  0
  1  2  2  0  0  0  0
 40 41  1  0  0  0  0
 41 49  1  0  0  0  0
 41 42  2  0  0  0  0
  8  9  1  0  0  0  0
  9 17  1  0  0  0  0
  9 10  2  0  0  0  0
 18 19  1  0  0  0  0
 19 39  1  0  0  0  0
 19 20  2  0  0  0  0
 40 43  1  0  0  0  0
  8 11  1  0  0  0  0
 49 50  1  0  0  0  0
 22 23  1  0  0  0  0
 21 22  1  0  0  0  0
 23 24  1  0  0  0  0
 18 21  1  0  0  0  0
 24 25  1  0  0  0  0
 39 40  1  0  0  0  0
  7  8  1  0  0  0  0
 17 18  1  0  0  0  0
  3  4  1  0  0  0  0
  3  5  1  0  0  0  0
  3  6  1  0  0  0  0
 43 46  1  0  0  0  0
 43 47  1  0  0  0  0
 43 48  1  0  0  0  0
 11 14  1  0  0  0  0
 11 15  1  0  0  0  0
 11 16  1  0  0  0  0
 50 52  1  0  0  0  0
 50 53  1  0  0  0  0
 50 54  1  0  0  0  0
 22 30  1  0  0  0  0
 22 31  1  0  0  0  0
 23 32  1  0  0  0  0
 23 33  1  0  0  0  0
 21 28  1  0  0  0  0
 21 29  1  0  0  0  0
 24 34  1  0  0  0  0
 24 35  1  0  0  0  0
 40 45  1  0  0  0  0
  8 13  1  0  0  0  0
 18 27  1  0  0  0  0
 49 51  1  0  0  0  0
  7 12  1  0  0  0  0
 39 44  1  0  0  0  0
 17 26  1  0  0  0  0
 25 36  1  0  0  0  0
 25 37  1  0  0  0  0
 25 38  1  0  0  0  0
M  CHG  1  25   1
M  END
$$$$

  -OEChem-05262214473D

 54 53  0     1  0  0  0  0  0999 V2000
    2.6714    2.8829   -3.0005 C   0  0  0  0  0  0  0  0  0  0  0  0
    3.1741    2.4398   -1.9745 O   0  0  0  0  0  0  0  0  0  0  0  0
    3.5527    3.3077   -4.1279 C   0  0  0  0  0  0  0  0  0  0  0  0
    3.8407    4.3691   -4.0597 H   0  0  0  0  0  0  0  0  0  0  0  0
    4.5024    2.7495   -4.1526 H   0  0  0  0  0  0  0  0  0  0  0  0
    3.1208    3.1887   -5.1345 H   0  0  0  0  0  0  0  0  0  0  0  0
    1.3174    3.0407   -3.2467 N   0  0  0  0  0  0  0  0  0  0  0  0
    0.2944    2.6927   -2.2960 C   0  0  2  0  0  0  0  0  0  0  0  0
    0.2976    1.1783   -2.1349 C   0  0  0  0  0  0  0  0  0  0  0  0
    0.7500    0.4142   -2.9850 O   0  0  0  0  0  0  0  0  0  0  0  0
   -1.0710    3.1886   -2.7460 C   0  0  0  0  0  0  0  0  0  0  0  0
    1.0312    3.4224   -4.1464 H   0  0  0  0  0  0  0  0  0  0  0  0
    0.5725    3.1622   -1.3461 H   0  0  0  0  0  0  0  0  0  0  0  0
   -1.3666    2.7292   -3.6963 H   0  0  0  0  0  0  0  0  0  0  0  0
   -1.8434    2.9482   -2.0082 H   0  0  0  0  0  0  0  0  0  0  0  0
   -1.0632    4.2744   -2.8901 H   0  0  0  0  0  0  0  0  0  0  0  0
   -0.3037    0.7742   -0.9484 N   0  0  0  0  0  0  0  0  0  0  0  0
   -0.4352   -0.6095   -0.5718 C   0  0  2  0  0  0  0  0  0  0  0  0
    0.8888   -1.3192   -0.8352 C   0  0  0  0  0  0  0  0  0  0  0  0
    1.9390   -1.0076   -0.2770 O   0  0  0  0  0  0  0  0  0  0  0  0
   -1.6219   -1.2835   -1.2707 C   0  0  0  0  0  0  0  0  0  0  0  0
   -2.9928   -0.7664   -0.8152 C   0  0  0  0  0  0  0  0  0  0  0  0
   -4.1270   -1.4996   -1.5351 C   0  0  0  0  0  0  0  0  0  0  0  0
   -5.4841   -0.9674   -1.0992 C   0  0  0  0  0  0  0  0  0  0  0  0
   -6.5487   -1.6880   -1.8379 N   0  3  0  0  0  0  0  0  0  0  0  0
   -0.6336    1.4811   -0.2948 H   0  0  0  0  0  0  0  0  0  0  0  0
   -0.6102   -0.6103    0.5108 H   0  0  0  0  0  0  0  0  0  0  0  0
   -1.5280   -1.1302   -2.3536 H   0  0  0  0  0  0  0  0  0  0  0  0
   -1.5778   -2.3665   -1.1013 H   0  0  0  0  0  0  0  0  0  0  0  0
   -3.1046   -0.9047    0.2665 H   0  0  0  0  0  0  0  0  0  0  0  0
   -3.0735    0.3084   -1.0157 H   0  0  0  0  0  0  0  0  0  0  0  0
   -4.0632   -2.5740   -1.3221 H   0  0  0  0  0  0  0  0  0  0  0  0
   -4.0117   -1.3797   -2.6196 H   0  0  0  0  0  0  0  0  0  0  0  0
   -5.6675   -1.1356   -0.0338 H   0  0  0  0  0  0  0  0  0  0  0  0
   -5.6012    0.0956   -1.3300 H   0  0  0  0  0  0  0  0  0  0  0  0
   -7.4265   -1.1571   -1.8291 H   0  0  0  0  0  0  0  0  0  0  0  0
   -6.7310   -2.6058   -1.4169 H   0  0  0  0  0  0  0  0  0  0  0  0
   -6.2804   -1.8376   -2.8168 H   0  0  0  0  0  0  0  0  0  0  0  0
    0.7557   -2.3619   -1.7408 N   0  0  0  0  0  0  0  0  0  0  0  0
    1.8727   -3.1885   -2.1317 C   0  0  2  0  0  0  0  0  0  0  0  0
    1.4535   -3.9998   -3.3505 C   0  0  0  0  0  0  0  0  0  0  0  0
    0.2794   -4.2356   -3.6279 O   0  0  0  0  0  0  0  0  0  0  0  0
    2.3105   -4.1003   -0.9961 C   0  0  0  0  0  0  0  0  0  0  0  0
   -0.1582   -2.5499   -2.1420 H   0  0  0  0  0  0  0  0  0  0  0  0
    2.6874   -2.5098   -2.4067 H   0  0  0  0  0  0  0  0  0  0  0  0
    1.5072   -4.7876   -0.7069 H   0  0  0  0  0  0  0  0  0  0  0  0
    3.1758   -4.7061   -1.2848 H   0  0  0  0  0  0  0  0  0  0  0  0
    2.5833   -3.5164   -0.1105 H   0  0  0  0  0  0  0  0  0  0  0  0
    2.5461   -4.4660   -4.0682 N   0  0  0  0  0  0  0  0  0  0  0  0
    2.4104   -5.2712   -5.2595 C   0  0  0  0  0  0  0  0  0  0  0  0
    3.4835   -4.2059   -3.7761 H   0  0  0  0  0  0  0  0  0  0  0  0
    2.4355   -6.3367   -4.9873 H   0  0  0  0  0  0  0  0  0  0  0  0
    1.4534   -5.0408   -5.7506 H   0  0  0  0  0  0  0  0  0  0  0  0
    3.2388   -5.0492   -5.9483 H   0  0  0  0  0  0  0  0  0  0  0  0
  1  3  1  0  0  0  0
  1  7  1  0  0  0  0
  1  2  2  0  0  0  0
 40 41  1  0  0  0  0
 41 49  1  0  0  0  0
 41 42  2  0  0  0  0
  8  9  1  0  0  0  0
  9 17  1  0  0  0  0
  9 10  2  0  0  0  0
 18 19  1  0  0  0  0
 19 39  1  0  0  0  0
 19 20  2  0  0  0  0
 40 43  1  0  0  0  0
  8 11  1  0  0  0  0
 49 50  1  0  0  0  0
 22 23  1  0  0  0  0
 21 22  1  0  0  0  0
 23 24  1  0  0  0  0
 18 21  1  0  0  0  0
 24 25  1  0  0  0  0
 39 40  1  0  0  0  0
  7  8  1  0  0  0  0
 17 18  1  0  0  0  0
  3  4  1  0  0  0  0
  3  5  1  0  0  0  0
  3  6  1  0  0  0  0
 43 46  1  0  0  0  0
 43 47  1  0  0  0  0
 43 48  1  0  0  0  0
 11 14  1  0  0  0  0
 11 15  1  0  0  0  0
 11 16  1  0  0  0  0
 50 52  1  0  0  0  0
 50 53  1  0  0  0  0
 50 54  1  0  0  0  0
 22 30  1  0  0  0  0
 22 31  1  0  0  0  0
 23 32  1  0  0  0  0
 23 33  1  0  0  0  0
 21 28  1  0  0  0  0
 21 29  1  0  0  0  0
 24 34  1  0  0  0  0
 24 35  1  0  0  0  0
 40 45  1  0  0  0  0
  8 13  1  0  0  0  0
 18 27  1  0  0  0  0
 49 51  1  0  0  0  0
  7 12  1  0  0  0  0
 39 44  1  0  0  0  0
 17 26  1  0  0  0  0
 25 36  1  0  0  0  0
 25 37  1  0  0  0  0
 25 38  1  0  0  0  0
M  CHG  1  25   1
M  END
$$$$

  -OEChem-05262214473D

 54 53  0     1  0  0  0  0  0999 V2000
    2.6714    2.8829   -3.0005 C   0  0  0  0  0  0  0  0  0  0  0  0
    3.1741    2.4398   -1.9745 O   0  0  0  0  0  0  0  0  0  0  0  0
    3.5527    3.3077   -4.1279 C   0  0  0  0  0  0  0  0  0  0  0  0
    3.8407    4.3691   -4.0597 H   0  0  0  0  0  0  0  0  0  0  0  0
    4.5024    2.7495   -4.1526 H   0  0  0  0  0  0  0  0  0  0  0  0
    3.1208    3.1887   -5.1345 H   0  0  0  0  0  0  0  0  0  0  0  0
    1.3174    3.0407   -3.2467 N   0  0  0  0  0  0  0  0  0  0  0  0
    0.2944    2.6927   -2.2960 C   0  0  2  0  0  0  0  0  0  0  0  0
    0.2976    1.1783   -2.1349 C   0  0  0  0  0  0  0  0  0  0  0  0
    0.7500    0.4142   -2.9850 O   0  0  0  0  0  0  0  0  0  0  0  0
   -1.0710    3.1886   -2.7460 C   0  0  0  0  0  0  0  0  0  0  0  0
    1.0312    3.4224   -4.1464 H   0  0  0  0  0  0  0  0  0  0  0  0
    0.5725    3.1622   -1.3461 H   0  0  0  0  0  0  0  0  0  0  0  0
   -1.3666    2.7292   -3.6963 H   0  0  0  0  0  0  0  0  0  0  0  0
   -1.8434    2.9482   -2.0082 H   0  0  0  0  0  0  0  0  0  0  0  0
   -1.0632    4.2744   -2.8901 H   0  0  0  0  0  0  0  0  0  0  0  0
   -0.3037    0.7742   -0.9484 N   0  0  0  0  0  0  0  0  0  0  0  0
   -0.4352   -0.6095   -0.5718 C   0  0  2  0  0  0  0  0  0  0  0  0
    0.8888   -1.3192   -0.8352 C   0  0  0  0  0  0  0  0  0  0  0  0
    1.8697   -1.2012   -0.1035 O   0  0  0  0  0  0  0  0  0  0  0  0
   -1.6219   -1.2835   -1.2707 C   0  0  0  0  0  0  0  0  0  0  0  0
   -2.9928   -0.7664   -0.8152 C   0  0  0  0  0  0  0  0  0  0  0  0
   -4.1270   -1.4996   -1.5351 C   0  0  0  0  0  0  0  0  0  0  0  0
   -5.4841   -0.9674   -1.0992 C   0  0  0  0  0  0  0  0  0  0  0  0
   -6.5487   -1.6880   -1.8379 N   0  3  0  0  0  0  0  0  0  0  0  0
   -0.6336    1.4811   -0.2948 H   0  0  0  0  0  0  0  0  0  0  0  0
   -0.6102   -0.6103    0.5108 H   0  0  0  0  0  0  0  0  0  0  0  0
   -1.5280   -1.1302   -2.3536 H   0  0  0  0  0  0  0  0  0  0  0  0
   -1.5778   -2.3665   -1.1013 H   0  0  0  0  0  0  0  0  0  0  0  0
   -3.1046   -0.9047    0.2665 H   0  0  0  0  0  0  0  0  0  0  0  0
   -3.0735    0.3084   -1.0157 H   0  0  0  0  0  0  0  0  0  0  0  0
   -4.0632   -2.5740   -1.3221 H   0  0  0  0  0  0  0  0  0  0  0  0
   -4.0117   -1.3797   -2.6196 H   0  0  0  0  0  0  0  0  0  0  0  0
   -5.6675   -1.1356   -0.0338 H   0  0  0  0  0  0  0  0  0  0  0  0
   -5.6012    0.0956   -1.3300 H   0  0  0  0  0  0  0  0  0  0  0  0
   -7.4265   -1.1571   -1.8291 H   0  0  0  0  0  0  0  0  0  0  0  0
   -6.7310   -2.6058   -1.4169 H   0  0  0  0  0  0  0  0  0  0  0  0
   -6.2804   -1.8376   -2.8168 H   0  0  0  0  0  0  0  0  0  0  0  0
    0.8383   -2.1253   -1.9633 N   0  0  0  0  0  0  0  0  0  0  0  0
    1.9694   -2.9083   -2.4005 C   0  0  2  0  0  0  0  0  0  0  0  0
    1.6816   -3.4030   -3.8119 C   0  0  0  0  0  0  0  0  0  0  0  0
    0.5449   -3.5023   -4.2691 O   0  0  0  0  0  0  0  0  0  0  0  0
    2.2328   -4.0735   -1.4594 C   0  0  0  0  0  0  0  0  0  0  0  0
   -0.0234   -2.1658   -2.4994 H   0  0  0  0  0  0  0  0  0  0  0  0
    2.8328   -2.2344   -2.4181 H   0  0  0  0  0  0  0  0  0  0  0  0
    1.3786   -4.7597   -1.4286 H   0  0  0  0  0  0  0  0  0  0  0  0
    3.1083   -4.6496   -1.7765 H   0  0  0  0  0  0  0  0  0  0  0  0
    2.4101   -3.7176   -0.4387 H   0  0  0  0  0  0  0  0  0  0  0  0
    2.8407   -3.7613   -4.4858 N   0  0  0  0  0  0  0  0  0  0  0  0
    2.8308   -4.2727   -5.8365 C   0  0  0  0  0  0  0  0  0  0  0  0
    3.7417   -3.6278   -4.0362 H   0  0  0  0  0  0  0  0  0  0  0  0
    2.7886   -5.3716   -5.8128 H   0  0  0  0  0  0  0  0  0  0  0  0
    1.9506   -3.8835   -6.3694 H   0  0  0  0  0  0  0  0  0  0  0  0
    3.7456   -3.9521   -6.3566 H   0  0  0  0  0  0  0  0  0  0  0  0
  1  3  1  0  0  0  0
  1  7  1  0  0  0  0
  1  2  2  0  0  0  0
 40 41  1  0  0  0  0
 41 49  1  0  0  0  0
 41 42  2  0  0  0  0
  8  9  1  0  0  0  0
  9 17  1  0  0  0  0
  9 10  2  0  0  0  0
 18 19  1  0  0  0  0
 19 39  1  0  0  0  0
 19 20  2  0  0  0  0
 40 43  1  0  0  0  0
  8 11  1  0  0  0  0
 49 50  1  0  0  0  0
 22 23  1  0  0  0  0
 21 22  1  0  0  0  0
 23 24  1  0  0  0  0
 18 21  1  0  0  0  0
 24 25  1  0  0  0  0
 39 40  1  0  0  0  0
  7  8  1  0  0  0  0
 17 18  1  0  0  0  0
  3  4  1  0  0  0  0
  3  5  1  0  0  0  0
  3  6  1  0  0  0  0
 43 46  1  0  0  0  0
 43 47  1  0  0  0  0
 43 48  1  0  0  0  0
 11 14  1  0  0  0  0
 11 15  1  0  0  0  0
 11 16  1  0  0  0  0
 50 52  1  0  0  0  0
 50 53  1  0  0  0  0
 50 54  1  0  0  0  0
 22 30  1  0  0  0  0
 22 31  1  0  0  0  0
 23 32  1  0  0  0  0
 23 33  1  0  0  0  0
 21 28  1  0  0  0  0
 21 29  1  0  0  0  0
 24 34  1  0  0  0  0
 24 35  1  0  0  0  0
 40 45  1  0  0  0  0
  8 13  1  0  0  0  0
 18 27  1  0  0  0  0
 49 51  1  0  0  0  0
  7 12  1  0  0  0  0
 39 44  1  0  0  0  0
 17 26  1  0  0  0  0
 25 36  1  0  0  0  0
 25 37  1  0  0  0  0
 25 38  1  0  0  0  0
M  CHG  1  25   1
M  END
$$$$

  -OEChem-05262214473D

 54 53  0     1  0  0  0  0  0999 V2000
    2.6714    2.8829   -3.0005 C   0  0  0  0  0  0  0  0  0  0  0  0
    3.1741    2.4398   -1.9745 O   0  0  0  0  0  0  0  0  0  0  0  0
    3.5527    3.3077   -4.1279 C   0  0  0  0  0  0  0  0  0  0  0  0
    3.8407    4.3691   -4.0597 H   0  0  0  0  0  0  0  0  0  0  0  0
    4.5024    2.7495   -4.1526 H   0  0  0  0  0  0  0  0  0  0  0  0
    3.1208    3.1887   -5.1345 H   0  0  0  0  0  0  0  0  0  0  0  0
    1.3174    3.0407   -3.2467 N   0  0  0  0  0  0  0  0  0  0  0  0
    0.2944    2.6927   -2.2960 C   0  0  2  0  0  0  0  0  0  0  0  0
    0.2976    1.1783   -2.1349 C   0  0  0  0  0  0  0  0  0  0  0  0
    0.7500    0.4142   -2.9850 O   0  0  0  0  0  0  0  0  0  0  0  0
   -1.0710    3.1886   -2.7460 C   0  0  0  0  0  0  0  0  0  0  0  0
    1.0312    3.4224   -4.1464 H   0  0  0  0  0  0  0  0  0  0  0  0
    0.5725    3.1622   -1.3461 H   0  0  0  0  0  0  0  0  0  0  0  0
   -1.3666    2.7292   -3.6963 H   0  0  0  0  0  0  0  0  0  0  0  0
   -1.8434    2.9482   -2.0082 H   0  0  0  0  0  0  0  0  0  0  0  0
   -1.0632    4.2744   -2.8901 H   0  0  0  0  0  0  0  0  0  0  0  0
   -0.3037    0.7742   -0.9484 N   0  0  0  0  0  0  0  0  0  0  0  0
   -0.4352   -0.6095   -0.5718 C   0  0  2  0  0  0  0  0  0  0  0  0
    0.8888   -1.3192   -0.8352 C   0  0  0  0  0  0  0  0  0  0  0  0
    1.7732   -1.4241    0.0123 O   0  0  0  0  0  0  0  0  0  0  0  0
   -1.6219   -1.2835   -1.2707 C   0  0  0  0  0  0  0  0  0  0  0  0
   -2.9928   -0.7664   -0.8152 C   0  0  0  0  0  0  0  0  0  0  0  0
   -4.1270   -1.4996   -1.5351 C   0  0  0  0  0  0  0  0  0  0  0  0
   -5.4841   -0.9674   -1.0992 C   0  0  0  0  0  0  0  0  0  0  0  0
   -6.5487   -1.6880   -1.8379 N   0  3  0  0  0  0  0  0  0  0  0  0
   -0.6336    1.4811   -0.2948 H   0  0  0  0  0  0  0  0  0  0  0  0
   -0.6102   -0.6103    0.5108 H   0  0  0  0  0  0  0  0  0  0  0  0
   -1.5280   -1.1302   -2.3536 H   0  0  0  0  0  0  0  0  0  0  0  0
   -1.5778   -2.3665   -1.1013 H   0  0  0  0  0  0  0  0  0  0  0  0
   -3.1046   -0.9047    0.2665 H   0  0  0  0  0  0  0  0  0  0  0  0
   -3.0735    0.3084   -1.0157 H   0  0  0  0  0  0  0  0  0  0  0  0
   -4.0632   -2.5740   -1.3221 H   0  0  0  0  0  0  0  0  0  0  0  0
   -4.0117   -1.3797   -2.6196 H   0  0  0  0  0  0  0  0  0  0  0  0
   -5.6675   -1.1356   -0.0338 H   0  0  0  0  0  0  0  0  0  0  0  0
   -5.6012    0.0956   -1.3300 H   0  0  0  0  0  0  0  0  0  0  0  0
   -7.4265   -1.1571   -1.8291 H   0  0  0  0  0  0  0  0  0  0  0  0
   -6.7310   -2.6058   -1.4169 H   0  0  0  0  0  0  0  0  0  0  0  0
   -6.2804   -1.8376   -2.8168 H   0  0  0  0  0  0  0  0  0  0  0  0
    0.9554   -1.8505   -2.1152 N   0  0  0  0  0  0  0  0  0  0  0  0
    2.1077   -2.5817   -2.5856 C   0  0  2  0  0  0  0  0  0  0  0  0
    1.9842   -2.7330   -4.0960 C   0  0  0  0  0  0  0  0  0  0  0  0
    0.9113   -2.6617   -4.6918 O   0  0  0  0  0  0  0  0  0  0  0  0
    2.2146   -3.9400   -1.9102 C   0  0  0  0  0  0  0  0  0  0  0  0
    0.1670   -1.7205   -2.7422 H   0  0  0  0  0  0  0  0  0  0  0  0
    2.9869   -1.9722   -2.3497 H   0  0  0  0  0  0  0  0  0  0  0  0
    1.3425   -4.5648   -2.1350 H   0  0  0  0  0  0  0  0  0  0  0  0
    3.1048   -4.4815   -2.2469 H   0  0  0  0  0  0  0  0  0  0  0  0
    2.2734   -3.8305   -0.8219 H   0  0  0  0  0  0  0  0  0  0  0  0
    3.2071   -3.0000   -4.6955 N   0  0  0  0  0  0  0  0  0  0  0  0
    3.3510   -3.1973   -6.1190 C   0  0  0  0  0  0  0  0  0  0  0  0
    4.0482   -3.0225   -4.1264 H   0  0  0  0  0  0  0  0  0  0  0  0
    3.2722   -4.2697   -6.3508 H   0  0  0  0  0  0  0  0  0  0  0  0
    2.5572   -2.6488   -6.6472 H   0  0  0  0  0  0  0  0  0  0  0  0
    4.3333   -2.8234   -6.4434 H   0  0  0  0  0  0  0  0  0  0  0  0
  1  3  1  0  0  0  0
  1  7  1  0  0  0  0
  1  2  2  0  0  0  0
 40 41  1  0  0  0  0
 41 49  1  0  0  0  0
 41 42  2  0  0  0  0
  8  9  1  0  0  0  0
  9 17  1  0  0  0  0
  9 10  2  0  0  0  0
 18 19  1  0  0  0  0
 19 39  1  0  0  0  0
 19 20  2  0  0  0  0
 40 43  1  0  0  0  0
  8 11  1  0  0  0  0
 49 50  1  0  0  0  0
 22 23  1  0  0  0  0
 21 22  1  0  0  0  0
 23 24  1  0  0  0  0
 18 21  1  0  0  0  0
 24 25  1  0  0  0  0
 39 40  1  0  0  0  0
  7  8  1  0  0  0  0
 17 18  1  0  0  0  0
  3  4  1  0  0  0  0
  3  5  1  0  0  0  0
  3  6  1  0  0  0  0
 43 46  1  0  0  0  0
 43 47  1  0  0  0  0
 43 48  1  0  0  0  0
 11 14  1  0  0  0  0
 11 15  1  0  0  0  0
 11 16  1  0  0  0  0
 50 52  1  0  0  0  0
 50 53  1  0  0  0  0
 50 54  1  0  0  0  0
 22 30  1  0  0  0  0
 22 31  1  0  0  0  0
 23 32  1  0  0  0  0
 23 33  1  0  0  0  0
 21 28  1  0  0  0  0
 21 29  1  0  0  0  0
 24 34  1  0  0  0  0
 24 35  1  0  0  0  0
 40 45  1  0  0  0  0
  8 13  1  0  0  0  0
 18 27  1  0  0  0  0
 49 51  1  0  0  0  0
  7 12  1  0  0  0  0
 39 44  1  0  0  0  0
 17 26  1  0  0  0  0
 25 36  1  0  0  0  0
 25 37  1  0  0  0  0
 25 38  1  0  0  0  0
M  CHG  1  25   1
M  END
$$$$

  -OEChem-05262214473D

 54 53  0     1  0  0  0  0  0999 V2000
    2.6714    2.8829   -3.0005 C   0  0  0  0  0  0  0  0  0  0  0  0
    3.1741    2.4398   -1.9745 O   0  0  0  0  0  0  0  0  0  0  0  0
    3.5527    3.3077   -4.1279 C   0  0  0  0  0  0  0  0  0  0  0  0
    3.8407    4.3691   -4.0597 H   0  0  0  0  0  0  0  0  0  0  0  0
    4.5024    2.7495   -4.1526 H   0  0  0  0  0  0  0  0  0  0  0  0
    3.1208    3.1887   -5.1345 H   0  0  0  0  0  0  0  0  0  0  0  0
    1.3174    3.0407   -3.2467 N   0  0  0  0  0  0  0  0  0  0  0  0
    0.2944    2.6927   -2.2960 C   0  0  2  0  0  0  0  0  0  0  0  0
    0.2976    1.1783   -2.1349 C   0  0  0  0  0  0  0  0  0  0  0  0
    0.7500    0.4142   -2.9850 O   0  0  0  0  0  0  0  0  0  0  0  0
   -1.0710    3.1886   -2.7460 C   0  0  0  0  0  0  0  0  0  0  0  0
    1.0312    3.4224   -4.1464 H   0  0  0  0  0  0  0  0  0  0  0  0
    0.5725    3.1622   -1.3461 H   0  0  0  0  0  0  0  0  0  0  0  0
   -1.3666    2.7292   -3.6963 H   0  0  0  0  0  0  0  0  0  0  0  0
   -1.8434    2.9482   -2.0082 H   0  0  0  0  0  0  0  0  0  0  0  0
   -1.0632    4.2744   -2.8901 H   0  0  0  0  0  0  0  0  0  0  0  0
   -0.3037    0.7742   -0.9484 N   0  0  0  0  0  0  0  0  0  0  0  0
   -0.4352   -0.6095   -0.5718 C   0  0  2  0  0  0  0  0  0  0  0  0
    0.8888   -1.3192   -0.8352 C   0  0  0  0  0  0  0  0  0  0  0  0
    1.6562   -1.6611    0.0624 O   0  0  0  0  0  0  0  0  0  0  0  0
   -1.6219   -1.2835   -1.2707 C   0  0  0  0  0  0  0  0  0  0  0  0
   -2.9928   -0.7664   -0.8152 C   0  0  0  0  0  0  0  0  0  0  0  0
   -4.1270   -1.4996   -1.5351 C   0  0  0  0  0  0  0  0  0  0  0  0
   -5.4841   -0.9674   -1.0992 C   0  0  0  0  0  0  0  0  0  0  0  0
   -6.5487   -1.6880   -1.8379 N   0  3  0  0  0  0  0  0  0  0  0  0
   -0.6336    1.4811   -0.2948 H   0  0  0  0  0  0  0  0  0  0  0  0
   -0.6102   -0.6103    0.5108 H   0  0  0  0  0  0  0  0  0  0  0  0
   -1.5280   -1.1302   -2.3536 H   0  0  0  0  0  0  0  0  0  0  0  0
   -1.5778   -2.3665   -1.1013 H   0  0  0  0  0  0  0  0  0  0  0  0
   -3.1046   -0.9047    0.2665 H   0  0  0  0  0  0  0  0  0  0  0  0
   -3.0735    0.3084   -1.0157 H   0  0  0  0  0  0  0  0  0  0  0  0
   -4.0632   -2.5740   -1.3221 H   0  0  0  0  0  0  0  0  0  0  0  0
   -4.0117   -1.3797   -2.6196 H   0  0  0  0  0  0  0  0  0  0  0  0
   -5.6675   -1.1356   -0.0338 H   0  0  0  0  0  0  0  0  0  0  0  0
   -5.6012    0.0956   -1.3300 H   0  0  0  0  0  0  0  0  0  0  0  0
   -7.4265   -1.1571   -1.8291 H   0  0  0  0  0  0  0  0  0  0  0  0
   -6.7310   -2.6058   -1.4169 H   0  0  0  0  0  0  0  0  0  0  0  0
   -6.2804   -1.8376   -2.8168 H   0  0  0  0  0  0  0  0  0  0  0  0
    1.0991   -1.5561   -2.1860 N   0  0  0  0  0  0  0  0  0  0  0  0
    2.2781   -2.2307   -2.6743 C   0  0  2  0  0  0  0  0  0  0  0  0
    2.3406   -2.0356   -4.1834 C   0  0  0  0  0  0  0  0  0  0  0  0
    1.3538   -1.7712   -4.8670 O   0  0  0  0  0  0  0  0  0  0  0  0
    2.2574   -3.7089   -2.3178 C   0  0  0  0  0  0  0  0  0  0  0  0
    0.4000   -1.2444   -2.8537 H   0  0  0  0  0  0  0  0  0  0  0  0
    3.1392   -1.7413   -2.2062 H   0  0  0  0  0  0  0  0  0  0  0  0
    1.4015   -4.2162   -2.7778 H   0  0  0  0  0  0  0  0  0  0  0  0
    3.1656   -4.2134   -2.6639 H   0  0  0  0  0  0  0  0  0  0  0  0
    2.1824   -3.8474   -1.2338 H   0  0  0  0  0  0  0  0  0  0  0  0
    3.6203   -2.2338   -4.6828 N   0  0  0  0  0  0  0  0  0  0  0  0
    3.9356   -2.1184   -6.0875 C   0  0  0  0  0  0  0  0  0  0  0  0
    4.3822   -2.4313   -4.0407 H   0  0  0  0  0  0  0  0  0  0  0  0
    3.8534   -3.1061   -6.5646 H   0  0  0  0  0  0  0  0  0  0  0  0
    3.2317   -1.4209   -6.5650 H   0  0  0  0  0  0  0  0  0  0  0  0
    4.9619   -1.7399   -6.2029 H   0  0  0  0  0  0  0  0  0  0  0  0
  1  3  1  0  0  0  0
  1  7  1  0  0  0  0
  1  2  2  0  0  0  0
 40 41  1  0  0  0  0
 41 49  1  0  0  0  0
 41 42  2  0  0  0  0
  8  9  1  0  0  0  0
  9 17  1  0  0  0  0
  9 10  2  0  0  0  0
 18 19  1  0  0  0  0
 19 39  1  0  0  0  0
 19 20  2  0  0  0  0
 40 43  1  0  0  0  0
  8 11  1  0  0  0  0
 49 50  1  0  0  0  0
 22 23  1  0  0  0  0
 21 22  1  0  0  0  0
 23 24  1  0  0  0  0
 18 21  1  0  0  0  0
 24 25  1  0  0  0  0
 39 40  1  0  0  0  0
  7  8  1  0  0  0  0
 17 18  1  0  0  0  0
  3  4  1  0  0  0  0
  3  5  1  0  0  0  0
  3  6  1  0  0  0  0
 43 46  1  0  0  0  0
 43 47  1  0  0  0  0
 43 48  1  0  0  0  0
 11 14  1  0  0  0  0
 11 15  1  0  0  0  0
 11 16  1  0  0  0  0
 50 52  1  0  0  0  0
 50 53  1  0  0  0  0
 50 54  1  0  0  0  0
 22 30  1  0  0  0  0
 22 31  1  0  0  0  0
 23 32  1  0  0  0  0
 23 33  1  0  0  0  0
 21 28  1  0  0  0  0
 21 29  1  0  0  0  0
 24 34  1  0  0  0  0
 24 35  1  0  0  0  0
 40 45  1  0  0  0  0
  8 13  1  0  0  0  0
 18 27  1  0  0  0  0
 49 51  1  0  0  0  0
  7 12  1  0  0  0  0
 39 44  1  0  0  0  0
 17 26  1  0  0  0  0
 25 36  1  0  0  0  0
 25 37  1  0  0  0  0
 25 38  1  0  0  0  0
M  CHG  1  25   1
M  END
$$$$

  -OEChem-05262214473D

 54 53  0     1  0  0  0  0  0999 V2000
    2.6714    2.8829   -3.0005 C   0  0  0  0  0  0  0  0  0  0  0  0
    3.1741    2.4398   -1.9745 O   0  0  0  0  0  0  0  0  0  0  0  0
    3.5527    3.3077   -4.1279 C   0  0  0  0  0  0  0  0  0  0  0  0
    3.8407    4.3691   -4.0597 H   0  0  0  0  0  0  0  0  0  0  0  0
    4.5024    2.7495   -4.1526 H   0  0  0  0  0  0  0  0  0  0  0  0
    3.1208    3.1887   -5.1345 H   0  0  0  0  0  0  0  0  0  0  0  0
    1.3174    3.0407   -3.2467 N   0  0  0  0  0  0  0  0  0  0  0  0
    0.2944    2.6927   -2.2960 C   0  0  2  0  0  0  0  0  0  0  0  0
    0.2976    1.1783   -2.1349 C   0  0  0  0  0  0  0  0  0  0  0  0
    0.7500    0.4142   -2.9850 O   0  0  0  0  0  0  0  0  0  0  0  0
   -1.0710    3.1886   -2.7460 C   0  0  0  0  0  0  0  0  0  0  0  0
    1.0312    3.4224   -4.1464 H   0  0  0  0  0  0  0  0  0  0  0  0
    0.5725    3.1622   -1.3461 H   0  0  0  0  0  0  0  0  0  0  0  0
   -1.3666    2.7292   -3.6963 H   0  0  0  0  0  0  0  0  0  0  0  0
   -1.8434    2.9482   -2.0082 H   0  0  0  0  0  0  0  0  0  0  0  0
   -1.0632    4.2744   -2.8901 H   0  0  0  0  0  0  0  0  0  0  0  0
   -0.3037    0.7742   -0.9484 N   0  0  0  0  0  0  0  0  0  0  0  0
   -0.4352   -0.6095   -0.5718 C   0  0  2  0  0  0  0  0  0  0  0  0
    0.8888   -1.3192   -0.8352 C   0  0  0  0  0  0  0  0  0  0  0  0
    1.5265   -1.8961    0.0435 O   0  0  0  0  0  0  0  0  0  0  0  0
   -1.6219   -1.2835   -1.2707 C   0  0  0  0  0  0  0  0  0  0  0  0
   -2.9928   -0.7664   -0.8152 C   0  0  0  0  0  0  0  0  0  0  0  0
   -4.1270   -1.4996   -1.5351 C   0  0  0  0  0  0  0  0  0  0  0  0
   -5.4841   -0.9674   -1.0992 C   0  0  0  0  0  0  0  0  0  0  0  0
   -6.5487   -1.6880   -1.8379 N   0  3  0  0  0  0  0  0  0  0  0  0
   -0.6336    1.4811   -0.2948 H   0  0  0  0  0  0  0  0  0  0  0  0
   -0.6102   -0.6103    0.5108 H   0  0  0  0  0  0  0  0  0  0  0  0
   -1.5280   -1.1302   -2.3536 H   0  0  0  0  0  0  0  0  0  0  0  0
   -1.5778   -2.3665   -1.1013 H   0  0  0  0  0  0  0  0  0  0  0  0
   -3.1046   -0.9047    0.2665 H   0  0  0  0  0  0  0  0  0  0  0  0
   -3.0735    0.3084   -1.0157 H   0  0  0  0  0  0  0  0  0  0  0  0
   -4.0632   -2.5740   -1.3221 H   0  0  0  0  0  0  0  0  0  0  0  0
   -4.0117   -1.3797   -2.6196 H   0  0  0  0  0  0  0  0  0  0  0  0
   -5.6675   -1.1356   -0.0338 H   0  0  0  0  0  0  0  0  0  0  0  0
   -5.6012    0.0956   -1.3300 H   0  0  0  0  0  0  0  0  0  0  0  0
   -7.4265   -1.1571   -1.8291 H   0  0  0  0  0  0  0  0  0  0  0  0
   -6.7310   -2.6058   -1.4169 H   0  0  0  0  0  0  0  0  0  0  0  0
   -6.2804   -1.8376   -2.8168 H   0  0  0  0  0  0  0  0  0  0  0  0
    1.2596   -1.2622   -2.1710 N   0  0  0  0  0  0  0  0  0  0  0  0
    2.4692   -1.8794   -2.6606 C   0  0  2  0  0  0  0  0  0  0  0  0
    2.7266   -1.3582   -4.0682 C   0  0  0  0  0  0  0  0  0  0  0  0
    1.8421   -0.8915   -4.7829 O   0  0  0  0  0  0  0  0  0  0  0  0
    2.3581   -3.3961   -2.6544 C   0  0  0  0  0  0  0  0  0  0  0  0
    0.6599   -0.7698   -2.8263 H   0  0  0  0  0  0  0  0  0  0  0  0
    3.2794   -1.5573   -1.9974 H   0  0  0  0  0  0  0  0  0  0  0  0
    1.5515   -3.7376   -3.3133 H   0  0  0  0  0  0  0  0  0  0  0  0
    3.2865   -3.8633   -2.9990 H   0  0  0  0  0  0  0  0  0  0  0  0
    2.1434   -3.7671   -1.6464 H   0  0  0  0  0  0  0  0  0  0  0  0
    4.0521   -1.5151   -4.4486 N   0  0  0  0  0  0  0  0  0  0  0  0
    4.5447   -1.1094   -5.7442 C   0  0  0  0  0  0  0  0  0  0  0  0
    4.7209   -1.8943   -3.7847 H   0  0  0  0  0  0  0  0  0  0  0  0
    4.4925   -1.9601   -6.4397 H   0  0  0  0  0  0  0  0  0  0  0  0
    3.9282   -0.2834   -6.1285 H   0  0  0  0  0  0  0  0  0  0  0  0
    5.5886   -0.7754   -5.6514 H   0  0  0  0  0  0  0  0  0  0  0  0
  1  3  1  0  0  0  0
  1  7  1  0  0  0  0
  1  2  2  0  0  0  0
 40 41  1  0  0  0  0
 41 49  1  0  0  0  0
 41 42  2  0  0  0  0
  8  9  1  0  0  0  0
  9 17  1  0  0  0  0
  9 10  2  0  0  0  0
 18 19  1  0  0  0  0
 19 39  1  0  0  0  0
 19 20  2  0  0  0  0
 40 43  1  0  0  0  0
  8 11  1  0  0  0  0
 49 50  1  0  0  0  0
 22 23  1  0  0  0  0
 21 22  1  0  0  0  0
 23 24  1  0  0  0  0
 18 21  1  0  0  0  0
 24 25  1  0  0  0  0
 39 40  1  0  0  0  0
  7  8  1  0  0  0  0
 17 18  1  0  0  0  0
  3  4  1  0  0  0  0
  3  5  1  0  0  0  0
  3  6  1  0  0  0  0
 43 46  1  0  0  0  0
 43 47  1  0  0  0  0
 43 48  1  0  0  0  0
 11 14  1  0  0  0  0
 11 15  1  0  0  0  0
 11 16  1  0  0  0  0
 50 52  1  0  0  0  0
 50 53  1  0  0  0  0
 50 54  1  0  0  0  0
 22 30  1  0  0  0  0
 22 31  1  0  0  0  0
 23 32  1  0  0  0  0
 23 33  1  0  0  0  0
 21 28  1  0  0  0  0
 21 29  1  0  0  0  0
 24 34  1  0  0  0  0
 24 35  1  0  0  0  0
 40 45  1  0  0  0  0
  8 13  1  0  0  0  0
 18 27  1  0  0  0  0
 49 51  1  0  0  0  0
  7 12  1  0  0  0  0
 39 44  1  0  0  0  0
 17 26  1  0  0  0  0
 25 36  1  0  0  0  0
 25 37  1  0  0  0  0
 25 38  1  0  0  0  0
M  CHG  1  25   1
M  END
$$$$

  -OEChem-05262214473D

 54 53  0     1  0  0  0  0  0999 V2000
    2.6714    2.8829   -3.0005 C   0  0  0  0  0  0  0  0  0  0  0  0
    3.1741    2.4398   -1.9745 O   0  0  0  0  0  0  0  0  0  0  0  0
    3.5527    3.3077   -4.1279 C   0  0  0  0  0  0  0  0  0  0  0  0
    3.8407    4.3691   -4.0597 H   0  0  0  0  0  0  0  0  0  0  0  0
    4.5024    2.7495   -4.1526 H   0  0  0  0  0  0  0  0  0  0  0  0
    3.1208    3.1887   -5.1345 H   0  0  0  0  0  0  0  0  0  0  0  0
    1.3174    3.0407   -3.2467 N   0  0  0  0  0  0  0  0  0  0  0  0
    0.2944    2.6927   -2.2960 C   0  0  2  0  0  0  0  0  0  0  0  0
    0.2976    1.1783   -2.1349 C   0  0  0  0  0  0  0  0  0  0  0  0
    0.7500    0.4142   -2.9850 O   0  0  0  0  0  0  0  0  0  0  0  0
   -1.0710    3.1886   -2.7460 C   0  0  0  0  0  0  0  0  0  0  0  0
    1.0312    3.4224   -4.1464 H   0  0  0  0  0  0  0  0  0  0  0  0
    0.5725    3.1622   -1.3461 H   0  0  0  0  0  0  0  0  0  0  0  0
   -1.3666    2.7292   -3.6963 H   0  0  0  0  0  0  0  0  0  0  0  0
   -1.8434    2.9482   -2.0082 H   0  0  0  0  0  0  0  0  0  0  0  0
   -1.0632    4.2744   -2.8901 H   0  0  0  0  0  0  0  0  0  0  0  0
   -0.3037    0.7742   -0.9484 N   0  0  0  0  0  0  0  0  0  0  0  0
   -0.4352   -0.6095   -0.5718 C   0  0  2  0  0  0  0  0  0  0  0  0
    0.8888   -1.3192   -0.8352 C   0  0  0  0  0  0  0  0  0  0  0  0
    1.3930   -2.1130   -0.0433 O   0  0  0  0  0  0  0  0  0  0  0  0
   -1.6219   -1.2835   -1.2707 C   0  0  0  0  0  0  0  0  0  0  0  0
   -2.9928   -0.7664   -0.8152 C   0  0  0  0  0  0  0  0  0  0  0  0
   -4.1270   -1.4996   -1.5351 C   0  0  0  0  0  0  0  0  0  0  0  0
   -5.4841   -0.9674   -1.0992 C   0  0  0  0  0  0  0  0  0  0  0  0
   -6.5487   -1.6880   -1.8379 N   0  3  0  0  0  0  0  0  0  0  0  0
   -0.6336    1.4811   -0.2948 H   0  0  0  0  0  0  0  0  0  0  0  0
   -0.6102   -0.6103    0.5108 H   0  0  0  0  0  0  0  0  0  0  0  0
   -1.5280   -1.1302   -2.3536 H   0  0  0  0  0  0  0  0  0  0  0  0
   -1.5778   -2.3665   -1.1013 H   0  0  0  0  0  0  0  0  0  0  0  0
   -3.1046   -0.9047    0.2665 H   0  0  0  0  0  0  0  0  0  0  0  0
   -3.0735    0.3084   -1.0157 H   0  0  0  0  0  0  0  0  0  0  0  0
   -4.0632   -2.5740   -1.3221 H   0  0  0  0  0  0  0  0  0  0  0  0
   -4.0117   -1.3797   -2.6196 H   0  0  0  0  0  0  0  0  0  0  0  0
   -5.6675   -1.1356   -0.0338 H   0  0  0  0  0  0  0  0  0  0  0  0
   -5.6012    0.0956   -1.3300 H   0  0  0  0  0  0  0  0  0  0  0  0
   -7.4265   -1.1571   -1.8291 H   0  0  0  0  0  0  0  0  0  0  0  0
   -6.7310   -2.6058   -1.4169 H   0  0  0  0  0  0  0  0  0  0  0  0
   -6.2804   -1.8376   -2.8168 H   0  0  0  0  0  0  0  0  0  0  0  0
    1.4259   -0.9890   -2.0711 N   0  0  0  0  0  0  0  0  0  0  0  0
    2.6677   -1.5517   -2.5454 C   0  0  2  0  0  0  0  0  0  0  0  0
    3.1159   -0.7470   -3.7583 C   0  0  0  0  0  0  0  0  0  0  0  0
    2.3429   -0.0824   -4.4452 O   0  0  0  0  0  0  0  0  0  0  0  0
    2.5099   -3.0228   -2.8972 C   0  0  0  0  0  0  0  0  0  0  0  0
    0.9287   -0.3292   -2.6619 H   0  0  0  0  0  0  0  0  0  0  0  0
    3.3978   -1.4328   -1.7374 H   0  0  0  0  0  0  0  0  0  0  0  0
    1.7822   -3.1618   -3.7050 H   0  0  0  0  0  0  0  0  0  0  0  0
    3.4594   -3.4553   -3.2296 H   0  0  0  0  0  0  0  0  0  0  0  0
    2.1590   -3.5950   -2.0316 H   0  0  0  0  0  0  0  0  0  0  0  0
    4.4731   -0.8929   -4.0089 N   0  0  0  0  0  0  0  0  0  0  0  0
    5.1368   -0.2392   -5.1126 C   0  0  0  0  0  0  0  0  0  0  0  0
    5.0412   -1.4484   -3.3761 H   0  0  0  0  0  0  0  0  0  0  0  0
    5.1460   -0.9097   -5.9846 H   0  0  0  0  0  0  0  0  0  0  0  0
    4.5993    0.6861   -5.3675 H   0  0  0  0  0  0  0  0  0  0  0  0
    6.1706    0.0043   -4.8265 H   0  0  0  0  0  0  0  0  0  0  0  0
  1  3  1  0  0  0  0
  1  7  1  0  0  0  0
  1  2  2  0  0  0  0
 40 41  1  0  0  0  0
 41 49  1  0  0  0  0
 41 42  2  0  0  0  0
  8  9  1  0  0  0  0
  9 17  1  0  0  0  0
  9 10  2  0  0  0  0
 18 19  1  0  0  0  0
 19 39  1  0  0  0  0
 19 20  2  0  0  0  0
 40 43  1  0  0  0  0
  8 11  1  0  0  0  0
 49 50  1  0  0  0  0
 22 23  1  0  0  0  0
 21 22  1  0  0  0  0
 23 24  1  0  0  0  0
 18 21  1  0  0  0  0
 24 25  1  0  0  0  0
 39 40  1  0  0  0  0
  7  8  1  0  0  0  0
 17 18  1  0  0  0  0
  3  4  1  0  0  0  0
  3  5  1  0  0  0  0
  3  6  1  0  0  0  0
 43 46  1  0  0  0  0
 43 47  1  0  0  0  0
 43 48  1  0  0  0  0
 11 14  1  0  0  0  0
 11 15  1  0  0  0  0
 11 16  1  0  0  0  0
 50 52  1  0  0  0  0
 50 53  1  0  0  0  0
 50 54  1  0  0  0  0
 22 30  1  0  0  0  0
 22 31  1  0  0  0  0
 23 32  1  0  0  0  0
 23 33  1  0  0  0  0
 21 28  1  0  0  0  0
 21 29  1  0  0  0  0
 24 34  1  0  0  0  0
 24 35  1  0  0  0  0
 40 45  1  0  0  0  0
  8 13  1  0  0  0  0
 18 27  1  0  0  0  0
 49 51  1  0  0  0  0
  7 12  1  0  0  0  0
 39 44  1  0  0  0  0
 17 26  1  0  0  0  0
 25 36  1  0  0  0  0
 25 37  1  0  0  0  0
 25 38  1  0  0  0  0
M  CHG  1  25   1
M  END
$$$$

  -OEChem-05262214473D

 54 53  0     1  0  0  0  0  0999 V2000
    2.6714    2.8829   -3.0005 C   0  0  0  0  0  0  0  0  0  0  0  0
    3.1741    2.4398   -1.9745 O   0  0  0  0  0  0  0  0  0  0  0  0
    3.5527    3.3077   -4.1279 C   0  0  0  0  0  0  0  0  0  0  0  0
    3.8407    4.3691   -4.0597 H   0  0  0  0  0  0  0  0  0  0  0  0
    4.5024    2.7495   -4.1526 H   0  0  0  0  0  0  0  0  0  0  0  0
    3.1208    3.1887   -5.1345 H   0  0  0  0  0  0  0  0  0  0  0  0
    1.3174    3.0407   -3.2467 N   0  0  0  0  0  0  0  0  0  0  0  0
    0.2944    2.6927   -2.2960 C   0  0  2  0  0  0  0  0  0  0  0  0
    0.2976    1.1783   -2.1349 C   0  0  0  0  0  0  0  0  0  0  0  0
    0.7500    0.4142   -2.9850 O   0  0  0  0  0  0  0  0  0  0  0  0
   -1.0710    3.1886   -2.7460 C   0  0  0  0  0  0  0  0  0  0  0  0
    1.0312    3.4224   -4.1464 H   0  0  0  0  0  0  0  0  0  0  0  0
    0.5725    3.1622   -1.3461 H   0  0  0  0  0  0  0  0  0  0  0  0
   -1.3666    2.7292   -3.6963 H   0  0  0  0  0  0  0  0  0  0  0  0
   -1.8434    2.9482   -2.0082 H   0  0  0  0  0  0  0  0  0  0  0  0
   -1.0632    4.2744   -2.8901 H   0  0  0  0  0  0  0  0  0  0  0  0
   -0.3037    0.7742   -0.9484 N   0  0  0  0  0  0  0  0  0  0  0  0
   -0.4352   -0.6095   -0.5718 C   0  0  2  0  0  0  0  0  0  0  0  0
    0.8888   -1.3192   -0.8352 C   0  0  0  0  0  0  0  0  0  0  0  0
    1.2647   -2.2970   -0.1918 O   0  0  0  0  0  0  0  0  0  0  0  0
   -1.6219   -1.2835   -1.2707 C   0  0  0  0  0  0  0  0  0  0  0  0
   -2.9928   -0.7664   -0.8152 C   0  0  0  0  0  0  0  0  0  0  0  0
   -4.1270   -1.4996   -1.5351 C   0  0  0  0  0  0  0  0  0  0  0  0
   -5.4841   -0.9674   -1.0992 C   0  0  0  0  0  0  0  0  0  0  0  0
   -6.5487   -1.6880   -1.8379 N   0  3  0  0  0  0  0  0  0  0  0  0
   -0.6336    1.4811   -0.2948 H   0  0  0  0  0  0  0  0  0  0  0  0
   -0.6102   -0.6103    0.5108 H   0  0  0  0  0  0  0  0  0  0  0  0
   -1.5280   -1.1302   -2.3536 H   0  0  0  0  0  0  0  0  0  0  0  0
   -1.5778   -2.3665   -1.1013 H   0  0  0  0  0  0  0  0  0  0  0  0
   -3.1046   -0.9047    0.2665 H   0  0  0  0  0  0  0  0  0  0  0  0
   -3.0735    0.3084   -1.0157 H   0  0  0  0  0  0  0  0  0  0  0  0
   -4.0632   -2.5740   -1.3221 H   0  0  0  0  0  0  0  0  0  0  0  0
   -4.0117   -1.3797   -2.6196 H   0  0  0  0  0  0  0  0  0  0  0  0
   -5.6675   -1.1356   -0.0338 H   0  0  0  0  0  0  0  0  0  0  0  0
   -5.6012    0.0956   -1.3300 H   0  0  0  0  0  0  0  0  0  0  0  0
   -7.4265   -1.1571   -1.8291 H   0  0  0  0  0  0  0  0  0  0  0  0
   -6.7310   -2.6058   -1.4169 H   0  0  0  0  0  0  0  0  0  0  0  0
   -6.2804   -1.8376   -2.8168 H   0  0  0  0  0  0  0  0  0  0  0  0
    1.5868   -0.7549   -1.8932 N   0  0  0  0  0  0  0  0  0  0  0  0
    2.8603   -1.2699   -2.3366 C   0  0  2  0  0  0  0  0  0  0  0  0
    3.4818   -0.2437   -3.2747 C   0  0  0  0  0  0  0  0  0  0  0  0
    2.8221    0.6008   -3.8769 O   0  0  0  0  0  0  0  0  0  0  0  0
    2.7025   -2.6144   -3.0295 C   0  0  0  0  0  0  0  0  0  0  0  0
    1.1884    0.0475   -2.3718 H   0  0  0  0  0  0  0  0  0  0  0  0
    3.4865   -1.3762   -1.4441 H   0  0  0  0  0  0  0  0  0  0  0  0
    2.0780   -2.5279   -3.9262 H   0  0  0  0  0  0  0  0  0  0  0  0
    3.6723   -3.0171   -3.3398 H   0  0  0  0  0  0  0  0  0  0  0  0
    2.2281   -3.3430   -2.3632 H   0  0  0  0  0  0  0  0  0  0  0  0
    4.8546   -0.4094   -3.3937 N   0  0  0  0  0  0  0  0  0  0  0  0
    5.6715    0.4330   -4.2357 C   0  0  0  0  0  0  0  0  0  0  0  0
    5.3213   -1.1237   -2.8426 H   0  0  0  0  0  0  0  0  0  0  0  0
    5.7694   -0.0266   -5.2303 H   0  0  0  0  0  0  0  0  0  0  0  0
    5.1991    1.4216   -4.3337 H   0  0  0  0  0  0  0  0  0  0  0  0
    6.6683    0.5460   -3.7844 H   0  0  0  0  0  0  0  0  0  0  0  0
  1  3  1  0  0  0  0
  1  7  1  0  0  0  0
  1  2  2  0  0  0  0
 40 41  1  0  0  0  0
 41 49  1  0  0  0  0
 41 42  2  0  0  0  0
  8  9  1  0  0  0  0
  9 17  1  0  0  0  0
  9 10  2  0  0  0  0
 18 19  1  0  0  0  0
 19 39  1  0  0  0  0
 19 20  2  0  0  0  0
 40 43  1  0  0  0  0
  8 11  1  0  0  0  0
 49 50  1  0  0  0  0
 22 23  1  0  0  0  0
 21 22  1  0  0  0  0
 23 24  1  0  0  0  0
 18 21  1  0  0  0  0
 24 25  1  0  0  0  0
 39 40  1  0  0  0  0
  7  8  1  0  0  0  0
 17 18  1  0  0  0  0
  3  4  1  0  0  0  0
  3  5  1  0  0  0  0
  3  6  1  0  0  0  0
 43 46  1  0  0  0  0
 43 47  1  0  0  0  0
 43 48  1  0  0  0  0
 11 14  1  0  0  0  0
 11 15  1  0  0  0  0
 11 16  1  0  0  0  0
 50 52  1  0  0  0  0
 50 53  1  0  0  0  0
 50 54  1  0  0  0  0
 22 30  1  0  0  0  0
 22 31  1  0  0  0  0
 23 32  1  0  0  0  0
 23 33  1  0  0  0  0
 21 28  1  0  0  0  0
 21 29  1  0  0  0  0
 24 34  1  0  0  0  0
 24 35  1  0  0  0  0
 40 45  1  0  0  0  0
  8 13  1  0  0  0  0
 18 27  1  0  0  0  0
 49 51  1  0  0  0  0
  7 12  1  0  0  0  0
 39 44  1  0  0  0  0
 17 26  1  0  0  0  0
 25 36  1  0  0  0  0
 25 37  1  0  0  0  0
 25 38  1  0  0  0  0
M  CHG  1  25   1
M  END
$$$$

  -OEChem-05262214473D

 54 53  0     1  0  0  0  0  0999 V2000
    2.6714    2.8829   -3.0005 C   0  0  0  0  0  0  0  0  0  0  0  0
    3.1741    2.4398   -1.9745 O   0  0  0  0  0  0  0  0  0  0  0  0
    3.5527    3.3077   -4.1279 C   0  0  0  0  0  0  0  0  0  0  0  0
    3.8407    4.3691   -4.0597 H   0  0  0  0  0  0  0  0  0  0  0  0
    4.5024    2.7495   -4.1526 H   0  0  0  0  0  0  0  0  0  0  0  0
    3.1208    3.1887   -5.1345 H   0  0  0  0  0  0  0  0  0  0  0  0
    1.3174    3.0407   -3.2467 N   0  0  0  0  0  0  0  0  0  0  0  0
    0.2944    2.6927   -2.2960 C   0  0  2  0  0  0  0  0  0  0  0  0
    0.2976    1.1783   -2.1349 C   0  0  0  0  0  0  0  0  0  0  0  0
    0.7500    0.4142   -2.9850 O   0  0  0  0  0  0  0  0  0  0  0  0
   -1.0710    3.1886   -2.7460 C   0  0  0  0  0  0  0  0  0  0  0  0
    1.0312    3.4224   -4.1464 H   0  0  0  0  0  0  0  0  0  0  0  0
    0.5725    3.1622   -1.3461 H   0  0  0  0  0  0  0  0  0  0  0  0
   -1.3666    2.7292   -3.6963 H   0  0  0  0  0  0  0  0  0  0  0  0
   -1.8434    2.9482   -2.0082 H   0  0  0  0  0  0  0  0  0  0  0  0
   -1.0632    4.2744   -2.8901 H   0  0  0  0  0  0  0  0  0  0  0  0
   -0.3037    0.7742   -0.9484 N   0  0  0  0  0  0  0  0  0  0  0  0
   -0.4352   -0.6095   -0.5718 C   0  0  2  0  0  0  0  0  0  0  0  0
    0.8888   -1.3192   -0.8352 C   0  0  0  0  0  0  0  0  0  0  0  0
    1.1506   -2.4357   -0.3921 O   0  0  0  0  0  0  0  0  0  0  0  0
   -1.6219   -1.2835   -1.2707 C   0  0  0  0  0  0  0  0  0  0  0  0
   -2.9928   -0.7664   -0.8152 C   0  0  0  0  0  0  0  0  0  0  0  0
   -4.1270   -1.4996   -1.5351 C   0  0  0  0  0  0  0  0  0  0  0  0
   -5.4841   -0.9674   -1.0992 C   0  0  0  0  0  0  0  0  0  0  0  0
   -6.5487   -1.6880   -1.8379 N   0  3  0  0  0  0  0  0  0  0  0  0
   -0.6336    1.4811   -0.2948 H   0  0  0  0  0  0  0  0  0  0  0  0
   -0.6102   -0.6103    0.5108 H   0  0  0  0  0  0  0  0  0  0  0  0
   -1.5280   -1.1302   -2.3536 H   0  0  0  0  0  0  0  0  0  0  0  0
   -1.5778   -2.3665   -1.1013 H   0  0  0  0  0  0  0  0  0  0  0  0
   -3.1046   -0.9047    0.2665 H   0  0  0  0  0  0  0  0  0  0  0  0
   -3.0735    0.3084   -1.0157 H   0  0  0  0  0  0  0  0  0  0  0  0
   -4.0632   -2.5740   -1.3221 H   0  0  0  0  0  0  0  0  0  0  0  0
   -4.0117   -1.3797   -2.6196 H   0  0  0  0  0  0  0  0  0  0  0  0
   -5.6675   -1.1356   -0.0338 H   0  0  0  0  0  0  0  0  0  0  0  0
   -5.6012    0.0956   -1.3300 H   0  0  0  0  0  0  0  0  0  0  0  0
   -7.4265   -1.1571   -1.8291 H   0  0  0  0  0  0  0  0  0  0  0  0
   -6.7310   -2.6058   -1.4169 H   0  0  0  0  0  0  0  0  0  0  0  0
   -6.2804   -1.8376   -2.8168 H   0  0  0  0  0  0  0  0  0  0  0  0
    1.7312   -0.5759   -1.6494 N   0  0  0  0  0  0  0  0  0  0  0  0
    3.0338   -1.0533   -2.0484 C   0  0  2  0  0  0  0  0  0  0  0  0
    3.7996    0.1174   -2.6504 C   0  0  0  0  0  0  0  0  0  0  0  0
    3.2472    1.1116   -3.1167 O   0  0  0  0  0  0  0  0  0  0  0  0
    2.9227   -2.1989   -3.0424 C   0  0  0  0  0  0  0  0  0  0  0  0
    1.4210    0.3346   -1.9756 H   0  0  0  0  0  0  0  0  0  0  0  0
    3.5394   -1.3914   -1.1373 H   0  0  0  0  0  0  0  0  0  0  0  0
    2.4187   -1.8791   -3.9617 H   0  0  0  0  0  0  0  0  0  0  0  0
    3.9109   -2.5786   -3.3222 H   0  0  0  0  0  0  0  0  0  0  0  0
    2.3461   -3.0281   -2.6185 H   0  0  0  0  0  0  0  0  0  0  0  0
    5.1707   -0.0977   -2.6448 N   0  0  0  0  0  0  0  0  0  0  0  0
    6.1125    0.8614   -3.1733 C   0  0  0  0  0  0  0  0  0  0  0  0
    5.5422   -0.9425   -2.2206 H   0  0  0  0  0  0  0  0  0  0  0  0
    6.3202    0.6291   -4.2282 H   0  0  0  0  0  0  0  0  0  0  0  0
    5.6869    1.8729   -3.0976 H   0  0  0  0  0  0  0  0  0  0  0  0
    7.0477    0.8129   -2.5962 H   0  0  0  0  0  0  0  0  0  0  0  0
  1  3  1  0  0  0  0
  1  7  1  0  0  0  0
  1  2  2  0  0  0  0
 40 41  1  0  0  0  0
 41 49  1  0  0  0  0
 41 42  2  0  0  0  0
  8  9  1  0  0  0  0
  9 17  1  0  0  0  0
  9 10  2  0  0  0  0
 18 19  1  0  0  0  0
 19 39  1  0  0  0  0
 19 20  2  0  0  0  0
 40 43  1  0  0  0  0
  8 11  1  0  0  0  0
 49 50  1  0  0  0  0
 22 23  1  0  0  0  0
 21 22  1  0  0  0  0
 23 24  1  0  0  0  0
 18 21  1  0  0  0  0
 24 25  1  0  0  0  0
 39 40  1  0  0  0  0
  7  8  1  0  0  0  0
 17 18  1  0  0  0  0
  3  4  1  0  0  0  0
  3  5  1  0  0  0  0
  3  6  1  0  0  0  0
 43 46  1  0  0  0  0
 43 47  1  0  0  0  0
 43 48  1  0  0  0  0
 11 14  1  0  0  0  0
 11 15  1  0  0  0  0
 11 16  1  0  0  0  0
 50 52  1  0  0  0  0
 50 53  1  0  0  0  0
 50 54  1  0  0  0  0
 22 30  1  0  0  0  0
 22 31  1  0  0  0  0
 23 32  1  0  0  0  0
 23 33  1  0  0  0  0
 21 28  1  0  0  0  0
 21 29  1  0  0  0  0
 24 34  1  0  0  0  0
 24 35  1  0  0  0  0
 40 45  1  0  0  0  0
  8 13  1  0  0  0  0
 18 27  1  0  0  0  0
 49 51  1  0  0  0  0
  7 12  1  0  0  0  0
 39 44  1  0  0  0  0
 17 26  1  0  0  0  0
 25 36  1  0  0  0  0
 25 37  1  0  0  0  0
 25 38  1  0  0  0  0
M  CHG  1  25   1
M  END
$$$$

  -OEChem-05262214473D

 54 53  0     1  0  0  0  0  0999 V2000
    2.6714    2.8829   -3.0005 C   0  0  0  0  0  0  0  0  0  0  0  0
    3.1741    2.4398   -1.9745 O   0  0  0  0  0  0  0  0  0  0  0  0
    3.5527    3.3077   -4.1279 C   0  0  0  0  0  0  0  0  0  0  0  0
    3.8407    4.3691   -4.0597 H   0  0  0  0  0  0  0  0  0  0  0  0
    4.5024    2.7495   -4.1526 H   0  0  0  0  0  0  0  0  0  0  0  0
    3.1208    3.1887   -5.1345 H   0  0  0  0  0  0  0  0  0  0  0  0
    1.3174    3.0407   -3.2467 N   0  0  0  0  0  0  0  0  0  0  0  0
    0.2944    2.6927   -2.2960 C   0  0  2  0  0  0  0  0  0  0  0  0
    0.2976    1.1783   -2.1349 C   0  0  0  0  0  0  0  0  0  0  0  0
    0.7500    0.4142   -2.9850 O   0  0  0  0  0  0  0  0  0  0  0  0
   -1.0710    3.1886   -2.7460 C   0  0  0  0  0  0  0  0  0  0  0  0
    1.0312    3.4224   -4.1464 H   0  0  0  0  0  0  0  0  0  0  0  0
    0.5725    3.1622   -1.3461 H   0  0  0  0  0  0  0  0  0  0  0  0
   -1.3666    2.7292   -3.6963 H   0  0  0  0  0  0  0  0  0  0  0  0
   -1.8434    2.9482   -2.0082 H   0  0  0  0  0  0  0  0  0  0  0  0
   -1.0632    4.2744   -2.8901 H   0  0  0  0  0  0  0  0  0  0  0  0
   -0.3037    0.7742   -0.9484 N   0  0  0  0  0  0  0  0  0  0  0  0
   -0.4352   -0.6095   -0.5718 C   0  0  2  0  0  0  0  0  0  0  0  0
    0.8888   -1.3192   -0.8352 C   0  0  0  0  0  0  0  0  0  0  0  0
    1.0582   -2.5196   -0.6305 O   0  0  0  0  0  0  0  0  0  0  0  0
   -1.6219   -1.2835   -1.2707 C   0  0  0  0  0  0  0  0  0  0  0  0
   -2.9928   -0.7664   -0.8152 C   0  0  0  0  0  0  0  0  0  0  0  0
   -4.1270   -1.4996   -1.5351 C   0  0  0  0  0  0  0  0  0  0  0  0
   -5.4841   -0.9674   -1.0992 C   0  0  0  0  0  0  0  0  0  0  0  0
   -6.5487   -1.6880   -1.8379 N   0  3  0  0  0  0  0  0  0  0  0  0
   -0.6336    1.4811   -0.2948 H   0  0  0  0  0  0  0  0  0  0  0  0
   -0.6102   -0.6103    0.5108 H   0  0  0  0  0  0  0  0  0  0  0  0
   -1.5280   -1.1302   -2.3536 H   0  0  0  0  0  0  0  0  0  0  0  0
   -1.5778   -2.3665   -1.1013 H   0  0  0  0  0  0  0  0  0  0  0  0
   -3.1046   -0.9047    0.2665 H   0  0  0  0  0  0  0  0  0  0  0  0
   -3.0735    0.3084   -1.0157 H   0  0  0  0  0  0  0  0  0  0  0  0
   -4.0632   -2.5740   -1.3221 H   0  0  0  0  0  0  0  0  0  0  0  0
   -4.0117   -1.3797   -2.6196 H   0  0  0  0  0  0  0  0  0  0  0  0
   -5.6675   -1.1356   -0.0338 H   0  0  0  0  0  0  0  0  0  0  0  0
   -5.6012    0.0956   -1.3300 H   0  0  0  0  0  0  0  0  0  0  0  0
   -7.4265   -1.1571   -1.8291 H   0  0  0  0  0  0  0  0  0  0  0  0
   -6.7310   -2.6058   -1.4169 H   0  0  0  0  0  0  0  0  0  0  0  0
   -6.2804   -1.8376   -2.8168 H   0  0  0  0  0  0  0  0  0  0  0  0
    1.8494   -0.4643   -1.3563 N   0  0  0  0  0  0  0  0  0  0  0  0
    3.1763   -0.9165   -1.7004 C   0  0  2  0  0  0  0  0  0  0  0  0
    4.0475    0.3118   -1.9280 C   0  0  0  0  0  0  0  0  0  0  0  0
    3.5890    1.4153   -2.2165 O   0  0  0  0  0  0  0  0  0  0  0  0
    3.1555   -1.8044   -2.9349 C   0  0  0  0  0  0  0  0  0  0  0  0
    1.6109    0.5124   -1.5004 H   0  0  0  0  0  0  0  0  0  0  0  0
    3.5528   -1.4774   -0.8381 H   0  0  0  0  0  0  0  0  0  0  0  0
    2.7810   -1.2597   -3.8093 H   0  0  0  0  0  0  0  0  0  0  0  0
    4.1587   -2.1697   -3.1779 H   0  0  0  0  0  0  0  0  0  0  0  0
    2.5049   -2.6719   -2.7801 H   0  0  0  0  0  0  0  0  0  0  0  0
    5.3997    0.0210   -1.8134 N   0  0  0  0  0  0  0  0  0  0  0  0
    6.4296    1.0167   -1.9976 C   0  0  0  0  0  0  0  0  0  0  0  0
    5.6887   -0.9171   -1.5525 H   0  0  0  0  0  0  0  0  0  0  0  0
    6.7609    1.0126   -3.0465 H   0  0  0  0  0  0  0  0  0  0  0  0
    6.0294    2.0093   -1.7435 H   0  0  0  0  0  0  0  0  0  0  0  0
    7.2830    0.7868   -1.3428 H   0  0  0  0  0  0  0  0  0  0  0  0
  1  3  1  0  0  0  0
  1  7  1  0  0  0  0
  1  2  2  0  0  0  0
 40 41  1  0  0  0  0
 41 49  1  0  0  0  0
 41 42  2  0  0  0  0
  8  9  1  0  0  0  0
  9 17  1  0  0  0  0
  9 10  2  0  0  0  0
 18 19  1  0  0  0  0
 19 39  1  0  0  0  0
 19 20  2  0  0  0  0
 40 43  1  0  0  0  0
  8 11  1  0  0  0  0
 49 50  1  0  0  0  0
 22 23  1  0  0  0  0
 21 22  1  0  0  0  0
 23 24  1  0  0  0  0
 18 21  1  0  0  0  0
 24 25  1  0  0  0  0
 39 40  1  0  0  0  0
  7  8  1  0  0  0  0
 17 18  1  0  0  0  0
  3  4  1  0  0  0  0
  3  5  1  0  0  0  0
  3  6  1  0  0  0  0
 43 46  1  0  0  0  0
 43 47  1  0  0  0  0
 43 48  1  0  0  0  0
 11 14  1  0  0  0  0
 11 15  1  0  0  0  0
 11 16  1  0  0  0  0
 50 52  1  0  0  0  0
 50 53  1  0  0  0  0
 50 54  1  0  0  0  0
 22 30  1  0  0  0  0
 22 31  1  0  0  0  0
 23 32  1  0  0  0  0
 23 33  1  0  0  0  0
 21 28  1  0  0  0  0
 21 29  1  0  0  0  0
 24 34  1  0  0  0  0
 24 35  1  0  0  0  0
 40 45  1  0  0  0  0
  8 13  1  0  0  0  0
 18 27  1  0  0  0  0
 49 51  1  0  0  0  0
  7 12  1  0  0  0  0
 39 44  1  0  0  0  0
 17 26  1  0  0  0  0
 25 36  1  0  0  0  0
 25 37  1  0  0  0  0
 25 38  1  0  0  0  0
M  CHG  1  25   1
M  END
$$$$

  -OEChem-05262214473D

 54 53  0     1  0  0  0  0  0999 V2000
    2.6714    2.8829   -3.0005 C   0  0  0  0  0  0  0  0  0  0  0  0
    3.1741    2.4398   -1.9745 O   0  0  0  0  0  0  0  0  0  0  0  0
    3.5527    3.3077   -4.1279 C   0  0  0  0  0  0  0  0  0  0  0  0
    3.8407    4.3691   -4.0597 H   0  0  0  0  0  0  0  0  0  0  0  0
    4.5024    2.7495   -4.1526 H   0  0  0  0  0  0  0  0  0  0  0  0
    3.1208    3.1887   -5.1345 H   0  0  0  0  0  0  0  0  0  0  0  0
    1.3174    3.0407   -3.2467 N   0  0  0  0  0  0  0  0  0  0  0  0
    0.2944    2.6927   -2.2960 C   0  0  2  0  0  0  0  0  0  0  0  0
    0.2976    1.1783   -2.1349 C   0  0  0  0  0  0  0  0  0  0  0  0
    0.7500    0.4142   -2.9850 O   0  0  0  0  0  0  0  0  0  0  0  0
   -1.0710    3.1886   -2.7460 C   0  0  0  0  0  0  0  0  0  0  0  0
    1.0312    3.4224   -4.1464 H   0  0  0  0  0  0  0  0  0  0  0  0
    0.5725    3.1622   -1.3461 H   0  0  0  0  0  0  0  0  0  0  0  0
   -1.3666    2.7292   -3.6963 H   0  0  0  0  0  0  0  0  0  0  0  0
   -1.8434    2.9482   -2.0082 H   0  0  0  0  0  0  0  0  0  0  0  0
   -1.0632    4.2744   -2.8901 H   0  0  0  0  0  0  0  0  0  0  0  0
   -0.3037    0.7742   -0.9484 N   0  0  0  0  0  0  0  0  0  0  0  0
   -0.4352   -0.6095   -0.5718 C   0  0  2  0  0  0  0  0  0  0  0  0
    0.8888   -1.3192   -0.8352 C   0  0  0  0  0  0  0  0  0  0  0  0
    0.9940   -2.5428   -0.8908 O   0  0  0  0  0  0  0  0  0  0  0  0
   -1.6219   -1.2835   -1.2707 C   0  0  0  0  0  0  0  0  0  0  0  0
   -2.9928   -0.7664   -0.8152 C   0  0  0  0  0  0  0  0  0  0  0  0
   -4.1270   -1.4996   -1.5351 C   0  0  0  0  0  0  0  0  0  0  0  0
   -5.4841   -0.9674   -1.0992 C   0  0  0  0  0  0  0  0  0  0  0  0
   -6.5487   -1.6880   -1.8379 N   0  3  0  0  0  0  0  0  0  0  0  0
   -0.6336    1.4811   -0.2948 H   0  0  0  0  0  0  0  0  0  0  0  0
   -0.6102   -0.6103    0.5108 H   0  0  0  0  0  0  0  0  0  0  0  0
   -1.5280   -1.1302   -2.3536 H   0  0  0  0  0  0  0  0  0  0  0  0
   -1.5778   -2.3665   -1.1013 H   0  0  0  0  0  0  0  0  0  0  0  0
   -3.1046   -0.9047    0.2665 H   0  0  0  0  0  0  0  0  0  0  0  0
   -3.0735    0.3084   -1.0157 H   0  0  0  0  0  0  0  0  0  0  0  0
   -4.0632   -2.5740   -1.3221 H   0  0  0  0  0  0  0  0  0  0  0  0
   -4.0117   -1.3797   -2.6196 H   0  0  0  0  0  0  0  0  0  0  0  0
   -5.6675   -1.1356   -0.0338 H   0  0  0  0  0  0  0  0  0  0  0  0
   -5.6012    0.0956   -1.3300 H   0  0  0  0  0  0  0  0  0  0  0  0
   -7.4265   -1.1571   -1.8291 H   0  0  0  0  0  0  0  0  0  0  0  0
   -6.7310   -2.6058   -1.4169 H   0  0  0  0  0  0  0  0  0  0  0  0
   -6.2804   -1.8376   -2.8168 H   0  0  0  0  0  0  0  0  0  0  0  0
    1.9332   -0.4276   -1.0339 N   0  0  0  0  0  0  0  0  0  0  0  0
    3.2782   -0.8689   -1.3165 C   0  0  2  0  0  0  0  0  0  0  0  0
    4.2086    0.3261   -1.1567 C   0  0  0  0  0  0  0  0  0  0  0  0
    3.8243    1.4910   -1.2376 O   0  0  0  0  0  0  0  0  0  0  0  0
    3.3850   -1.4579   -2.7145 C   0  0  0  0  0  0  0  0  0  0  0  0
    1.7450    0.5689   -0.9786 H   0  0  0  0  0  0  0  0  0  0  0  0
    3.5259   -1.6283   -0.5667 H   0  0  0  0  0  0  0  0  0  0  0  0
    3.1404   -0.7118   -3.4792 H   0  0  0  0  0  0  0  0  0  0  0  0
    4.3991   -1.8182   -2.9168 H   0  0  0  0  0  0  0  0  0  0  0  0
    2.6936   -2.2986   -2.8371 H   0  0  0  0  0  0  0  0  0  0  0  0
    5.5261   -0.0613   -0.9560 N   0  0  0  0  0  0  0  0  0  0  0  0
    6.6013    0.8884   -0.7890 C   0  0  0  0  0  0  0  0  0  0  0  0
    5.7509   -1.0493   -0.8838 H   0  0  0  0  0  0  0  0  0  0  0  0
    7.0613    1.0979   -1.7659 H   0  0  0  0  0  0  0  0  0  0  0  0
    6.2033    1.8216   -0.3637 H   0  0  0  0  0  0  0  0  0  0  0  0
    7.3582    0.4694   -0.1096 H   0  0  0  0  0  0  0  0  0  0  0  0
  1  3  1  0  0  0  0
  1  7  1  0  0  0  0
  1  2  2  0  0  0  0
 40 41  1  0  0  0  0
 41 49  1  0  0  0  0
 41 42  2  0  0  0  0
  8  9  1  0  0  0  0
  9 17  1  0  0  0  0
  9 10  2  0  0  0  0
 18 19  1  0  0  0  0
 19 39  1  0  0  0  0
 19 20  2  0  0  0  0
 40 43  1  0  0  0  0
  8 11  1  0  0  0  0
 49 50  1  0  0  0  0
 22 23  1  0  0  0  0
 21 22  1  0  0  0  0
 23 24  1  0  0  0  0
 18 21  1  0  0  0  0
 24 25  1  0  0  0  0
 39 40  1  0  0  0  0
  7  8  1  0  0  0  0
 17 18  1  0  0  0  0
  3  4  1  0  0  0  0
  3  5  1  0  0  0  0
  3  6  1  0  0  0  0
 43 46  1  0  0  0  0
 43 47  1  0  0  0  0
 43 48  1  0  0  0  0
 11 14  1  0  0  0  0
 11 15  1  0  0  0  0
 11 16  1  0  0  0  0
 50 52  1  0  0  0  0
 50 53  1  0  0  0  0
 50 54  1  0  0  0  0
 22 30  1  0  0  0  0
 22 31  1  0  0  0  0
 23 32  1  0  0  0  0
 23 33  1  0  0  0  0
 21 28  1  0  0  0  0
 21 29  1  0  0  0  0
 24 34  1  0  0  0  0
 24 35  1  0  0  0  0
 40 45  1  0  0  0  0
  8 13  1  0  0  0  0
 18 27  1  0  0  0  0
 49 51  1  0  0  0  0
  7 12  1  0  0  0  0
 39 44  1  0  0  0  0
 17 26  1  0  0  0  0
 25 36  1  0  0  0  0
 25 37  1  0  0  0  0
 25 38  1  0  0  0  0
M  CHG  1  25   1
M  END
$$$$

  -OEChem-05262214473D

 54 53  0     1  0  0  0  0  0999 V2000
    2.6714    2.8829   -3.0005 C   0  0  0  0  0  0  0  0  0  0  0  0
    3.1741    2.4398   -1.9745 O   0  0  0  0  0  0  0  0  0  0  0  0
    3.5527    3.3077   -4.1279 C   0  0  0  0  0  0  0  0  0  0  0  0
    3.8407    4.3691   -4.0597 H   0  0  0  0  0  0  0  0  0  0  0  0
    4.5024    2.7495   -4.1526 H   0  0  0  0  0  0  0  0  0  0  0  0
    3.1208    3.1887   -5.1345 H   0  0  0  0  0  0  0  0  0  0  0  0
    1.3174    3.0407   -3.2467 N   0  0  0  0  0  0  0  0  0  0  0  0
    0.2944    2.6927   -2.2960 C   0  0  2  0  0  0  0  0  0  0  0  0
    0.2976    1.1783   -2.1349 C   0  0  0  0  0  0  0  0  0  0  0  0
    0.7500    0.4142   -2.9850 O   0  0  0  0  0  0  0  0  0  0  0  0
   -1.0710    3.1886   -2.7460 C   0  0  0  0  0  0  0  0  0  0  0  0
    1.0312    3.4224   -4.1464 H   0  0  0  0  0  0  0  0  0  0  0  0
    0.5725    3.1622   -1.3461 H   0  0  0  0  0  0  0  0  0  0  0  0
   -1.3666    2.7292   -3.6963 H   0  0  0  0  0  0  0  0  0  0  0  0
   -1.8434    2.9482   -2.0082 H   0  0  0  0  0  0  0  0  0  0  0  0
   -1.0632    4.2744   -2.8901 H   0  0  0  0  0  0  0  0  0  0  0  0
   -0.3037    0.7742   -0.9484 N   0  0  0  0  0  0  0  0  0  0  0  0
   -0.4352   -0.6095   -0.5718 C   0  0  2  0  0  0  0  0  0  0  0  0
    0.8888   -1.3192   -0.8352 C   0  0  0  0  0  0  0  0  0  0  0  0
    0.9622   -2.5040   -1.1551 O   0  0  0  0  0  0  0  0  0  0  0  0
   -1.6219   -1.2835   -1.2707 C   0  0  0  0  0  0  0  0  0  0  0  0
   -2.9928   -0.7664   -0.8152 C   0  0  0  0  0  0  0  0  0  0  0  0
   -4.1270   -1.4996   -1.5351 C   0  0  0  0  0  0  0  0  0  0  0  0
   -5.4841   -0.9674   -1.0992 C   0  0  0  0  0  0  0  0  0  0  0  0
   -6.5487   -1.6880   -1.8379 N   0  3  0  0  0  0  0  0  0  0  0  0
   -0.6336    1.4811   -0.2948 H   0  0  0  0  0  0  0  0  0  0  0  0
   -0.6102   -0.6103    0.5108 H   0  0  0  0  0  0  0  0  0  0  0  0
   -1.5280   -1.1302   -2.3536 H   0  0  0  0  0  0  0  0  0  0  0  0
   -1.5778   -2.3665   -1.1013 H   0  0  0  0  0  0  0  0  0  0  0  0
   -3.1046   -0.9047    0.2665 H   0  0  0  0  0  0  0  0  0  0  0  0
   -3.0735    0.3084   -1.0157 H   0  0  0  0  0  0  0  0  0  0  0  0
   -4.0632   -2.5740   -1.3221 H   0  0  0  0  0  0  0  0  0  0  0  0
   -4.0117   -1.3797   -2.6196 H   0  0  0  0  0  0  0  0  0  0  0  0
   -5.6675   -1.1356   -0.0338 H   0  0  0  0  0  0  0  0  0  0  0  0
   -5.6012    0.0956   -1.3300 H   0  0  0  0  0  0  0  0  0  0  0  0
   -7.4265   -1.1571   -1.8291 H   0  0  0  0  0  0  0  0  0  0  0  0
   -6.7310   -2.6058   -1.4169 H   0  0  0  0  0  0  0  0  0  0  0  0
   -6.2804   -1.8376   -2.8168 H   0  0  0  0  0  0  0  0  0  0  0  0
    1.9769   -0.4684   -0.7041 N   0  0  0  0  0  0  0  0  0  0  0  0
    3.3325   -0.9138   -0.9226 C   0  0  2  0  0  0  0  0  0  0  0  0
    4.2720    0.1595   -0.3890 C   0  0  0  0  0  0  0  0  0  0  0  0
    3.9371    1.3336   -0.2466 O   0  0  0  0  0  0  0  0  0  0  0  0
    3.5957   -1.1830   -2.3960 C   0  0  0  0  0  0  0  0  0  0  0  0
    1.8142    0.5003   -0.4457 H   0  0  0  0  0  0  0  0  0  0  0  0
    3.4605   -1.8338   -0.3418 H   0  0  0  0  0  0  0  0  0  0  0  0
    3.4722   -0.2728   -2.9940 H   0  0  0  0  0  0  0  0  0  0  0  0
    4.6155   -1.5481   -2.5566 H   0  0  0  0  0  0  0  0  0  0  0  0
    2.8995   -1.9336   -2.7855 H   0  0  0  0  0  0  0  0  0  0  0  0
    5.5412   -0.3392   -0.1312 N   0  0  0  0  0  0  0  0  0  0  0  0
    6.6158    0.4853    0.3704 C   0  0  0  0  0  0  0  0  0  0  0  0
    5.7245   -1.3299   -0.2601 H   0  0  0  0  0  0  0  0  0  0  0  0
    7.2011    0.8791   -0.4736 H   0  0  0  0  0  0  0  0  0  0  0  0
    6.1966    1.3224    0.9479 H   0  0  0  0  0  0  0  0  0  0  0  0
    7.2681   -0.1176    1.0192 H   0  0  0  0  0  0  0  0  0  0  0  0
  1  3  1  0  0  0  0
  1  7  1  0  0  0  0
  1  2  2  0  0  0  0
 40 41  1  0  0  0  0
 41 49  1  0  0  0  0
 41 42  2  0  0  0  0
  8  9  1  0  0  0  0
  9 17  1  0  0  0  0
  9 10  2  0  0  0  0
 18 19  1  0  0  0  0
 19 39  1  0  0  0  0
 19 20  2  0  0  0  0
 40 43  1  0  0  0  0
  8 11  1  0  0  0  0
 49 50  1  0  0  0  0
 22 23  1  0  0  0  0
 21 22  1  0  0  0  0
 23 24  1  0  0  0  0
 18 21  1  0  0  0  0
 24 25  1  0  0  0  0
 39 40  1  0  0  0  0
  7  8  1  0  0  0  0
 17 18  1  0  0  0  0
  3  4  1  0  0  0  0
  3  5  1  0  0  0  0
  3  6  1  0  0  0  0
 43 46  1  0  0  0  0
 43 47  1  0  0  0  0
 43 48  1  0  0  0  0
 11 14  1  0  0  0  0
 11 15  1  0  0  0  0
 11 16  1  0  0  0  0
 50 52  1  0  0  0  0
 50 53  1  0  0  0  0
 50 54  1  0  0  0  0
 22 30  1  0  0  0  0
 22 31  1  0  0  0  0
 23 32  1  0  0  0  0
 23 33  1  0  0  0  0
 21 28  1  0  0  0  0
 21 29  1  0  0  0  0
 24 34  1  0  0  0  0
 24 35  1  0  0  0  0
 40 45  1  0  0  0  0
  8 13  1  0  0  0  0
 18 27  1  0  0  0  0
 49 51  1  0  0  0  0
  7 12  1  0  0  0  0
 39 44  1  0  0  0  0
 17 26  1  0  0  0  0
 25 36  1  0  0  0  0
 25 37  1  0  0  0  0
 25 38  1  0  0  0  0
M  CHG  1  25   1
M  END
$$$$

  -OEChem-05262214473D

 54 53  0     1  0  0  0  0  0999 V2000
    2.6714    2.8829   -3.0005 C   0  0  0  0  0  0  0  0  0  0  0  0
    3.1741    2.4398   -1.9745 O   0  0  0  0  0  0  0  0  0  0  0  0
    3.5527    3.3077   -4.1279 C   0  0  0  0  0  0  0  0  0  0  0  0
    3.8407    4.3691   -4.0597 H   0  0  0  0  0  0  0  0  0  0  0  0
    4.5024    2.7495   -4.1526 H   0  0  0  0  0  0  0  0  0  0  0  0
    3.1208    3.1887   -5.1345 H   0  0  0  0  0  0  0  0  0  0  0  0
    1.3174    3.0407   -3.2467 N   0  0  0  0  0  0  0  0  0  0  0  0
    0.2944    2.6927   -2.2960 C   0  0  2  0  0  0  0  0  0  0  0  0
    0.2976    1.1783   -2.1349 C   0  0  0  0  0  0  0  0  0  0  0  0
    0.7500    0.4142   -2.9850 O   0  0  0  0  0  0  0  0  0  0  0  0
   -1.0710    3.1886   -2.7460 C   0  0  0  0  0  0  0  0  0  0  0  0
    1.0312    3.4224   -4.1464 H   0  0  0  0  0  0  0  0  0  0  0  0
    0.5725    3.1622   -1.3461 H   0  0  0  0  0  0  0  0  0  0  0  0
   -1.3666    2.7292   -3.6963 H   0  0  0  0  0  0  0  0  0  0  0  0
   -1.8434    2.9482   -2.0082 H   0  0  0  0  0  0  0  0  0  0  0  0
   -1.0632    4.2744   -2.8901 H   0  0  0  0  0  0  0  0  0  0  0  0
   -0.3037    0.7742   -0.9484 N   0  0  0  0  0  0  0  0  0  0  0  0
   -0.4352   -0.6095   -0.5718 C   0  0  2  0  0  0  0  0  0  0  0  0
    0.8888   -1.3192   -0.8352 C   0  0  0  0  0  0  0  0  0  0  0  0
    0.9651   -2.4057   -1.4055 O   0  0  0  0  0  0  0  0  0  0  0  0
   -1.6219   -1.2835   -1.2707 C   0  0  0  0  0  0  0  0  0  0  0  0
   -2.9928   -0.7664   -0.8152 C   0  0  0  0  0  0  0  0  0  0  0  0
   -4.1270   -1.4996   -1.5351 C   0  0  0  0  0  0  0  0  0  0  0  0
   -5.4841   -0.9674   -1.0992 C   0  0  0  0  0  0  0  0  0  0  0  0
   -6.5487   -1.6880   -1.8379 N   0  3  0  0  0  0  0  0  0  0  0  0
   -0.6336    1.4811   -0.2948 H   0  0  0  0  0  0  0  0  0  0  0  0
   -0.6102   -0.6103    0.5108 H   0  0  0  0  0  0  0  0  0  0  0  0
   -1.5280   -1.1302   -2.3536 H   0  0  0  0  0  0  0  0  0  0  0  0
   -1.5778   -2.3665   -1.1013 H   0  0  0  0  0  0  0  0  0  0  0  0
   -3.1046   -0.9047    0.2665 H   0  0  0  0  0  0  0  0  0  0  0  0
   -3.0735    0.3084   -1.0157 H   0  0  0  0  0  0  0  0  0  0  0  0
   -4.0632   -2.5740   -1.3221 H   0  0  0  0  0  0  0  0  0  0  0  0
   -4.0117   -1.3797   -2.6196 H   0  0  0  0  0  0  0  0  0  0  0  0
   -5.6675   -1.1356   -0.0338 H   0  0  0  0  0  0  0  0  0  0  0  0
   -5.6012    0.0956   -1.3300 H   0  0  0  0  0  0  0  0  0  0  0  0
   -7.4265   -1.1571   -1.8291 H   0  0  0  0  0  0  0  0  0  0  0  0
   -6.7310   -2.6058   -1.4169 H   0  0  0  0  0  0  0  0  0  0  0  0
   -6.2804   -1.8376   -2.8168 H   0  0  0  0  0  0  0  0  0  0  0  0
    1.9776   -0.5838   -0.3895 N   0  0  0  0  0  0  0  0  0  0  0  0
    3.3354   -1.0481   -0.5457 C   0  0  2  0  0  0  0  0  0  0  0  0
    4.2333   -0.1768    0.3227 C   0  0  0  0  0  0  0  0  0  0  0  0
    3.9197    0.9540    0.6888 O   0  0  0  0  0  0  0  0  0  0  0  0
    3.7732   -0.9985   -2.0013 C   0  0  0  0  0  0  0  0  0  0  0  0
    1.8138    0.3112    0.0619 H   0  0  0  0  0  0  0  0  0  0  0  0
    3.3611   -2.0799   -0.1785 H   0  0  0  0  0  0  0  0  0  0  0  0
    3.7539    0.0274   -2.3867 H   0  0  0  0  0  0  0  0  0  0  0  0
    4.7933   -1.3778   -2.1220 H   0  0  0  0  0  0  0  0  0  0  0  0
    3.1085   -1.6019   -2.6289 H   0  0  0  0  0  0  0  0  0  0  0  0
    5.4441   -0.7936    0.6050 N   0  0  0  0  0  0  0  0  0  0  0  0
    6.4722   -0.1653    1.4014 C   0  0  0  0  0  0  0  0  0  0  0  0
    5.6114   -1.7400    0.2761 H   0  0  0  0  0  0  0  0  0  0  0  0
    7.1707    0.3711    0.7423 H   0  0  0  0  0  0  0  0  0  0  0  0
    6.0099    0.5458    2.1019 H   0  0  0  0  0  0  0  0  0  0  0  0
    7.0190   -0.9342    1.9669 H   0  0  0  0  0  0  0  0  0  0  0  0
  1  3  1  0  0  0  0
  1  7  1  0  0  0  0
  1  2  2  0  0  0  0
 40 41  1  0  0  0  0
 41 49  1  0  0  0  0
 41 42  2  0  0  0  0
  8  9  1  0  0  0  0
  9 17  1  0  0  0  0
  9 10  2  0  0  0  0
 18 19  1  0  0  0  0
 19 39  1  0  0  0  0
 19 20  2  0  0  0  0
 40 43  1  0  0  0  0
  8 11  1  0  0  0  0
 49 50  1  0  0  0  0
 22 23  1  0  0  0  0
 21 22  1  0  0  0  0
 23 24  1  0  0  0  0
 18 21  1  0  0  0  0
 24 25  1  0  0  0  0
 39 40  1  0  0  0  0
  7  8  1  0  0  0  0
 17 18  1  0  0  0  0
  3  4  1  0  0  0  0
  3  5  1  0  0  0  0
  3  6  1  0  0  0  0
 43 46  1  0  0  0  0
 43 47  1  0  0  0  0
 43 48  1  0  0  0  0
 11 14  1  0  0  0  0
 11 15  1  0  0  0  0
 11 16  1  0  0  0  0
 50 52  1  0  0  0  0
 50 53  1  0  0  0  0
 50 54  1  0  0  0  0
 22 30  1  0  0  0  0
 22 31  1  0  0  0  0
 23 32  1  0  0  0  0
 23 33  1  0  0  0  0
 21 28  1  0  0  0  0
 21 29  1  0  0  0  0
 24 34  1  0  0  0  0
 24 35  1  0  0  0  0
 40 45  1  0  0  0  0
  8 13  1  0  0  0  0
 18 27  1  0  0  0  0
 49 51  1  0  0  0  0
  7 12  1  0  0  0  0
 39 44  1  0  0  0  0
 17 26  1  0  0  0  0
 25 36  1  0  0  0  0
 25 37  1  0  0  0  0
 25 38  1  0  0  0  0
M  CHG  1  25   1
M  END
$$$$

  -OEChem-05262214473D

 54 53  0     1  0  0  0  0  0999 V2000
    2.6714    2.8829   -3.0005 C   0  0  0  0  0  0  0  0  0  0  0  0
    3.1741    2.4398   -1.9745 O   0  0  0  0  0  0  0  0  0  0  0  0
    3.5527    3.3077   -4.1279 C   0  0  0  0  0  0  0  0  0  0  0  0
    3.8407    4.3691   -4.0597 H   0  0  0  0  0  0  0  0  0  0  0  0
    4.5024    2.7495   -4.1526 H   0  0  0  0  0  0  0  0  0  0  0  0
    3.1208    3.1887   -5.1345 H   0  0  0  0  0  0  0  0  0  0  0  0
    1.3174    3.0407   -3.2467 N   0  0  0  0  0  0  0  0  0  0  0  0
    0.2944    2.6927   -2.2960 C   0  0  2  0  0  0  0  0  0  0  0  0
    0.2976    1.1783   -2.1349 C   0  0  0  0  0  0  0  0  0  0  0  0
    0.7500    0.4142   -2.9850 O   0  0  0  0  0  0  0  0  0  0  0  0
   -1.0710    3.1886   -2.7460 C   0  0  0  0  0  0  0  0  0  0  0  0
    1.0312    3.4224   -4.1464 H   0  0  0  0  0  0  0  0  0  0  0  0
    0.5725    3.1622   -1.3461 H   0  0  0  0  0  0  0  0  0  0  0  0
   -1.3666    2.7292   -3.6963 H   0  0  0  0  0  0  0  0  0  0  0  0
   -1.8434    2.9482   -2.0082 H   0  0  0  0  0  0  0  0  0  0  0  0
   -1.0632    4.2744   -2.8901 H   0  0  0  0  0  0  0  0  0  0  0  0
   -0.3037    0.7742   -0.9484 N   0  0  0  0  0  0  0  0  0  0  0  0
   -0.4352   -0.6095   -0.5718 C   0  0  2  0  0  0  0  0  0  0  0  0
    0.8888   -1.3192   -0.8352 C   0  0  0  0  0  0  0  0  0  0  0  0
    1.0024   -2.2545   -1.6250 O   0  0  0  0  0  0  0  0  0  0  0  0
   -1.6219   -1.2835   -1.2707 C   0  0  0  0  0  0  0  0  0  0  0  0
   -2.9928   -0.7664   -0.8152 C   0  0  0  0  0  0  0  0  0  0  0  0
   -4.1270   -1.4996   -1.5351 C   0  0  0  0  0  0  0  0  0  0  0  0
   -5.4841   -0.9674   -1.0992 C   0  0  0  0  0  0  0  0  0  0  0  0
   -6.5487   -1.6880   -1.8379 N   0  3  0  0  0  0  0  0  0  0  0  0
   -0.6336    1.4811   -0.2948 H   0  0  0  0  0  0  0  0  0  0  0  0
   -0.6102   -0.6103    0.5108 H   0  0  0  0  0  0  0  0  0  0  0  0
   -1.5280   -1.1302   -2.3536 H   0  0  0  0  0  0  0  0  0  0  0  0
   -1.5778   -2.3665   -1.1013 H   0  0  0  0  0  0  0  0  0  0  0  0
   -3.1046   -0.9047    0.2665 H   0  0  0  0  0  0  0  0  0  0  0  0
   -3.0735    0.3084   -1.0157 H   0  0  0  0  0  0  0  0  0  0  0  0
   -4.0632   -2.5740   -1.3221 H   0  0  0  0  0  0  0  0  0  0  0  0
   -4.0117   -1.3797   -2.6196 H   0  0  0  0  0  0  0  0  0  0  0  0
   -5.6675   -1.1356   -0.0338 H   0  0  0  0  0  0  0  0  0  0  0  0
   -5.6012    0.0956   -1.3300 H   0  0  0  0  0  0  0  0  0  0  0  0
   -7.4265   -1.1571   -1.8291 H   0  0  0  0  0  0  0  0  0  0  0  0
   -6.7310   -2.6058   -1.4169 H   0  0  0  0  0  0  0  0  0  0  0  0
   -6.2804   -1.8376   -2.8168 H   0  0  0  0  0  0  0  0  0  0  0  0
    1.9353   -0.7660   -0.1114 N   0  0  0  0  0  0  0  0  0  0  0  0
    3.2869   -1.2626   -0.2115 C   0  0  2  0  0  0  0  0  0  0  0  0
    4.0952   -0.6598    0.9299 C   0  0  0  0  0  0  0  0  0  0  0  0
    3.7732    0.3779    1.5049 O   0  0  0  0  0  0  0  0  0  0  0  0
    3.9053   -0.9169   -1.5572 C   0  0  0  0  0  0  0  0  0  0  0  0
    1.7438    0.0145    0.5097 H   0  0  0  0  0  0  0  0  0  0  0  0
    3.2344   -2.3499   -0.0881 H   0  0  0  0  0  0  0  0  0  0  0  0
    3.9663    0.1683   -1.6988 H   0  0  0  0  0  0  0  0  0  0  0  0
    4.9202   -1.3189   -1.6425 H   0  0  0  0  0  0  0  0  0  0  0  0
    3.3063   -1.3260   -2.3779 H   0  0  0  0  0  0  0  0  0  0  0  0
    5.2413   -1.3936    1.2022 N   0  0  0  0  0  0  0  0  0  0  0  0
    6.1802   -1.0189    2.2338 C   0  0  0  0  0  0  0  0  0  0  0  0
    5.4192   -2.2515    0.6883 H   0  0  0  0  0  0  0  0  0  0  0  0
    6.9722   -0.3914    1.7991 H   0  0  0  0  0  0  0  0  0  0  0  0
    5.6559   -0.4553    3.0195 H   0  0  0  0  0  0  0  0  0  0  0  0
    6.6276   -1.9248    2.6688 H   0  0  0  0  0  0  0  0  0  0  0  0
  1  3  1  0  0  0  0
  1  7  1  0  0  0  0
  1  2  2  0  0  0  0
 40 41  1  0  0  0  0
 41 49  1  0  0  0  0
 41 42  2  0  0  0  0
  8  9  1  0  0  0  0
  9 17  1  0  0  0  0
  9 10  2  0  0  0  0
 18 19  1  0  0  0  0
 19 39  1  0  0  0  0
 19 20  2  0  0  0  0
 40 43  1  0  0  0  0
  8 11  1  0  0  0  0
 49 50  1  0  0  0  0
 22 23  1  0  0  0  0
 21 22  1  0  0  0  0
 23 24  1  0  0  0  0
 18 21  1  0  0  0  0
 24 25  1  0  0  0  0
 39 40  1  0  0  0  0
  7  8  1  0  0  0  0
 17 18  1  0  0  0  0
  3  4  1  0  0  0  0
  3  5  1  0  0  0  0
  3  6  1  0  0  0  0
 43 46  1  0  0  0  0
 43 47  1  0  0  0  0
 43 48  1  0  0  0  0
 11 14  1  0  0  0  0
 11 15  1  0  0  0  0
 11 16  1  0  0  0  0
 50 52  1  0  0  0  0
 50 53  1  0  0  0  0
 50 54  1  0  0  0  0
 22 30  1  0  0  0  0
 22 31  1  0  0  0  0
 23 32  1  0  0  0  0
 23 33  1  0  0  0  0
 21 28  1  0  0  0  0
 21 29  1  0  0  0  0
 24 34  1  0  0  0  0
 24 35  1  0  0  0  0
 40 45  1  0  0  0  0
  8 13  1  0  0  0  0
 18 27  1  0  0  0  0
 49 51  1  0  0  0  0
  7 12  1  0  0  0  0
 39 44  1  0  0  0  0
 17 26  1  0  0  0  0
 25 36  1  0  0  0  0
 25 37  1  0  0  0  0
 25 38  1  0  0  0  0
M  CHG  1  25   1
M  END
$$$$

  -OEChem-05262214473D

 54 53  0     1  0  0  0  0  0999 V2000
    2.6714    2.8829   -3.0005 C   0  0  0  0  0  0  0  0  0  0  0  0
    3.1741    2.4398   -1.9745 O   0  0  0  0  0  0  0  0  0  0  0  0
    3.5527    3.3077   -4.1279 C   0  0  0  0  0  0  0  0  0  0  0  0
    3.8407    4.3691   -4.0597 H   0  0  0  0  0  0  0  0  0  0  0  0
    4.5024    2.7495   -4.1526 H   0  0  0  0  0  0  0  0  0  0  0  0
    3.1208    3.1887   -5.1345 H   0  0  0  0  0  0  0  0  0  0  0  0
    1.3174    3.0407   -3.2467 N   0  0  0  0  0  0  0  0  0  0  0  0
    0.2944    2.6927   -2.2960 C   0  0  2  0  0  0  0  0  0  0  0  0
    0.2976    1.1783   -2.1349 C   0  0  0  0  0  0  0  0  0  0  0  0
    0.7500    0.4142   -2.9850 O   0  0  0  0  0  0  0  0  0  0  0  0
   -1.0710    3.1886   -2.7460 C   0  0  0  0  0  0  0  0  0  0  0  0
    1.0312    3.4224   -4.1464 H   0  0  0  0  0  0  0  0  0  0  0  0
    0.5725    3.1622   -1.3461 H   0  0  0  0  0  0  0  0  0  0  0  0
   -1.3666    2.7292   -3.6963 H   0  0  0  0  0  0  0  0  0  0  0  0
   -1.8434    2.9482   -2.0082 H   0  0  0  0  0  0  0  0  0  0  0  0
   -1.0632    4.2744   -2.8901 H   0  0  0  0  0  0  0  0  0  0  0  0
   -0.3037    0.7742   -0.9484 N   0  0  0  0  0  0  0  0  0  0  0  0
   -0.4352   -0.6095   -0.5718 C   0  0  2  0  0  0  0  0  0  0  0  0
    0.8888   -1.3192   -0.8352 C   0  0  0  0  0  0  0  0  0  0  0  0
    1.0717   -2.0609   -1.7985 O   0  0  0  0  0  0  0  0  0  0  0  0
   -1.6219   -1.2835   -1.2707 C   0  0  0  0  0  0  0  0  0  0  0  0
   -2.9928   -0.7664   -0.8152 C   0  0  0  0  0  0  0  0  0  0  0  0
   -4.1270   -1.4996   -1.5351 C   0  0  0  0  0  0  0  0  0  0  0  0
   -5.4841   -0.9674   -1.0992 C   0  0  0  0  0  0  0  0  0  0  0  0
   -6.5487   -1.6880   -1.8379 N   0  3  0  0  0  0  0  0  0  0  0  0
   -0.6336    1.4811   -0.2948 H   0  0  0  0  0  0  0  0  0  0  0  0
   -0.6102   -0.6103    0.5108 H   0  0  0  0  0  0  0  0  0  0  0  0
   -1.5280   -1.1302   -2.3536 H   0  0  0  0  0  0  0  0  0  0  0  0
   -1.5778   -2.3665   -1.1013 H   0  0  0  0  0  0  0  0  0  0  0  0
   -3.1046   -0.9047    0.2665 H   0  0  0  0  0  0  0  0  0  0  0  0
   -3.0735    0.3084   -1.0157 H   0  0  0  0  0  0  0  0  0  0  0  0
   -4.0632   -2.5740   -1.3221 H   0  0  0  0  0  0  0  0  0  0  0  0
   -4.0117   -1.3797   -2.6196 H   0  0  0  0  0  0  0  0  0  0  0  0
   -5.6675   -1.1356   -0.0338 H   0  0  0  0  0  0  0  0  0  0  0  0
   -5.6012    0.0956   -1.3300 H   0  0  0  0  0  0  0  0  0  0  0  0
   -7.4265   -1.1571   -1.8291 H   0  0  0  0  0  0  0  0  0  0  0  0
   -6.7310   -2.6058   -1.4169 H   0  0  0  0  0  0  0  0  0  0  0  0
   -6.2804   -1.8376   -2.8168 H   0  0  0  0  0  0  0  0  0  0  0  0
    1.8527   -1.0026    0.1112 N   0  0  0  0  0  0  0  0  0  0  0  0
    3.1903   -1.5428    0.0573 C   0  0  2  0  0  0  0  0  0  0  0  0
    3.8671   -1.2567    1.3913 C   0  0  0  0  0  0  0  0  0  0  0  0
    3.5077   -0.3555    2.1462 O   0  0  0  0  0  0  0  0  0  0  0  0
    3.9830   -0.9437   -1.0939 C   0  0  0  0  0  0  0  0  0  0  0  0
    1.6091   -0.3696    0.8672 H   0  0  0  0  0  0  0  0  0  0  0  0
    3.0890   -2.6253   -0.0767 H   0  0  0  0  0  0  0  0  0  0  0  0
    4.0949    0.1404   -0.9770 H   0  0  0  0  0  0  0  0  0  0  0  0
    4.9877   -1.3754   -1.1508 H   0  0  0  0  0  0  0  0  0  0  0  0
    3.4795   -1.1247   -2.0497 H   0  0  0  0  0  0  0  0  0  0  0  0
    4.9467   -2.0983    1.6199 N   0  0  0  0  0  0  0  0  0  0  0  0
    5.7598   -2.0174    2.8108 C   0  0  0  0  0  0  0  0  0  0  0  0
    5.1611   -2.8296    0.9484 H   0  0  0  0  0  0  0  0  0  0  0  0
    6.6191   -1.3565    2.6246 H   0  0  0  0  0  0  0  0  0  0  0  0
    5.1586   -1.6126    3.6383 H   0  0  0  0  0  0  0  0  0  0  0  0
    6.1208   -3.0218    3.0771 H   0  0  0  0  0  0  0  0  0  0  0  0
  1  3  1  0  0  0  0
  1  7  1  0  0  0  0
  1  2  2  0  0  0  0
 40 41  1  0  0  0  0
 41 49  1  0  0  0  0
 41 42  2  0  0  0  0
  8  9  1  0  0  0  0
  9 17  1  0  0  0  0
  9 10  2  0  0  0  0
 18 19  1  0  0  0  0
 19 39  1  0  0  0  0
 19 20  2  0  0  0  0
 40 43  1  0  0  0  0
  8 11  1  0  0  0  0
 49 50  1  0  0  0  0
 22 23  1  0  0  0  0
 21 22  1  0  0  0  0
 23 24  1  0  0  0  0
 18 21  1  0  0  0  0
 24 25  1  0  0  0  0
 39 40  1  0  0  0  0
  7  8  1  0  0  0  0
 17 18  1  0  0  0  0
  3  4  1  0  0  0  0
  3  5  1  0  0  0  0
  3  6  1  0  0  0  0
 43 46  1  0  0  0  0
 43 47  1  0  0  0  0
 43 48  1  0  0  0  0
 11 14  1  0  0  0  0
 11 15  1  0  0  0  0
 11 16  1  0  0  0  0
 50 52  1  0  0  0  0
 50 53  1  0  0  0  0
 50 54  1  0  0  0  0
 22 30  1  0  0  0  0
 22 31  1  0  0  0  0
 23 32  1  0  0  0  0
 23 33  1  0  0  0  0
 21 28  1  0  0  0  0
 21 29  1  0  0  0  0
 24 34  1  0  0  0  0
 24 35  1  0  0  0  0
 40 45  1  0  0  0  0
  8 13  1  0  0  0  0
 18 27  1  0  0  0  0
 49 51  1  0  0  0  0
  7 12  1  0  0  0  0
 39 44  1  0  0  0  0
 17 26  1  0  0  0  0
 25 36  1  0  0  0  0
 25 37  1  0  0  0  0
 25 38  1  0  0  0  0
M  CHG  1  25   1
M  END
$$$$

  -OEChem-05262214473D

 54 53  0     1  0  0  0  0  0999 V2000
    2.6714    2.8829   -3.0005 C   0  0  0  0  0  0  0  0  0  0  0  0
    3.1741    2.4398   -1.9745 O   0  0  0  0  0  0  0  0  0  0  0  0
    3.5527    3.3077   -4.1279 C   0  0  0  0  0  0  0  0  0  0  0  0
    3.8407    4.3691   -4.0597 H   0  0  0  0  0  0  0  0  0  0  0  0
    4.5024    2.7495   -4.1526 H   0  0  0  0  0  0  0  0  0  0  0  0
    3.1208    3.1887   -5.1345 H   0  0  0  0  0  0  0  0  0  0  0  0
    1.3174    3.0407   -3.2467 N   0  0  0  0  0  0  0  0  0  0  0  0
    0.2944    2.6927   -2.2960 C   0  0  2  0  0  0  0  0  0  0  0  0
    0.2976    1.1783   -2.1349 C   0  0  0  0  0  0  0  0  0  0  0  0
    0.7500    0.4142   -2.9850 O   0  0  0  0  0  0  0  0  0  0  0  0
   -1.0710    3.1886   -2.7460 C   0  0  0  0  0  0  0  0  0  0  0  0
    1.0312    3.4224   -4.1464 H   0  0  0  0  0  0  0  0  0  0  0  0
    0.5725    3.1622   -1.3461 H   0  0  0  0  0  0  0  0  0  0  0  0
   -1.3666    2.7292   -3.6963 H   0  0  0  0  0  0  0  0  0  0  0  0
   -1.8434    2.9482   -2.0082 H   0  0  0  0  0  0  0  0  0  0  0  0
   -1.0632    4.2744   -2.8901 H   0  0  0  0  0  0  0  0  0  0  0  0
   -0.3037    0.7742   -0.9484 N   0  0  0  0  0  0  0  0  0  0  0  0
   -0.4352   -0.6095   -0.5718 C   0  0  2  0  0  0  0  0  0  0  0  0
    0.8888   -1.3192   -0.8352 C   0  0  0  0  0  0  0  0  0  0  0  0
    1.1682   -1.8380   -1.9142 O   0  0  0  0  0  0  0  0  0  0  0  0
   -1.6219   -1.2835   -1.2707 C   0  0  0  0  0  0  0  0  0  0  0  0
   -2.9928   -0.7664   -0.8152 C   0  0  0  0  0  0  0  0  0  0  0  0
   -4.1270   -1.4996   -1.5351 C   0  0  0  0  0  0  0  0  0  0  0  0
   -5.4841   -0.9674   -1.0992 C   0  0  0  0  0  0  0  0  0  0  0  0
   -6.5487   -1.6880   -1.8379 N   0  3  0  0  0  0  0  0  0  0  0  0
   -0.6336    1.4811   -0.2948 H   0  0  0  0  0  0  0  0  0  0  0  0
   -0.6102   -0.6103    0.5108 H   0  0  0  0  0  0  0  0  0  0  0  0
   -1.5280   -1.1302   -2.3536 H   0  0  0  0  0  0  0  0  0  0  0  0
   -1.5778   -2.3665   -1.1013 H   0  0  0  0  0  0  0  0  0  0  0  0
   -3.1046   -0.9047    0.2665 H   0  0  0  0  0  0  0  0  0  0  0  0
   -3.0735    0.3084   -1.0157 H   0  0  0  0  0  0  0  0  0  0  0  0
   -4.0632   -2.5740   -1.3221 H   0  0  0  0  0  0  0  0  0  0  0  0
   -4.0117   -1.3797   -2.6196 H   0  0  0  0  0  0  0  0  0  0  0  0
   -5.6675   -1.1356   -0.0338 H   0  0  0  0  0  0  0  0  0  0  0  0
   -5.6012    0.0956   -1.3300 H   0  0  0  0  0  0  0  0  0  0  0  0
   -7.4265   -1.1571   -1.8291 H   0  0  0  0  0  0  0  0  0  0  0  0
   -6.7310   -2.6058   -1.4169 H   0  0  0  0  0  0  0  0  0  0  0  0
   -6.2804   -1.8376   -2.8168 H   0  0  0  0  0  0  0  0  0  0  0  0
    1.7356   -1.2775    0.2630 N   0  0  0  0  0  0  0  0  0  0  0  0
    3.0520   -1.8695    0.2424 C   0  0  2  0  0  0  0  0  0  0  0  0
    3.5645   -1.9266    1.6754 C   0  0  0  0  0  0  0  0  0  0  0  0
    3.1412   -1.1960    2.5688 O   0  0  0  0  0  0  0  0  0  0  0  0
    4.0011   -1.0772   -0.6431 C   0  0  0  0  0  0  0  0  0  0  0  0
    1.4187   -0.8149    1.1099 H   0  0  0  0  0  0  0  0  0  0  0  0
    2.9349   -2.8874   -0.1451 H   0  0  0  0  0  0  0  0  0  0  0  0
    4.1309   -0.0545   -0.2707 H   0  0  0  0  0  0  0  0  0  0  0  0
    4.9912   -1.5435   -0.6805 H   0  0  0  0  0  0  0  0  0  0  0  0
    3.6162   -1.0118   -1.6666 H   0  0  0  0  0  0  0  0  0  0  0  0
    4.5803   -2.8596    1.8295 N   0  0  0  0  0  0  0  0  0  0  0  0
    5.2396   -3.0928    3.0933 C   0  0  0  0  0  0  0  0  0  0  0  0
    4.8546   -3.4349    1.0386 H   0  0  0  0  0  0  0  0  0  0  0  0
    6.1355   -2.4584    3.1625 H   0  0  0  0  0  0  0  0  0  0  0  0
    4.5521   -2.8473    3.9161 H   0  0  0  0  0  0  0  0  0  0  0  0
    5.5331   -4.1506    3.1639 H   0  0  0  0  0  0  0  0  0  0  0  0
  1  3  1  0  0  0  0
  1  7  1  0  0  0  0
  1  2  2  0  0  0  0
 40 41  1  0  0  0  0
 41 49  1  0  0  0  0
 41 42  2  0  0  0  0
  8  9  1  0  0  0  0
  9 17  1  0  0  0  0
  9 10  2  0  0  0  0
 18 19  1  0  0  0  0
 19 39  1  0  0  0  0
 19 20  2  0  0  0  0
 40 43  1  0  0  0  0
  8 11  1  0  0  0  0
 49 50  1  0  0  0  0
 22 23  1  0  0  0  0
 21 22  1  0  0  0  0
 23 24  1  0  0  0  0
 18 21  1  0  0  0  0
 24 25  1  0  0  0  0
 39 40  1  0  0  0  0
  7  8  1  0  0  0  0
 17 18  1  0  0  0  0
  3  4  1  0  0  0  0
  3  5  1  0  0  0  0
  3  6  1  0  0  0  0
 43 46  1  0  0  0  0
 43 47  1  0  0  0  0
 43 48  1  0  0  0  0
 11 14  1  0  0  0  0
 11 15  1  0  0  0  0
 11 16  1  0  0  0  0
 50 52  1  0  0  0  0
 50 53  1  0  0  0  0
 50 54  1  0  0  0  0
 22 30  1  0  0  0  0
 22 31  1  0  0  0  0
 23 32  1  0  0  0  0
 23 33  1  0  0  0  0
 21 28  1  0  0  0  0
 21 29  1  0  0  0  0
 24 34  1  0  0  0  0
 24 35  1  0  0  0  0
 40 45  1  0  0  0  0
  8 13  1  0  0  0  0
 18 27  1  0  0  0  0
 49 51  1  0  0  0  0
  7 12  1  0  0  0  0
 39 44  1  0  0  0  0
 17 26  1  0  0  0  0
 25 36  1  0  0  0  0
 25 37  1  0  0  0  0
 25 38  1  0  0  0  0
M  CHG  1  25   1
M  END
$$$$

  -OEChem-05262214473D

 54 53  0     1  0  0  0  0  0999 V2000
    2.6714    2.8829   -3.0005 C   0  0  0  0  0  0  0  0  0  0  0  0
    3.1741    2.4398   -1.9745 O   0  0  0  0  0  0  0  0  0  0  0  0
    3.5527    3.3077   -4.1279 C   0  0  0  0  0  0  0  0  0  0  0  0
    3.8407    4.3691   -4.0597 H   0  0  0  0  0  0  0  0  0  0  0  0
    4.5024    2.7495   -4.1526 H   0  0  0  0  0  0  0  0  0  0  0  0
    3.1208    3.1887   -5.1345 H   0  0  0  0  0  0  0  0  0  0  0  0
    1.3174    3.0407   -3.2467 N   0  0  0  0  0  0  0  0  0  0  0  0
    0.2944    2.6927   -2.2960 C   0  0  2  0  0  0  0  0  0  0  0  0
    0.2976    1.1783   -2.1349 C   0  0  0  0  0  0  0  0  0  0  0  0
    0.7500    0.4142   -2.9850 O   0  0  0  0  0  0  0  0  0  0  0  0
   -1.0710    3.1886   -2.7460 C   0  0  0  0  0  0  0  0  0  0  0  0
    1.0312    3.4224   -4.1464 H   0  0  0  0  0  0  0  0  0  0  0  0
    0.5725    3.1622   -1.3461 H   0  0  0  0  0  0  0  0  0  0  0  0
   -1.3666    2.7292   -3.6963 H   0  0  0  0  0  0  0  0  0  0  0  0
   -1.8434    2.9482   -2.0082 H   0  0  0  0  0  0  0  0  0  0  0  0
   -1.0632    4.2744   -2.8901 H   0  0  0  0  0  0  0  0  0  0  0  0
   -0.3037    0.7742   -0.9484 N   0  0  0  0  0  0  0  0  0  0  0  0
   -0.4352   -0.6095   -0.5718 C   0  0  2  0  0  0  0  0  0  0  0  0
    0.8888   -1.3192   -0.8352 C   0  0  0  0  0  0  0  0  0  0  0  0
    1.2852   -1.6010   -1.9644 O   0  0  0  0  0  0  0  0  0  0  0  0
   -1.6219   -1.2835   -1.2707 C   0  0  0  0  0  0  0  0  0  0  0  0
   -2.9928   -0.7664   -0.8152 C   0  0  0  0  0  0  0  0  0  0  0  0
   -4.1270   -1.4996   -1.5351 C   0  0  0  0  0  0  0  0  0  0  0  0
   -5.4841   -0.9674   -1.0992 C   0  0  0  0  0  0  0  0  0  0  0  0
   -6.5487   -1.6880   -1.8379 N   0  3  0  0  0  0  0  0  0  0  0  0
   -0.6336    1.4811   -0.2948 H   0  0  0  0  0  0  0  0  0  0  0  0
   -0.6102   -0.6103    0.5108 H   0  0  0  0  0  0  0  0  0  0  0  0
   -1.5280   -1.1302   -2.3536 H   0  0  0  0  0  0  0  0  0  0  0  0
   -1.5778   -2.3665   -1.1013 H   0  0  0  0  0  0  0  0  0  0  0  0
   -3.1046   -0.9047    0.2665 H   0  0  0  0  0  0  0  0  0  0  0  0
   -3.0735    0.3084   -1.0157 H   0  0  0  0  0  0  0  0  0  0  0  0
   -4.0632   -2.5740   -1.3221 H   0  0  0  0  0  0  0  0  0  0  0  0
   -4.0117   -1.3797   -2.6196 H   0  0  0  0  0  0  0  0  0  0  0  0
   -5.6675   -1.1356   -0.0338 H   0  0  0  0  0  0  0  0  0  0  0  0
   -5.6012    0.0956   -1.3300 H   0  0  0  0  0  0  0  0  0  0  0  0
   -7.4265   -1.1571   -1.8291 H   0  0  0  0  0  0  0  0  0  0  0  0
   -6.7310   -2.6058   -1.4169 H   0  0  0  0  0  0  0  0  0  0  0  0
   -6.2804   -1.8376   -2.8168 H   0  0  0  0  0  0  0  0  0  0  0  0
    1.5919   -1.5719    0.3339 N   0  0  0  0  0  0  0  0  0  0  0  0
    2.8815   -2.2204    0.3311 C   0  0  2  0  0  0  0  0  0  0  0  0
    3.2080   -2.6241    1.7628 C   0  0  0  0  0  0  0  0  0  0  0  0
    2.6988   -2.0865    2.7440 O   0  0  0  0  0  0  0  0  0  0  0  0
    3.9584   -1.3083   -0.2355 C   0  0  0  0  0  0  0  0  0  0  0  0
    1.1856   -1.2911    1.2214 H   0  0  0  0  0  0  0  0  0  0  0  0
    2.7826   -3.1183   -0.2886 H   0  0  0  0  0  0  0  0  0  0  0  0
    4.0719   -0.4031    0.3722 H   0  0  0  0  0  0  0  0  0  0  0  0
    4.9304   -1.8117   -0.2635 H   0  0  0  0  0  0  0  0  0  0  0  0
    3.7072   -0.9950   -1.2546 H   0  0  0  0  0  0  0  0  0  0  0  0
    4.1671   -3.6258    1.8168 N   0  0  0  0  0  0  0  0  0  0  0  0
    4.6550   -4.1717    3.0618 C   0  0  0  0  0  0  0  0  0  0  0  0
    4.5206   -4.0262    0.9529 H   0  0  0  0  0  0  0  0  0  0  0  0
    5.5544   -3.6220    3.3764 H   0  0  0  0  0  0  0  0  0  0  0  0
    3.8776   -4.0752    3.8340 H   0  0  0  0  0  0  0  0  0  0  0  0
    4.9044   -5.2341    2.9234 H   0  0  0  0  0  0  0  0  0  0  0  0
  1  3  1  0  0  0  0
  1  7  1  0  0  0  0
  1  2  2  0  0  0  0
 40 41  1  0  0  0  0
 41 49  1  0  0  0  0
 41 42  2  0  0  0  0
  8  9  1  0  0  0  0
  9 17  1  0  0  0  0
  9 10  2  0  0  0  0
 18 19  1  0  0  0  0
 19 39  1  0  0  0  0
 19 20  2  0  0  0  0
 40 43  1  0  0  0  0
  8 11  1  0  0  0  0
 49 50  1  0  0  0  0
 22 23  1  0  0  0  0
 21 22  1  0  0  0  0
 23 24  1  0  0  0  0
 18 21  1  0  0  0  0
 24 25  1  0  0  0  0
 39 40  1  0  0  0  0
  7  8  1  0  0  0  0
 17 18  1  0  0  0  0
  3  4  1  0  0  0  0
  3  5  1  0  0  0  0
  3  6  1  0  0  0  0
 43 46  1  0  0  0  0
 43 47  1  0  0  0  0
 43 48  1  0  0  0  0
 11 14  1  0  0  0  0
 11 15  1  0  0  0  0
 11 16  1  0  0  0  0
 50 52  1  0  0  0  0
 50 53  1  0  0  0  0
 50 54  1  0  0  0  0
 22 30  1  0  0  0  0
 22 31  1  0  0  0  0
 23 32  1  0  0  0  0
 23 33  1  0  0  0  0
 21 28  1  0  0  0  0
 21 29  1  0  0  0  0
 24 34  1  0  0  0  0
 24 35  1  0  0  0  0
 40 45  1  0  0  0  0
  8 13  1  0  0  0  0
 18 27  1  0  0  0  0
 49 51  1  0  0  0  0
  7 12  1  0  0  0  0
 39 44  1  0  0  0  0
 17 26  1  0  0  0  0
 25 36  1  0  0  0  0
 25 37  1  0  0  0  0
 25 38  1  0  0  0  0
M  CHG  1  25   1
M  END
$$$$

  -OEChem-05262214473D

 54 53  0     1  0  0  0  0  0999 V2000
    2.6714    2.8829   -3.0005 C   0  0  0  0  0  0  0  0  0  0  0  0
    3.1741    2.4398   -1.9745 O   0  0  0  0  0  0  0  0  0  0  0  0
    3.5527    3.3077   -4.1279 C   0  0  0  0  0  0  0  0  0  0  0  0
    3.8407    4.3691   -4.0597 H   0  0  0  0  0  0  0  0  0  0  0  0
    4.5024    2.7495   -4.1526 H   0  0  0  0  0  0  0  0  0  0  0  0
    3.1208    3.1887   -5.1345 H   0  0  0  0  0  0  0  0  0  0  0  0
    1.3174    3.0407   -3.2467 N   0  0  0  0  0  0  0  0  0  0  0  0
    0.2944    2.6927   -2.2960 C   0  0  2  0  0  0  0  0  0  0  0  0
    0.2976    1.1783   -2.1349 C   0  0  0  0  0  0  0  0  0  0  0  0
    0.7500    0.4142   -2.9850 O   0  0  0  0  0  0  0  0  0  0  0  0
   -1.0710    3.1886   -2.7460 C   0  0  0  0  0  0  0  0  0  0  0  0
    1.0312    3.4224   -4.1464 H   0  0  0  0  0  0  0  0  0  0  0  0
    0.5725    3.1622   -1.3461 H   0  0  0  0  0  0  0  0  0  0  0  0
   -1.3666    2.7292   -3.6963 H   0  0  0  0  0  0  0  0  0  0  0  0
   -1.8434    2.9482   -2.0082 H   0  0  0  0  0  0  0  0  0  0  0  0
   -1.0632    4.2744   -2.8901 H   0  0  0  0  0  0  0  0  0  0  0  0
   -0.3037    0.7742   -0.9484 N   0  0  0  0  0  0  0  0  0  0  0  0
   -0.4352   -0.6095   -0.5718 C   0  0  2  0  0  0  0  0  0  0  0  0
    0.8888   -1.3192   -0.8352 C   0  0  0  0  0  0  0  0  0  0  0  0
    1.4149   -1.3661   -1.9454 O   0  0  0  0  0  0  0  0  0  0  0  0
   -1.6219   -1.2835   -1.2707 C   0  0  0  0  0  0  0  0  0  0  0  0
   -2.9928   -0.7664   -0.8152 C   0  0  0  0  0  0  0  0  0  0  0  0
   -4.1270   -1.4996   -1.5351 C   0  0  0  0  0  0  0  0  0  0  0  0
   -5.4841   -0.9674   -1.0992 C   0  0  0  0  0  0  0  0  0  0  0  0
   -6.5487   -1.6880   -1.8379 N   0  3  0  0  0  0  0  0  0  0  0  0
   -0.6336    1.4811   -0.2948 H   0  0  0  0  0  0  0  0  0  0  0  0
   -0.6102   -0.6103    0.5108 H   0  0  0  0  0  0  0  0  0  0  0  0
   -1.5280   -1.1302   -2.3536 H   0  0  0  0  0  0  0  0  0  0  0  0
   -1.5778   -2.3665   -1.1013 H   0  0  0  0  0  0  0  0  0  0  0  0
   -3.1046   -0.9047    0.2665 H   0  0  0  0  0  0  0  0  0  0  0  0
   -3.0735    0.3084   -1.0157 H   0  0  0  0  0  0  0  0  0  0  0  0
   -4.0632   -2.5740   -1.3221 H   0  0  0  0  0  0  0  0  0  0  0  0
   -4.0117   -1.3797   -2.6196 H   0  0  0  0  0  0  0  0  0  0  0  0
   -5.6675   -1.1356   -0.0338 H   0  0  0  0  0  0  0  0  0  0  0  0
   -5.6012    0.0956   -1.3300 H   0  0  0  0  0  0  0  0  0  0  0  0
   -7.4265   -1.1571   -1.8291 H   0  0  0  0  0  0  0  0  0  0  0  0
   -6.7310   -2.6058   -1.4169 H   0  0  0  0  0  0  0  0  0  0  0  0
   -6.2804   -1.8376   -2.8168 H   0  0  0  0  0  0  0  0  0  0  0  0
    1.4314   -1.8657    0.3188 N   0  0  0  0  0  0  0  0  0  0  0  0
    2.6905   -2.5717    0.3174 C   0  0  2  0  0  0  0  0  0  0  0  0
    2.8220   -3.3015    1.6476 C   0  0  0  0  0  0  0  0  0  0  0  0
    2.2105   -2.9663    2.6599 O   0  0  0  0  0  0  0  0  0  0  0  0
    3.8577   -1.6211    0.1011 C   0  0  0  0  0  0  0  0  0  0  0  0
    0.9258   -1.7657    1.1940 H   0  0  0  0  0  0  0  0  0  0  0  0
    2.6424   -3.3023   -0.4975 H   0  0  0  0  0  0  0  0  0  0  0  0
    3.9219   -0.8817    0.9077 H   0  0  0  0  0  0  0  0  0  0  0  0
    4.8095   -2.1617    0.0717 H   0  0  0  0  0  0  0  0  0  0  0  0
    3.7462   -1.0753   -0.8420 H   0  0  0  0  0  0  0  0  0  0  0  0
    3.7353   -4.3445    1.5826 N   0  0  0  0  0  0  0  0  0  0  0  0
    4.0459   -5.1807    2.7185 C   0  0  0  0  0  0  0  0  0  0  0  0
    4.1819   -4.5631    0.6969 H   0  0  0  0  0  0  0  0  0  0  0  0
    4.9152   -4.7681    3.2515 H   0  0  0  0  0  0  0  0  0  0  0  0
    3.1811   -5.2127    3.3975 H   0  0  0  0  0  0  0  0  0  0  0  0
    4.2778   -6.1986    2.3719 H   0  0  0  0  0  0  0  0  0  0  0  0
  1  3  1  0  0  0  0
  1  7  1  0  0  0  0
  1  2  2  0  0  0  0
 40 41  1  0  0  0  0
 41 49  1  0  0  0  0
 41 42  2  0  0  0  0
  8  9  1  0  0  0  0
  9 17  1  0  0  0  0
  9 10  2  0  0  0  0
 18 19  1  0  0  0  0
 19 39  1  0  0  0  0
 19 20  2  0  0  0  0
 40 43  1  0  0  0  0
  8 11  1  0  0  0  0
 49 50  1  0  0  0  0
 22 23  1  0  0  0  0
 21 22  1  0  0  0  0
 23 24  1  0  0  0  0
 18 21  1  0  0  0  0
 24 25  1  0  0  0  0
 39 40  1  0  0  0  0
  7  8  1  0  0  0  0
 17 18  1  0  0  0  0
  3  4  1  0  0  0  0
  3  5  1  0  0  0  0
  3  6  1  0  0  0  0
 43 46  1  0  0  0  0
 43 47  1  0  0  0  0
 43 48  1  0  0  0  0
 11 14  1  0  0  0  0
 11 15  1  0  0  0  0
 11 16  1  0  0  0  0
 50 52  1  0  0  0  0
 50 53  1  0  0  0  0
 50 54  1  0  0  0  0
 22 30  1  0  0  0  0
 22 31  1  0  0  0  0
 23 32  1  0  0  0  0
 23 33  1  0  0  0  0
 21 28  1  0  0  0  0
 21 29  1  0  0  0  0
 24 34  1  0  0  0  0
 24 35  1  0  0  0  0
 40 45  1  0  0  0  0
  8 13  1  0  0  0  0
 18 27  1  0  0  0  0
 49 51  1  0  0  0  0
  7 12  1  0  0  0  0
 39 44  1  0  0  0  0
 17 26  1  0  0  0  0
 25 36  1  0  0  0  0
 25 37  1  0  0  0  0
 25 38  1  0  0  0  0
M  CHG  1  25   1
M  END
$$$$

  -OEChem-05262214473D

 54 53  0     1  0  0  0  0  0999 V2000
    2.6714    2.8829   -3.0005 C   0  0  0  0  0  0  0  0  0  0  0  0
    3.1741    2.4398   -1.9745 O   0  0  0  0  0  0  0  0  0  0  0  0
    3.5527    3.3077   -4.1279 C   0  0  0  0  0  0  0  0  0  0  0  0
    3.8407    4.3691   -4.0597 H   0  0  0  0  0  0  0  0  0  0  0  0
    4.5024    2.7495   -4.1526 H   0  0  0  0  0  0  0  0  0  0  0  0
    3.1208    3.1887   -5.1345 H   0  0  0  0  0  0  0  0  0  0  0  0
    1.3174    3.0407   -3.2467 N   0  0  0  0  0  0  0  0  0  0  0  0
    0.2944    2.6927   -2.2960 C   0  0  2  0  0  0  0  0  0  0  0  0
    0.2976    1.1783   -2.1349 C   0  0  0  0  0  0  0  0  0  0  0  0
    0.7500    0.4142   -2.9850 O   0  0  0  0  0  0  0  0  0  0  0  0
   -1.0710    3.1886   -2.7460 C   0  0  0  0  0  0  0  0  0  0  0  0
    1.0312    3.4224   -4.1464 H   0  0  0  0  0  0  0  0  0  0  0  0
    0.5725    3.1622   -1.3461 H   0  0  0  0  0  0  0  0  0  0  0  0
   -1.3666    2.7292   -3.6963 H   0  0  0  0  0  0  0  0  0  0  0  0
   -1.8434    2.9482   -2.0082 H   0  0  0  0  0  0  0  0  0  0  0  0
   -1.0632    4.2744   -2.8901 H   0  0  0  0  0  0  0  0  0  0  0  0
   -0.3037    0.7742   -0.9484 N   0  0  0  0  0  0  0  0  0  0  0  0
   -0.4352   -0.6095   -0.5718 C   0  0  2  0  0  0  0  0  0  0  0  0
    0.8888   -1.3192   -0.8352 C   0  0  0  0  0  0  0  0  0  0  0  0
    1.5484   -1.1491   -1.8587 O   0  0  0  0  0  0  0  0  0  0  0  0
   -1.6219   -1.2835   -1.2707 C   0  0  0  0  0  0  0  0  0  0  0  0
   -2.9928   -0.7664   -0.8152 C   0  0  0  0  0  0  0  0  0  0  0  0
   -4.1270   -1.4996   -1.5351 C   0  0  0  0  0  0  0  0  0  0  0  0
   -5.4841   -0.9674   -1.0992 C   0  0  0  0  0  0  0  0  0  0  0  0
   -6.5487   -1.6880   -1.8379 N   0  3  0  0  0  0  0  0  0  0  0  0
   -0.6336    1.4811   -0.2948 H   0  0  0  0  0  0  0  0  0  0  0  0
   -0.6102   -0.6103    0.5108 H   0  0  0  0  0  0  0  0  0  0  0  0
   -1.5280   -1.1302   -2.3536 H   0  0  0  0  0  0  0  0  0  0  0  0
   -1.5778   -2.3665   -1.1013 H   0  0  0  0  0  0  0  0  0  0  0  0
   -3.1046   -0.9047    0.2665 H   0  0  0  0  0  0  0  0  0  0  0  0
   -3.0735    0.3084   -1.0157 H   0  0  0  0  0  0  0  0  0  0  0  0
   -4.0632   -2.5740   -1.3221 H   0  0  0  0  0  0  0  0  0  0  0  0
   -4.0117   -1.3797   -2.6196 H   0  0  0  0  0  0  0  0  0  0  0  0
   -5.6675   -1.1356   -0.0338 H   0  0  0  0  0  0  0  0  0  0  0  0
   -5.6012    0.0956   -1.3300 H   0  0  0  0  0  0  0  0  0  0  0  0
   -7.4265   -1.1571   -1.8291 H   0  0  0  0  0  0  0  0  0  0  0  0
   -6.7310   -2.6058   -1.4169 H   0  0  0  0  0  0  0  0  0  0  0  0
   -6.2804   -1.8376   -2.8168 H   0  0  0  0  0  0  0  0  0  0  0  0
    1.2651   -2.1390    0.2190 N   0  0  0  0  0  0  0  0  0  0  0  0
    2.4919   -2.8994    0.2022 C   0  0  2  0  0  0  0  0  0  0  0  0
    2.4328   -3.9126    1.3377 C   0  0  0  0  0  0  0  0  0  0  0  0
    1.7097   -3.7753    2.3222 O   0  0  0  0  0  0  0  0  0  0  0  0
    3.7058   -1.9944    0.3439 C   0  0  0  0  0  0  0  0  0  0  0  0
    0.6569   -2.2063    1.0297 H   0  0  0  0  0  0  0  0  0  0  0  0
    2.5240   -3.4269   -0.7574 H   0  0  0  0  0  0  0  0  0  0  0  0
    3.6912   -1.4575    1.2994 H   0  0  0  0  0  0  0  0  0  0  0  0
    4.6366   -2.5697    0.3023 H   0  0  0  0  0  0  0  0  0  0  0  0
    3.7306   -1.2474   -0.4568 H   0  0  0  0  0  0  0  0  0  0  0  0
    3.3143   -4.9668    1.1430 N   0  0  0  0  0  0  0  0  0  0  0  0
    3.4538   -6.0509    2.0869 C   0  0  0  0  0  0  0  0  0  0  0  0
    3.8616   -5.0091    0.2883 H   0  0  0  0  0  0  0  0  0  0  0  0
    4.2617   -5.8184    2.7964 H   0  0  0  0  0  0  0  0  0  0  0  0
    2.5100   -6.1822    2.6364 H   0  0  0  0  0  0  0  0  0  0  0  0
    3.6958   -6.9782    1.5470 H   0  0  0  0  0  0  0  0  0  0  0  0
  1  3  1  0  0  0  0
  1  7  1  0  0  0  0
  1  2  2  0  0  0  0
 40 41  1  0  0  0  0
 41 49  1  0  0  0  0
 41 42  2  0  0  0  0
  8  9  1  0  0  0  0
  9 17  1  0  0  0  0
  9 10  2  0  0  0  0
 18 19  1  0  0  0  0
 19 39  1  0  0  0  0
 19 20  2  0  0  0  0
 40 43  1  0  0  0  0
  8 11  1  0  0  0  0
 49 50  1  0  0  0  0
 22 23  1  0  0  0  0
 21 22  1  0  0  0  0
 23 24  1  0  0  0  0
 18 21  1  0  0  0  0
 24 25  1  0  0  0  0
 39 40  1  0  0  0  0
  7  8  1  0  0  0  0
 17 18  1  0  0  0  0
  3  4  1  0  0  0  0
  3  5  1  0  0  0  0
  3  6  1  0  0  0  0
 43 46  1  0  0  0  0
 43 47  1  0  0  0  0
 43 48  1  0  0  0  0
 11 14  1  0  0  0  0
 11 15  1  0  0  0  0
 11 16  1  0  0  0  0
 50 52  1  0  0  0  0
 50 53  1  0  0  0  0
 50 54  1  0  0  0  0
 22 30  1  0  0  0  0
 22 31  1  0  0  0  0
 23 32  1  0  0  0  0
 23 33  1  0  0  0  0
 21 28  1  0  0  0  0
 21 29  1  0  0  0  0
 24 34  1  0  0  0  0
 24 35  1  0  0  0  0
 40 45  1  0  0  0  0
  8 13  1  0  0  0  0
 18 27  1  0  0  0  0
 49 51  1  0  0  0  0
  7 12  1  0  0  0  0
 39 44  1  0  0  0  0
 17 26  1  0  0  0  0
 25 36  1  0  0  0  0
 25 37  1  0  0  0  0
 25 38  1  0  0  0  0
M  CHG  1  25   1
M  END
$$$$

  -OEChem-05262214473D

 54 53  0     1  0  0  0  0  0999 V2000
    2.6714    2.8829   -3.0005 C   0  0  0  0  0  0  0  0  0  0  0  0
    3.1741    2.4398   -1.9745 O   0  0  0  0  0  0  0  0  0  0  0  0
    3.5527    3.3077   -4.1279 C   0  0  0  0  0  0  0  0  0  0  0  0
    3.8407    4.3691   -4.0597 H   0  0  0  0  0  0  0  0  0  0  0  0
    4.5024    2.7495   -4.1526 H   0  0  0  0  0  0  0  0  0  0  0  0
    3.1208    3.1887   -5.1345 H   0  0  0  0  0  0  0  0  0  0  0  0
    1.3174    3.0407   -3.2467 N   0  0  0  0  0  0  0  0  0  0  0  0
    0.2944    2.6927   -2.2960 C   0  0  2  0  0  0  0  0  0  0  0  0
    0.2976    1.1783   -2.1349 C   0  0  0  0  0  0  0  0  0  0  0  0
    0.7500    0.4142   -2.9850 O   0  0  0  0  0  0  0  0  0  0  0  0
   -1.0710    3.1886   -2.7460 C   0  0  0  0  0  0  0  0  0  0  0  0
    1.0312    3.4224   -4.1464 H   0  0  0  0  0  0  0  0  0  0  0  0
    0.5725    3.1622   -1.3461 H   0  0  0  0  0  0  0  0  0  0  0  0
   -1.3666    2.7292   -3.6963 H   0  0  0  0  0  0  0  0  0  0  0  0
   -1.8434    2.9482   -2.0082 H   0  0  0  0  0  0  0  0  0  0  0  0
   -1.0632    4.2744   -2.8901 H   0  0  0  0  0  0  0  0  0  0  0  0
   -0.3037    0.7742   -0.9484 N   0  0  0  0  0  0  0  0  0  0  0  0
   -0.4352   -0.6095   -0.5718 C   0  0  2  0  0  0  0  0  0  0  0  0
    0.8888   -1.3192   -0.8352 C   0  0  0  0  0  0  0  0  0  0  0  0
    1.6767   -0.9651   -1.7101 O   0  0  0  0  0  0  0  0  0  0  0  0
   -1.6219   -1.2835   -1.2707 C   0  0  0  0  0  0  0  0  0  0  0  0
   -2.9928   -0.7664   -0.8152 C   0  0  0  0  0  0  0  0  0  0  0  0
   -4.1270   -1.4996   -1.5351 C   0  0  0  0  0  0  0  0  0  0  0  0
   -5.4841   -0.9674   -1.0992 C   0  0  0  0  0  0  0  0  0  0  0  0
   -6.5487   -1.6880   -1.8379 N   0  3  0  0  0  0  0  0  0  0  0  0
   -0.6336    1.4811   -0.2948 H   0  0  0  0  0  0  0  0  0  0  0  0
   -0.6102   -0.6103    0.5108 H   0  0  0  0  0  0  0  0  0  0  0  0
   -1.5280   -1.1302   -2.3536 H   0  0  0  0  0  0  0  0  0  0  0  0
   -1.5778   -2.3665   -1.1013 H   0  0  0  0  0  0  0  0  0  0  0  0
   -3.1046   -0.9047    0.2665 H   0  0  0  0  0  0  0  0  0  0  0  0
   -3.0735    0.3084   -1.0157 H   0  0  0  0  0  0  0  0  0  0  0  0
   -4.0632   -2.5740   -1.3221 H   0  0  0  0  0  0  0  0  0  0  0  0
   -4.0117   -1.3797   -2.6196 H   0  0  0  0  0  0  0  0  0  0  0  0
   -5.6675   -1.1356   -0.0338 H   0  0  0  0  0  0  0  0  0  0  0  0
   -5.6012    0.0956   -1.3300 H   0  0  0  0  0  0  0  0  0  0  0  0
   -7.4265   -1.1571   -1.8291 H   0  0  0  0  0  0  0  0  0  0  0  0
   -6.7310   -2.6058   -1.4169 H   0  0  0  0  0  0  0  0  0  0  0  0
   -6.2804   -1.8376   -2.8168 H   0  0  0  0  0  0  0  0  0  0  0  0
    1.1042   -2.3731    0.0411 N   0  0  0  0  0  0  0  0  0  0  0  0
    2.2993   -3.1812   -0.0066 C   0  0  2  0  0  0  0  0  0  0  0  0
    2.0668   -4.4159    0.8541 C   0  0  0  0  0  0  0  0  0  0  0  0
    1.2304   -4.4585    1.7539 O   0  0  0  0  0  0  0  0  0  0  0  0
    3.5133   -2.4028    0.4762 C   0  0  0  0  0  0  0  0  0  0  0  0
    0.3973   -2.5830    0.7395 H   0  0  0  0  0  0  0  0  0  0  0  0
    2.4353   -3.4835   -1.0508 H   0  0  0  0  0  0  0  0  0  0  0  0
    3.3954   -2.0914    1.5205 H   0  0  0  0  0  0  0  0  0  0  0  0
    4.4237   -3.0079    0.4125 H   0  0  0  0  0  0  0  0  0  0  0  0
    3.6615   -1.4994   -0.1252 H   0  0  0  0  0  0  0  0  0  0  0  0
    2.9328   -5.4502    0.5277 N   0  0  0  0  0  0  0  0  0  0  0  0
    2.9191   -6.7231    1.2100 C   0  0  0  0  0  0  0  0  0  0  0  0
    3.5814   -5.3338   -0.2452 H   0  0  0  0  0  0  0  0  0  0  0  0
    3.6383   -6.7015    2.0420 H   0  0  0  0  0  0  0  0  0  0  0  0
    1.9101   -6.9177    1.6027 H   0  0  0  0  0  0  0  0  0  0  0  0
    3.1981   -7.5200    0.5049 H   0  0  0  0  0  0  0  0  0  0  0  0
  1  3  1  0  0  0  0
  1  7  1  0  0  0  0
  1  2  2  0  0  0  0
 40 41  1  0  0  0  0
 41 49  1  0  0  0  0
 41 42  2  0  0  0  0
  8  9  1  0  0  0  0
  9 17  1  0  0  0  0
  9 10  2  0  0  0  0
 18 19  1  0  0  0  0
 19 39  1  0  0  0  0
 19 20  2  0  0  0  0
 40 43  1  0  0  0  0
  8 11  1  0  0  0  0
 49 50  1  0  0  0  0
 22 23  1  0  0  0  0
 21 22  1  0  0  0  0
 23 24  1  0  0  0  0
 18 21  1  0  0  0  0
 24 25  1  0  0  0  0
 39 40  1  0  0  0  0
  7  8  1  0  0  0  0
 17 18  1  0  0  0  0
  3  4  1  0  0  0  0
  3  5  1  0  0  0  0
  3  6  1  0  0  0  0
 43 46  1  0  0  0  0
 43 47  1  0  0  0  0
 43 48  1  0  0  0  0
 11 14  1  0  0  0  0
 11 15  1  0  0  0  0
 11 16  1  0  0  0  0
 50 52  1  0  0  0  0
 50 53  1  0  0  0  0
 50 54  1  0  0  0  0
 22 30  1  0  0  0  0
 22 31  1  0  0  0  0
 23 32  1  0  0  0  0
 23 33  1  0  0  0  0
 21 28  1  0  0  0  0
 21 29  1  0  0  0  0
 24 34  1  0  0  0  0
 24 35  1  0  0  0  0
 40 45  1  0  0  0  0
  8 13  1  0  0  0  0
 18 27  1  0  0  0  0
 49 51  1  0  0  0  0
  7 12  1  0  0  0  0
 39 44  1  0  0  0  0
 17 26  1  0  0  0  0
 25 36  1  0  0  0  0
 25 37  1  0  0  0  0
 25 38  1  0  0  0  0
M  CHG  1  25   1
M  END
$$$$

  -OEChem-05262214473D

 54 53  0     1  0  0  0  0  0999 V2000
    2.6714    2.8829   -3.0005 C   0  0  0  0  0  0  0  0  0  0  0  0
    3.1741    2.4398   -1.9745 O   0  0  0  0  0  0  0  0  0  0  0  0
    3.5527    3.3077   -4.1279 C   0  0  0  0  0  0  0  0  0  0  0  0
    3.8407    4.3691   -4.0597 H   0  0  0  0  0  0  0  0  0  0  0  0
    4.5024    2.7495   -4.1526 H   0  0  0  0  0  0  0  0  0  0  0  0
    3.1208    3.1887   -5.1345 H   0  0  0  0  0  0  0  0  0  0  0  0
    1.3174    3.0407   -3.2467 N   0  0  0  0  0  0  0  0  0  0  0  0
    0.2944    2.6927   -2.2960 C   0  0  2  0  0  0  0  0  0  0  0  0
    0.2976    1.1783   -2.1349 C   0  0  0  0  0  0  0  0  0  0  0  0
    0.7500    0.4142   -2.9850 O   0  0  0  0  0  0  0  0  0  0  0  0
   -1.0710    3.1886   -2.7460 C   0  0  0  0  0  0  0  0  0  0  0  0
    1.0312    3.4224   -4.1464 H   0  0  0  0  0  0  0  0  0  0  0  0
    0.5725    3.1622   -1.3461 H   0  0  0  0  0  0  0  0  0  0  0  0
   -1.3666    2.7292   -3.6963 H   0  0  0  0  0  0  0  0  0  0  0  0
   -1.8434    2.9482   -2.0082 H   0  0  0  0  0  0  0  0  0  0  0  0
   -1.0632    4.2744   -2.8901 H   0  0  0  0  0  0  0  0  0  0  0  0
   -0.3037    0.7742   -0.9484 N   0  0  0  0  0  0  0  0  0  0  0  0
   -0.4352   -0.6095   -0.5718 C   0  0  2  0  0  0  0  0  0  0  0  0
    0.8888   -1.3192   -0.8352 C   0  0  0  0  0  0  0  0  0  0  0  0
    1.7908   -0.8264   -1.5098 O   0  0  0  0  0  0  0  0  0  0  0  0
   -1.6219   -1.2835   -1.2707 C   0  0  0  0  0  0  0  0  0  0  0  0
   -2.9928   -0.7664   -0.8152 C   0  0  0  0  0  0  0  0  0  0  0  0
   -4.1270   -1.4996   -1.5351 C   0  0  0  0  0  0  0  0  0  0  0  0
   -5.4841   -0.9674   -1.0992 C   0  0  0  0  0  0  0  0  0  0  0  0
   -6.5487   -1.6880   -1.8379 N   0  3  0  0  0  0  0  0  0  0  0  0
   -0.6336    1.4811   -0.2948 H   0  0  0  0  0  0  0  0  0  0  0  0
   -0.6102   -0.6103    0.5108 H   0  0  0  0  0  0  0  0  0  0  0  0
   -1.5280   -1.1302   -2.3536 H   0  0  0  0  0  0  0  0  0  0  0  0
   -1.5778   -2.3665   -1.1013 H   0  0  0  0  0  0  0  0  0  0  0  0
   -3.1046   -0.9047    0.2665 H   0  0  0  0  0  0  0  0  0  0  0  0
   -3.0735    0.3084   -1.0157 H   0  0  0  0  0  0  0  0  0  0  0  0
   -4.0632   -2.5740   -1.3221 H   0  0  0  0  0  0  0  0  0  0  0  0
   -4.0117   -1.3797   -2.6196 H   0  0  0  0  0  0  0  0  0  0  0  0
   -5.6675   -1.1356   -0.0338 H   0  0  0  0  0  0  0  0  0  0  0  0
   -5.6012    0.0956   -1.3300 H   0  0  0  0  0  0  0  0  0  0  0  0
   -7.4265   -1.1571   -1.8291 H   0  0  0  0  0  0  0  0  0  0  0  0
   -6.7310   -2.6058   -1.4169 H   0  0  0  0  0  0  0  0  0  0  0  0
   -6.2804   -1.8376   -2.8168 H   0  0  0  0  0  0  0  0  0  0  0  0
    0.9598   -2.5520   -0.2027 N   0  0  0  0  0  0  0  0  0  0  0  0
    2.1259   -3.3979   -0.2948 C   0  0  2  0  0  0  0  0  0  0  0  0
    1.7491   -4.7771    0.2298 C   0  0  0  0  0  0  0  0  0  0  0  0
    0.8054   -4.9694    0.9938 O   0  0  0  0  0  0  0  0  0  0  0  0
    3.2931   -2.8184    0.4891 C   0  0  0  0  0  0  0  0  0  0  0  0
    0.1647   -2.8700    0.3434 H   0  0  0  0  0  0  0  0  0  0  0  0
    2.3824   -3.4682   -1.3575 H   0  0  0  0  0  0  0  0  0  0  0  0
    3.0547   -2.7402    1.5561 H   0  0  0  0  0  0  0  0  0  0  0  0
    4.1851   -3.4464    0.3948 H   0  0  0  0  0  0  0  0  0  0  0  0
    3.5435   -1.8143    0.1301 H   0  0  0  0  0  0  0  0  0  0  0  0
    2.6167   -5.7620   -0.2211 N   0  0  0  0  0  0  0  0  0  0  0  0
    2.4781   -7.1515    0.1475 C   0  0  0  0  0  0  0  0  0  0  0  0
    3.3606   -5.5149   -0.8672 H   0  0  0  0  0  0  0  0  0  0  0  0
    3.0875   -7.3572    1.0399 H   0  0  0  0  0  0  0  0  0  0  0  0
    1.4223   -7.3690    0.3666 H   0  0  0  0  0  0  0  0  0  0  0  0
    2.8187   -7.7869   -0.6833 H   0  0  0  0  0  0  0  0  0  0  0  0
  1  3  1  0  0  0  0
  1  7  1  0  0  0  0
  1  2  2  0  0  0  0
 40 41  1  0  0  0  0
 41 49  1  0  0  0  0
 41 42  2  0  0  0  0
  8  9  1  0  0  0  0
  9 17  1  0  0  0  0
  9 10  2  0  0  0  0
 18 19  1  0  0  0  0
 19 39  1  0  0  0  0
 19 20  2  0  0  0  0
 40 43  1  0  0  0  0
  8 11  1  0  0  0  0
 49 50  1  0  0  0  0
 22 23  1  0  0  0  0
 21 22  1  0  0  0  0
 23 24  1  0  0  0  0
 18 21  1  0  0  0  0
 24 25  1  0  0  0  0
 39 40  1  0  0  0  0
  7  8  1  0  0  0  0
 17 18  1  0  0  0  0
  3  4  1  0  0  0  0
  3  5  1  0  0  0  0
  3  6  1  0  0  0  0
 43 46  1  0  0  0  0
 43 47  1  0  0  0  0
 43 48  1  0  0  0  0
 11 14  1  0  0  0  0
 11 15  1  0  0  0  0
 11 16  1  0  0  0  0
 50 52  1  0  0  0  0
 50 53  1  0  0  0  0
 50 54  1  0  0  0  0
 22 30  1  0  0  0  0
 22 31  1  0  0  0  0
 23 32  1  0  0  0  0
 23 33  1  0  0  0  0
 21 28  1  0  0  0  0
 21 29  1  0  0  0  0
 24 34  1  0  0  0  0
 24 35  1  0  0  0  0
 40 45  1  0  0  0  0
  8 13  1  0  0  0  0
 18 27  1  0  0  0  0
 49 51  1  0  0  0  0
  7 12  1  0  0  0  0
 39 44  1  0  0  0  0
 17 26  1  0  0  0  0
 25 36  1  0  0  0  0
 25 37  1  0  0  0  0
 25 38  1  0  0  0  0
M  CHG  1  25   1
M  END
$$$$

  -OEChem-05262214473D

 54 53  0     1  0  0  0  0  0999 V2000
    2.6714    2.8829   -3.0005 C   0  0  0  0  0  0  0  0  0  0  0  0
    3.1741    2.4398   -1.9745 O   0  0  0  0  0  0  0  0  0  0  0  0
    3.5527    3.3077   -4.1279 C   0  0  0  0  0  0  0  0  0  0  0  0
    3.8407    4.3691   -4.0597 H   0  0  0  0  0  0  0  0  0  0  0  0
    4.5024    2.7495   -4.1526 H   0  0  0  0  0  0  0  0  0  0  0  0
    3.1208    3.1887   -5.1345 H   0  0  0  0  0  0  0  0  0  0  0  0
    1.3174    3.0407   -3.2467 N   0  0  0  0  0  0  0  0  0  0  0  0
    0.2944    2.6927   -2.2960 C   0  0  2  0  0  0  0  0  0  0  0  0
    0.2976    1.1783   -2.1349 C   0  0  0  0  0  0  0  0  0  0  0  0
    0.7500    0.4142   -2.9850 O   0  0  0  0  0  0  0  0  0  0  0  0
   -1.0710    3.1886   -2.7460 C   0  0  0  0  0  0  0  0  0  0  0  0
    1.0312    3.4224   -4.1464 H   0  0  0  0  0  0  0  0  0  0  0  0
    0.5725    3.1622   -1.3461 H   0  0  0  0  0  0  0  0  0  0  0  0
   -1.3666    2.7292   -3.6963 H   0  0  0  0  0  0  0  0  0  0  0  0
   -1.8434    2.9482   -2.0082 H   0  0  0  0  0  0  0  0  0  0  0  0
   -1.0632    4.2744   -2.8901 H   0  0  0  0  0  0  0  0  0  0  0  0
   -0.3037    0.7742   -0.9484 N   0  0  0  0  0  0  0  0  0  0  0  0
   -0.4352   -0.6095   -0.5718 C   0  0  2  0  0  0  0  0  0  0  0  0
    0.9557   -1.2277   -0.4758 C   0  0  0  0  0  0  0  0  0  0  0  0
    1.9880   -0.5890   -0.6702 O   0  0  0  0  0  0  0  0  0  0  0  0
   -1.3639   -1.3761   -1.5210 C   0  0  0  0  0  0  0  0  0  0  0  0
   -2.8355   -0.9504   -1.4364 C   0  0  0  0  0  0  0  0  0  0  0  0
   -3.7043   -1.7727   -2.3910 C   0  0  0  0  0  0  0  0  0  0  0  0
   -5.1588   -1.3312   -2.3224 C   0  0  0  0  0  0  0  0  0  0  0  0
   -5.9565   -2.1363   -3.2784 N   0  3  0  0  0  0  0  0  0  0  0  0
   -0.6336    1.4811   -0.2948 H   0  0  0  0  0  0  0  0  0  0  0  0
   -0.8744   -0.6064    0.4331 H   0  0  0  0  0  0  0  0  0  0  0  0
   -1.0129   -1.2329   -2.5512 H   0  0  0  0  0  0  0  0  0  0  0  0
   -1.2934   -2.4506   -1.3111 H   0  0  0  0  0  0  0  0  0  0  0  0
   -3.2045   -1.0799   -0.4123 H   0  0  0  0  0  0  0  0  0  0  0  0
   -2.9330    0.1129   -1.6851 H   0  0  0  0  0  0  0  0  0  0  0  0
   -3.6264   -2.8365   -2.1344 H   0  0  0  0  0  0  0  0  0  0  0  0
   -3.3301   -1.6613   -3.4163 H   0  0  0  0  0  0  0  0  0  0  0  0
   -5.5909   -1.4958   -1.3309 H   0  0  0  0  0  0  0  0  0  0  0  0
   -5.2831   -0.2828   -2.6092 H   0  0  0  0  0  0  0  0  0  0  0  0
   -6.8411   -1.6686   -3.5045 H   0  0  0  0  0  0  0  0  0  0  0  0
   -6.1783   -3.0582   -2.8864 H   0  0  0  0  0  0  0  0  0  0  0  0
   -5.4433   -2.2813   -4.1549 H   0  0  0  0  0  0  0  0  0  0  0  0
    0.9124   -2.5669   -0.1156 N   0  0  0  0  0  0  0  0  0  0  0  0
    2.1085   -3.3571    0.0532 C   0  0  2  0  0  0  0  0  0  0  0  0
    1.6981   -4.8220    0.1253 C   0  0  0  0  0  0  0  0  0  0  0  0
    0.5688   -5.1872    0.4454 O   0  0  0  0  0  0  0  0  0  0  0  0
    2.8727   -2.9446    1.3017 C   0  0  0  0  0  0  0  0  0  0  0  0
    0.0089   -3.0059    0.0344 H   0  0  0  0  0  0  0  0  0  0  0  0
    2.7242   -3.1932   -0.8379 H   0  0  0  0  0  0  0  0  0  0  0  0
    2.2717   -3.1017    2.2048 H   0  0  0  0  0  0  0  0  0  0  0  0
    3.7943   -3.5255    1.4128 H   0  0  0  0  0  0  0  0  0  0  0  0
    3.1411   -1.8834    1.2615 H   0  0  0  0  0  0  0  0  0  0  0  0
    2.7532   -5.6746   -0.1678 N   0  0  0  0  0  0  0  0  0  0  0  0
    2.6203   -7.1128   -0.1544 C   0  0  0  0  0  0  0  0  0  0  0  0
    3.6501   -5.2841   -0.4413 H   0  0  0  0  0  0  0  0  0  0  0  0
    2.8967   -7.4978    0.8383 H   0  0  0  0  0  0  0  0  0  0  0  0
    1.5784   -7.3867   -0.3767 H   0  0  0  0  0  0  0  0  0  0  0  0
    3.2845   -7.5494   -0.9148 H   0  0  0  0  0  0  0  0  0  0  0  0
  1  3  1  0  0  0  0
  1  7  1  0  0  0  0
  1  2  2  0  0  0  0
 40 41  1  0  0  0  0
 41 49  1  0  0  0  0
 41 42  2  0  0  0  0
  8  9  1  0  0  0  0
  9 17  1  0  0  0  0
  9 10  2  0  0  0  0
 18 19  1  0  0  0  0
 19 39  1  0  0  0  0
 19 20  2  0  0  0  0
 40 43  1  0  0  0  0
  8 11  1  0  0  0  0
 49 50  1  0  0  0  0
 22 23  1  0  0  0  0
 21 22  1  0  0  0  0
 23 24  1  0  0  0  0
 18 21  1  0  0  0  0
 24 25  1  0  0  0  0
 39 40  1  0  0  0  0
  7  8  1  0  0  0  0
 17 18  1  0  0  0  0
  3  4  1  0  0  0  0
  3  5  1  0  0  0  0
  3  6  1  0  0  0  0
 43 46  1  0  0  0  0
 43 47  1  0  0  0  0
 43 48  1  0  0  0  0
 11 14  1  0  0  0  0
 11 15  1  0  0  0  0
 11 16  1  0  0  0  0
 50 52  1  0  0  0  0
 50 53  1  0  0  0  0
 50 54  1  0  0  0  0
 22 30  1  0  0  0  0
 22 31  1  0  0  0  0
 23 32  1  0  0  0  0
 23 33  1  0  0  0  0
 21 28  1  0  0  0  0
 21 29  1  0  0  0  0
 24 34  1  0  0  0  0
 24 35  1  0  0  0  0
 40 45  1  0  0  0  0
  8 13  1  0  0  0  0
 18 27  1  0  0  0  0
 49 51  1  0  0  0  0
  7 12  1  0  0  0  0
 39 44  1  0  0  0  0
 17 26  1  0  0  0  0
 25 36  1  0  0  0  0
 25 37  1  0  0  0  0
 25 38  1  0  0  0  0
M  CHG  1  25   1
M  END
$$$$

  -OEChem-05262214473D

 54 53  0     1  0  0  0  0  0999 V2000
    2.6714    2.8829   -3.0005 C   0  0  0  0  0  0  0  0  0  0  0  0
    3.1741    2.4398   -1.9745 O   0  0  0  0  0  0  0  0  0  0  0  0
    3.5527    3.3077   -4.1279 C   0  0  0  0  0  0  0  0  0  0  0  0
    3.8407    4.3691   -4.0597 H   0  0  0  0  0  0  0  0  0  0  0  0
    4.5024    2.7495   -4.1526 H   0  0  0  0  0  0  0  0  0  0  0  0
    3.1208    3.1887   -5.1345 H   0  0  0  0  0  0  0  0  0  0  0  0
    1.3174    3.0407   -3.2467 N   0  0  0  0  0  0  0  0  0  0  0  0
    0.2944    2.6927   -2.2960 C   0  0  2  0  0  0  0  0  0  0  0  0
    0.2976    1.1783   -2.1349 C   0  0  0  0  0  0  0  0  0  0  0  0
    0.7500    0.4142   -2.9850 O   0  0  0  0  0  0  0  0  0  0  0  0
   -1.0710    3.1886   -2.7460 C   0  0  0  0  0  0  0  0  0  0  0  0
    1.0312    3.4224   -4.1464 H   0  0  0  0  0  0  0  0  0  0  0  0
    0.5725    3.1622   -1.3461 H   0  0  0  0  0  0  0  0  0  0  0  0
   -1.3666    2.7292   -3.6963 H   0  0  0  0  0  0  0  0  0  0  0  0
   -1.8434    2.9482   -2.0082 H   0  0  0  0  0  0  0  0  0  0  0  0
   -1.0632    4.2744   -2.8901 H   0  0  0  0  0  0  0  0  0  0  0  0
   -0.3037    0.7742   -0.9484 N   0  0  0  0  0  0  0  0  0  0  0  0
   -0.4352   -0.6095   -0.5718 C   0  0  2  0  0  0  0  0  0  0  0  0
    0.9557   -1.2277   -0.4758 C   0  0  0  0  0  0  0  0  0  0  0  0
    1.9837   -0.5573   -0.4031 O   0  0  0  0  0  0  0  0  0  0  0  0
   -1.3639   -1.3761   -1.5210 C   0  0  0  0  0  0  0  0  0  0  0  0
   -2.8355   -0.9504   -1.4364 C   0  0  0  0  0  0  0  0  0  0  0  0
   -3.7043   -1.7727   -2.3910 C   0  0  0  0  0  0  0  0  0  0  0  0
   -5.1588   -1.3312   -2.3224 C   0  0  0  0  0  0  0  0  0  0  0  0
   -5.9565   -2.1363   -3.2784 N   0  3  0  0  0  0  0  0  0  0  0  0
   -0.6336    1.4811   -0.2948 H   0  0  0  0  0  0  0  0  0  0  0  0
   -0.8744   -0.6064    0.4331 H   0  0  0  0  0  0  0  0  0  0  0  0
   -1.0129   -1.2329   -2.5512 H   0  0  0  0  0  0  0  0  0  0  0  0
   -1.2934   -2.4506   -1.3111 H   0  0  0  0  0  0  0  0  0  0  0  0
   -3.2045   -1.0799   -0.4123 H   0  0  0  0  0  0  0  0  0  0  0  0
   -2.9330    0.1129   -1.6851 H   0  0  0  0  0  0  0  0  0  0  0  0
   -3.6264   -2.8365   -2.1344 H   0  0  0  0  0  0  0  0  0  0  0  0
   -3.3301   -1.6613   -3.4163 H   0  0  0  0  0  0  0  0  0  0  0  0
   -5.5909   -1.4958   -1.3309 H   0  0  0  0  0  0  0  0  0  0  0  0
   -5.2831   -0.2828   -2.6092 H   0  0  0  0  0  0  0  0  0  0  0  0
   -6.8411   -1.6686   -3.5045 H   0  0  0  0  0  0  0  0  0  0  0  0
   -6.1783   -3.0582   -2.8864 H   0  0  0  0  0  0  0  0  0  0  0  0
   -5.4433   -2.2813   -4.1549 H   0  0  0  0  0  0  0  0  0  0  0  0
    0.9143   -2.6143   -0.4474 N   0  0  0  0  0  0  0  0  0  0  0  0
    2.1090   -3.4176   -0.3423 C   0  0  2  0  0  0  0  0  0  0  0  0
    1.7358   -4.8593   -0.6610 C   0  0  0  0  0  0  0  0  0  0  0  0
    0.5906   -5.2942   -0.5584 O   0  0  0  0  0  0  0  0  0  0  0  0
    2.7283   -3.3097    1.0424 C   0  0  0  0  0  0  0  0  0  0  0  0
    0.0132   -3.0796   -0.5023 H   0  0  0  0  0  0  0  0  0  0  0  0
    2.8082   -3.0449   -1.0988 H   0  0  0  0  0  0  0  0  0  0  0  0
    2.0423   -3.6785    1.8138 H   0  0  0  0  0  0  0  0  0  0  0  0
    3.6499   -3.8970    1.1117 H   0  0  0  0  0  0  0  0  0  0  0  0
    2.9687   -2.2683    1.2819 H   0  0  0  0  0  0  0  0  0  0  0  0
    2.8397   -5.6143   -1.0319 N   0  0  0  0  0  0  0  0  0  0  0  0
    2.7477   -7.0152   -1.3713 C   0  0  0  0  0  0  0  0  0  0  0  0
    3.7483   -5.1668   -1.1085 H   0  0  0  0  0  0  0  0  0  0  0  0
    2.9314   -7.6234   -0.4734 H   0  0  0  0  0  0  0  0  0  0  0  0
    1.7426   -7.2325   -1.7619 H   0  0  0  0  0  0  0  0  0  0  0  0
    3.4990   -7.2567   -2.1377 H   0  0  0  0  0  0  0  0  0  0  0  0
  1  3  1  0  0  0  0
  1  7  1  0  0  0  0
  1  2  2  0  0  0  0
 40 41  1  0  0  0  0
 41 49  1  0  0  0  0
 41 42  2  0  0  0  0
  8  9  1  0  0  0  0
  9 17  1  0  0  0  0
  9 10  2  0  0  0  0
 18 19  1  0  0  0  0
 19 39  1  0  0  0  0
 19 20  2  0  0  0  0
 40 43  1  0  0  0  0
  8 11  1  0  0  0  0
 49 50  1  0  0  0  0
 22 23  1  0  0  0  0
 21 22  1  0  0  0  0
 23 24  1  0  0  0  0
 18 21  1  0  0  0  0
 24 25  1  0  0  0  0
 39 40  1  0  0  0  0
  7  8  1  0  0  0  0
 17 18  1  0  0  0  0
  3  4  1  0  0  0  0
  3  5  1  0  0  0  0
  3  6  1  0  0  0  0
 43 46  1  0  0  0  0
 43 47  1  0  0  0  0
 43 48  1  0  0  0  0
 11 14  1  0  0  0  0
 11 15  1  0  0  0  0
 11 16  1  0  0  0  0
 50 52  1  0  0  0  0
 50 53  1  0  0  0  0
 50 54  1  0  0  0  0
 22 30  1  0  0  0  0
 22 31  1  0  0  0  0
 23 32  1  0  0  0  0
 23 33  1  0  0  0  0
 21 28  1  0  0  0  0
 21 29  1  0  0  0  0
 24 34  1  0  0  0  0
 24 35  1  0  0  0  0
 40 45  1  0  0  0  0
  8 13  1  0  0  0  0
 18 27  1  0  0  0  0
 49 51  1  0  0  0  0
  7 12  1  0  0  0  0
 39 44  1  0  0  0  0
 17 26  1  0  0  0  0
 25 36  1  0  0  0  0
 25 37  1  0  0  0  0
 25 38  1  0  0  0  0
M  CHG  1  25   1
M  END
$$$$

  -OEChem-05262214473D

 54 53  0     1  0  0  0  0  0999 V2000
    2.6714    2.8829   -3.0005 C   0  0  0  0  0  0  0  0  0  0  0  0
    3.1741    2.4398   -1.9745 O   0  0  0  0  0  0  0  0  0  0  0  0
    3.5527    3.3077   -4.1279 C   0  0  0  0  0  0  0  0  0  0  0  0
    3.8407    4.3691   -4.0597 H   0  0  0  0  0  0  0  0  0  0  0  0
    4.5024    2.7495   -4.1526 H   0  0  0  0  0  0  0  0  0  0  0  0
    3.1208    3.1887   -5.1345 H   0  0  0  0  0  0  0  0  0  0  0  0
    1.3174    3.0407   -3.2467 N   0  0  0  0  0  0  0  0  0  0  0  0
    0.2944    2.6927   -2.2960 C   0  0  2  0  0  0  0  0  0  0  0  0
    0.2976    1.1783   -2.1349 C   0  0  0  0  0  0  0  0  0  0  0  0
    0.7500    0.4142   -2.9850 O   0  0  0  0  0  0  0  0  0  0  0  0
   -1.0710    3.1886   -2.7460 C   0  0  0  0  0  0  0  0  0  0  0  0
    1.0312    3.4224   -4.1464 H   0  0  0  0  0  0  0  0  0  0  0  0
    0.5725    3.1622   -1.3461 H   0  0  0  0  0  0  0  0  0  0  0  0
   -1.3666    2.7292   -3.6963 H   0  0  0  0  0  0  0  0  0  0  0  0
   -1.8434    2.9482   -2.0082 H   0  0  0  0  0  0  0  0  0  0  0  0
   -1.0632    4.2744   -2.8901 H   0  0  0  0  0  0  0  0  0  0  0  0
   -0.3037    0.7742   -0.9484 N   0  0  0  0  0  0  0  0  0  0  0  0
   -0.4352   -0.6095   -0.5718 C   0  0  2  0  0  0  0  0  0  0  0  0
    0.9557   -1.2277   -0.4758 C   0  0  0  0  0  0  0  0  0  0  0  0
    1.9509   -0.5898   -0.1380 O   0  0  0  0  0  0  0  0  0  0  0  0
   -1.3639   -1.3761   -1.5210 C   0  0  0  0  0  0  0  0  0  0  0  0
   -2.8355   -0.9504   -1.4364 C   0  0  0  0  0  0  0  0  0  0  0  0
   -3.7043   -1.7727   -2.3910 C   0  0  0  0  0  0  0  0  0  0  0  0
   -5.1588   -1.3312   -2.3224 C   0  0  0  0  0  0  0  0  0  0  0  0
   -5.9565   -2.1363   -3.2784 N   0  3  0  0  0  0  0  0  0  0  0  0
   -0.6336    1.4811   -0.2948 H   0  0  0  0  0  0  0  0  0  0  0  0
   -0.8744   -0.6064    0.4331 H   0  0  0  0  0  0  0  0  0  0  0  0
   -1.0129   -1.2329   -2.5512 H   0  0  0  0  0  0  0  0  0  0  0  0
   -1.2934   -2.4506   -1.3111 H   0  0  0  0  0  0  0  0  0  0  0  0
   -3.2045   -1.0799   -0.4123 H   0  0  0  0  0  0  0  0  0  0  0  0
   -2.9330    0.1129   -1.6851 H   0  0  0  0  0  0  0  0  0  0  0  0
   -3.6264   -2.8365   -2.1344 H   0  0  0  0  0  0  0  0  0  0  0  0
   -3.3301   -1.6613   -3.4163 H   0  0  0  0  0  0  0  0  0  0  0  0
   -5.5909   -1.4958   -1.3309 H   0  0  0  0  0  0  0  0  0  0  0  0
   -5.2831   -0.2828   -2.6092 H   0  0  0  0  0  0  0  0  0  0  0  0
   -6.8411   -1.6686   -3.5045 H   0  0  0  0  0  0  0  0  0  0  0  0
   -6.1783   -3.0582   -2.8864 H   0  0  0  0  0  0  0  0  0  0  0  0
   -5.4433   -2.2813   -4.1549 H   0  0  0  0  0  0  0  0  0  0  0  0
    0.9516   -2.5817   -0.7788 N   0  0  0  0  0  0  0  0  0  0  0  0
    2.1519   -3.3826   -0.7386 C   0  0  2  0  0  0  0  0  0  0  0  0
    1.8553   -4.7092   -1.4254 C   0  0  0  0  0  0  0  0  0  0  0  0
    0.7187   -5.1602   -1.5509 O   0  0  0  0  0  0  0  0  0  0  0  0
    2.6220   -3.6036    0.6907 C   0  0  0  0  0  0  0  0  0  0  0  0
    0.0748   -3.0241   -1.0376 H   0  0  0  0  0  0  0  0  0  0  0  0
    2.9142   -2.8387   -1.3071 H   0  0  0  0  0  0  0  0  0  0  0  0
    1.8712   -4.1471    1.2759 H   0  0  0  0  0  0  0  0  0  0  0  0
    3.5481   -4.1871    0.7181 H   0  0  0  0  0  0  0  0  0  0  0  0
    2.8062   -2.6476    1.1926 H   0  0  0  0  0  0  0  0  0  0  0  0
    3.0129   -5.3507   -1.8433 N   0  0  0  0  0  0  0  0  0  0  0  0
    2.9969   -6.6316   -2.5105 C   0  0  0  0  0  0  0  0  0  0  0  0
    3.9112   -4.8944   -1.7149 H   0  0  0  0  0  0  0  0  0  0  0  0
    3.1046   -7.4345   -1.7664 H   0  0  0  0  0  0  0  0  0  0  0  0
    2.0440   -6.7539   -3.0463 H   0  0  0  0  0  0  0  0  0  0  0  0
    3.8297   -6.6819   -3.2273 H   0  0  0  0  0  0  0  0  0  0  0  0
  1  3  1  0  0  0  0
  1  7  1  0  0  0  0
  1  2  2  0  0  0  0
 40 41  1  0  0  0  0
 41 49  1  0  0  0  0
 41 42  2  0  0  0  0
  8  9  1  0  0  0  0
  9 17  1  0  0  0  0
  9 10  2  0  0  0  0
 18 19  1  0  0  0  0
 19 39  1  0  0  0  0
 19 20  2  0  0  0  0
 40 43  1  0  0  0  0
  8 11  1  0  0  0  0
 49 50  1  0  0  0  0
 22 23  1  0  0  0  0
 21 22  1  0  0  0  0
 23 24  1  0  0  0  0
 18 21  1  0  0  0  0
 24 25  1  0  0  0  0
 39 40  1  0  0  0  0
  7  8  1  0  0  0  0
 17 18  1  0  0  0  0
  3  4  1  0  0  0  0
  3  5  1  0  0  0  0
  3  6  1  0  0  0  0
 43 46  1  0  0  0  0
 43 47  1  0  0  0  0
 43 48  1  0  0  0  0
 11 14  1  0  0  0  0
 11 15  1  0  0  0  0
 11 16  1  0  0  0  0
 50 52  1  0  0  0  0
 50 53  1  0  0  0  0
 50 54  1  0  0  0  0
 22 30  1  0  0  0  0
 22 31  1  0  0  0  0
 23 32  1  0  0  0  0
 23 33  1  0  0  0  0
 21 28  1  0  0  0  0
 21 29  1  0  0  0  0
 24 34  1  0  0  0  0
 24 35  1  0  0  0  0
 40 45  1  0  0  0  0
  8 13  1  0  0  0  0
 18 27  1  0  0  0  0
 49 51  1  0  0  0  0
  7 12  1  0  0  0  0
 39 44  1  0  0  0  0
 17 26  1  0  0  0  0
 25 36  1  0  0  0  0
 25 37  1  0  0  0  0
 25 38  1  0  0  0  0
M  CHG  1  25   1
M  END
$$$$

  -OEChem-05262214473D

 54 53  0     1  0  0  0  0  0999 V2000
    2.6714    2.8829   -3.0005 C   0  0  0  0  0  0  0  0  0  0  0  0
    3.1741    2.4398   -1.9745 O   0  0  0  0  0  0  0  0  0  0  0  0
    3.5527    3.3077   -4.1279 C   0  0  0  0  0  0  0  0  0  0  0  0
    3.8407    4.3691   -4.0597 H   0  0  0  0  0  0  0  0  0  0  0  0
    4.5024    2.7495   -4.1526 H   0  0  0  0  0  0  0  0  0  0  0  0
    3.1208    3.1887   -5.1345 H   0  0  0  0  0  0  0  0  0  0  0  0
    1.3174    3.0407   -3.2467 N   0  0  0  0  0  0  0  0  0  0  0  0
    0.2944    2.6927   -2.2960 C   0  0  2  0  0  0  0  0  0  0  0  0
    0.2976    1.1783   -2.1349 C   0  0  0  0  0  0  0  0  0  0  0  0
    0.7500    0.4142   -2.9850 O   0  0  0  0  0  0  0  0  0  0  0  0
   -1.0710    3.1886   -2.7460 C   0  0  0  0  0  0  0  0  0  0  0  0
    1.0312    3.4224   -4.1464 H   0  0  0  0  0  0  0  0  0  0  0  0
    0.5725    3.1622   -1.3461 H   0  0  0  0  0  0  0  0  0  0  0  0
   -1.3666    2.7292   -3.6963 H   0  0  0  0  0  0  0  0  0  0  0  0
   -1.8434    2.9482   -2.0082 H   0  0  0  0  0  0  0  0  0  0  0  0
   -1.0632    4.2744   -2.8901 H   0  0  0  0  0  0  0  0  0  0  0  0
   -0.3037    0.7742   -0.9484 N   0  0  0  0  0  0  0  0  0  0  0  0
   -0.4352   -0.6095   -0.5718 C   0  0  2  0  0  0  0  0  0  0  0  0
    0.9557   -1.2277   -0.4758 C   0  0  0  0  0  0  0  0  0  0  0  0
    1.8920   -0.6843    0.1069 O   0  0  0  0  0  0  0  0  0  0  0  0
   -1.3639   -1.3761   -1.5210 C   0  0  0  0  0  0  0  0  0  0  0  0
   -2.8355   -0.9504   -1.4364 C   0  0  0  0  0  0  0  0  0  0  0  0
   -3.7043   -1.7727   -2.3910 C   0  0  0  0  0  0  0  0  0  0  0  0
   -5.1588   -1.3312   -2.3224 C   0  0  0  0  0  0  0  0  0  0  0  0
   -5.9565   -2.1363   -3.2784 N   0  3  0  0  0  0  0  0  0  0  0  0
   -0.6336    1.4811   -0.2948 H   0  0  0  0  0  0  0  0  0  0  0  0
   -0.8744   -0.6064    0.4331 H   0  0  0  0  0  0  0  0  0  0  0  0
   -1.0129   -1.2329   -2.5512 H   0  0  0  0  0  0  0  0  0  0  0  0
   -1.2934   -2.4506   -1.3111 H   0  0  0  0  0  0  0  0  0  0  0  0
   -3.2045   -1.0799   -0.4123 H   0  0  0  0  0  0  0  0  0  0  0  0
   -2.9330    0.1129   -1.6851 H   0  0  0  0  0  0  0  0  0  0  0  0
   -3.6264   -2.8365   -2.1344 H   0  0  0  0  0  0  0  0  0  0  0  0
   -3.3301   -1.6613   -3.4163 H   0  0  0  0  0  0  0  0  0  0  0  0
   -5.5909   -1.4958   -1.3309 H   0  0  0  0  0  0  0  0  0  0  0  0
   -5.2831   -0.2828   -2.6092 H   0  0  0  0  0  0  0  0  0  0  0  0
   -6.8411   -1.6686   -3.5045 H   0  0  0  0  0  0  0  0  0  0  0  0
   -6.1783   -3.0582   -2.8864 H   0  0  0  0  0  0  0  0  0  0  0  0
   -5.4433   -2.2813   -4.1549 H   0  0  0  0  0  0  0  0  0  0  0  0
    1.0220   -2.4713   -1.0874 N   0  0  0  0  0  0  0  0  0  0  0  0
    2.2344   -3.2545   -1.1086 C   0  0  2  0  0  0  0  0  0  0  0  0
    2.0485   -4.3817   -2.1157 C   0  0  0  0  0  0  0  0  0  0  0  0
    0.9444   -4.7944   -2.4645 O   0  0  0  0  0  0  0  0  0  0  0  0
    2.5609   -3.8061    0.2705 C   0  0  0  0  0  0  0  0  0  0  0  0
    0.1896   -2.8431   -1.5352 H   0  0  0  0  0  0  0  0  0  0  0  0
    3.0351   -2.5887   -1.4484 H   0  0  0  0  0  0  0  0  0  0  0  0
    1.7699   -4.4756    0.6277 H   0  0  0  0  0  0  0  0  0  0  0  0
    3.4959   -4.3761    0.2587 H   0  0  0  0  0  0  0  0  0  0  0  0
    2.6649   -2.9956    0.9999 H   0  0  0  0  0  0  0  0  0  0  0  0
    3.2610   -4.9017   -2.5466 N   0  0  0  0  0  0  0  0  0  0  0  0
    3.3508   -5.9881   -3.4941 C   0  0  0  0  0  0  0  0  0  0  0  0
    4.1278   -4.4855   -2.2193 H   0  0  0  0  0  0  0  0  0  0  0  0
    3.4045   -6.9441   -2.9526 H   0  0  0  0  0  0  0  0  0  0  0  0
    2.4621   -5.9835   -4.1423 H   0  0  0  0  0  0  0  0  0  0  0  0
    4.2541   -5.8641   -4.1094 H   0  0  0  0  0  0  0  0  0  0  0  0
  1  3  1  0  0  0  0
  1  7  1  0  0  0  0
  1  2  2  0  0  0  0
 40 41  1  0  0  0  0
 41 49  1  0  0  0  0
 41 42  2  0  0  0  0
  8  9  1  0  0  0  0
  9 17  1  0  0  0  0
  9 10  2  0  0  0  0
 18 19  1  0  0  0  0
 19 39  1  0  0  0  0
 19 20  2  0  0  0  0
 40 43  1  0  0  0  0
  8 11  1  0  0  0  0
 49 50  1  0  0  0  0
 22 23  1  0  0  0  0
 21 22  1  0  0  0  0
 23 24  1  0  0  0  0
 18 21  1  0  0  0  0
 24 25  1  0  0  0  0
 39 40  1  0  0  0  0
  7  8  1  0  0  0  0
 17 18  1  0  0  0  0
  3  4  1  0  0  0  0
  3  5  1  0  0  0  0
  3  6  1  0  0  0  0
 43 46  1  0  0  0  0
 43 47  1  0  0  0  0
 43 48  1  0  0  0  0
 11 14  1  0  0  0  0
 11 15  1  0  0  0  0
 11 16  1  0  0  0  0
 50 52  1  0  0  0  0
 50 53  1  0  0  0  0
 50 54  1  0  0  0  0
 22 30  1  0  0  0  0
 22 31  1  0  0  0  0
 23 32  1  0  0  0  0
 23 33  1  0  0  0  0
 21 28  1  0  0  0  0
 21 29  1  0  0  0  0
 24 34  1  0  0  0  0
 24 35  1  0  0  0  0
 40 45  1  0  0  0  0
  8 13  1  0  0  0  0
 18 27  1  0  0  0  0
 49 51  1  0  0  0  0
  7 12  1  0  0  0  0
 39 44  1  0  0  0  0
 17 26  1  0  0  0  0
 25 36  1  0  0  0  0
 25 37  1  0  0  0  0
 25 38  1  0  0  0  0
M  CHG  1  25   1
M  END
$$$$

  -OEChem-05262214473D

 54 53  0     1  0  0  0  0  0999 V2000
    2.6714    2.8829   -3.0005 C   0  0  0  0  0  0  0  0  0  0  0  0
    3.1741    2.4398   -1.9745 O   0  0  0  0  0  0  0  0  0  0  0  0
    3.5527    3.3077   -4.1279 C   0  0  0  0  0  0  0  0  0  0  0  0
    3.8407    4.3691   -4.0597 H   0  0  0  0  0  0  0  0  0  0  0  0
    4.5024    2.7495   -4.1526 H   0  0  0  0  0  0  0  0  0  0  0  0
    3.1208    3.1887   -5.1345 H   0  0  0  0  0  0  0  0  0  0  0  0
    1.3174    3.0407   -3.2467 N   0  0  0  0  0  0  0  0  0  0  0  0
    0.2944    2.6927   -2.2960 C   0  0  2  0  0  0  0  0  0  0  0  0
    0.2976    1.1783   -2.1349 C   0  0  0  0  0  0  0  0  0  0  0  0
    0.7500    0.4142   -2.9850 O   0  0  0  0  0  0  0  0  0  0  0  0
   -1.0710    3.1886   -2.7460 C   0  0  0  0  0  0  0  0  0  0  0  0
    1.0312    3.4224   -4.1464 H   0  0  0  0  0  0  0  0  0  0  0  0
    0.5725    3.1622   -1.3461 H   0  0  0  0  0  0  0  0  0  0  0  0
   -1.3666    2.7292   -3.6963 H   0  0  0  0  0  0  0  0  0  0  0  0
   -1.8434    2.9482   -2.0082 H   0  0  0  0  0  0  0  0  0  0  0  0
   -1.0632    4.2744   -2.8901 H   0  0  0  0  0  0  0  0  0  0  0  0
   -0.3037    0.7742   -0.9484 N   0  0  0  0  0  0  0  0  0  0  0  0
   -0.4352   -0.6095   -0.5718 C   0  0  2  0  0  0  0  0  0  0  0  0
    0.9557   -1.2277   -0.4758 C   0  0  0  0  0  0  0  0  0  0  0  0
    1.8109   -0.8343    0.3150 O   0  0  0  0  0  0  0  0  0  0  0  0
   -1.3639   -1.3761   -1.5210 C   0  0  0  0  0  0  0  0  0  0  0  0
   -2.8355   -0.9504   -1.4364 C   0  0  0  0  0  0  0  0  0  0  0  0
   -3.7043   -1.7727   -2.3910 C   0  0  0  0  0  0  0  0  0  0  0  0
   -5.1588   -1.3312   -2.3224 C   0  0  0  0  0  0  0  0  0  0  0  0
   -5.9565   -2.1363   -3.2784 N   0  3  0  0  0  0  0  0  0  0  0  0
   -0.6336    1.4811   -0.2948 H   0  0  0  0  0  0  0  0  0  0  0  0
   -0.8744   -0.6064    0.4331 H   0  0  0  0  0  0  0  0  0  0  0  0
   -1.0129   -1.2329   -2.5512 H   0  0  0  0  0  0  0  0  0  0  0  0
   -1.2934   -2.4506   -1.3111 H   0  0  0  0  0  0  0  0  0  0  0  0
   -3.2045   -1.0799   -0.4123 H   0  0  0  0  0  0  0  0  0  0  0  0
   -2.9330    0.1129   -1.6851 H   0  0  0  0  0  0  0  0  0  0  0  0
   -3.6264   -2.8365   -2.1344 H   0  0  0  0  0  0  0  0  0  0  0  0
   -3.3301   -1.6613   -3.4163 H   0  0  0  0  0  0  0  0  0  0  0  0
   -5.5909   -1.4958   -1.3309 H   0  0  0  0  0  0  0  0  0  0  0  0
   -5.2831   -0.2828   -2.6092 H   0  0  0  0  0  0  0  0  0  0  0  0
   -6.8411   -1.6686   -3.5045 H   0  0  0  0  0  0  0  0  0  0  0  0
   -6.1783   -3.0582   -2.8864 H   0  0  0  0  0  0  0  0  0  0  0  0
   -5.4433   -2.2813   -4.1549 H   0  0  0  0  0  0  0  0  0  0  0  0
    1.1205   -2.2908   -1.3520 N   0  0  0  0  0  0  0  0  0  0  0  0
    2.3507   -3.0422   -1.4271 C   0  0  2  0  0  0  0  0  0  0  0  0
    2.3023   -3.8994   -2.6850 C   0  0  0  0  0  0  0  0  0  0  0  0
    1.2523   -4.2217   -3.2370 O   0  0  0  0  0  0  0  0  0  0  0  0
    2.5494   -3.9036   -0.1896 C   0  0  0  0  0  0  0  0  0  0  0  0
    0.3497   -2.5490   -1.9610 H   0  0  0  0  0  0  0  0  0  0  0  0
    3.1626   -2.3118   -1.5132 H   0  0  0  0  0  0  0  0  0  0  0  0
    1.7455   -4.6415   -0.0865 H   0  0  0  0  0  0  0  0  0  0  0  0
    3.4966   -4.4510   -0.2352 H   0  0  0  0  0  0  0  0  0  0  0  0
    2.5542   -3.2885    0.7167 H   0  0  0  0  0  0  0  0  0  0  0  0
    3.5672   -4.2980   -3.0940 N   0  0  0  0  0  0  0  0  0  0  0  0
    3.7853   -5.1286   -4.2552 C   0  0  0  0  0  0  0  0  0  0  0  0
    4.3833   -3.9680   -2.5872 H   0  0  0  0  0  0  0  0  0  0  0  0
    3.8107   -6.1855   -3.9511 H   0  0  0  0  0  0  0  0  0  0  0  0
    2.9683   -4.9739   -4.9753 H   0  0  0  0  0  0  0  0  0  0  0  0
    4.7433   -4.8591   -4.7239 H   0  0  0  0  0  0  0  0  0  0  0  0
  1  3  1  0  0  0  0
  1  7  1  0  0  0  0
  1  2  2  0  0  0  0
 40 41  1  0  0  0  0
 41 49  1  0  0  0  0
 41 42  2  0  0  0  0
  8  9  1  0  0  0  0
  9 17  1  0  0  0  0
  9 10  2  0  0  0  0
 18 19  1  0  0  0  0
 19 39  1  0  0  0  0
 19 20  2  0  0  0  0
 40 43  1  0  0  0  0
  8 11  1  0  0  0  0
 49 50  1  0  0  0  0
 22 23  1  0  0  0  0
 21 22  1  0  0  0  0
 23 24  1  0  0  0  0
 18 21  1  0  0  0  0
 24 25  1  0  0  0  0
 39 40  1  0  0  0  0
  7  8  1  0  0  0  0
 17 18  1  0  0  0  0
  3  4  1  0  0  0  0
  3  5  1  0  0  0  0
  3  6  1  0  0  0  0
 43 46  1  0  0  0  0
 43 47  1  0  0  0  0
 43 48  1  0  0  0  0
 11 14  1  0  0  0  0
 11 15  1  0  0  0  0
 11 16  1  0  0  0  0
 50 52  1  0  0  0  0
 50 53  1  0  0  0  0
 50 54  1  0  0  0  0
 22 30  1  0  0  0  0
 22 31  1  0  0  0  0
 23 32  1  0  0  0  0
 23 33  1  0  0  0  0
 21 28  1  0  0  0  0
 21 29  1  0  0  0  0
 24 34  1  0  0  0  0
 24 35  1  0  0  0  0
 40 45  1  0  0  0  0
  8 13  1  0  0  0  0
 18 27  1  0  0  0  0
 49 51  1  0  0  0  0
  7 12  1  0  0  0  0
 39 44  1  0  0  0  0
 17 26  1  0  0  0  0
 25 36  1  0  0  0  0
 25 37  1  0  0  0  0
 25 38  1  0  0  0  0
M  CHG  1  25   1
M  END
$$$$

  -OEChem-05262214473D

 54 53  0     1  0  0  0  0  0999 V2000
    2.6714    2.8829   -3.0005 C   0  0  0  0  0  0  0  0  0  0  0  0
    3.1741    2.4398   -1.9745 O   0  0  0  0  0  0  0  0  0  0  0  0
    3.5527    3.3077   -4.1279 C   0  0  0  0  0  0  0  0  0  0  0  0
    3.8407    4.3691   -4.0597 H   0  0  0  0  0  0  0  0  0  0  0  0
    4.5024    2.7495   -4.1526 H   0  0  0  0  0  0  0  0  0  0  0  0
    3.1208    3.1887   -5.1345 H   0  0  0  0  0  0  0  0  0  0  0  0
    1.3174    3.0407   -3.2467 N   0  0  0  0  0  0  0  0  0  0  0  0
    0.2944    2.6927   -2.2960 C   0  0  2  0  0  0  0  0  0  0  0  0
    0.2976    1.1783   -2.1349 C   0  0  0  0  0  0  0  0  0  0  0  0
    0.7500    0.4142   -2.9850 O   0  0  0  0  0  0  0  0  0  0  0  0
   -1.0710    3.1886   -2.7460 C   0  0  0  0  0  0  0  0  0  0  0  0
    1.0312    3.4224   -4.1464 H   0  0  0  0  0  0  0  0  0  0  0  0
    0.5725    3.1622   -1.3461 H   0  0  0  0  0  0  0  0  0  0  0  0
   -1.3666    2.7292   -3.6963 H   0  0  0  0  0  0  0  0  0  0  0  0
   -1.8434    2.9482   -2.0082 H   0  0  0  0  0  0  0  0  0  0  0  0
   -1.0632    4.2744   -2.8901 H   0  0  0  0  0  0  0  0  0  0  0  0
   -0.3037    0.7742   -0.9484 N   0  0  0  0  0  0  0  0  0  0  0  0
   -0.4352   -0.6095   -0.5718 C   0  0  2  0  0  0  0  0  0  0  0  0
    0.9557   -1.2277   -0.4758 C   0  0  0  0  0  0  0  0  0  0  0  0
    1.7132   -1.0297    0.4721 O   0  0  0  0  0  0  0  0  0  0  0  0
   -1.3639   -1.3761   -1.5210 C   0  0  0  0  0  0  0  0  0  0  0  0
   -2.8355   -0.9504   -1.4364 C   0  0  0  0  0  0  0  0  0  0  0  0
   -3.7043   -1.7727   -2.3910 C   0  0  0  0  0  0  0  0  0  0  0  0
   -5.1588   -1.3312   -2.3224 C   0  0  0  0  0  0  0  0  0  0  0  0
   -5.9565   -2.1363   -3.2784 N   0  3  0  0  0  0  0  0  0  0  0  0
   -0.6336    1.4811   -0.2948 H   0  0  0  0  0  0  0  0  0  0  0  0
   -0.8744   -0.6064    0.4331 H   0  0  0  0  0  0  0  0  0  0  0  0
   -1.0129   -1.2329   -2.5512 H   0  0  0  0  0  0  0  0  0  0  0  0
   -1.2934   -2.4506   -1.3111 H   0  0  0  0  0  0  0  0  0  0  0  0
   -3.2045   -1.0799   -0.4123 H   0  0  0  0  0  0  0  0  0  0  0  0
   -2.9330    0.1129   -1.6851 H   0  0  0  0  0  0  0  0  0  0  0  0
   -3.6264   -2.8365   -2.1344 H   0  0  0  0  0  0  0  0  0  0  0  0
   -3.3301   -1.6613   -3.4163 H   0  0  0  0  0  0  0  0  0  0  0  0
   -5.5909   -1.4958   -1.3309 H   0  0  0  0  0  0  0  0  0  0  0  0
   -5.2831   -0.2828   -2.6092 H   0  0  0  0  0  0  0  0  0  0  0  0
   -6.8411   -1.6686   -3.5045 H   0  0  0  0  0  0  0  0  0  0  0  0
   -6.1783   -3.0582   -2.8864 H   0  0  0  0  0  0  0  0  0  0  0  0
   -5.4433   -2.2813   -4.1549 H   0  0  0  0  0  0  0  0  0  0  0  0
    1.2405   -2.0523   -1.5546 N   0  0  0  0  0  0  0  0  0  0  0  0
    2.4931   -2.7600   -1.6724 C   0  0  2  0  0  0  0  0  0  0  0  0
    2.5992   -3.2950   -3.0944 C   0  0  0  0  0  0  0  0  0  0  0  0
    1.6214   -3.4812   -3.8157 O   0  0  0  0  0  0  0  0  0  0  0  0
    2.5881   -3.8893   -0.6583 C   0  0  0  0  0  0  0  0  0  0  0  0
    0.5443   -2.1617   -2.2860 H   0  0  0  0  0  0  0  0  0  0  0  0
    3.2881   -2.0270   -1.4971 H   0  0  0  0  0  0  0  0  0  0  0  0
    1.7995   -4.6336   -0.8181 H   0  0  0  0  0  0  0  0  0  0  0  0
    3.5504   -4.4068   -0.7298 H   0  0  0  0  0  0  0  0  0  0  0  0
    2.4818   -3.5064    0.3624 H   0  0  0  0  0  0  0  0  0  0  0  0
    3.9105   -3.5806   -3.4481 N   0  0  0  0  0  0  0  0  0  0  0  0
    4.2710   -4.1117   -4.7419 C   0  0  0  0  0  0  0  0  0  0  0  0
    4.6602   -3.3770   -2.7937 H   0  0  0  0  0  0  0  0  0  0  0  0
    4.2954   -5.2104   -4.6940 H   0  0  0  0  0  0  0  0  0  0  0  0
    3.5283   -3.7938   -5.4885 H   0  0  0  0  0  0  0  0  0  0  0  0
    5.2638   -3.7352   -5.0289 H   0  0  0  0  0  0  0  0  0  0  0  0
  1  3  1  0  0  0  0
  1  7  1  0  0  0  0
  1  2  2  0  0  0  0
 40 41  1  0  0  0  0
 41 49  1  0  0  0  0
 41 42  2  0  0  0  0
  8  9  1  0  0  0  0
  9 17  1  0  0  0  0
  9 10  2  0  0  0  0
 18 19  1  0  0  0  0
 19 39  1  0  0  0  0
 19 20  2  0  0  0  0
 40 43  1  0  0  0  0
  8 11  1  0  0  0  0
 49 50  1  0  0  0  0
 22 23  1  0  0  0  0
 21 22  1  0  0  0  0
 23 24  1  0  0  0  0
 18 21  1  0  0  0  0
 24 25  1  0  0  0  0
 39 40  1  0  0  0  0
  7  8  1  0  0  0  0
 17 18  1  0  0  0  0
  3  4  1  0  0  0  0
  3  5  1  0  0  0  0
  3  6  1  0  0  0  0
 43 46  1  0  0  0  0
 43 47  1  0  0  0  0
 43 48  1  0  0  0  0
 11 14  1  0  0  0  0
 11 15  1  0  0  0  0
 11 16  1  0  0  0  0
 50 52  1  0  0  0  0
 50 53  1  0  0  0  0
 50 54  1  0  0  0  0
 22 30  1  0  0  0  0
 22 31  1  0  0  0  0
 23 32  1  0  0  0  0
 23 33  1  0  0  0  0
 21 28  1  0  0  0  0
 21 29  1  0  0  0  0
 24 34  1  0  0  0  0
 24 35  1  0  0  0  0
 40 45  1  0  0  0  0
  8 13  1  0  0  0  0
 18 27  1  0  0  0  0
 49 51  1  0  0  0  0
  7 12  1  0  0  0  0
 39 44  1  0  0  0  0
 17 26  1  0  0  0  0
 25 36  1  0  0  0  0
 25 37  1  0  0  0  0
 25 38  1  0  0  0  0
M  CHG  1  25   1
M  END
$$$$

  -OEChem-05262214473D

 54 53  0     1  0  0  0  0  0999 V2000
    2.6714    2.8829   -3.0005 C   0  0  0  0  0  0  0  0  0  0  0  0
    3.1741    2.4398   -1.9745 O   0  0  0  0  0  0  0  0  0  0  0  0
    3.5527    3.3077   -4.1279 C   0  0  0  0  0  0  0  0  0  0  0  0
    3.8407    4.3691   -4.0597 H   0  0  0  0  0  0  0  0  0  0  0  0
    4.5024    2.7495   -4.1526 H   0  0  0  0  0  0  0  0  0  0  0  0
    3.1208    3.1887   -5.1345 H   0  0  0  0  0  0  0  0  0  0  0  0
    1.3174    3.0407   -3.2467 N   0  0  0  0  0  0  0  0  0  0  0  0
    0.2944    2.6927   -2.2960 C   0  0  2  0  0  0  0  0  0  0  0  0
    0.2976    1.1783   -2.1349 C   0  0  0  0  0  0  0  0  0  0  0  0
    0.7500    0.4142   -2.9850 O   0  0  0  0  0  0  0  0  0  0  0  0
   -1.0710    3.1886   -2.7460 C   0  0  0  0  0  0  0  0  0  0  0  0
    1.0312    3.4224   -4.1464 H   0  0  0  0  0  0  0  0  0  0  0  0
    0.5725    3.1622   -1.3461 H   0  0  0  0  0  0  0  0  0  0  0  0
   -1.3666    2.7292   -3.6963 H   0  0  0  0  0  0  0  0  0  0  0  0
   -1.8434    2.9482   -2.0082 H   0  0  0  0  0  0  0  0  0  0  0  0
   -1.0632    4.2744   -2.8901 H   0  0  0  0  0  0  0  0  0  0  0  0
   -0.3037    0.7742   -0.9484 N   0  0  0  0  0  0  0  0  0  0  0  0
   -0.4352   -0.6095   -0.5718 C   0  0  2  0  0  0  0  0  0  0  0  0
    0.9557   -1.2277   -0.4758 C   0  0  0  0  0  0  0  0  0  0  0  0
    1.6056   -1.2571    0.5674 O   0  0  0  0  0  0  0  0  0  0  0  0
   -1.3639   -1.3761   -1.5210 C   0  0  0  0  0  0  0  0  0  0  0  0
   -2.8355   -0.9504   -1.4364 C   0  0  0  0  0  0  0  0  0  0  0  0
   -3.7043   -1.7727   -2.3910 C   0  0  0  0  0  0  0  0  0  0  0  0
   -5.1588   -1.3312   -2.3224 C   0  0  0  0  0  0  0  0  0  0  0  0
   -5.9565   -2.1363   -3.2784 N   0  3  0  0  0  0  0  0  0  0  0  0
   -0.6336    1.4811   -0.2948 H   0  0  0  0  0  0  0  0  0  0  0  0
   -0.8744   -0.6064    0.4331 H   0  0  0  0  0  0  0  0  0  0  0  0
   -1.0129   -1.2329   -2.5512 H   0  0  0  0  0  0  0  0  0  0  0  0
   -1.2934   -2.4506   -1.3111 H   0  0  0  0  0  0  0  0  0  0  0  0
   -3.2045   -1.0799   -0.4123 H   0  0  0  0  0  0  0  0  0  0  0  0
   -2.9330    0.1129   -1.6851 H   0  0  0  0  0  0  0  0  0  0  0  0
   -3.6264   -2.8365   -2.1344 H   0  0  0  0  0  0  0  0  0  0  0  0
   -3.3301   -1.6613   -3.4163 H   0  0  0  0  0  0  0  0  0  0  0  0
   -5.5909   -1.4958   -1.3309 H   0  0  0  0  0  0  0  0  0  0  0  0
   -5.2831   -0.2828   -2.6092 H   0  0  0  0  0  0  0  0  0  0  0  0
   -6.8411   -1.6686   -3.5045 H   0  0  0  0  0  0  0  0  0  0  0  0
   -6.1783   -3.0582   -2.8864 H   0  0  0  0  0  0  0  0  0  0  0  0
   -5.4433   -2.2813   -4.1549 H   0  0  0  0  0  0  0  0  0  0  0  0
    1.3738   -1.7722   -1.6815 N   0  0  0  0  0  0  0  0  0  0  0  0
    2.6518   -2.4272   -1.8278 C   0  0  2  0  0  0  0  0  0  0  0  0
    2.9191   -2.6096   -3.3160 C   0  0  0  0  0  0  0  0  0  0  0  0
    2.0265   -2.6233   -4.1611 O   0  0  0  0  0  0  0  0  0  0  0  0
    2.6744   -3.7642   -1.1036 C   0  0  0  0  0  0  0  0  0  0  0  0
    0.7600   -1.7078   -2.4882 H   0  0  0  0  0  0  0  0  0  0  0  0
    3.4030   -1.7537   -1.4011 H   0  0  0  0  0  0  0  0  0  0  0  0
    1.9283   -4.4524   -1.5173 H   0  0  0  0  0  0  0  0  0  0  0  0
    3.6536   -4.2465   -1.1915 H   0  0  0  0  0  0  0  0  0  0  0  0
    2.4526   -3.6345   -0.0388 H   0  0  0  0  0  0  0  0  0  0  0  0
    4.2675   -2.7985   -3.5847 N   0  0  0  0  0  0  0  0  0  0  0  0
    4.7745   -3.0067   -4.9210 C   0  0  0  0  0  0  0  0  0  0  0  0
    4.9397   -2.7530   -2.8245 H   0  0  0  0  0  0  0  0  0  0  0  0
    4.8256   -4.0853   -5.1305 H   0  0  0  0  0  0  0  0  0  0  0  0
    4.1038   -2.5237   -5.6469 H   0  0  0  0  0  0  0  0  0  0  0  0
    5.7804   -2.5692   -5.0037 H   0  0  0  0  0  0  0  0  0  0  0  0
  1  3  1  0  0  0  0
  1  7  1  0  0  0  0
  1  2  2  0  0  0  0
 40 41  1  0  0  0  0
 41 49  1  0  0  0  0
 41 42  2  0  0  0  0
  8  9  1  0  0  0  0
  9 17  1  0  0  0  0
  9 10  2  0  0  0  0
 18 19  1  0  0  0  0
 19 39  1  0  0  0  0
 19 20  2  0  0  0  0
 40 43  1  0  0  0  0
  8 11  1  0  0  0  0
 49 50  1  0  0  0  0
 22 23  1  0  0  0  0
 21 22  1  0  0  0  0
 23 24  1  0  0  0  0
 18 21  1  0  0  0  0
 24 25  1  0  0  0  0
 39 40  1  0  0  0  0
  7  8  1  0  0  0  0
 17 18  1  0  0  0  0
  3  4  1  0  0  0  0
  3  5  1  0  0  0  0
  3  6  1  0  0  0  0
 43 46  1  0  0  0  0
 43 47  1  0  0  0  0
 43 48  1  0  0  0  0
 11 14  1  0  0  0  0
 11 15  1  0  0  0  0
 11 16  1  0  0  0  0
 50 52  1  0  0  0  0
 50 53  1  0  0  0  0
 50 54  1  0  0  0  0
 22 30  1  0  0  0  0
 22 31  1  0  0  0  0
 23 32  1  0  0  0  0
 23 33  1  0  0  0  0
 21 28  1  0  0  0  0
 21 29  1  0  0  0  0
 24 34  1  0  0  0  0
 24 35  1  0  0  0  0
 40 45  1  0  0  0  0
  8 13  1  0  0  0  0
 18 27  1  0  0  0  0
 49 51  1  0  0  0  0
  7 12  1  0  0  0  0
 39 44  1  0  0  0  0
 17 26  1  0  0  0  0
 25 36  1  0  0  0  0
 25 37  1  0  0  0  0
 25 38  1  0  0  0  0
M  CHG  1  25   1
M  END
$$$$

  -OEChem-05262214473D

 54 53  0     1  0  0  0  0  0999 V2000
    2.6714    2.8829   -3.0005 C   0  0  0  0  0  0  0  0  0  0  0  0
    3.1741    2.4398   -1.9745 O   0  0  0  0  0  0  0  0  0  0  0  0
    3.5527    3.3077   -4.1279 C   0  0  0  0  0  0  0  0  0  0  0  0
    3.8407    4.3691   -4.0597 H   0  0  0  0  0  0  0  0  0  0  0  0
    4.5024    2.7495   -4.1526 H   0  0  0  0  0  0  0  0  0  0  0  0
    3.1208    3.1887   -5.1345 H   0  0  0  0  0  0  0  0  0  0  0  0
    1.3174    3.0407   -3.2467 N   0  0  0  0  0  0  0  0  0  0  0  0
    0.2944    2.6927   -2.2960 C   0  0  2  0  0  0  0  0  0  0  0  0
    0.2976    1.1783   -2.1349 C   0  0  0  0  0  0  0  0  0  0  0  0
    0.7500    0.4142   -2.9850 O   0  0  0  0  0  0  0  0  0  0  0  0
   -1.0710    3.1886   -2.7460 C   0  0  0  0  0  0  0  0  0  0  0  0
    1.0312    3.4224   -4.1464 H   0  0  0  0  0  0  0  0  0  0  0  0
    0.5725    3.1622   -1.3461 H   0  0  0  0  0  0  0  0  0  0  0  0
   -1.3666    2.7292   -3.6963 H   0  0  0  0  0  0  0  0  0  0  0  0
   -1.8434    2.9482   -2.0082 H   0  0  0  0  0  0  0  0  0  0  0  0
   -1.0632    4.2744   -2.8901 H   0  0  0  0  0  0  0  0  0  0  0  0
   -0.3037    0.7742   -0.9484 N   0  0  0  0  0  0  0  0  0  0  0  0
   -0.4352   -0.6095   -0.5718 C   0  0  2  0  0  0  0  0  0  0  0  0
    0.9557   -1.2277   -0.4758 C   0  0  0  0  0  0  0  0  0  0  0  0
    1.4953   -1.5010    0.5946 O   0  0  0  0  0  0  0  0  0  0  0  0
   -1.3639   -1.3761   -1.5210 C   0  0  0  0  0  0  0  0  0  0  0  0
   -2.8355   -0.9504   -1.4364 C   0  0  0  0  0  0  0  0  0  0  0  0
   -3.7043   -1.7727   -2.3910 C   0  0  0  0  0  0  0  0  0  0  0  0
   -5.1588   -1.3312   -2.3224 C   0  0  0  0  0  0  0  0  0  0  0  0
   -5.9565   -2.1363   -3.2784 N   0  3  0  0  0  0  0  0  0  0  0  0
   -0.6336    1.4811   -0.2948 H   0  0  0  0  0  0  0  0  0  0  0  0
   -0.8744   -0.6064    0.4331 H   0  0  0  0  0  0  0  0  0  0  0  0
   -1.0129   -1.2329   -2.5512 H   0  0  0  0  0  0  0  0  0  0  0  0
   -1.2934   -2.4506   -1.3111 H   0  0  0  0  0  0  0  0  0  0  0  0
   -3.2045   -1.0799   -0.4123 H   0  0  0  0  0  0  0  0  0  0  0  0
   -2.9330    0.1129   -1.6851 H   0  0  0  0  0  0  0  0  0  0  0  0
   -3.6264   -2.8365   -2.1344 H   0  0  0  0  0  0  0  0  0  0  0  0
   -3.3301   -1.6613   -3.4163 H   0  0  0  0  0  0  0  0  0  0  0  0
   -5.5909   -1.4958   -1.3309 H   0  0  0  0  0  0  0  0  0  0  0  0
   -5.2831   -0.2828   -2.6092 H   0  0  0  0  0  0  0  0  0  0  0  0
   -6.8411   -1.6686   -3.5045 H   0  0  0  0  0  0  0  0  0  0  0  0
   -6.1783   -3.0582   -2.8864 H   0  0  0  0  0  0  0  0  0  0  0  0
   -5.4433   -2.2813   -4.1549 H   0  0  0  0  0  0  0  0  0  0  0  0
    1.5112   -1.4695   -1.7240 N   0  0  0  0  0  0  0  0  0  0  0  0
    2.8159   -2.0665   -1.8827 C   0  0  2  0  0  0  0  0  0  0  0  0
    3.2402   -1.8902   -3.3348 C   0  0  0  0  0  0  0  0  0  0  0  0
    2.4401   -1.7065   -4.2498 O   0  0  0  0  0  0  0  0  0  0  0  0
    2.8025   -3.5369   -1.4951 C   0  0  0  0  0  0  0  0  0  0  0  0
    0.9822   -1.2181   -2.5537 H   0  0  0  0  0  0  0  0  0  0  0  0
    3.4994   -1.5104   -1.2318 H   0  0  0  0  0  0  0  0  0  0  0  0
    2.1231   -4.1102   -2.1363 H   0  0  0  0  0  0  0  0  0  0  0  0
    3.7990   -3.9810   -1.5888 H   0  0  0  0  0  0  0  0  0  0  0  0
    2.4686   -3.6639   -0.4596 H   0  0  0  0  0  0  0  0  0  0  0  0
    4.6140   -2.0050   -3.4947 N   0  0  0  0  0  0  0  0  0  0  0  0
    5.2617   -1.8888   -4.7804 C   0  0  0  0  0  0  0  0  0  0  0  0
    5.2027   -2.1384   -2.6777 H   0  0  0  0  0  0  0  0  0  0  0  0
    5.3652   -2.8869   -5.2309 H   0  0  0  0  0  0  0  0  0  0  0  0
    4.6556   -1.2501   -5.4397 H   0  0  0  0  0  0  0  0  0  0  0  0
    6.2577   -1.4405   -4.6499 H   0  0  0  0  0  0  0  0  0  0  0  0
  1  3  1  0  0  0  0
  1  7  1  0  0  0  0
  1  2  2  0  0  0  0
 40 41  1  0  0  0  0
 41 49  1  0  0  0  0
 41 42  2  0  0  0  0
  8  9  1  0  0  0  0
  9 17  1  0  0  0  0
  9 10  2  0  0  0  0
 18 19  1  0  0  0  0
 19 39  1  0  0  0  0
 19 20  2  0  0  0  0
 40 43  1  0  0  0  0
  8 11  1  0  0  0  0
 49 50  1  0  0  0  0
 22 23  1  0  0  0  0
 21 22  1  0  0  0  0
 23 24  1  0  0  0  0
 18 21  1  0  0  0  0
 24 25  1  0  0  0  0
 39 40  1  0  0  0  0
  7  8  1  0  0  0  0
 17 18  1  0  0  0  0
  3  4  1  0  0  0  0
  3  5  1  0  0  0  0
  3  6  1  0  0  0  0
 43 46  1  0  0  0  0
 43 47  1  0  0  0  0
 43 48  1  0  0  0  0
 11 14  1  0  0  0  0
 11 15  1  0  0  0  0
 11 16  1  0  0  0  0
 50 52  1  0  0  0  0
 50 53  1  0  0  0  0
 50 54  1  0  0  0  0
 22 30  1  0  0  0  0
 22 31  1  0  0  0  0
 23 32  1  0  0  0  0
 23 33  1  0  0  0  0
 21 28  1  0  0  0  0
 21 29  1  0  0  0  0
 24 34  1  0  0  0  0
 24 35  1  0  0  0  0
 40 45  1  0  0  0  0
  8 13  1  0  0  0  0
 18 27  1  0  0  0  0
 49 51  1  0  0  0  0
  7 12  1  0  0  0  0
 39 44  1  0  0  0  0
 17 26  1  0  0  0  0
 25 36  1  0  0  0  0
 25 37  1  0  0  0  0
 25 38  1  0  0  0  0
M  CHG  1  25   1
M  END
$$$$

  -OEChem-05262214473D

 54 53  0     1  0  0  0  0  0999 V2000
    2.6714    2.8829   -3.0005 C   0  0  0  0  0  0  0  0  0  0  0  0
    3.1741    2.4398   -1.9745 O   0  0  0  0  0  0  0  0  0  0  0  0
    3.5527    3.3077   -4.1279 C   0  0  0  0  0  0  0  0  0  0  0  0
    3.8407    4.3691   -4.0597 H   0  0  0  0  0  0  0  0  0  0  0  0
    4.5024    2.7495   -4.1526 H   0  0  0  0  0  0  0  0  0  0  0  0
    3.1208    3.1887   -5.1345 H   0  0  0  0  0  0  0  0  0  0  0  0
    1.3174    3.0407   -3.2467 N   0  0  0  0  0  0  0  0  0  0  0  0
    0.2944    2.6927   -2.2960 C   0  0  2  0  0  0  0  0  0  0  0  0
    0.2976    1.1783   -2.1349 C   0  0  0  0  0  0  0  0  0  0  0  0
    0.7500    0.4142   -2.9850 O   0  0  0  0  0  0  0  0  0  0  0  0
   -1.0710    3.1886   -2.7460 C   0  0  0  0  0  0  0  0  0  0  0  0
    1.0312    3.4224   -4.1464 H   0  0  0  0  0  0  0  0  0  0  0  0
    0.5725    3.1622   -1.3461 H   0  0  0  0  0  0  0  0  0  0  0  0
   -1.3666    2.7292   -3.6963 H   0  0  0  0  0  0  0  0  0  0  0  0
   -1.8434    2.9482   -2.0082 H   0  0  0  0  0  0  0  0  0  0  0  0
   -1.0632    4.2744   -2.8901 H   0  0  0  0  0  0  0  0  0  0  0  0
   -0.3037    0.7742   -0.9484 N   0  0  0  0  0  0  0  0  0  0  0  0
   -0.4352   -0.6095   -0.5718 C   0  0  2  0  0  0  0  0  0  0  0  0
    0.9557   -1.2277   -0.4758 C   0  0  0  0  0  0  0  0  0  0  0  0
    1.3899   -1.7448    0.5516 O   0  0  0  0  0  0  0  0  0  0  0  0
   -1.3639   -1.3761   -1.5210 C   0  0  0  0  0  0  0  0  0  0  0  0
   -2.8355   -0.9504   -1.4364 C   0  0  0  0  0  0  0  0  0  0  0  0
   -3.7043   -1.7727   -2.3910 C   0  0  0  0  0  0  0  0  0  0  0  0
   -5.1588   -1.3312   -2.3224 C   0  0  0  0  0  0  0  0  0  0  0  0
   -5.9565   -2.1363   -3.2784 N   0  3  0  0  0  0  0  0  0  0  0  0
   -0.6336    1.4811   -0.2948 H   0  0  0  0  0  0  0  0  0  0  0  0
   -0.8744   -0.6064    0.4331 H   0  0  0  0  0  0  0  0  0  0  0  0
   -1.0129   -1.2329   -2.5512 H   0  0  0  0  0  0  0  0  0  0  0  0
   -1.2934   -2.4506   -1.3111 H   0  0  0  0  0  0  0  0  0  0  0  0
   -3.2045   -1.0799   -0.4123 H   0  0  0  0  0  0  0  0  0  0  0  0
   -2.9330    0.1129   -1.6851 H   0  0  0  0  0  0  0  0  0  0  0  0
   -3.6264   -2.8365   -2.1344 H   0  0  0  0  0  0  0  0  0  0  0  0
   -3.3301   -1.6613   -3.4163 H   0  0  0  0  0  0  0  0  0  0  0  0
   -5.5909   -1.4958   -1.3309 H   0  0  0  0  0  0  0  0  0  0  0  0
   -5.2831   -0.2828   -2.6092 H   0  0  0  0  0  0  0  0  0  0  0  0
   -6.8411   -1.6686   -3.5045 H   0  0  0  0  0  0  0  0  0  0  0  0
   -6.1783   -3.0582   -2.8864 H   0  0  0  0  0  0  0  0  0  0  0  0
   -5.4433   -2.2813   -4.1549 H   0  0  0  0  0  0  0  0  0  0  0  0
    1.6435   -1.1649   -1.6791 N   0  0  0  0  0  0  0  0  0  0  0  0
    2.9743   -1.7024   -1.8334 C   0  0  2  0  0  0  0  0  0  0  0  0
    3.5406   -1.1855   -3.1494 C   0  0  0  0  0  0  0  0  0  0  0  0
    2.8340   -0.7933   -4.0757 O   0  0  0  0  0  0  0  0  0  0  0  0
    2.9636   -3.2228   -1.8061 C   0  0  0  0  0  0  0  0  0  0  0  0
    1.1957   -0.7260   -2.4781 H   0  0  0  0  0  0  0  0  0  0  0  0
    3.5709   -1.3139   -1.0008 H   0  0  0  0  0  0  0  0  0  0  0  0
    2.3707   -3.6304   -2.6331 H   0  0  0  0  0  0  0  0  0  0  0  0
    3.9768   -3.6284   -1.8947 H   0  0  0  0  0  0  0  0  0  0  0  0
    2.5286   -3.5928   -0.8714 H   0  0  0  0  0  0  0  0  0  0  0  0
    4.9263   -1.2542   -3.1840 N   0  0  0  0  0  0  0  0  0  0  0  0
    5.6993   -0.8342   -4.3295 C   0  0  0  0  0  0  0  0  0  0  0  0
    5.4314   -1.5751   -2.3633 H   0  0  0  0  0  0  0  0  0  0  0  0
    5.8774   -1.6968   -4.9885 H   0  0  0  0  0  0  0  0  0  0  0  0
    5.1461   -0.0598   -4.8810 H   0  0  0  0  0  0  0  0  0  0  0  0
    6.6632   -0.4259   -3.9916 H   0  0  0  0  0  0  0  0  0  0  0  0
  1  3  1  0  0  0  0
  1  7  1  0  0  0  0
  1  2  2  0  0  0  0
 40 41  1  0  0  0  0
 41 49  1  0  0  0  0
 41 42  2  0  0  0  0
  8  9  1  0  0  0  0
  9 17  1  0  0  0  0
  9 10  2  0  0  0  0
 18 19  1  0  0  0  0
 19 39  1  0  0  0  0
 19 20  2  0  0  0  0
 40 43  1  0  0  0  0
  8 11  1  0  0  0  0
 49 50  1  0  0  0  0
 22 23  1  0  0  0  0
 21 22  1  0  0  0  0
 23 24  1  0  0  0  0
 18 21  1  0  0  0  0
 24 25  1  0  0  0  0
 39 40  1  0  0  0  0
  7  8  1  0  0  0  0
 17 18  1  0  0  0  0
  3  4  1  0  0  0  0
  3  5  1  0  0  0  0
  3  6  1  0  0  0  0
 43 46  1  0  0  0  0
 43 47  1  0  0  0  0
 43 48  1  0  0  0  0
 11 14  1  0  0  0  0
 11 15  1  0  0  0  0
 11 16  1  0  0  0  0
 50 52  1  0  0  0  0
 50 53  1  0  0  0  0
 50 54  1  0  0  0  0
 22 30  1  0  0  0  0
 22 31  1  0  0  0  0
 23 32  1  0  0  0  0
 23 33  1  0  0  0  0
 21 28  1  0  0  0  0
 21 29  1  0  0  0  0
 24 34  1  0  0  0  0
 24 35  1  0  0  0  0
 40 45  1  0  0  0  0
  8 13  1  0  0  0  0
 18 27  1  0  0  0  0
 49 51  1  0  0  0  0
  7 12  1  0  0  0  0
 39 44  1  0  0  0  0
 17 26  1  0  0  0  0
 25 36  1  0  0  0  0
 25 37  1  0  0  0  0
 25 38  1  0  0  0  0
M  CHG  1  25   1
M  END
$$$$

  -OEChem-05262214473D

 54 53  0     1  0  0  0  0  0999 V2000
    2.6714    2.8829   -3.0005 C   0  0  0  0  0  0  0  0  0  0  0  0
    3.1741    2.4398   -1.9745 O   0  0  0  0  0  0  0  0  0  0  0  0
    3.5527    3.3077   -4.1279 C   0  0  0  0  0  0  0  0  0  0  0  0
    3.8407    4.3691   -4.0597 H   0  0  0  0  0  0  0  0  0  0  0  0
    4.5024    2.7495   -4.1526 H   0  0  0  0  0  0  0  0  0  0  0  0
    3.1208    3.1887   -5.1345 H   0  0  0  0  0  0  0  0  0  0  0  0
    1.3174    3.0407   -3.2467 N   0  0  0  0  0  0  0  0  0  0  0  0
    0.2944    2.6927   -2.2960 C   0  0  2  0  0  0  0  0  0  0  0  0
    0.2976    1.1783   -2.1349 C   0  0  0  0  0  0  0  0  0  0  0  0
    0.7500    0.4142   -2.9850 O   0  0  0  0  0  0  0  0  0  0  0  0
   -1.0710    3.1886   -2.7460 C   0  0  0  0  0  0  0  0  0  0  0  0
    1.0312    3.4224   -4.1464 H   0  0  0  0  0  0  0  0  0  0  0  0
    0.5725    3.1622   -1.3461 H   0  0  0  0  0  0  0  0  0  0  0  0
   -1.3666    2.7292   -3.6963 H   0  0  0  0  0  0  0  0  0  0  0  0
   -1.8434    2.9482   -2.0082 H   0  0  0  0  0  0  0  0  0  0  0  0
   -1.0632    4.2744   -2.8901 H   0  0  0  0  0  0  0  0  0  0  0  0
   -0.3037    0.7742   -0.9484 N   0  0  0  0  0  0  0  0  0  0  0  0
   -0.4352   -0.6095   -0.5718 C   0  0  2  0  0  0  0  0  0  0  0  0
    0.9557   -1.2277   -0.4758 C   0  0  0  0  0  0  0  0  0  0  0  0
    1.2965   -1.9719    0.4416 O   0  0  0  0  0  0  0  0  0  0  0  0
   -1.3639   -1.3761   -1.5210 C   0  0  0  0  0  0  0  0  0  0  0  0
   -2.8355   -0.9504   -1.4364 C   0  0  0  0  0  0  0  0  0  0  0  0
   -3.7043   -1.7727   -2.3910 C   0  0  0  0  0  0  0  0  0  0  0  0
   -5.1588   -1.3312   -2.3224 C   0  0  0  0  0  0  0  0  0  0  0  0
   -5.9565   -2.1363   -3.2784 N   0  3  0  0  0  0  0  0  0  0  0  0
   -0.6336    1.4811   -0.2948 H   0  0  0  0  0  0  0  0  0  0  0  0
   -0.8744   -0.6064    0.4331 H   0  0  0  0  0  0  0  0  0  0  0  0
   -1.0129   -1.2329   -2.5512 H   0  0  0  0  0  0  0  0  0  0  0  0
   -1.2934   -2.4506   -1.3111 H   0  0  0  0  0  0  0  0  0  0  0  0
   -3.2045   -1.0799   -0.4123 H   0  0  0  0  0  0  0  0  0  0  0  0
   -2.9330    0.1129   -1.6851 H   0  0  0  0  0  0  0  0  0  0  0  0
   -3.6264   -2.8365   -2.1344 H   0  0  0  0  0  0  0  0  0  0  0  0
   -3.3301   -1.6613   -3.4163 H   0  0  0  0  0  0  0  0  0  0  0  0
   -5.5909   -1.4958   -1.3309 H   0  0  0  0  0  0  0  0  0  0  0  0
   -5.2831   -0.2828   -2.6092 H   0  0  0  0  0  0  0  0  0  0  0  0
   -6.8411   -1.6686   -3.5045 H   0  0  0  0  0  0  0  0  0  0  0  0
   -6.1783   -3.0582   -2.8864 H   0  0  0  0  0  0  0  0  0  0  0  0
   -5.4433   -2.2813   -4.1549 H   0  0  0  0  0  0  0  0  0  0  0  0
    1.7617   -0.8791   -1.5500 N   0  0  0  0  0  0  0  0  0  0  0  0
    3.1162   -1.3598   -1.6832 C   0  0  2  0  0  0  0  0  0  0  0  0
    3.7998   -0.5438   -2.7725 C   0  0  0  0  0  0  0  0  0  0  0  0
    3.1814    0.0541   -3.6506 O   0  0  0  0  0  0  0  0  0  0  0  0
    3.1467   -2.8434   -2.0156 C   0  0  0  0  0  0  0  0  0  0  0  0
    1.3860   -0.2650   -2.2665 H   0  0  0  0  0  0  0  0  0  0  0  0
    3.6124   -1.1773   -0.7238 H   0  0  0  0  0  0  0  0  0  0  0  0
    2.6541   -3.0457   -2.9737 H   0  0  0  0  0  0  0  0  0  0  0  0
    4.1750   -3.2128   -2.0882 H   0  0  0  0  0  0  0  0  0  0  0  0
    2.6287   -3.4259   -1.2461 H   0  0  0  0  0  0  0  0  0  0  0  0
    5.1831   -0.5971   -2.6740 N   0  0  0  0  0  0  0  0  0  0  0  0
    6.0575    0.0851   -3.5992 C   0  0  0  0  0  0  0  0  0  0  0  0
    5.6101   -1.1015   -1.9026 H   0  0  0  0  0  0  0  0  0  0  0  0
    6.3274   -0.5962   -4.4196 H   0  0  0  0  0  0  0  0  0  0  0  0
    5.5419    0.9661   -4.0090 H   0  0  0  0  0  0  0  0  0  0  0  0
    6.9693    0.4053   -3.0737 H   0  0  0  0  0  0  0  0  0  0  0  0
  1  3  1  0  0  0  0
  1  7  1  0  0  0  0
  1  2  2  0  0  0  0
 40 41  1  0  0  0  0
 41 49  1  0  0  0  0
 41 42  2  0  0  0  0
  8  9  1  0  0  0  0
  9 17  1  0  0  0  0
  9 10  2  0  0  0  0
 18 19  1  0  0  0  0
 19 39  1  0  0  0  0
 19 20  2  0  0  0  0
 40 43  1  0  0  0  0
  8 11  1  0  0  0  0
 49 50  1  0  0  0  0
 22 23  1  0  0  0  0
 21 22  1  0  0  0  0
 23 24  1  0  0  0  0
 18 21  1  0  0  0  0
 24 25  1  0  0  0  0
 39 40  1  0  0  0  0
  7  8  1  0  0  0  0
 17 18  1  0  0  0  0
  3  4  1  0  0  0  0
  3  5  1  0  0  0  0
  3  6  1  0  0  0  0
 43 46  1  0  0  0  0
 43 47  1  0  0  0  0
 43 48  1  0  0  0  0
 11 14  1  0  0  0  0
 11 15  1  0  0  0  0
 11 16  1  0  0  0  0
 50 52  1  0  0  0  0
 50 53  1  0  0  0  0
 50 54  1  0  0  0  0
 22 30  1  0  0  0  0
 22 31  1  0  0  0  0
 23 32  1  0  0  0  0
 23 33  1  0  0  0  0
 21 28  1  0  0  0  0
 21 29  1  0  0  0  0
 24 34  1  0  0  0  0
 24 35  1  0  0  0  0
 40 45  1  0  0  0  0
  8 13  1  0  0  0  0
 18 27  1  0  0  0  0
 49 51  1  0  0  0  0
  7 12  1  0  0  0  0
 39 44  1  0  0  0  0
 17 26  1  0  0  0  0
 25 36  1  0  0  0  0
 25 37  1  0  0  0  0
 25 38  1  0  0  0  0
M  CHG  1  25   1
M  END
$$$$

  -OEChem-05262214473D

 54 53  0     1  0  0  0  0  0999 V2000
    2.6714    2.8829   -3.0005 C   0  0  0  0  0  0  0  0  0  0  0  0
    3.1741    2.4398   -1.9745 O   0  0  0  0  0  0  0  0  0  0  0  0
    3.5527    3.3077   -4.1279 C   0  0  0  0  0  0  0  0  0  0  0  0
    3.8407    4.3691   -4.0597 H   0  0  0  0  0  0  0  0  0  0  0  0
    4.5024    2.7495   -4.1526 H   0  0  0  0  0  0  0  0  0  0  0  0
    3.1208    3.1887   -5.1345 H   0  0  0  0  0  0  0  0  0  0  0  0
    1.3174    3.0407   -3.2467 N   0  0  0  0  0  0  0  0  0  0  0  0
    0.2944    2.6927   -2.2960 C   0  0  2  0  0  0  0  0  0  0  0  0
    0.2976    1.1783   -2.1349 C   0  0  0  0  0  0  0  0  0  0  0  0
    0.7500    0.4142   -2.9850 O   0  0  0  0  0  0  0  0  0  0  0  0
   -1.0710    3.1886   -2.7460 C   0  0  0  0  0  0  0  0  0  0  0  0
    1.0312    3.4224   -4.1464 H   0  0  0  0  0  0  0  0  0  0  0  0
    0.5725    3.1622   -1.3461 H   0  0  0  0  0  0  0  0  0  0  0  0
   -1.3666    2.7292   -3.6963 H   0  0  0  0  0  0  0  0  0  0  0  0
   -1.8434    2.9482   -2.0082 H   0  0  0  0  0  0  0  0  0  0  0  0
   -1.0632    4.2744   -2.8901 H   0  0  0  0  0  0  0  0  0  0  0  0
   -0.3037    0.7742   -0.9484 N   0  0  0  0  0  0  0  0  0  0  0  0
   -0.4352   -0.6095   -0.5718 C   0  0  2  0  0  0  0  0  0  0  0  0
    0.9557   -1.2277   -0.4758 C   0  0  0  0  0  0  0  0  0  0  0  0
    1.2216   -2.1668    0.2718 O   0  0  0  0  0  0  0  0  0  0  0  0
   -1.3639   -1.3761   -1.5210 C   0  0  0  0  0  0  0  0  0  0  0  0
   -2.8355   -0.9504   -1.4364 C   0  0  0  0  0  0  0  0  0  0  0  0
   -3.7043   -1.7727   -2.3910 C   0  0  0  0  0  0  0  0  0  0  0  0
   -5.1588   -1.3312   -2.3224 C   0  0  0  0  0  0  0  0  0  0  0  0
   -5.9565   -2.1363   -3.2784 N   0  3  0  0  0  0  0  0  0  0  0  0
   -0.6336    1.4811   -0.2948 H   0  0  0  0  0  0  0  0  0  0  0  0
   -0.8744   -0.6064    0.4331 H   0  0  0  0  0  0  0  0  0  0  0  0
   -1.0129   -1.2329   -2.5512 H   0  0  0  0  0  0  0  0  0  0  0  0
   -1.2934   -2.4506   -1.3111 H   0  0  0  0  0  0  0  0  0  0  0  0
   -3.2045   -1.0799   -0.4123 H   0  0  0  0  0  0  0  0  0  0  0  0
   -2.9330    0.1129   -1.6851 H   0  0  0  0  0  0  0  0  0  0  0  0
   -3.6264   -2.8365   -2.1344 H   0  0  0  0  0  0  0  0  0  0  0  0
   -3.3301   -1.6613   -3.4163 H   0  0  0  0  0  0  0  0  0  0  0  0
   -5.5909   -1.4958   -1.3309 H   0  0  0  0  0  0  0  0  0  0  0  0
   -5.2831   -0.2828   -2.6092 H   0  0  0  0  0  0  0  0  0  0  0  0
   -6.8411   -1.6686   -3.5045 H   0  0  0  0  0  0  0  0  0  0  0  0
   -6.1783   -3.0582   -2.8864 H   0  0  0  0  0  0  0  0  0  0  0  0
   -5.4433   -2.2813   -4.1549 H   0  0  0  0  0  0  0  0  0  0  0  0
    1.8576   -0.6315   -1.3454 N   0  0  0  0  0  0  0  0  0  0  0  0
    3.2320   -1.0619   -1.4424 C   0  0  2  0  0  0  0  0  0  0  0  0
    4.0002   -0.0086   -2.2297 C   0  0  0  0  0  0  0  0  0  0  0  0
    3.4584    0.7780   -3.0035 O   0  0  0  0  0  0  0  0  0  0  0  0
    3.3393   -2.4245   -2.1091 C   0  0  0  0  0  0  0  0  0  0  0  0
    1.5401    0.1334   -1.9334 H   0  0  0  0  0  0  0  0  0  0  0  0
    3.6212   -1.1102   -0.4196 H   0  0  0  0  0  0  0  0  0  0  0  0
    2.9541   -2.3959   -3.1349 H   0  0  0  0  0  0  0  0  0  0  0  0
    4.3799   -2.7623   -2.1562 H   0  0  0  0  0  0  0  0  0  0  0  0
    2.7619   -3.1746   -1.5581 H   0  0  0  0  0  0  0  0  0  0  0  0
    5.3670   -0.0787   -1.9993 N   0  0  0  0  0  0  0  0  0  0  0  0
    6.3119    0.8066   -2.6393 C   0  0  0  0  0  0  0  0  0  0  0  0
    5.7267   -0.7498   -1.3270 H   0  0  0  0  0  0  0  0  0  0  0  0
    6.6844    0.3401   -3.5632 H   0  0  0  0  0  0  0  0  0  0  0  0
    5.8160    1.7577   -2.8830 H   0  0  0  0  0  0  0  0  0  0  0  0
    7.1551    0.9965   -1.9588 H   0  0  0  0  0  0  0  0  0  0  0  0
  1  3  1  0  0  0  0
  1  7  1  0  0  0  0
  1  2  2  0  0  0  0
 40 41  1  0  0  0  0
 41 49  1  0  0  0  0
 41 42  2  0  0  0  0
  8  9  1  0  0  0  0
  9 17  1  0  0  0  0
  9 10  2  0  0  0  0
 18 19  1  0  0  0  0
 19 39  1  0  0  0  0
 19 20  2  0  0  0  0
 40 43  1  0  0  0  0
  8 11  1  0  0  0  0
 49 50  1  0  0  0  0
 22 23  1  0  0  0  0
 21 22  1  0  0  0  0
 23 24  1  0  0  0  0
 18 21  1  0  0  0  0
 24 25  1  0  0  0  0
 39 40  1  0  0  0  0
  7  8  1  0  0  0  0
 17 18  1  0  0  0  0
  3  4  1  0  0  0  0
  3  5  1  0  0  0  0
  3  6  1  0  0  0  0
 43 46  1  0  0  0  0
 43 47  1  0  0  0  0
 43 48  1  0  0  0  0
 11 14  1  0  0  0  0
 11 15  1  0  0  0  0
 11 16  1  0  0  0  0
 50 52  1  0  0  0  0
 50 53  1  0  0  0  0
 50 54  1  0  0  0  0
 22 30  1  0  0  0  0
 22 31  1  0  0  0  0
 23 32  1  0  0  0  0
 23 33  1  0  0  0  0
 21 28  1  0  0  0  0
 21 29  1  0  0  0  0
 24 34  1  0  0  0  0
 24 35  1  0  0  0  0
 40 45  1  0  0  0  0
  8 13  1  0  0  0  0
 18 27  1  0  0  0  0
 49 51  1  0  0  0  0
  7 12  1  0  0  0  0
 39 44  1  0  0  0  0
 17 26  1  0  0  0  0
 25 36  1  0  0  0  0
 25 37  1  0  0  0  0
 25 38  1  0  0  0  0
M  CHG  1  25   1
M  END
$$$$

  -OEChem-05262214473D

 54 53  0     1  0  0  0  0  0999 V2000
    2.6714    2.8829   -3.0005 C   0  0  0  0  0  0  0  0  0  0  0  0
    3.1741    2.4398   -1.9745 O   0  0  0  0  0  0  0  0  0  0  0  0
    3.5527    3.3077   -4.1279 C   0  0  0  0  0  0  0  0  0  0  0  0
    3.8407    4.3691   -4.0597 H   0  0  0  0  0  0  0  0  0  0  0  0
    4.5024    2.7495   -4.1526 H   0  0  0  0  0  0  0  0  0  0  0  0
    3.1208    3.1887   -5.1345 H   0  0  0  0  0  0  0  0  0  0  0  0
    1.3174    3.0407   -3.2467 N   0  0  0  0  0  0  0  0  0  0  0  0
    0.2944    2.6927   -2.2960 C   0  0  2  0  0  0  0  0  0  0  0  0
    0.2976    1.1783   -2.1349 C   0  0  0  0  0  0  0  0  0  0  0  0
    0.7500    0.4142   -2.9850 O   0  0  0  0  0  0  0  0  0  0  0  0
   -1.0710    3.1886   -2.7460 C   0  0  0  0  0  0  0  0  0  0  0  0
    1.0312    3.4224   -4.1464 H   0  0  0  0  0  0  0  0  0  0  0  0
    0.5725    3.1622   -1.3461 H   0  0  0  0  0  0  0  0  0  0  0  0
   -1.3666    2.7292   -3.6963 H   0  0  0  0  0  0  0  0  0  0  0  0
   -1.8434    2.9482   -2.0082 H   0  0  0  0  0  0  0  0  0  0  0  0
   -1.0632    4.2744   -2.8901 H   0  0  0  0  0  0  0  0  0  0  0  0
   -0.3037    0.7742   -0.9484 N   0  0  0  0  0  0  0  0  0  0  0  0
   -0.4352   -0.6095   -0.5718 C   0  0  2  0  0  0  0  0  0  0  0  0
    0.9557   -1.2277   -0.4758 C   0  0  0  0  0  0  0  0  0  0  0  0
    1.1703   -2.3162    0.0541 O   0  0  0  0  0  0  0  0  0  0  0  0
   -1.3639   -1.3761   -1.5210 C   0  0  0  0  0  0  0  0  0  0  0  0
   -2.8355   -0.9504   -1.4364 C   0  0  0  0  0  0  0  0  0  0  0  0
   -3.7043   -1.7727   -2.3910 C   0  0  0  0  0  0  0  0  0  0  0  0
   -5.1588   -1.3312   -2.3224 C   0  0  0  0  0  0  0  0  0  0  0  0
   -5.9565   -2.1363   -3.2784 N   0  3  0  0  0  0  0  0  0  0  0  0
   -0.6336    1.4811   -0.2948 H   0  0  0  0  0  0  0  0  0  0  0  0
   -0.8744   -0.6064    0.4331 H   0  0  0  0  0  0  0  0  0  0  0  0
   -1.0129   -1.2329   -2.5512 H   0  0  0  0  0  0  0  0  0  0  0  0
   -1.2934   -2.4506   -1.3111 H   0  0  0  0  0  0  0  0  0  0  0  0
   -3.2045   -1.0799   -0.4123 H   0  0  0  0  0  0  0  0  0  0  0  0
   -2.9330    0.1129   -1.6851 H   0  0  0  0  0  0  0  0  0  0  0  0
   -3.6264   -2.8365   -2.1344 H   0  0  0  0  0  0  0  0  0  0  0  0
   -3.3301   -1.6613   -3.4163 H   0  0  0  0  0  0  0  0  0  0  0  0
   -5.5909   -1.4958   -1.3309 H   0  0  0  0  0  0  0  0  0  0  0  0
   -5.2831   -0.2828   -2.6092 H   0  0  0  0  0  0  0  0  0  0  0  0
   -6.8411   -1.6686   -3.5045 H   0  0  0  0  0  0  0  0  0  0  0  0
   -6.1783   -3.0582   -2.8864 H   0  0  0  0  0  0  0  0  0  0  0  0
   -5.4433   -2.2813   -4.1549 H   0  0  0  0  0  0  0  0  0  0  0  0
    1.9247   -0.4392   -1.0793 N   0  0  0  0  0  0  0  0  0  0  0  0
    3.3137   -0.8292   -1.1273 C   0  0  2  0  0  0  0  0  0  0  0  0
    4.1281    0.3834   -1.5581 C   0  0  0  0  0  0  0  0  0  0  0  0
    3.6464    1.3290   -2.1786 O   0  0  0  0  0  0  0  0  0  0  0  0
    3.5284   -1.9947   -2.0804 C   0  0  0  0  0  0  0  0  0  0  0  0
    1.6475    0.4421   -1.5013 H   0  0  0  0  0  0  0  0  0  0  0  0
    3.5968   -1.1170   -0.1090 H   0  0  0  0  0  0  0  0  0  0  0  0
    3.2502   -1.7252   -3.1058 H   0  0  0  0  0  0  0  0  0  0  0  0
    4.5776   -2.3079   -2.0941 H   0  0  0  0  0  0  0  0  0  0  0  0
    2.9192   -2.8561   -1.7862 H   0  0  0  0  0  0  0  0  0  0  0  0
    5.4654    0.2659   -1.2059 N   0  0  0  0  0  0  0  0  0  0  0  0
    6.4452    1.2810   -1.5150 C   0  0  0  0  0  0  0  0  0  0  0  0
    5.7731   -0.5441   -0.6759 H   0  0  0  0  0  0  0  0  0  0  0  0
    6.9241    1.0480   -2.4775 H   0  0  0  0  0  0  0  0  0  0  0  0
    5.9497    2.2610   -1.5798 H   0  0  0  0  0  0  0  0  0  0  0  0
    7.2079    1.3075   -0.7229 H   0  0  0  0  0  0  0  0  0  0  0  0
  1  3  1  0  0  0  0
  1  7  1  0  0  0  0
  1  2  2  0  0  0  0
 40 41  1  0  0  0  0
 41 49  1  0  0  0  0
 41 42  2  0  0  0  0
  8  9  1  0  0  0  0
  9 17  1  0  0  0  0
  9 10  2  0  0  0  0
 18 19  1  0  0  0  0
 19 39  1  0  0  0  0
 19 20  2  0  0  0  0
 40 43  1  0  0  0  0
  8 11  1  0  0  0  0
 49 50  1  0  0  0  0
 22 23  1  0  0  0  0
 21 22  1  0  0  0  0
 23 24  1  0  0  0  0
 18 21  1  0  0  0  0
 24 25  1  0  0  0  0
 39 40  1  0  0  0  0
  7  8  1  0  0  0  0
 17 18  1  0  0  0  0
  3  4  1  0  0  0  0
  3  5  1  0  0  0  0
  3  6  1  0  0  0  0
 43 46  1  0  0  0  0
 43 47  1  0  0  0  0
 43 48  1  0  0  0  0
 11 14  1  0  0  0  0
 11 15  1  0  0  0  0
 11 16  1  0  0  0  0
 50 52  1  0  0  0  0
 50 53  1  0  0  0  0
 50 54  1  0  0  0  0
 22 30  1  0  0  0  0
 22 31  1  0  0  0  0
 23 32  1  0  0  0  0
 23 33  1  0  0  0  0
 21 28  1  0  0  0  0
 21 29  1  0  0  0  0
 24 34  1  0  0  0  0
 24 35  1  0  0  0  0
 40 45  1  0  0  0  0
  8 13  1  0  0  0  0
 18 27  1  0  0  0  0
 49 51  1  0  0  0  0
  7 12  1  0  0  0  0
 39 44  1  0  0  0  0
 17 26  1  0  0  0  0
 25 36  1  0  0  0  0
 25 37  1  0  0  0  0
 25 38  1  0  0  0  0
M  CHG  1  25   1
M  END
$$$$

  -OEChem-05262214473D

 54 53  0     1  0  0  0  0  0999 V2000
    2.6714    2.8829   -3.0005 C   0  0  0  0  0  0  0  0  0  0  0  0
    3.1741    2.4398   -1.9745 O   0  0  0  0  0  0  0  0  0  0  0  0
    3.5527    3.3077   -4.1279 C   0  0  0  0  0  0  0  0  0  0  0  0
    3.8407    4.3691   -4.0597 H   0  0  0  0  0  0  0  0  0  0  0  0
    4.5024    2.7495   -4.1526 H   0  0  0  0  0  0  0  0  0  0  0  0
    3.1208    3.1887   -5.1345 H   0  0  0  0  0  0  0  0  0  0  0  0
    1.3174    3.0407   -3.2467 N   0  0  0  0  0  0  0  0  0  0  0  0
    0.2944    2.6927   -2.2960 C   0  0  2  0  0  0  0  0  0  0  0  0
    0.2976    1.1783   -2.1349 C   0  0  0  0  0  0  0  0  0  0  0  0
    0.7500    0.4142   -2.9850 O   0  0  0  0  0  0  0  0  0  0  0  0
   -1.0710    3.1886   -2.7460 C   0  0  0  0  0  0  0  0  0  0  0  0
    1.0312    3.4224   -4.1464 H   0  0  0  0  0  0  0  0  0  0  0  0
    0.5725    3.1622   -1.3461 H   0  0  0  0  0  0  0  0  0  0  0  0
   -1.3666    2.7292   -3.6963 H   0  0  0  0  0  0  0  0  0  0  0  0
   -1.8434    2.9482   -2.0082 H   0  0  0  0  0  0  0  0  0  0  0  0
   -1.0632    4.2744   -2.8901 H   0  0  0  0  0  0  0  0  0  0  0  0
   -0.3037    0.7742   -0.9484 N   0  0  0  0  0  0  0  0  0  0  0  0
   -0.4352   -0.6095   -0.5718 C   0  0  2  0  0  0  0  0  0  0  0  0
    0.9557   -1.2277   -0.4758 C   0  0  0  0  0  0  0  0  0  0  0  0
    1.1459   -2.4099   -0.1970 O   0  0  0  0  0  0  0  0  0  0  0  0
   -1.3639   -1.3761   -1.5210 C   0  0  0  0  0  0  0  0  0  0  0  0
   -2.8355   -0.9504   -1.4364 C   0  0  0  0  0  0  0  0  0  0  0  0
   -3.7043   -1.7727   -2.3910 C   0  0  0  0  0  0  0  0  0  0  0  0
   -5.1588   -1.3312   -2.3224 C   0  0  0  0  0  0  0  0  0  0  0  0
   -5.9565   -2.1363   -3.2784 N   0  3  0  0  0  0  0  0  0  0  0  0
   -0.6336    1.4811   -0.2948 H   0  0  0  0  0  0  0  0  0  0  0  0
   -0.8744   -0.6064    0.4331 H   0  0  0  0  0  0  0  0  0  0  0  0
   -1.0129   -1.2329   -2.5512 H   0  0  0  0  0  0  0  0  0  0  0  0
   -1.2934   -2.4506   -1.3111 H   0  0  0  0  0  0  0  0  0  0  0  0
   -3.2045   -1.0799   -0.4123 H   0  0  0  0  0  0  0  0  0  0  0  0
   -2.9330    0.1129   -1.6851 H   0  0  0  0  0  0  0  0  0  0  0  0
   -3.6264   -2.8365   -2.1344 H   0  0  0  0  0  0  0  0  0  0  0  0
   -3.3301   -1.6613   -3.4163 H   0  0  0  0  0  0  0  0  0  0  0  0
   -5.5909   -1.4958   -1.3309 H   0  0  0  0  0  0  0  0  0  0  0  0
   -5.2831   -0.2828   -2.6092 H   0  0  0  0  0  0  0  0  0  0  0  0
   -6.8411   -1.6686   -3.5045 H   0  0  0  0  0  0  0  0  0  0  0  0
   -6.1783   -3.0582   -2.8864 H   0  0  0  0  0  0  0  0  0  0  0  0
   -5.4433   -2.2813   -4.1549 H   0  0  0  0  0  0  0  0  0  0  0  0
    1.9585   -0.3151   -0.7698 N   0  0  0  0  0  0  0  0  0  0  0  0
    3.3557   -0.6775   -0.7595 C   0  0  2  0  0  0  0  0  0  0  0  0
    4.1748    0.6057   -0.8034 C   0  0  0  0  0  0  0  0  0  0  0  0
    3.7324    1.6695   -1.2320 O   0  0  0  0  0  0  0  0  0  0  0  0
    3.7010   -1.5832   -1.9314 C   0  0  0  0  0  0  0  0  0  0  0  0
    1.7009    0.6401   -0.9999 H   0  0  0  0  0  0  0  0  0  0  0  0
    3.5407   -1.1973    0.1869 H   0  0  0  0  0  0  0  0  0  0  0  0
    3.5222   -1.0795   -2.8883 H   0  0  0  0  0  0  0  0  0  0  0  0
    4.7547   -1.8803   -1.9061 H   0  0  0  0  0  0  0  0  0  0  0  0
    3.0899   -2.4920   -1.9148 H   0  0  0  0  0  0  0  0  0  0  0  0
    5.4715    0.4130   -0.3479 N   0  0  0  0  0  0  0  0  0  0  0  0
    6.4482    1.4761   -0.3031 C   0  0  0  0  0  0  0  0  0  0  0  0
    5.7464   -0.4984    0.0065 H   0  0  0  0  0  0  0  0  0  0  0  0
    7.0302    1.4795   -1.2365 H   0  0  0  0  0  0  0  0  0  0  0  0
    5.9339    2.4416   -0.1882 H   0  0  0  0  0  0  0  0  0  0  0  0
    7.1243    1.3169    0.5499 H   0  0  0  0  0  0  0  0  0  0  0  0
  1  3  1  0  0  0  0
  1  7  1  0  0  0  0
  1  2  2  0  0  0  0
 40 41  1  0  0  0  0
 41 49  1  0  0  0  0
 41 42  2  0  0  0  0
  8  9  1  0  0  0  0
  9 17  1  0  0  0  0
  9 10  2  0  0  0  0
 18 19  1  0  0  0  0
 19 39  1  0  0  0  0
 19 20  2  0  0  0  0
 40 43  1  0  0  0  0
  8 11  1  0  0  0  0
 49 50  1  0  0  0  0
 22 23  1  0  0  0  0
 21 22  1  0  0  0  0
 23 24  1  0  0  0  0
 18 21  1  0  0  0  0
 24 25  1  0  0  0  0
 39 40  1  0  0  0  0
  7  8  1  0  0  0  0
 17 18  1  0  0  0  0
  3  4  1  0  0  0  0
  3  5  1  0  0  0  0
  3  6  1  0  0  0  0
 43 46  1  0  0  0  0
 43 47  1  0  0  0  0
 43 48  1  0  0  0  0
 11 14  1  0  0  0  0
 11 15  1  0  0  0  0
 11 16  1  0  0  0  0
 50 52  1  0  0  0  0
 50 53  1  0  0  0  0
 50 54  1  0  0  0  0
 22 30  1  0  0  0  0
 22 31  1  0  0  0  0
 23 32  1  0  0  0  0
 23 33  1  0  0  0  0
 21 28  1  0  0  0  0
 21 29  1  0  0  0  0
 24 34  1  0  0  0  0
 24 35  1  0  0  0  0
 40 45  1  0  0  0  0
  8 13  1  0  0  0  0
 18 27  1  0  0  0  0
 49 51  1  0  0  0  0
  7 12  1  0  0  0  0
 39 44  1  0  0  0  0
 17 26  1  0  0  0  0
 25 36  1  0  0  0  0
 25 37  1  0  0  0  0
 25 38  1  0  0  0  0
M  CHG  1  25   1
M  END
$$$$

  -OEChem-05262214473D

 54 53  0     1  0  0  0  0  0999 V2000
    2.6714    2.8829   -3.0005 C   0  0  0  0  0  0  0  0  0  0  0  0
    3.1741    2.4398   -1.9745 O   0  0  0  0  0  0  0  0  0  0  0  0
    3.5527    3.3077   -4.1279 C   0  0  0  0  0  0  0  0  0  0  0  0
    3.8407    4.3691   -4.0597 H   0  0  0  0  0  0  0  0  0  0  0  0
    4.5024    2.7495   -4.1526 H   0  0  0  0  0  0  0  0  0  0  0  0
    3.1208    3.1887   -5.1345 H   0  0  0  0  0  0  0  0  0  0  0  0
    1.3174    3.0407   -3.2467 N   0  0  0  0  0  0  0  0  0  0  0  0
    0.2944    2.6927   -2.2960 C   0  0  2  0  0  0  0  0  0  0  0  0
    0.2976    1.1783   -2.1349 C   0  0  0  0  0  0  0  0  0  0  0  0
    0.7500    0.4142   -2.9850 O   0  0  0  0  0  0  0  0  0  0  0  0
   -1.0710    3.1886   -2.7460 C   0  0  0  0  0  0  0  0  0  0  0  0
    1.0312    3.4224   -4.1464 H   0  0  0  0  0  0  0  0  0  0  0  0
    0.5725    3.1622   -1.3461 H   0  0  0  0  0  0  0  0  0  0  0  0
   -1.3666    2.7292   -3.6963 H   0  0  0  0  0  0  0  0  0  0  0  0
   -1.8434    2.9482   -2.0082 H   0  0  0  0  0  0  0  0  0  0  0  0
   -1.0632    4.2744   -2.8901 H   0  0  0  0  0  0  0  0  0  0  0  0
   -0.3037    0.7742   -0.9484 N   0  0  0  0  0  0  0  0  0  0  0  0
   -0.4352   -0.6095   -0.5718 C   0  0  2  0  0  0  0  0  0  0  0  0
    0.9557   -1.2277   -0.4758 C   0  0  0  0  0  0  0  0  0  0  0  0
    1.1503   -2.4416   -0.4641 O   0  0  0  0  0  0  0  0  0  0  0  0
   -1.3639   -1.3761   -1.5210 C   0  0  0  0  0  0  0  0  0  0  0  0
   -2.8355   -0.9504   -1.4364 C   0  0  0  0  0  0  0  0  0  0  0  0
   -3.7043   -1.7727   -2.3910 C   0  0  0  0  0  0  0  0  0  0  0  0
   -5.1588   -1.3312   -2.3224 C   0  0  0  0  0  0  0  0  0  0  0  0
   -5.9565   -2.1363   -3.2784 N   0  3  0  0  0  0  0  0  0  0  0  0
   -0.6336    1.4811   -0.2948 H   0  0  0  0  0  0  0  0  0  0  0  0
   -0.8744   -0.6064    0.4331 H   0  0  0  0  0  0  0  0  0  0  0  0
   -1.0129   -1.2329   -2.5512 H   0  0  0  0  0  0  0  0  0  0  0  0
   -1.2934   -2.4506   -1.3111 H   0  0  0  0  0  0  0  0  0  0  0  0
   -3.2045   -1.0799   -0.4123 H   0  0  0  0  0  0  0  0  0  0  0  0
   -2.9330    0.1129   -1.6851 H   0  0  0  0  0  0  0  0  0  0  0  0
   -3.6264   -2.8365   -2.1344 H   0  0  0  0  0  0  0  0  0  0  0  0
   -3.3301   -1.6613   -3.4163 H   0  0  0  0  0  0  0  0  0  0  0  0
   -5.5909   -1.4958   -1.3309 H   0  0  0  0  0  0  0  0  0  0  0  0
   -5.2831   -0.2828   -2.6092 H   0  0  0  0  0  0  0  0  0  0  0  0
   -6.8411   -1.6686   -3.5045 H   0  0  0  0  0  0  0  0  0  0  0  0
   -6.1783   -3.0582   -2.8864 H   0  0  0  0  0  0  0  0  0  0  0  0
   -5.4433   -2.2813   -4.1549 H   0  0  0  0  0  0  0  0  0  0  0  0
    1.9566   -0.2677   -0.4380 N   0  0  0  0  0  0  0  0  0  0  0  0
    3.3553   -0.6171   -0.3640 C   0  0  2  0  0  0  0  0  0  0  0  0
    4.1371    0.6430   -0.0171 C   0  0  0  0  0  0  0  0  0  0  0  0
    3.7106    1.7764   -0.2282 O   0  0  0  0  0  0  0  0  0  0  0  0
    3.8454   -1.2181   -1.6721 C   0  0  0  0  0  0  0  0  0  0  0  0
    1.6966    0.7138   -0.4632 H   0  0  0  0  0  0  0  0  0  0  0  0
    3.4567   -1.3456    0.4478 H   0  0  0  0  0  0  0  0  0  0  0  0
    3.7516   -0.5027   -2.4973 H   0  0  0  0  0  0  0  0  0  0  0  0
    4.8990   -1.5088   -1.6051 H   0  0  0  0  0  0  0  0  0  0  0  0
    3.2624   -2.1072   -1.9352 H   0  0  0  0  0  0  0  0  0  0  0  0
    5.3851    0.3527    0.5162 N   0  0  0  0  0  0  0  0  0  0  0  0
    6.3208    1.3785    0.9139 C   0  0  0  0  0  0  0  0  0  0  0  0
    5.6482   -0.6157    0.6737 H   0  0  0  0  0  0  0  0  0  0  0  0
    6.9955    1.6051    0.0752 H   0  0  0  0  0  0  0  0  0  0  0  0
    5.7698    2.2874    1.1970 H   0  0  0  0  0  0  0  0  0  0  0  0
    6.9098    1.0243    1.7728 H   0  0  0  0  0  0  0  0  0  0  0  0
  1  3  1  0  0  0  0
  1  7  1  0  0  0  0
  1  2  2  0  0  0  0
 40 41  1  0  0  0  0
 41 49  1  0  0  0  0
 41 42  2  0  0  0  0
  8  9  1  0  0  0  0
  9 17  1  0  0  0  0
  9 10  2  0  0  0  0
 18 19  1  0  0  0  0
 19 39  1  0  0  0  0
 19 20  2  0  0  0  0
 40 43  1  0  0  0  0
  8 11  1  0  0  0  0
 49 50  1  0  0  0  0
 22 23  1  0  0  0  0
 21 22  1  0  0  0  0
 23 24  1  0  0  0  0
 18 21  1  0  0  0  0
 24 25  1  0  0  0  0
 39 40  1  0  0  0  0
  7  8  1  0  0  0  0
 17 18  1  0  0  0  0
  3  4  1  0  0  0  0
  3  5  1  0  0  0  0
  3  6  1  0  0  0  0
 43 46  1  0  0  0  0
 43 47  1  0  0  0  0
 43 48  1  0  0  0  0
 11 14  1  0  0  0  0
 11 15  1  0  0  0  0
 11 16  1  0  0  0  0
 50 52  1  0  0  0  0
 50 53  1  0  0  0  0
 50 54  1  0  0  0  0
 22 30  1  0  0  0  0
 22 31  1  0  0  0  0
 23 32  1  0  0  0  0
 23 33  1  0  0  0  0
 21 28  1  0  0  0  0
 21 29  1  0  0  0  0
 24 34  1  0  0  0  0
 24 35  1  0  0  0  0
 40 45  1  0  0  0  0
  8 13  1  0  0  0  0
 18 27  1  0  0  0  0
 49 51  1  0  0  0  0
  7 12  1  0  0  0  0
 39 44  1  0  0  0  0
 17 26  1  0  0  0  0
 25 36  1  0  0  0  0
 25 37  1  0  0  0  0
 25 38  1  0  0  0  0
M  CHG  1  25   1
M  END
$$$$

  -OEChem-05262214473D

 54 53  0     1  0  0  0  0  0999 V2000
    2.6714    2.8829   -3.0005 C   0  0  0  0  0  0  0  0  0  0  0  0
    3.1741    2.4398   -1.9745 O   0  0  0  0  0  0  0  0  0  0  0  0
    3.5527    3.3077   -4.1279 C   0  0  0  0  0  0  0  0  0  0  0  0
    3.8407    4.3691   -4.0597 H   0  0  0  0  0  0  0  0  0  0  0  0
    4.5024    2.7495   -4.1526 H   0  0  0  0  0  0  0  0  0  0  0  0
    3.1208    3.1887   -5.1345 H   0  0  0  0  0  0  0  0  0  0  0  0
    1.3174    3.0407   -3.2467 N   0  0  0  0  0  0  0  0  0  0  0  0
    0.2944    2.6927   -2.2960 C   0  0  2  0  0  0  0  0  0  0  0  0
    0.2976    1.1783   -2.1349 C   0  0  0  0  0  0  0  0  0  0  0  0
    0.7500    0.4142   -2.9850 O   0  0  0  0  0  0  0  0  0  0  0  0
   -1.0710    3.1886   -2.7460 C   0  0  0  0  0  0  0  0  0  0  0  0
    1.0312    3.4224   -4.1464 H   0  0  0  0  0  0  0  0  0  0  0  0
    0.5725    3.1622   -1.3461 H   0  0  0  0  0  0  0  0  0  0  0  0
   -1.3666    2.7292   -3.6963 H   0  0  0  0  0  0  0  0  0  0  0  0
   -1.8434    2.9482   -2.0082 H   0  0  0  0  0  0  0  0  0  0  0  0
   -1.0632    4.2744   -2.8901 H   0  0  0  0  0  0  0  0  0  0  0  0
   -0.3037    0.7742   -0.9484 N   0  0  0  0  0  0  0  0  0  0  0  0
   -0.4352   -0.6095   -0.5718 C   0  0  2  0  0  0  0  0  0  0  0  0
    0.9557   -1.2277   -0.4758 C   0  0  0  0  0  0  0  0  0  0  0  0
    1.1830   -2.4091   -0.7292 O   0  0  0  0  0  0  0  0  0  0  0  0
   -1.3639   -1.3761   -1.5210 C   0  0  0  0  0  0  0  0  0  0  0  0
   -2.8355   -0.9504   -1.4364 C   0  0  0  0  0  0  0  0  0  0  0  0
   -3.7043   -1.7727   -2.3910 C   0  0  0  0  0  0  0  0  0  0  0  0
   -5.1588   -1.3312   -2.3224 C   0  0  0  0  0  0  0  0  0  0  0  0
   -5.9565   -2.1363   -3.2784 N   0  3  0  0  0  0  0  0  0  0  0  0
   -0.6336    1.4811   -0.2948 H   0  0  0  0  0  0  0  0  0  0  0  0
   -0.8744   -0.6064    0.4331 H   0  0  0  0  0  0  0  0  0  0  0  0
   -1.0129   -1.2329   -2.5512 H   0  0  0  0  0  0  0  0  0  0  0  0
   -1.2934   -2.4506   -1.3111 H   0  0  0  0  0  0  0  0  0  0  0  0
   -3.2045   -1.0799   -0.4123 H   0  0  0  0  0  0  0  0  0  0  0  0
   -2.9330    0.1129   -1.6851 H   0  0  0  0  0  0  0  0  0  0  0  0
   -3.6264   -2.8365   -2.1344 H   0  0  0  0  0  0  0  0  0  0  0  0
   -3.3301   -1.6613   -3.4163 H   0  0  0  0  0  0  0  0  0  0  0  0
   -5.5909   -1.4958   -1.3309 H   0  0  0  0  0  0  0  0  0  0  0  0
   -5.2831   -0.2828   -2.6092 H   0  0  0  0  0  0  0  0  0  0  0  0
   -6.8411   -1.6686   -3.5045 H   0  0  0  0  0  0  0  0  0  0  0  0
   -6.1783   -3.0582   -2.8864 H   0  0  0  0  0  0  0  0  0  0  0  0
   -5.4433   -2.2813   -4.1549 H   0  0  0  0  0  0  0  0  0  0  0  0
    1.9193   -0.3003   -0.1065 N   0  0  0  0  0  0  0  0  0  0  0  0
    3.3123   -0.6521    0.0323 C   0  0  2  0  0  0  0  0  0  0  0  0
    4.0176    0.4929    0.7473 C   0  0  0  0  0  0  0  0  0  0  0  0
    3.5825    1.6424    0.7643 O   0  0  0  0  0  0  0  0  0  0  0  0
    3.9518   -0.9242   -1.3204 C   0  0  0  0  0  0  0  0  0  0  0  0
    1.6349    0.6583    0.0721 H   0  0  0  0  0  0  0  0  0  0  0  0
    3.3507   -1.5518    0.6560 H   0  0  0  0  0  0  0  0  0  0  0  0
    3.9227   -0.0341   -1.9594 H   0  0  0  0  0  0  0  0  0  0  0  0
    5.0008   -1.2187   -1.2114 H   0  0  0  0  0  0  0  0  0  0  0  0
    3.4248   -1.7279   -1.8460 H   0  0  0  0  0  0  0  0  0  0  0  0
    5.2119    0.0891    1.3276 N   0  0  0  0  0  0  0  0  0  0  0  0
    6.0716    0.9949    2.0530 C   0  0  0  0  0  0  0  0  0  0  0  0
    5.4852   -0.8881    1.2801 H   0  0  0  0  0  0  0  0  0  0  0  0
    6.8223    1.4163    1.3682 H   0  0  0  0  0  0  0  0  0  0  0  0
    5.4684    1.8089    2.4814 H   0  0  0  0  0  0  0  0  0  0  0  0
    6.5790    0.4495    2.8624 H   0  0  0  0  0  0  0  0  0  0  0  0
  1  3  1  0  0  0  0
  1  7  1  0  0  0  0
  1  2  2  0  0  0  0
 40 41  1  0  0  0  0
 41 49  1  0  0  0  0
 41 42  2  0  0  0  0
  8  9  1  0  0  0  0
  9 17  1  0  0  0  0
  9 10  2  0  0  0  0
 18 19  1  0  0  0  0
 19 39  1  0  0  0  0
 19 20  2  0  0  0  0
 40 43  1  0  0  0  0
  8 11  1  0  0  0  0
 49 50  1  0  0  0  0
 22 23  1  0  0  0  0
 21 22  1  0  0  0  0
 23 24  1  0  0  0  0
 18 21  1  0  0  0  0
 24 25  1  0  0  0  0
 39 40  1  0  0  0  0
  7  8  1  0  0  0  0
 17 18  1  0  0  0  0
  3  4  1  0  0  0  0
  3  5  1  0  0  0  0
  3  6  1  0  0  0  0
 43 46  1  0  0  0  0
 43 47  1  0  0  0  0
 43 48  1  0  0  0  0
 11 14  1  0  0  0  0
 11 15  1  0  0  0  0
 11 16  1  0  0  0  0
 50 52  1  0  0  0  0
 50 53  1  0  0  0  0
 50 54  1  0  0  0  0
 22 30  1  0  0  0  0
 22 31  1  0  0  0  0
 23 32  1  0  0  0  0
 23 33  1  0  0  0  0
 21 28  1  0  0  0  0
 21 29  1  0  0  0  0
 24 34  1  0  0  0  0
 24 35  1  0  0  0  0
 40 45  1  0  0  0  0
  8 13  1  0  0  0  0
 18 27  1  0  0  0  0
 49 51  1  0  0  0  0
  7 12  1  0  0  0  0
 39 44  1  0  0  0  0
 17 26  1  0  0  0  0
 25 36  1  0  0  0  0
 25 37  1  0  0  0  0
 25 38  1  0  0  0  0
M  CHG  1  25   1
M  END
$$$$

  -OEChem-05262214473D

 54 53  0     1  0  0  0  0  0999 V2000
    2.6714    2.8829   -3.0005 C   0  0  0  0  0  0  0  0  0  0  0  0
    3.1741    2.4398   -1.9745 O   0  0  0  0  0  0  0  0  0  0  0  0
    3.5527    3.3077   -4.1279 C   0  0  0  0  0  0  0  0  0  0  0  0
    3.8407    4.3691   -4.0597 H   0  0  0  0  0  0  0  0  0  0  0  0
    4.5024    2.7495   -4.1526 H   0  0  0  0  0  0  0  0  0  0  0  0
    3.1208    3.1887   -5.1345 H   0  0  0  0  0  0  0  0  0  0  0  0
    1.3174    3.0407   -3.2467 N   0  0  0  0  0  0  0  0  0  0  0  0
    0.2944    2.6927   -2.2960 C   0  0  2  0  0  0  0  0  0  0  0  0
    0.2976    1.1783   -2.1349 C   0  0  0  0  0  0  0  0  0  0  0  0
    0.7500    0.4142   -2.9850 O   0  0  0  0  0  0  0  0  0  0  0  0
   -1.0710    3.1886   -2.7460 C   0  0  0  0  0  0  0  0  0  0  0  0
    1.0312    3.4224   -4.1464 H   0  0  0  0  0  0  0  0  0  0  0  0
    0.5725    3.1622   -1.3461 H   0  0  0  0  0  0  0  0  0  0  0  0
   -1.3666    2.7292   -3.6963 H   0  0  0  0  0  0  0  0  0  0  0  0
   -1.8434    2.9482   -2.0082 H   0  0  0  0  0  0  0  0  0  0  0  0
   -1.0632    4.2744   -2.8901 H   0  0  0  0  0  0  0  0  0  0  0  0
   -0.3037    0.7742   -0.9484 N   0  0  0  0  0  0  0  0  0  0  0  0
   -0.4352   -0.6095   -0.5718 C   0  0  2  0  0  0  0  0  0  0  0  0
    0.9557   -1.2277   -0.4758 C   0  0  0  0  0  0  0  0  0  0  0  0
    1.2420   -2.3146   -0.9741 O   0  0  0  0  0  0  0  0  0  0  0  0
   -1.3639   -1.3761   -1.5210 C   0  0  0  0  0  0  0  0  0  0  0  0
   -2.8355   -0.9504   -1.4364 C   0  0  0  0  0  0  0  0  0  0  0  0
   -3.7043   -1.7727   -2.3910 C   0  0  0  0  0  0  0  0  0  0  0  0
   -5.1588   -1.3312   -2.3224 C   0  0  0  0  0  0  0  0  0  0  0  0
   -5.9565   -2.1363   -3.2784 N   0  3  0  0  0  0  0  0  0  0  0  0
   -0.6336    1.4811   -0.2948 H   0  0  0  0  0  0  0  0  0  0  0  0
   -0.8744   -0.6064    0.4331 H   0  0  0  0  0  0  0  0  0  0  0  0
   -1.0129   -1.2329   -2.5512 H   0  0  0  0  0  0  0  0  0  0  0  0
   -1.2934   -2.4506   -1.3111 H   0  0  0  0  0  0  0  0  0  0  0  0
   -3.2045   -1.0799   -0.4123 H   0  0  0  0  0  0  0  0  0  0  0  0
   -2.9330    0.1129   -1.6851 H   0  0  0  0  0  0  0  0  0  0  0  0
   -3.6264   -2.8365   -2.1344 H   0  0  0  0  0  0  0  0  0  0  0  0
   -3.3301   -1.6613   -3.4163 H   0  0  0  0  0  0  0  0  0  0  0  0
   -5.5909   -1.4958   -1.3309 H   0  0  0  0  0  0  0  0  0  0  0  0
   -5.2831   -0.2828   -2.6092 H   0  0  0  0  0  0  0  0  0  0  0  0
   -6.8411   -1.6686   -3.5045 H   0  0  0  0  0  0  0  0  0  0  0  0
   -6.1783   -3.0582   -2.8864 H   0  0  0  0  0  0  0  0  0  0  0  0
   -5.4433   -2.2813   -4.1549 H   0  0  0  0  0  0  0  0  0  0  0  0
    1.8489   -0.4106    0.2020 N   0  0  0  0  0  0  0  0  0  0  0  0
    3.2299   -0.7801    0.4023 C   0  0  2  0  0  0  0  0  0  0  0  0
    3.8244    0.1654    1.4376 C   0  0  0  0  0  0  0  0  0  0  0  0
    3.3569    1.2766    1.6779 O   0  0  0  0  0  0  0  0  0  0  0  0
    4.0128   -0.7217   -0.9002 C   0  0  0  0  0  0  0  0  0  0  0  0
    1.5201    0.4773    0.5696 H   0  0  0  0  0  0  0  0  0  0  0  0
    3.2298   -1.8019    0.7974 H   0  0  0  0  0  0  0  0  0  0  0  0
    4.0240    0.2944   -1.3112 H   0  0  0  0  0  0  0  0  0  0  0  0
    5.0531   -1.0297   -0.7520 H   0  0  0  0  0  0  0  0  0  0  0  0
    3.5662   -1.3799   -1.6532 H   0  0  0  0  0  0  0  0  0  0  0  0
    4.9637   -0.3599    2.0309 N   0  0  0  0  0  0  0  0  0  0  0  0
    5.7177    0.3514    3.0366 C   0  0  0  0  0  0  0  0  0  0  0  0
    5.2686   -1.2970    1.7845 H   0  0  0  0  0  0  0  0  0  0  0  0
    6.5224    0.9258    2.5544 H   0  0  0  0  0  0  0  0  0  0  0  0
    5.0503    1.0385    3.5774 H   0  0  0  0  0  0  0  0  0  0  0  0
    6.1546   -0.3683    3.7445 H   0  0  0  0  0  0  0  0  0  0  0  0
  1  3  1  0  0  0  0
  1  7  1  0  0  0  0
  1  2  2  0  0  0  0
 40 41  1  0  0  0  0
 41 49  1  0  0  0  0
 41 42  2  0  0  0  0
  8  9  1  0  0  0  0
  9 17  1  0  0  0  0
  9 10  2  0  0  0  0
 18 19  1  0  0  0  0
 19 39  1  0  0  0  0
 19 20  2  0  0  0  0
 40 43  1  0  0  0  0
  8 11  1  0  0  0  0
 49 50  1  0  0  0  0
 22 23  1  0  0  0  0
 21 22  1  0  0  0  0
 23 24  1  0  0  0  0
 18 21  1  0  0  0  0
 24 25  1  0  0  0  0
 39 40  1  0  0  0  0
  7  8  1  0  0  0  0
 17 18  1  0  0  0  0
  3  4  1  0  0  0  0
  3  5  1  0  0  0  0
  3  6  1  0  0  0  0
 43 46  1  0  0  0  0
 43 47  1  0  0  0  0
 43 48  1  0  0  0  0
 11 14  1  0  0  0  0
 11 15  1  0  0  0  0
 11 16  1  0  0  0  0
 50 52  1  0  0  0  0
 50 53  1  0  0  0  0
 50 54  1  0  0  0  0
 22 30  1  0  0  0  0
 22 31  1  0  0  0  0
 23 32  1  0  0  0  0
 23 33  1  0  0  0  0
 21 28  1  0  0  0  0
 21 29  1  0  0  0  0
 24 34  1  0  0  0  0
 24 35  1  0  0  0  0
 40 45  1  0  0  0  0
  8 13  1  0  0  0  0
 18 27  1  0  0  0  0
 49 51  1  0  0  0  0
  7 12  1  0  0  0  0
 39 44  1  0  0  0  0
 17 26  1  0  0  0  0
 25 36  1  0  0  0  0
 25 37  1  0  0  0  0
 25 38  1  0  0  0  0
M  CHG  1  25   1
M  END
$$$$

  -OEChem-05262214473D

 54 53  0     1  0  0  0  0  0999 V2000
    2.6714    2.8829   -3.0005 C   0  0  0  0  0  0  0  0  0  0  0  0
    3.1741    2.4398   -1.9745 O   0  0  0  0  0  0  0  0  0  0  0  0
    3.5527    3.3077   -4.1279 C   0  0  0  0  0  0  0  0  0  0  0  0
    3.8407    4.3691   -4.0597 H   0  0  0  0  0  0  0  0  0  0  0  0
    4.5024    2.7495   -4.1526 H   0  0  0  0  0  0  0  0  0  0  0  0
    3.1208    3.1887   -5.1345 H   0  0  0  0  0  0  0  0  0  0  0  0
    1.3174    3.0407   -3.2467 N   0  0  0  0  0  0  0  0  0  0  0  0
    0.2944    2.6927   -2.2960 C   0  0  2  0  0  0  0  0  0  0  0  0
    0.2976    1.1783   -2.1349 C   0  0  0  0  0  0  0  0  0  0  0  0
    0.7500    0.4142   -2.9850 O   0  0  0  0  0  0  0  0  0  0  0  0
   -1.0710    3.1886   -2.7460 C   0  0  0  0  0  0  0  0  0  0  0  0
    1.0312    3.4224   -4.1464 H   0  0  0  0  0  0  0  0  0  0  0  0
    0.5725    3.1622   -1.3461 H   0  0  0  0  0  0  0  0  0  0  0  0
   -1.3666    2.7292   -3.6963 H   0  0  0  0  0  0  0  0  0  0  0  0
   -1.8434    2.9482   -2.0082 H   0  0  0  0  0  0  0  0  0  0  0  0
   -1.0632    4.2744   -2.8901 H   0  0  0  0  0  0  0  0  0  0  0  0
   -0.3037    0.7742   -0.9484 N   0  0  0  0  0  0  0  0  0  0  0  0
   -0.4352   -0.6095   -0.5718 C   0  0  2  0  0  0  0  0  0  0  0  0
    0.9557   -1.2277   -0.4758 C   0  0  0  0  0  0  0  0  0  0  0  0
    1.3230   -2.1645   -1.1822 O   0  0  0  0  0  0  0  0  0  0  0  0
   -1.3639   -1.3761   -1.5210 C   0  0  0  0  0  0  0  0  0  0  0  0
   -2.8355   -0.9504   -1.4364 C   0  0  0  0  0  0  0  0  0  0  0  0
   -3.7043   -1.7727   -2.3910 C   0  0  0  0  0  0  0  0  0  0  0  0
   -5.1588   -1.3312   -2.3224 C   0  0  0  0  0  0  0  0  0  0  0  0
   -5.9565   -2.1363   -3.2784 N   0  3  0  0  0  0  0  0  0  0  0  0
   -0.6336    1.4811   -0.2948 H   0  0  0  0  0  0  0  0  0  0  0  0
   -0.8744   -0.6064    0.4331 H   0  0  0  0  0  0  0  0  0  0  0  0
   -1.0129   -1.2329   -2.5512 H   0  0  0  0  0  0  0  0  0  0  0  0
   -1.2934   -2.4506   -1.3111 H   0  0  0  0  0  0  0  0  0  0  0  0
   -3.2045   -1.0799   -0.4123 H   0  0  0  0  0  0  0  0  0  0  0  0
   -2.9330    0.1129   -1.6851 H   0  0  0  0  0  0  0  0  0  0  0  0
   -3.6264   -2.8365   -2.1344 H   0  0  0  0  0  0  0  0  0  0  0  0
   -3.3301   -1.6613   -3.4163 H   0  0  0  0  0  0  0  0  0  0  0  0
   -5.5909   -1.4958   -1.3309 H   0  0  0  0  0  0  0  0  0  0  0  0
   -5.2831   -0.2828   -2.6092 H   0  0  0  0  0  0  0  0  0  0  0  0
   -6.8411   -1.6686   -3.5045 H   0  0  0  0  0  0  0  0  0  0  0  0
   -6.1783   -3.0582   -2.8864 H   0  0  0  0  0  0  0  0  0  0  0  0
   -5.4433   -2.2813   -4.1549 H   0  0  0  0  0  0  0  0  0  0  0  0
    1.7504   -0.5912    0.4666 N   0  0  0  0  0  0  0  0  0  0  0  0
    3.1135   -0.9925    0.7208 C   0  0  2  0  0  0  0  0  0  0  0  0
    3.5707   -0.3169    2.0069 C   0  0  0  0  0  0  0  0  0  0  0  0
    3.0490    0.7040    2.4504 O   0  0  0  0  0  0  0  0  0  0  0  0
    4.0243   -0.6242   -0.4401 C   0  0  0  0  0  0  0  0  0  0  0  0
    1.3600    0.1831    0.9954 H   0  0  0  0  0  0  0  0  0  0  0  0
    3.1023   -2.0787    0.8622 H   0  0  0  0  0  0  0  0  0  0  0  0
    4.0484    0.4603   -0.5970 H   0  0  0  0  0  0  0  0  0  0  0  0
    5.0523   -0.9547   -0.2582 H   0  0  0  0  0  0  0  0  0  0  0  0
    3.6768   -1.0870   -1.3701 H   0  0  0  0  0  0  0  0  0  0  0  0
    4.6576   -0.9637    2.5783 N   0  0  0  0  0  0  0  0  0  0  0  0
    5.2831   -0.5080    3.7977 C   0  0  0  0  0  0  0  0  0  0  0  0
    5.0132   -1.8145    2.1524 H   0  0  0  0  0  0  0  0  0  0  0  0
    6.1163    0.1672    3.5529 H   0  0  0  0  0  0  0  0  0  0  0  0
    4.5440    0.0289    4.4104 H   0  0  0  0  0  0  0  0  0  0  0  0
    5.6655   -1.3734    4.3590 H   0  0  0  0  0  0  0  0  0  0  0  0
  1  3  1  0  0  0  0
  1  7  1  0  0  0  0
  1  2  2  0  0  0  0
 40 41  1  0  0  0  0
 41 49  1  0  0  0  0
 41 42  2  0  0  0  0
  8  9  1  0  0  0  0
  9 17  1  0  0  0  0
  9 10  2  0  0  0  0
 18 19  1  0  0  0  0
 19 39  1  0  0  0  0
 19 20  2  0  0  0  0
 40 43  1  0  0  0  0
  8 11  1  0  0  0  0
 49 50  1  0  0  0  0
 22 23  1  0  0  0  0
 21 22  1  0  0  0  0
 23 24  1  0  0  0  0
 18 21  1  0  0  0  0
 24 25  1  0  0  0  0
 39 40  1  0  0  0  0
  7  8  1  0  0  0  0
 17 18  1  0  0  0  0
  3  4  1  0  0  0  0
  3  5  1  0  0  0  0
  3  6  1  0  0  0  0
 43 46  1  0  0  0  0
 43 47  1  0  0  0  0
 43 48  1  0  0  0  0
 11 14  1  0  0  0  0
 11 15  1  0  0  0  0
 11 16  1  0  0  0  0
 50 52  1  0  0  0  0
 50 53  1  0  0  0  0
 50 54  1  0  0  0  0
 22 30  1  0  0  0  0
 22 31  1  0  0  0  0
 23 32  1  0  0  0  0
 23 33  1  0  0  0  0
 21 28  1  0  0  0  0
 21 29  1  0  0  0  0
 24 34  1  0  0  0  0
 24 35  1  0  0  0  0
 40 45  1  0  0  0  0
  8 13  1  0  0  0  0
 18 27  1  0  0  0  0
 49 51  1  0  0  0  0
  7 12  1  0  0  0  0
 39 44  1  0  0  0  0
 17 26  1  0  0  0  0
 25 36  1  0  0  0  0
 25 37  1  0  0  0  0
 25 38  1  0  0  0  0
M  CHG  1  25   1
M  END
$$$$

  -OEChem-05262214473D

 54 53  0     1  0  0  0  0  0999 V2000
    2.6714    2.8829   -3.0005 C   0  0  0  0  0  0  0  0  0  0  0  0
    3.1741    2.4398   -1.9745 O   0  0  0  0  0  0  0  0  0  0  0  0
    3.5527    3.3077   -4.1279 C   0  0  0  0  0  0  0  0  0  0  0  0
    3.8407    4.3691   -4.0597 H   0  0  0  0  0  0  0  0  0  0  0  0
    4.5024    2.7495   -4.1526 H   0  0  0  0  0  0  0  0  0  0  0  0
    3.1208    3.1887   -5.1345 H   0  0  0  0  0  0  0  0  0  0  0  0
    1.3174    3.0407   -3.2467 N   0  0  0  0  0  0  0  0  0  0  0  0
    0.2944    2.6927   -2.2960 C   0  0  2  0  0  0  0  0  0  0  0  0
    0.2976    1.1783   -2.1349 C   0  0  0  0  0  0  0  0  0  0  0  0
    0.7500    0.4142   -2.9850 O   0  0  0  0  0  0  0  0  0  0  0  0
   -1.0710    3.1886   -2.7460 C   0  0  0  0  0  0  0  0  0  0  0  0
    1.0312    3.4224   -4.1464 H   0  0  0  0  0  0  0  0  0  0  0  0
    0.5725    3.1622   -1.3461 H   0  0  0  0  0  0  0  0  0  0  0  0
   -1.3666    2.7292   -3.6963 H   0  0  0  0  0  0  0  0  0  0  0  0
   -1.8434    2.9482   -2.0082 H   0  0  0  0  0  0  0  0  0  0  0  0
   -1.0632    4.2744   -2.8901 H   0  0  0  0  0  0  0  0  0  0  0  0
   -0.3037    0.7742   -0.9484 N   0  0  0  0  0  0  0  0  0  0  0  0
   -0.4352   -0.6095   -0.5718 C   0  0  2  0  0  0  0  0  0  0  0  0
    0.9557   -1.2277   -0.4758 C   0  0  0  0  0  0  0  0  0  0  0  0
    1.4207   -1.9691   -1.3393 O   0  0  0  0  0  0  0  0  0  0  0  0
   -1.3639   -1.3761   -1.5210 C   0  0  0  0  0  0  0  0  0  0  0  0
   -2.8355   -0.9504   -1.4364 C   0  0  0  0  0  0  0  0  0  0  0  0
   -3.7043   -1.7727   -2.3910 C   0  0  0  0  0  0  0  0  0  0  0  0
   -5.1588   -1.3312   -2.3224 C   0  0  0  0  0  0  0  0  0  0  0  0
   -5.9565   -2.1363   -3.2784 N   0  3  0  0  0  0  0  0  0  0  0  0
   -0.6336    1.4811   -0.2948 H   0  0  0  0  0  0  0  0  0  0  0  0
   -0.8744   -0.6064    0.4331 H   0  0  0  0  0  0  0  0  0  0  0  0
   -1.0129   -1.2329   -2.5512 H   0  0  0  0  0  0  0  0  0  0  0  0
   -1.2934   -2.4506   -1.3111 H   0  0  0  0  0  0  0  0  0  0  0  0
   -3.2045   -1.0799   -0.4123 H   0  0  0  0  0  0  0  0  0  0  0  0
   -2.9330    0.1129   -1.6851 H   0  0  0  0  0  0  0  0  0  0  0  0
   -3.6264   -2.8365   -2.1344 H   0  0  0  0  0  0  0  0  0  0  0  0
   -3.3301   -1.6613   -3.4163 H   0  0  0  0  0  0  0  0  0  0  0  0
   -5.5909   -1.4958   -1.3309 H   0  0  0  0  0  0  0  0  0  0  0  0
   -5.2831   -0.2828   -2.6092 H   0  0  0  0  0  0  0  0  0  0  0  0
   -6.8411   -1.6686   -3.5045 H   0  0  0  0  0  0  0  0  0  0  0  0
   -6.1783   -3.0582   -2.8864 H   0  0  0  0  0  0  0  0  0  0  0  0
   -5.4433   -2.2813   -4.1549 H   0  0  0  0  0  0  0  0  0  0  0  0
    1.6304   -0.8296    0.6693 N   0  0  0  0  0  0  0  0  0  0  0  0
    2.9711   -1.2747    0.9661 C   0  0  2  0  0  0  0  0  0  0  0  0
    3.2737   -0.9213    2.4163 C   0  0  0  0  0  0  0  0  0  0  0  0
    2.6799   -0.0365    3.0291 O   0  0  0  0  0  0  0  0  0  0  0  0
    3.9856   -0.6385    0.0286 C   0  0  0  0  0  0  0  0  0  0  0  0
    1.1654   -0.2041    1.3205 H   0  0  0  0  0  0  0  0  0  0  0  0
    2.9768   -2.3635    0.8461 H   0  0  0  0  0  0  0  0  0  0  0  0
    3.9944    0.4524    0.1346 H   0  0  0  0  0  0  0  0  0  0  0  0
    4.9985   -0.9989    0.2365 H   0  0  0  0  0  0  0  0  0  0  0  0
    3.7492   -0.8691   -1.0158 H   0  0  0  0  0  0  0  0  0  0  0  0
    4.3143   -1.6810    2.9324 N   0  0  0  0  0  0  0  0  0  0  0  0
    4.7975   -1.5250    4.2844 C   0  0  0  0  0  0  0  0  0  0  0  0
    4.7363   -2.4054    2.3589 H   0  0  0  0  0  0  0  0  0  0  0  0
    5.6316   -0.8078    4.2958 H   0  0  0  0  0  0  0  0  0  0  0  0
    3.9840   -1.1512    4.9236 H   0  0  0  0  0  0  0  0  0  0  0  0
    5.1449   -2.4972    4.6640 H   0  0  0  0  0  0  0  0  0  0  0  0
  1  3  1  0  0  0  0
  1  7  1  0  0  0  0
  1  2  2  0  0  0  0
 40 41  1  0  0  0  0
 41 49  1  0  0  0  0
 41 42  2  0  0  0  0
  8  9  1  0  0  0  0
  9 17  1  0  0  0  0
  9 10  2  0  0  0  0
 18 19  1  0  0  0  0
 19 39  1  0  0  0  0
 19 20  2  0  0  0  0
 40 43  1  0  0  0  0
  8 11  1  0  0  0  0
 49 50  1  0  0  0  0
 22 23  1  0  0  0  0
 21 22  1  0  0  0  0
 23 24  1  0  0  0  0
 18 21  1  0  0  0  0
 24 25  1  0  0  0  0
 39 40  1  0  0  0  0
  7  8  1  0  0  0  0
 17 18  1  0  0  0  0
  3  4  1  0  0  0  0
  3  5  1  0  0  0  0
  3  6  1  0  0  0  0
 43 46  1  0  0  0  0
 43 47  1  0  0  0  0
 43 48  1  0  0  0  0
 11 14  1  0  0  0  0
 11 15  1  0  0  0  0
 11 16  1  0  0  0  0
 50 52  1  0  0  0  0
 50 53  1  0  0  0  0
 50 54  1  0  0  0  0
 22 30  1  0  0  0  0
 22 31  1  0  0  0  0
 23 32  1  0  0  0  0
 23 33  1  0  0  0  0
 21 28  1  0  0  0  0
 21 29  1  0  0  0  0
 24 34  1  0  0  0  0
 24 35  1  0  0  0  0
 40 45  1  0  0  0  0
  8 13  1  0  0  0  0
 18 27  1  0  0  0  0
 49 51  1  0  0  0  0
  7 12  1  0  0  0  0
 39 44  1  0  0  0  0
 17 26  1  0  0  0  0
 25 36  1  0  0  0  0
 25 37  1  0  0  0  0
 25 38  1  0  0  0  0
M  CHG  1  25   1
M  END
$$$$

  -OEChem-05262214473D

 54 53  0     1  0  0  0  0  0999 V2000
    2.6714    2.8829   -3.0005 C   0  0  0  0  0  0  0  0  0  0  0  0
    3.1741    2.4398   -1.9745 O   0  0  0  0  0  0  0  0  0  0  0  0
    3.5527    3.3077   -4.1279 C   0  0  0  0  0  0  0  0  0  0  0  0
    3.8407    4.3691   -4.0597 H   0  0  0  0  0  0  0  0  0  0  0  0
    4.5024    2.7495   -4.1526 H   0  0  0  0  0  0  0  0  0  0  0  0
    3.1208    3.1887   -5.1345 H   0  0  0  0  0  0  0  0  0  0  0  0
    1.3174    3.0407   -3.2467 N   0  0  0  0  0  0  0  0  0  0  0  0
    0.2944    2.6927   -2.2960 C   0  0  2  0  0  0  0  0  0  0  0  0
    0.2976    1.1783   -2.1349 C   0  0  0  0  0  0  0  0  0  0  0  0
    0.7500    0.4142   -2.9850 O   0  0  0  0  0  0  0  0  0  0  0  0
   -1.0710    3.1886   -2.7460 C   0  0  0  0  0  0  0  0  0  0  0  0
    1.0312    3.4224   -4.1464 H   0  0  0  0  0  0  0  0  0  0  0  0
    0.5725    3.1622   -1.3461 H   0  0  0  0  0  0  0  0  0  0  0  0
   -1.3666    2.7292   -3.6963 H   0  0  0  0  0  0  0  0  0  0  0  0
   -1.8434    2.9482   -2.0082 H   0  0  0  0  0  0  0  0  0  0  0  0
   -1.0632    4.2744   -2.8901 H   0  0  0  0  0  0  0  0  0  0  0  0
   -0.3037    0.7742   -0.9484 N   0  0  0  0  0  0  0  0  0  0  0  0
   -0.4352   -0.6095   -0.5718 C   0  0  2  0  0  0  0  0  0  0  0  0
    0.9557   -1.2277   -0.4758 C   0  0  0  0  0  0  0  0  0  0  0  0
    1.5284   -1.7418   -1.4346 O   0  0  0  0  0  0  0  0  0  0  0  0
   -1.3639   -1.3761   -1.5210 C   0  0  0  0  0  0  0  0  0  0  0  0
   -2.8355   -0.9504   -1.4364 C   0  0  0  0  0  0  0  0  0  0  0  0
   -3.7043   -1.7727   -2.3910 C   0  0  0  0  0  0  0  0  0  0  0  0
   -5.1588   -1.3312   -2.3224 C   0  0  0  0  0  0  0  0  0  0  0  0
   -5.9565   -2.1363   -3.2784 N   0  3  0  0  0  0  0  0  0  0  0  0
   -0.6336    1.4811   -0.2948 H   0  0  0  0  0  0  0  0  0  0  0  0
   -0.8744   -0.6064    0.4331 H   0  0  0  0  0  0  0  0  0  0  0  0
   -1.0129   -1.2329   -2.5512 H   0  0  0  0  0  0  0  0  0  0  0  0
   -1.2934   -2.4506   -1.3111 H   0  0  0  0  0  0  0  0  0  0  0  0
   -3.2045   -1.0799   -0.4123 H   0  0  0  0  0  0  0  0  0  0  0  0
   -2.9330    0.1129   -1.6851 H   0  0  0  0  0  0  0  0  0  0  0  0
   -3.6264   -2.8365   -2.1344 H   0  0  0  0  0  0  0  0  0  0  0  0
   -3.3301   -1.6613   -3.4163 H   0  0  0  0  0  0  0  0  0  0  0  0
   -5.5909   -1.4958   -1.3309 H   0  0  0  0  0  0  0  0  0  0  0  0
   -5.2831   -0.2828   -2.6092 H   0  0  0  0  0  0  0  0  0  0  0  0
   -6.8411   -1.6686   -3.5045 H   0  0  0  0  0  0  0  0  0  0  0  0
   -6.1783   -3.0582   -2.8864 H   0  0  0  0  0  0  0  0  0  0  0  0
   -5.4433   -2.2813   -4.1549 H   0  0  0  0  0  0  0  0  0  0  0  0
    1.4972   -1.1097    0.7962 N   0  0  0  0  0  0  0  0  0  0  0  0
    2.8125   -1.6075    1.1215 C   0  0  2  0  0  0  0  0  0  0  0  0
    2.9538   -1.6067    2.6379 C   0  0  0  0  0  0  0  0  0  0  0  0
    2.2747   -0.8944    3.3745 O   0  0  0  0  0  0  0  0  0  0  0  0
    3.8993   -0.7636    0.4739 C   0  0  0  0  0  0  0  0  0  0  0  0
    0.9497   -0.6580    1.5227 H   0  0  0  0  0  0  0  0  0  0  0  0
    2.8619   -2.6369    0.7501 H   0  0  0  0  0  0  0  0  0  0  0  0
    3.8656    0.2712    0.8338 H   0  0  0  0  0  0  0  0  0  0  0  0
    4.8954   -1.1592    0.6982 H   0  0  0  0  0  0  0  0  0  0  0  0
    3.7785   -0.7410   -0.6146 H   0  0  0  0  0  0  0  0  0  0  0  0
    3.9572   -2.4631    3.0690 N   0  0  0  0  0  0  0  0  0  0  0  0
    4.2940   -2.6300    4.4635 C   0  0  0  0  0  0  0  0  0  0  0  0
    4.4568   -3.0295    2.3897 H   0  0  0  0  0  0  0  0  0  0  0  0
    5.1013   -1.9329    4.7323 H   0  0  0  0  0  0  0  0  0  0  0  0
    3.4085   -2.4213    5.0820 H   0  0  0  0  0  0  0  0  0  0  0  0
    4.6283   -3.6632    4.6388 H   0  0  0  0  0  0  0  0  0  0  0  0
  1  3  1  0  0  0  0
  1  7  1  0  0  0  0
  1  2  2  0  0  0  0
 40 41  1  0  0  0  0
 41 49  1  0  0  0  0
 41 42  2  0  0  0  0
  8  9  1  0  0  0  0
  9 17  1  0  0  0  0
  9 10  2  0  0  0  0
 18 19  1  0  0  0  0
 19 39  1  0  0  0  0
 19 20  2  0  0  0  0
 40 43  1  0  0  0  0
  8 11  1  0  0  0  0
 49 50  1  0  0  0  0
 22 23  1  0  0  0  0
 21 22  1  0  0  0  0
 23 24  1  0  0  0  0
 18 21  1  0  0  0  0
 24 25  1  0  0  0  0
 39 40  1  0  0  0  0
  7  8  1  0  0  0  0
 17 18  1  0  0  0  0
  3  4  1  0  0  0  0
  3  5  1  0  0  0  0
  3  6  1  0  0  0  0
 43 46  1  0  0  0  0
 43 47  1  0  0  0  0
 43 48  1  0  0  0  0
 11 14  1  0  0  0  0
 11 15  1  0  0  0  0
 11 16  1  0  0  0  0
 50 52  1  0  0  0  0
 50 53  1  0  0  0  0
 50 54  1  0  0  0  0
 22 30  1  0  0  0  0
 22 31  1  0  0  0  0
 23 32  1  0  0  0  0
 23 33  1  0  0  0  0
 21 28  1  0  0  0  0
 21 29  1  0  0  0  0
 24 34  1  0  0  0  0
 24 35  1  0  0  0  0
 40 45  1  0  0  0  0
  8 13  1  0  0  0  0
 18 27  1  0  0  0  0
 49 51  1  0  0  0  0
  7 12  1  0  0  0  0
 39 44  1  0  0  0  0
 17 26  1  0  0  0  0
 25 36  1  0  0  0  0
 25 37  1  0  0  0  0
 25 38  1  0  0  0  0
M  CHG  1  25   1
M  END
$$$$

  -OEChem-05262214473D

 54 53  0     1  0  0  0  0  0999 V2000
    2.6714    2.8829   -3.0005 C   0  0  0  0  0  0  0  0  0  0  0  0
    3.1741    2.4398   -1.9745 O   0  0  0  0  0  0  0  0  0  0  0  0
    3.5527    3.3077   -4.1279 C   0  0  0  0  0  0  0  0  0  0  0  0
    3.8407    4.3691   -4.0597 H   0  0  0  0  0  0  0  0  0  0  0  0
    4.5024    2.7495   -4.1526 H   0  0  0  0  0  0  0  0  0  0  0  0
    3.1208    3.1887   -5.1345 H   0  0  0  0  0  0  0  0  0  0  0  0
    1.3174    3.0407   -3.2467 N   0  0  0  0  0  0  0  0  0  0  0  0
    0.2944    2.6927   -2.2960 C   0  0  2  0  0  0  0  0  0  0  0  0
    0.2976    1.1783   -2.1349 C   0  0  0  0  0  0  0  0  0  0  0  0
    0.7500    0.4142   -2.9850 O   0  0  0  0  0  0  0  0  0  0  0  0
   -1.0710    3.1886   -2.7460 C   0  0  0  0  0  0  0  0  0  0  0  0
    1.0312    3.4224   -4.1464 H   0  0  0  0  0  0  0  0  0  0  0  0
    0.5725    3.1622   -1.3461 H   0  0  0  0  0  0  0  0  0  0  0  0
   -1.3666    2.7292   -3.6963 H   0  0  0  0  0  0  0  0  0  0  0  0
   -1.8434    2.9482   -2.0082 H   0  0  0  0  0  0  0  0  0  0  0  0
   -1.0632    4.2744   -2.8901 H   0  0  0  0  0  0  0  0  0  0  0  0
   -0.3037    0.7742   -0.9484 N   0  0  0  0  0  0  0  0  0  0  0  0
   -0.4352   -0.6095   -0.5718 C   0  0  2  0  0  0  0  0  0  0  0  0
    0.9557   -1.2277   -0.4758 C   0  0  0  0  0  0  0  0  0  0  0  0
    1.6387   -1.4978   -1.4618 O   0  0  0  0  0  0  0  0  0  0  0  0
   -1.3639   -1.3761   -1.5210 C   0  0  0  0  0  0  0  0  0  0  0  0
   -2.8355   -0.9504   -1.4364 C   0  0  0  0  0  0  0  0  0  0  0  0
   -3.7043   -1.7727   -2.3910 C   0  0  0  0  0  0  0  0  0  0  0  0
   -5.1588   -1.3312   -2.3224 C   0  0  0  0  0  0  0  0  0  0  0  0
   -5.9565   -2.1363   -3.2784 N   0  3  0  0  0  0  0  0  0  0  0  0
   -0.6336    1.4811   -0.2948 H   0  0  0  0  0  0  0  0  0  0  0  0
   -0.8744   -0.6064    0.4331 H   0  0  0  0  0  0  0  0  0  0  0  0
   -1.0129   -1.2329   -2.5512 H   0  0  0  0  0  0  0  0  0  0  0  0
   -1.2934   -2.4506   -1.3111 H   0  0  0  0  0  0  0  0  0  0  0  0
   -3.2045   -1.0799   -0.4123 H   0  0  0  0  0  0  0  0  0  0  0  0
   -2.9330    0.1129   -1.6851 H   0  0  0  0  0  0  0  0  0  0  0  0
   -3.6264   -2.8365   -2.1344 H   0  0  0  0  0  0  0  0  0  0  0  0
   -3.3301   -1.6613   -3.4163 H   0  0  0  0  0  0  0  0  0  0  0  0
   -5.5909   -1.4958   -1.3309 H   0  0  0  0  0  0  0  0  0  0  0  0
   -5.2831   -0.2828   -2.6092 H   0  0  0  0  0  0  0  0  0  0  0  0
   -6.8411   -1.6686   -3.5045 H   0  0  0  0  0  0  0  0  0  0  0  0
   -6.1783   -3.0582   -2.8864 H   0  0  0  0  0  0  0  0  0  0  0  0
   -5.4433   -2.2813   -4.1549 H   0  0  0  0  0  0  0  0  0  0  0  0
    1.3597   -1.4124    0.8386 N   0  0  0  0  0  0  0  0  0  0  0  0
    2.6484   -1.9682    1.1764 C   0  0  2  0  0  0  0  0  0  0  0  0
    2.6327   -2.3261    2.6567 C   0  0  0  0  0  0  0  0  0  0  0  0
    1.8611   -1.8112    3.4632 O   0  0  0  0  0  0  0  0  0  0  0  0
    3.7712   -0.9909    0.8654 C   0  0  0  0  0  0  0  0  0  0  0  0
    0.7275   -1.1477    1.5882 H   0  0  0  0  0  0  0  0  0  0  0  0
    2.7655   -2.8801    0.5808 H   0  0  0  0  0  0  0  0  0  0  0  0
    3.6707   -0.0709    1.4528 H   0  0  0  0  0  0  0  0  0  0  0  0
    4.7499   -1.4247    1.0955 H   0  0  0  0  0  0  0  0  0  0  0  0
    3.7625   -0.7115   -0.1937 H   0  0  0  0  0  0  0  0  0  0  0  0
    3.6107   -3.2566    2.9790 N   0  0  0  0  0  0  0  0  0  0  0  0
    3.8068   -3.7479    4.3229 C   0  0  0  0  0  0  0  0  0  0  0  0
    4.1937   -3.6441    2.2429 H   0  0  0  0  0  0  0  0  0  0  0  0
    4.5617   -3.1313    4.8328 H   0  0  0  0  0  0  0  0  0  0  0  0
    2.8567   -3.6949    4.8748 H   0  0  0  0  0  0  0  0  0  0  0  0
    4.1511   -4.7920    4.2849 H   0  0  0  0  0  0  0  0  0  0  0  0
  1  3  1  0  0  0  0
  1  7  1  0  0  0  0
  1  2  2  0  0  0  0
 40 41  1  0  0  0  0
 41 49  1  0  0  0  0
 41 42  2  0  0  0  0
  8  9  1  0  0  0  0
  9 17  1  0  0  0  0
  9 10  2  0  0  0  0
 18 19  1  0  0  0  0
 19 39  1  0  0  0  0
 19 20  2  0  0  0  0
 40 43  1  0  0  0  0
  8 11  1  0  0  0  0
 49 50  1  0  0  0  0
 22 23  1  0  0  0  0
 21 22  1  0  0  0  0
 23 24  1  0  0  0  0
 18 21  1  0  0  0  0
 24 25  1  0  0  0  0
 39 40  1  0  0  0  0
  7  8  1  0  0  0  0
 17 18  1  0  0  0  0
  3  4  1  0  0  0  0
  3  5  1  0  0  0  0
  3  6  1  0  0  0  0
 43 46  1  0  0  0  0
 43 47  1  0  0  0  0
 43 48  1  0  0  0  0
 11 14  1  0  0  0  0
 11 15  1  0  0  0  0
 11 16  1  0  0  0  0
 50 52  1  0  0  0  0
 50 53  1  0  0  0  0
 50 54  1  0  0  0  0
 22 30  1  0  0  0  0
 22 31  1  0  0  0  0
 23 32  1  0  0  0  0
 23 33  1  0  0  0  0
 21 28  1  0  0  0  0
 21 29  1  0  0  0  0
 24 34  1  0  0  0  0
 24 35  1  0  0  0  0
 40 45  1  0  0  0  0
  8 13  1  0  0  0  0
 18 27  1  0  0  0  0
 49 51  1  0  0  0  0
  7 12  1  0  0  0  0
 39 44  1  0  0  0  0
 17 26  1  0  0  0  0
 25 36  1  0  0  0  0
 25 37  1  0  0  0  0
 25 38  1  0  0  0  0
M  CHG  1  25   1
M  END
$$$$

  -OEChem-05262214473D

 54 53  0     1  0  0  0  0  0999 V2000
    2.6714    2.8829   -3.0005 C   0  0  0  0  0  0  0  0  0  0  0  0
    3.1741    2.4398   -1.9745 O   0  0  0  0  0  0  0  0  0  0  0  0
    3.5527    3.3077   -4.1279 C   0  0  0  0  0  0  0  0  0  0  0  0
    3.8407    4.3691   -4.0597 H   0  0  0  0  0  0  0  0  0  0  0  0
    4.5024    2.7495   -4.1526 H   0  0  0  0  0  0  0  0  0  0  0  0
    3.1208    3.1887   -5.1345 H   0  0  0  0  0  0  0  0  0  0  0  0
    1.3174    3.0407   -3.2467 N   0  0  0  0  0  0  0  0  0  0  0  0
    0.2944    2.6927   -2.2960 C   0  0  2  0  0  0  0  0  0  0  0  0
    0.2976    1.1783   -2.1349 C   0  0  0  0  0  0  0  0  0  0  0  0
    0.7500    0.4142   -2.9850 O   0  0  0  0  0  0  0  0  0  0  0  0
   -1.0710    3.1886   -2.7460 C   0  0  0  0  0  0  0  0  0  0  0  0
    1.0312    3.4224   -4.1464 H   0  0  0  0  0  0  0  0  0  0  0  0
    0.5725    3.1622   -1.3461 H   0  0  0  0  0  0  0  0  0  0  0  0
   -1.3666    2.7292   -3.6963 H   0  0  0  0  0  0  0  0  0  0  0  0
   -1.8434    2.9482   -2.0082 H   0  0  0  0  0  0  0  0  0  0  0  0
   -1.0632    4.2744   -2.8901 H   0  0  0  0  0  0  0  0  0  0  0  0
   -0.3037    0.7742   -0.9484 N   0  0  0  0  0  0  0  0  0  0  0  0
   -0.4352   -0.6095   -0.5718 C   0  0  2  0  0  0  0  0  0  0  0  0
    0.9557   -1.2277   -0.4758 C   0  0  0  0  0  0  0  0  0  0  0  0
    1.7441   -1.2540   -1.4188 O   0  0  0  0  0  0  0  0  0  0  0  0
   -1.3639   -1.3761   -1.5210 C   0  0  0  0  0  0  0  0  0  0  0  0
   -2.8355   -0.9504   -1.4364 C   0  0  0  0  0  0  0  0  0  0  0  0
   -3.7043   -1.7727   -2.3910 C   0  0  0  0  0  0  0  0  0  0  0  0
   -5.1588   -1.3312   -2.3224 C   0  0  0  0  0  0  0  0  0  0  0  0
   -5.9565   -2.1363   -3.2784 N   0  3  0  0  0  0  0  0  0  0  0  0
   -0.6336    1.4811   -0.2948 H   0  0  0  0  0  0  0  0  0  0  0  0
   -0.8744   -0.6064    0.4331 H   0  0  0  0  0  0  0  0  0  0  0  0
   -1.0129   -1.2329   -2.5512 H   0  0  0  0  0  0  0  0  0  0  0  0
   -1.2934   -2.4506   -1.3111 H   0  0  0  0  0  0  0  0  0  0  0  0
   -3.2045   -1.0799   -0.4123 H   0  0  0  0  0  0  0  0  0  0  0  0
   -2.9330    0.1129   -1.6851 H   0  0  0  0  0  0  0  0  0  0  0  0
   -3.6264   -2.8365   -2.1344 H   0  0  0  0  0  0  0  0  0  0  0  0
   -3.3301   -1.6613   -3.4163 H   0  0  0  0  0  0  0  0  0  0  0  0
   -5.5909   -1.4958   -1.3309 H   0  0  0  0  0  0  0  0  0  0  0  0
   -5.2831   -0.2828   -2.6092 H   0  0  0  0  0  0  0  0  0  0  0  0
   -6.8411   -1.6686   -3.5045 H   0  0  0  0  0  0  0  0  0  0  0  0
   -6.1783   -3.0582   -2.8864 H   0  0  0  0  0  0  0  0  0  0  0  0
   -5.4433   -2.2813   -4.1549 H   0  0  0  0  0  0  0  0  0  0  0  0
    1.2274   -1.7171    0.7937 N   0  0  0  0  0  0  0  0  0  0  0  0
    2.4899   -2.3323    1.1271 C   0  0  2  0  0  0  0  0  0  0  0  0
    2.3323   -3.0308    2.4713 C   0  0  0  0  0  0  0  0  0  0  0  0
    1.4672   -2.7244    3.2891 O   0  0  0  0  0  0  0  0  0  0  0  0
    3.6101   -1.3050    1.1764 C   0  0  0  0  0  0  0  0  0  0  0  0
    0.5140   -1.6398    1.5126 H   0  0  0  0  0  0  0  0  0  0  0  0
    2.6940   -3.0767    0.3498 H   0  0  0  0  0  0  0  0  0  0  0  0
    3.4232   -0.5507    1.9495 H   0  0  0  0  0  0  0  0  0  0  0  0
    4.5721   -1.7773    1.4013 H   0  0  0  0  0  0  0  0  0  0  0  0
    3.7025   -0.7827    0.2181 H   0  0  0  0  0  0  0  0  0  0  0  0
    3.2984   -4.0075    2.6683 N   0  0  0  0  0  0  0  0  0  0  0  0
    3.3692   -4.8024    3.8721 C   0  0  0  0  0  0  0  0  0  0  0  0
    3.9651   -4.2074    1.9285 H   0  0  0  0  0  0  0  0  0  0  0  0
    4.0495   -4.3214    4.5903 H   0  0  0  0  0  0  0  0  0  0  0  0
    2.3662   -4.8853    4.3162 H   0  0  0  0  0  0  0  0  0  0  0  0
    3.7456   -5.8065    3.6267 H   0  0  0  0  0  0  0  0  0  0  0  0
  1  3  1  0  0  0  0
  1  7  1  0  0  0  0
  1  2  2  0  0  0  0
 40 41  1  0  0  0  0
 41 49  1  0  0  0  0
 41 42  2  0  0  0  0
  8  9  1  0  0  0  0
  9 17  1  0  0  0  0
  9 10  2  0  0  0  0
 18 19  1  0  0  0  0
 19 39  1  0  0  0  0
 19 20  2  0  0  0  0
 40 43  1  0  0  0  0
  8 11  1  0  0  0  0
 49 50  1  0  0  0  0
 22 23  1  0  0  0  0
 21 22  1  0  0  0  0
 23 24  1  0  0  0  0
 18 21  1  0  0  0  0
 24 25  1  0  0  0  0
 39 40  1  0  0  0  0
  7  8  1  0  0  0  0
 17 18  1  0  0  0  0
  3  4  1  0  0  0  0
  3  5  1  0  0  0  0
  3  6  1  0  0  0  0
 43 46  1  0  0  0  0
 43 47  1  0  0  0  0
 43 48  1  0  0  0  0
 11 14  1  0  0  0  0
 11 15  1  0  0  0  0
 11 16  1  0  0  0  0
 50 52  1  0  0  0  0
 50 53  1  0  0  0  0
 50 54  1  0  0  0  0
 22 30  1  0  0  0  0
 22 31  1  0  0  0  0
 23 32  1  0  0  0  0
 23 33  1  0  0  0  0
 21 28  1  0  0  0  0
 21 29  1  0  0  0  0
 24 34  1  0  0  0  0
 24 35  1  0  0  0  0
 40 45  1  0  0  0  0
  8 13  1  0  0  0  0
 18 27  1  0  0  0  0
 49 51  1  0  0  0  0
  7 12  1  0  0  0  0
 39 44  1  0  0  0  0
 17 26  1  0  0  0  0
 25 36  1  0  0  0  0
 25 37  1  0  0  0  0
 25 38  1  0  0  0  0
M  CHG  1  25   1
M  END
$$$$

  -OEChem-05262214473D

 54 53  0     1  0  0  0  0  0999 V2000
    2.6714    2.8829   -3.0005 C   0  0  0  0  0  0  0  0  0  0  0  0
    3.1741    2.4398   -1.9745 O   0  0  0  0  0  0  0  0  0  0  0  0
    3.5527    3.3077   -4.1279 C   0  0  0  0  0  0  0  0  0  0  0  0
    3.8407    4.3691   -4.0597 H   0  0  0  0  0  0  0  0  0  0  0  0
    4.5024    2.7495   -4.1526 H   0  0  0  0  0  0  0  0  0  0  0  0
    3.1208    3.1887   -5.1345 H   0  0  0  0  0  0  0  0  0  0  0  0
    1.3174    3.0407   -3.2467 N   0  0  0  0  0  0  0  0  0  0  0  0
    0.2944    2.6927   -2.2960 C   0  0  2  0  0  0  0  0  0  0  0  0
    0.2976    1.1783   -2.1349 C   0  0  0  0  0  0  0  0  0  0  0  0
    0.7500    0.4142   -2.9850 O   0  0  0  0  0  0  0  0  0  0  0  0
   -1.0710    3.1886   -2.7460 C   0  0  0  0  0  0  0  0  0  0  0  0
    1.0312    3.4224   -4.1464 H   0  0  0  0  0  0  0  0  0  0  0  0
    0.5725    3.1622   -1.3461 H   0  0  0  0  0  0  0  0  0  0  0  0
   -1.3666    2.7292   -3.6963 H   0  0  0  0  0  0  0  0  0  0  0  0
   -1.8434    2.9482   -2.0082 H   0  0  0  0  0  0  0  0  0  0  0  0
   -1.0632    4.2744   -2.8901 H   0  0  0  0  0  0  0  0  0  0  0  0
   -0.3037    0.7742   -0.9484 N   0  0  0  0  0  0  0  0  0  0  0  0
   -0.4352   -0.6095   -0.5718 C   0  0  2  0  0  0  0  0  0  0  0  0
    0.9557   -1.2277   -0.4758 C   0  0  0  0  0  0  0  0  0  0  0  0
    1.8374   -1.0270   -1.3088 O   0  0  0  0  0  0  0  0  0  0  0  0
   -1.3639   -1.3761   -1.5210 C   0  0  0  0  0  0  0  0  0  0  0  0
   -2.8355   -0.9504   -1.4364 C   0  0  0  0  0  0  0  0  0  0  0  0
   -3.7043   -1.7727   -2.3910 C   0  0  0  0  0  0  0  0  0  0  0  0
   -5.1588   -1.3312   -2.3224 C   0  0  0  0  0  0  0  0  0  0  0  0
   -5.9565   -2.1363   -3.2784 N   0  3  0  0  0  0  0  0  0  0  0  0
   -0.6336    1.4811   -0.2948 H   0  0  0  0  0  0  0  0  0  0  0  0
   -0.8744   -0.6064    0.4331 H   0  0  0  0  0  0  0  0  0  0  0  0
   -1.0129   -1.2329   -2.5512 H   0  0  0  0  0  0  0  0  0  0  0  0
   -1.2934   -2.4506   -1.3111 H   0  0  0  0  0  0  0  0  0  0  0  0
   -3.2045   -1.0799   -0.4123 H   0  0  0  0  0  0  0  0  0  0  0  0
   -2.9330    0.1129   -1.6851 H   0  0  0  0  0  0  0  0  0  0  0  0
   -3.6264   -2.8365   -2.1344 H   0  0  0  0  0  0  0  0  0  0  0  0
   -3.3301   -1.6613   -3.4163 H   0  0  0  0  0  0  0  0  0  0  0  0
   -5.5909   -1.4958   -1.3309 H   0  0  0  0  0  0  0  0  0  0  0  0
   -5.2831   -0.2828   -2.6092 H   0  0  0  0  0  0  0  0  0  0  0  0
   -6.8411   -1.6686   -3.5045 H   0  0  0  0  0  0  0  0  0  0  0  0
   -6.1783   -3.0582   -2.8864 H   0  0  0  0  0  0  0  0  0  0  0  0
   -5.4433   -2.2813   -4.1549 H   0  0  0  0  0  0  0  0  0  0  0  0
    1.1092   -2.0029    0.6646 N   0  0  0  0  0  0  0  0  0  0  0  0
    2.3480   -2.6749    0.9769 C   0  0  2  0  0  0  0  0  0  0  0  0
    2.0731   -3.6725    2.0944 C   0  0  0  0  0  0  0  0  0  0  0  0
    1.1199   -3.5718    2.8640 O   0  0  0  0  0  0  0  0  0  0  0  0
    3.4270   -1.6844    1.3859 C   0  0  0  0  0  0  0  0  0  0  0  0
    0.3237   -2.1008    1.3010 H   0  0  0  0  0  0  0  0  0  0  0  0
    2.6525   -3.2132    0.0727 H   0  0  0  0  0  0  0  0  0  0  0  0
    3.1397   -1.1355    2.2901 H   0  0  0  0  0  0  0  0  0  0  0  0
    4.3739   -2.1930    1.5949 H   0  0  0  0  0  0  0  0  0  0  0  0
    3.6024   -0.9496    0.5927 H   0  0  0  0  0  0  0  0  0  0  0  0
    3.0416   -4.6645    2.1583 N   0  0  0  0  0  0  0  0  0  0  0  0
    3.0110   -5.7218    3.1418 C   0  0  0  0  0  0  0  0  0  0  0  0
    3.7864   -4.6810    1.4678 H   0  0  0  0  0  0  0  0  0  0  0  0
    3.5995   -5.4221    4.0215 H   0  0  0  0  0  0  0  0  0  0  0  0
    1.9704   -5.9111    3.4441 H   0  0  0  0  0  0  0  0  0  0  0  0
    3.4395   -6.6377    2.7088 H   0  0  0  0  0  0  0  0  0  0  0  0
  1  3  1  0  0  0  0
  1  7  1  0  0  0  0
  1  2  2  0  0  0  0
 40 41  1  0  0  0  0
 41 49  1  0  0  0  0
 41 42  2  0  0  0  0
  8  9  1  0  0  0  0
  9 17  1  0  0  0  0
  9 10  2  0  0  0  0
 18 19  1  0  0  0  0
 19 39  1  0  0  0  0
 19 20  2  0  0  0  0
 40 43  1  0  0  0  0
  8 11  1  0  0  0  0
 49 50  1  0  0  0  0
 22 23  1  0  0  0  0
 21 22  1  0  0  0  0
 23 24  1  0  0  0  0
 18 21  1  0  0  0  0
 24 25  1  0  0  0  0
 39 40  1  0  0  0  0
  7  8  1  0  0  0  0
 17 18  1  0  0  0  0
  3  4  1  0  0  0  0
  3  5  1  0  0  0  0
  3  6  1  0  0  0  0
 43 46  1  0  0  0  0
 43 47  1  0  0  0  0
 43 48  1  0  0  0  0
 11 14  1  0  0  0  0
 11 15  1  0  0  0  0
 11 16  1  0  0  0  0
 50 52  1  0  0  0  0
 50 53  1  0  0  0  0
 50 54  1  0  0  0  0
 22 30  1  0  0  0  0
 22 31  1  0  0  0  0
 23 32  1  0  0  0  0
 23 33  1  0  0  0  0
 21 28  1  0  0  0  0
 21 29  1  0  0  0  0
 24 34  1  0  0  0  0
 24 35  1  0  0  0  0
 40 45  1  0  0  0  0
  8 13  1  0  0  0  0
 18 27  1  0  0  0  0
 49 51  1  0  0  0  0
  7 12  1  0  0  0  0
 39 44  1  0  0  0  0
 17 26  1  0  0  0  0
 25 36  1  0  0  0  0
 25 37  1  0  0  0  0
 25 38  1  0  0  0  0
M  CHG  1  25   1
M  END
$$$$

  -OEChem-05262214473D

 54 53  0     1  0  0  0  0  0999 V2000
    2.6714    2.8829   -3.0005 C   0  0  0  0  0  0  0  0  0  0  0  0
    3.1741    2.4398   -1.9745 O   0  0  0  0  0  0  0  0  0  0  0  0
    3.5527    3.3077   -4.1279 C   0  0  0  0  0  0  0  0  0  0  0  0
    3.8407    4.3691   -4.0597 H   0  0  0  0  0  0  0  0  0  0  0  0
    4.5024    2.7495   -4.1526 H   0  0  0  0  0  0  0  0  0  0  0  0
    3.1208    3.1887   -5.1345 H   0  0  0  0  0  0  0  0  0  0  0  0
    1.3174    3.0407   -3.2467 N   0  0  0  0  0  0  0  0  0  0  0  0
    0.2944    2.6927   -2.2960 C   0  0  2  0  0  0  0  0  0  0  0  0
    0.2976    1.1783   -2.1349 C   0  0  0  0  0  0  0  0  0  0  0  0
    0.7500    0.4142   -2.9850 O   0  0  0  0  0  0  0  0  0  0  0  0
   -1.0710    3.1886   -2.7460 C   0  0  0  0  0  0  0  0  0  0  0  0
    1.0312    3.4224   -4.1464 H   0  0  0  0  0  0  0  0  0  0  0  0
    0.5725    3.1622   -1.3461 H   0  0  0  0  0  0  0  0  0  0  0  0
   -1.3666    2.7292   -3.6963 H   0  0  0  0  0  0  0  0  0  0  0  0
   -1.8434    2.9482   -2.0082 H   0  0  0  0  0  0  0  0  0  0  0  0
   -1.0632    4.2744   -2.8901 H   0  0  0  0  0  0  0  0  0  0  0  0
   -0.3037    0.7742   -0.9484 N   0  0  0  0  0  0  0  0  0  0  0  0
   -0.4352   -0.6095   -0.5718 C   0  0  2  0  0  0  0  0  0  0  0  0
    0.9557   -1.2277   -0.4758 C   0  0  0  0  0  0  0  0  0  0  0  0
    1.9123   -0.8321   -1.1390 O   0  0  0  0  0  0  0  0  0  0  0  0
   -1.3639   -1.3761   -1.5210 C   0  0  0  0  0  0  0  0  0  0  0  0
   -2.8355   -0.9504   -1.4364 C   0  0  0  0  0  0  0  0  0  0  0  0
   -3.7043   -1.7727   -2.3910 C   0  0  0  0  0  0  0  0  0  0  0  0
   -5.1588   -1.3312   -2.3224 C   0  0  0  0  0  0  0  0  0  0  0  0
   -5.9565   -2.1363   -3.2784 N   0  3  0  0  0  0  0  0  0  0  0  0
   -0.6336    1.4811   -0.2948 H   0  0  0  0  0  0  0  0  0  0  0  0
   -0.8744   -0.6064    0.4331 H   0  0  0  0  0  0  0  0  0  0  0  0
   -1.0129   -1.2329   -2.5512 H   0  0  0  0  0  0  0  0  0  0  0  0
   -1.2934   -2.4506   -1.3111 H   0  0  0  0  0  0  0  0  0  0  0  0
   -3.2045   -1.0799   -0.4123 H   0  0  0  0  0  0  0  0  0  0  0  0
   -2.9330    0.1129   -1.6851 H   0  0  0  0  0  0  0  0  0  0  0  0
   -3.6264   -2.8365   -2.1344 H   0  0  0  0  0  0  0  0  0  0  0  0
   -3.3301   -1.6613   -3.4163 H   0  0  0  0  0  0  0  0  0  0  0  0
   -5.5909   -1.4958   -1.3309 H   0  0  0  0  0  0  0  0  0  0  0  0
   -5.2831   -0.2828   -2.6092 H   0  0  0  0  0  0  0  0  0  0  0  0
   -6.8411   -1.6686   -3.5045 H   0  0  0  0  0  0  0  0  0  0  0  0
   -6.1783   -3.0582   -2.8864 H   0  0  0  0  0  0  0  0  0  0  0  0
   -5.4433   -2.2813   -4.1549 H   0  0  0  0  0  0  0  0  0  0  0  0
    1.0133   -2.2504    0.4600 N   0  0  0  0  0  0  0  0  0  0  0  0
    2.2323   -2.9727    0.7361 C   0  0  2  0  0  0  0  0  0  0  0  0
    1.8727   -4.2077    1.5516 C   0  0  0  0  0  0  0  0  0  0  0  0
    0.8428   -4.2957    2.2169 O   0  0  0  0  0  0  0  0  0  0  0  0
    3.2344   -2.1033    1.4794 C   0  0  0  0  0  0  0  0  0  0  0  0
    0.1696   -2.4992    0.9678 H   0  0  0  0  0  0  0  0  0  0  0  0
    2.6437   -3.2803   -0.2315 H   0  0  0  0  0  0  0  0  0  0  0  0
    2.8398   -1.7853    2.4514 H   0  0  0  0  0  0  0  0  0  0  0  0
    4.1690   -2.6434    1.6629 H   0  0  0  0  0  0  0  0  0  0  0  0
    3.4692   -1.2008    0.9047 H   0  0  0  0  0  0  0  0  0  0  0  0
    2.8577   -5.1830    1.4836 N   0  0  0  0  0  0  0  0  0  0  0  0
    2.7566   -6.4432    2.1818 C   0  0  0  0  0  0  0  0  0  0  0  0
    3.6698   -5.0326    0.8922 H   0  0  0  0  0  0  0  0  0  0  0  0
    3.2425   -6.3583    3.1650 H   0  0  0  0  0  0  0  0  0  0  0  0
    1.6964   -6.7027    2.3181 H   0  0  0  0  0  0  0  0  0  0  0  0
    3.2537   -7.2289    1.5939 H   0  0  0  0  0  0  0  0  0  0  0  0
  1  3  1  0  0  0  0
  1  7  1  0  0  0  0
  1  2  2  0  0  0  0
 40 41  1  0  0  0  0
 41 49  1  0  0  0  0
 41 42  2  0  0  0  0
  8  9  1  0  0  0  0
  9 17  1  0  0  0  0
  9 10  2  0  0  0  0
 18 19  1  0  0  0  0
 19 39  1  0  0  0  0
 19 20  2  0  0  0  0
 40 43  1  0  0  0  0
  8 11  1  0  0  0  0
 49 50  1  0  0  0  0
 22 23  1  0  0  0  0
 21 22  1  0  0  0  0
 23 24  1  0  0  0  0
 18 21  1  0  0  0  0
 24 25  1  0  0  0  0
 39 40  1  0  0  0  0
  7  8  1  0  0  0  0
 17 18  1  0  0  0  0
  3  4  1  0  0  0  0
  3  5  1  0  0  0  0
  3  6  1  0  0  0  0
 43 46  1  0  0  0  0
 43 47  1  0  0  0  0
 43 48  1  0  0  0  0
 11 14  1  0  0  0  0
 11 15  1  0  0  0  0
 11 16  1  0  0  0  0
 50 52  1  0  0  0  0
 50 53  1  0  0  0  0
 50 54  1  0  0  0  0
 22 30  1  0  0  0  0
 22 31  1  0  0  0  0
 23 32  1  0  0  0  0
 23 33  1  0  0  0  0
 21 28  1  0  0  0  0
 21 29  1  0  0  0  0
 24 34  1  0  0  0  0
 24 35  1  0  0  0  0
 40 45  1  0  0  0  0
  8 13  1  0  0  0  0
 18 27  1  0  0  0  0
 49 51  1  0  0  0  0
  7 12  1  0  0  0  0
 39 44  1  0  0  0  0
 17 26  1  0  0  0  0
 25 36  1  0  0  0  0
 25 37  1  0  0  0  0
 25 38  1  0  0  0  0
M  CHG  1  25   1
M  END
$$$$

  -OEChem-05262214473D

 54 53  0     1  0  0  0  0  0999 V2000
    2.6714    2.8829   -3.0005 C   0  0  0  0  0  0  0  0  0  0  0  0
    3.1741    2.4398   -1.9745 O   0  0  0  0  0  0  0  0  0  0  0  0
    3.5527    3.3077   -4.1279 C   0  0  0  0  0  0  0  0  0  0  0  0
    3.8407    4.3691   -4.0597 H   0  0  0  0  0  0  0  0  0  0  0  0
    4.5024    2.7495   -4.1526 H   0  0  0  0  0  0  0  0  0  0  0  0
    3.1208    3.1887   -5.1345 H   0  0  0  0  0  0  0  0  0  0  0  0
    1.3174    3.0407   -3.2467 N   0  0  0  0  0  0  0  0  0  0  0  0
    0.2944    2.6927   -2.2960 C   0  0  2  0  0  0  0  0  0  0  0  0
    0.2976    1.1783   -2.1349 C   0  0  0  0  0  0  0  0  0  0  0  0
    0.7500    0.4142   -2.9850 O   0  0  0  0  0  0  0  0  0  0  0  0
   -1.0710    3.1886   -2.7460 C   0  0  0  0  0  0  0  0  0  0  0  0
    1.0312    3.4224   -4.1464 H   0  0  0  0  0  0  0  0  0  0  0  0
    0.5725    3.1622   -1.3461 H   0  0  0  0  0  0  0  0  0  0  0  0
   -1.3666    2.7292   -3.6963 H   0  0  0  0  0  0  0  0  0  0  0  0
   -1.8434    2.9482   -2.0082 H   0  0  0  0  0  0  0  0  0  0  0  0
   -1.0632    4.2744   -2.8901 H   0  0  0  0  0  0  0  0  0  0  0  0
   -0.3037    0.7742   -0.9484 N   0  0  0  0  0  0  0  0  0  0  0  0
   -0.4352   -0.6095   -0.5718 C   0  0  2  0  0  0  0  0  0  0  0  0
    0.9557   -1.2277   -0.4758 C   0  0  0  0  0  0  0  0  0  0  0  0
    1.9637   -0.6827   -0.9213 O   0  0  0  0  0  0  0  0  0  0  0  0
   -1.3639   -1.3761   -1.5210 C   0  0  0  0  0  0  0  0  0  0  0  0
   -2.8355   -0.9504   -1.4364 C   0  0  0  0  0  0  0  0  0  0  0  0
   -3.7043   -1.7727   -2.3910 C   0  0  0  0  0  0  0  0  0  0  0  0
   -5.1588   -1.3312   -2.3224 C   0  0  0  0  0  0  0  0  0  0  0  0
   -5.9565   -2.1363   -3.2784 N   0  3  0  0  0  0  0  0  0  0  0  0
   -0.6336    1.4811   -0.2948 H   0  0  0  0  0  0  0  0  0  0  0  0
   -0.8744   -0.6064    0.4331 H   0  0  0  0  0  0  0  0  0  0  0  0
   -1.0129   -1.2329   -2.5512 H   0  0  0  0  0  0  0  0  0  0  0  0
   -1.2934   -2.4506   -1.3111 H   0  0  0  0  0  0  0  0  0  0  0  0
   -3.2045   -1.0799   -0.4123 H   0  0  0  0  0  0  0  0  0  0  0  0
   -2.9330    0.1129   -1.6851 H   0  0  0  0  0  0  0  0  0  0  0  0
   -3.6264   -2.8365   -2.1344 H   0  0  0  0  0  0  0  0  0  0  0  0
   -3.3301   -1.6613   -3.4163 H   0  0  0  0  0  0  0  0  0  0  0  0
   -5.5909   -1.4958   -1.3309 H   0  0  0  0  0  0  0  0  0  0  0  0
   -5.2831   -0.2828   -2.6092 H   0  0  0  0  0  0  0  0  0  0  0  0
   -6.8411   -1.6686   -3.5045 H   0  0  0  0  0  0  0  0  0  0  0  0
   -6.1783   -3.0582   -2.8864 H   0  0  0  0  0  0  0  0  0  0  0  0
   -5.4433   -2.2813   -4.1549 H   0  0  0  0  0  0  0  0  0  0  0  0
    0.9462   -2.4428    0.1939 N   0  0  0  0  0  0  0  0  0  0  0  0
    2.1506   -3.2054    0.4210 C   0  0  2  0  0  0  0  0  0  0  0  0
    1.7448   -4.5997    0.8800 C   0  0  0  0  0  0  0  0  0  0  0  0
    0.6549   -4.8467    1.3920 O   0  0  0  0  0  0  0  0  0  0  0  0
    3.0453   -2.5331    1.4507 C   0  0  0  0  0  0  0  0  0  0  0  0
    0.0623   -2.8079    0.5358 H   0  0  0  0  0  0  0  0  0  0  0  0
    2.6681   -3.2735   -0.5421 H   0  0  0  0  0  0  0  0  0  0  0  0
    2.5437   -2.4559    2.4223 H   0  0  0  0  0  0  0  0  0  0  0  0
    3.9713   -3.0979    1.6008 H   0  0  0  0  0  0  0  0  0  0  0  0
    3.3118   -1.5194    1.1328 H   0  0  0  0  0  0  0  0  0  0  0  0
    2.7594   -5.5275    0.6902 N   0  0  0  0  0  0  0  0  0  0  0  0
    2.6233   -6.9177    1.0576 C   0  0  0  0  0  0  0  0  0  0  0  0
    3.6233   -5.2383    0.2411 H   0  0  0  0  0  0  0  0  0  0  0  0
    3.0028   -7.0663    2.0793 H   0  0  0  0  0  0  0  0  0  0  0  0
    1.5626   -7.2060    1.0149 H   0  0  0  0  0  0  0  0  0  0  0  0
    3.2008   -7.5399    0.3580 H   0  0  0  0  0  0  0  0  0  0  0  0
  1  3  1  0  0  0  0
  1  7  1  0  0  0  0
  1  2  2  0  0  0  0
 40 41  1  0  0  0  0
 41 49  1  0  0  0  0
 41 42  2  0  0  0  0
  8  9  1  0  0  0  0
  9 17  1  0  0  0  0
  9 10  2  0  0  0  0
 18 19  1  0  0  0  0
 19 39  1  0  0  0  0
 19 20  2  0  0  0  0
 40 43  1  0  0  0  0
  8 11  1  0  0  0  0
 49 50  1  0  0  0  0
 22 23  1  0  0  0  0
 21 22  1  0  0  0  0
 23 24  1  0  0  0  0
 18 21  1  0  0  0  0
 24 25  1  0  0  0  0
 39 40  1  0  0  0  0
  7  8  1  0  0  0  0
 17 18  1  0  0  0  0
  3  4  1  0  0  0  0
  3  5  1  0  0  0  0
  3  6  1  0  0  0  0
 43 46  1  0  0  0  0
 43 47  1  0  0  0  0
 43 48  1  0  0  0  0
 11 14  1  0  0  0  0
 11 15  1  0  0  0  0
 11 16  1  0  0  0  0
 50 52  1  0  0  0  0
 50 53  1  0  0  0  0
 50 54  1  0  0  0  0
 22 30  1  0  0  0  0
 22 31  1  0  0  0  0
 23 32  1  0  0  0  0
 23 33  1  0  0  0  0
 21 28  1  0  0  0  0
 21 29  1  0  0  0  0
 24 34  1  0  0  0  0
 24 35  1  0  0  0  0
 40 45  1  0  0  0  0
  8 13  1  0  0  0  0
 18 27  1  0  0  0  0
 49 51  1  0  0  0  0
  7 12  1  0  0  0  0
 39 44  1  0  0  0  0
 17 26  1  0  0  0  0
 25 36  1  0  0  0  0
 25 37  1  0  0  0  0
 25 38  1  0  0  0  0
M  CHG  1  25   1
M  END
$$$$

  -OEChem-05262214473D

 54 53  0     1  0  0  0  0  0999 V2000
    2.6714    2.8829   -3.0005 C   0  0  0  0  0  0  0  0  0  0  0  0
    3.1741    2.4398   -1.9745 O   0  0  0  0  0  0  0  0  0  0  0  0
    3.5527    3.3077   -4.1279 C   0  0  0  0  0  0  0  0  0  0  0  0
    3.8407    4.3691   -4.0597 H   0  0  0  0  0  0  0  0  0  0  0  0
    4.5024    2.7495   -4.1526 H   0  0  0  0  0  0  0  0  0  0  0  0
    3.1208    3.1887   -5.1345 H   0  0  0  0  0  0  0  0  0  0  0  0
    1.3174    3.0407   -3.2467 N   0  0  0  0  0  0  0  0  0  0  0  0
    0.2944    2.6927   -2.2960 C   0  0  2  0  0  0  0  0  0  0  0  0
    0.2976    1.1783   -2.1349 C   0  0  0  0  0  0  0  0  0  0  0  0
    0.7500    0.4142   -2.9850 O   0  0  0  0  0  0  0  0  0  0  0  0
   -1.0710    3.1886   -2.7460 C   0  0  0  0  0  0  0  0  0  0  0  0
    1.0312    3.4224   -4.1464 H   0  0  0  0  0  0  0  0  0  0  0  0
    0.5725    3.1622   -1.3461 H   0  0  0  0  0  0  0  0  0  0  0  0
   -1.3666    2.7292   -3.6963 H   0  0  0  0  0  0  0  0  0  0  0  0
   -1.8434    2.9482   -2.0082 H   0  0  0  0  0  0  0  0  0  0  0  0
   -1.0632    4.2744   -2.8901 H   0  0  0  0  0  0  0  0  0  0  0  0
   -0.3037    0.7742   -0.9484 N   0  0  0  0  0  0  0  0  0  0  0  0
   -0.4352   -0.6095   -0.5718 C   0  0  2  0  0  0  0  0  0  0  0  0
    0.9247   -1.1264   -0.1142 C   0  0  0  0  0  0  0  0  0  0  0  0
    1.9294   -0.4193   -0.0671 O   0  0  0  0  0  0  0  0  0  0  0  0
   -1.0461   -1.4541   -1.6963 C   0  0  0  0  0  0  0  0  0  0  0  0
   -2.5166   -1.1321   -1.9930 C   0  0  0  0  0  0  0  0  0  0  0  0
   -3.0647   -2.0281   -3.1061 C   0  0  0  0  0  0  0  0  0  0  0  0
   -4.5157   -1.6895   -3.4145 C   0  0  0  0  0  0  0  0  0  0  0  0
   -4.9959   -2.5633   -4.5119 N   0  3  0  0  0  0  0  0  0  0  0  0
   -0.6336    1.4811   -0.2948 H   0  0  0  0  0  0  0  0  0  0  0  0
   -1.1105   -0.6223    0.2922 H   0  0  0  0  0  0  0  0  0  0  0  0
   -0.4592   -1.3020   -2.6114 H   0  0  0  0  0  0  0  0  0  0  0  0
   -0.9609   -2.5176   -1.4411 H   0  0  0  0  0  0  0  0  0  0  0  0
   -3.1203   -1.2720   -1.0887 H   0  0  0  0  0  0  0  0  0  0  0  0
   -2.6176   -0.0823   -2.2922 H   0  0  0  0  0  0  0  0  0  0  0  0
   -2.9846   -3.0798   -2.8040 H   0  0  0  0  0  0  0  0  0  0  0  0
   -2.4546   -1.9061   -4.0097 H   0  0  0  0  0  0  0  0  0  0  0  0
   -5.1700   -1.8693   -2.5563 H   0  0  0  0  0  0  0  0  0  0  0  0
   -4.6321   -0.6569   -3.7568 H   0  0  0  0  0  0  0  0  0  0  0  0
   -5.8245   -2.1628   -4.9652 H   0  0  0  0  0  0  0  0  0  0  0  0
   -5.2484   -3.4925   -4.1577 H   0  0  0  0  0  0  0  0  0  0  0  0
   -4.2719   -2.6848   -5.2287 H   0  0  0  0  0  0  0  0  0  0  0  0
    0.8797   -2.4597    0.2670 N   0  0  0  0  0  0  0  0  0  0  0  0
    2.0444   -3.1608    0.7524 C   0  0  2  0  0  0  0  0  0  0  0  0
    1.7246   -4.6497    0.7677 C   0  0  0  0  0  0  0  0  0  0  0  0
    0.5772   -5.0890    0.8094 O   0  0  0  0  0  0  0  0  0  0  0  0
    2.4445   -2.6765    2.1374 C   0  0  0  0  0  0  0  0  0  0  0  0
   -0.0024   -2.9591    0.2024 H   0  0  0  0  0  0  0  0  0  0  0  0
    2.8510   -2.9672    0.0369 H   0  0  0  0  0  0  0  0  0  0  0  0
    1.6486   -2.8620    2.8679 H   0  0  0  0  0  0  0  0  0  0  0  0
    3.3448   -3.1890    2.4921 H   0  0  0  0  0  0  0  0  0  0  0  0
    2.6453   -1.5997    2.1308 H   0  0  0  0  0  0  0  0  0  0  0  0
    2.8723   -5.4300    0.7729 N   0  0  0  0  0  0  0  0  0  0  0  0
    2.8335   -6.8735    0.7992 C   0  0  0  0  0  0  0  0  0  0  0  0
    3.7819   -4.9812    0.7177 H   0  0  0  0  0  0  0  0  0  0  0  0
    2.8778   -7.2231    1.8413 H   0  0  0  0  0  0  0  0  0  0  0  0
    1.9000   -7.2237    0.3345 H   0  0  0  0  0  0  0  0  0  0  0  0
    3.6932   -7.2735    0.2416 H   0  0  0  0  0  0  0  0  0  0  0  0
  1  3  1  0  0  0  0
  1  7  1  0  0  0  0
  1  2  2  0  0  0  0
 40 41  1  0  0  0  0
 41 49  1  0  0  0  0
 41 42  2  0  0  0  0
  8  9  1  0  0  0  0
  9 17  1  0  0  0  0
  9 10  2  0  0  0  0
 18 19  1  0  0  0  0
 19 39  1  0  0  0  0
 19 20  2  0  0  0  0
 40 43  1  0  0  0  0
  8 11  1  0  0  0  0
 49 50  1  0  0  0  0
 22 23  1  0  0  0  0
 21 22  1  0  0  0  0
 23 24  1  0  0  0  0
 18 21  1  0  0  0  0
 24 25  1  0  0  0  0
 39 40  1  0  0  0  0
  7  8  1  0  0  0  0
 17 18  1  0  0  0  0
  3  4  1  0  0  0  0
  3  5  1  0  0  0  0
  3  6  1  0  0  0  0
 43 46  1  0  0  0  0
 43 47  1  0  0  0  0
 43 48  1  0  0  0  0
 11 14  1  0  0  0  0
 11 15  1  0  0  0  0
 11 16  1  0  0  0  0
 50 52  1  0  0  0  0
 50 53  1  0  0  0  0
 50 54  1  0  0  0  0
 22 30  1  0  0  0  0
 22 31  1  0  0  0  0
 23 32  1  0  0  0  0
 23 33  1  0  0  0  0
 21 28  1  0  0  0  0
 21 29  1  0  0  0  0
 24 34  1  0  0  0  0
 24 35  1  0  0  0  0
 40 45  1  0  0  0  0
  8 13  1  0  0  0  0
 18 27  1  0  0  0  0
 49 51  1  0  0  0  0
  7 12  1  0  0  0  0
 39 44  1  0  0  0  0
 17 26  1  0  0  0  0
 25 36  1  0  0  0  0
 25 37  1  0  0  0  0
 25 38  1  0  0  0  0
M  CHG  1  25   1
M  END
$$$$

  -OEChem-05262214473D

 54 53  0     1  0  0  0  0  0999 V2000
    2.6714    2.8829   -3.0005 C   0  0  0  0  0  0  0  0  0  0  0  0
    3.1741    2.4398   -1.9745 O   0  0  0  0  0  0  0  0  0  0  0  0
    3.5527    3.3077   -4.1279 C   0  0  0  0  0  0  0  0  0  0  0  0
    3.8407    4.3691   -4.0597 H   0  0  0  0  0  0  0  0  0  0  0  0
    4.5024    2.7495   -4.1526 H   0  0  0  0  0  0  0  0  0  0  0  0
    3.1208    3.1887   -5.1345 H   0  0  0  0  0  0  0  0  0  0  0  0
    1.3174    3.0407   -3.2467 N   0  0  0  0  0  0  0  0  0  0  0  0
    0.2944    2.6927   -2.2960 C   0  0  2  0  0  0  0  0  0  0  0  0
    0.2976    1.1783   -2.1349 C   0  0  0  0  0  0  0  0  0  0  0  0
    0.7500    0.4142   -2.9850 O   0  0  0  0  0  0  0  0  0  0  0  0
   -1.0710    3.1886   -2.7460 C   0  0  0  0  0  0  0  0  0  0  0  0
    1.0312    3.4224   -4.1464 H   0  0  0  0  0  0  0  0  0  0  0  0
    0.5725    3.1622   -1.3461 H   0  0  0  0  0  0  0  0  0  0  0  0
   -1.3666    2.7292   -3.6963 H   0  0  0  0  0  0  0  0  0  0  0  0
   -1.8434    2.9482   -2.0082 H   0  0  0  0  0  0  0  0  0  0  0  0
   -1.0632    4.2744   -2.8901 H   0  0  0  0  0  0  0  0  0  0  0  0
   -0.3037    0.7742   -0.9484 N   0  0  0  0  0  0  0  0  0  0  0  0
   -0.4352   -0.6095   -0.5718 C   0  0  2  0  0  0  0  0  0  0  0  0
    0.9247   -1.1264   -0.1142 C   0  0  0  0  0  0  0  0  0  0  0  0
    1.8564   -0.3839    0.1895 O   0  0  0  0  0  0  0  0  0  0  0  0
   -1.0461   -1.4541   -1.6963 C   0  0  0  0  0  0  0  0  0  0  0  0
   -2.5166   -1.1321   -1.9930 C   0  0  0  0  0  0  0  0  0  0  0  0
   -3.0647   -2.0281   -3.1061 C   0  0  0  0  0  0  0  0  0  0  0  0
   -4.5157   -1.6895   -3.4145 C   0  0  0  0  0  0  0  0  0  0  0  0
   -4.9959   -2.5633   -4.5119 N   0  3  0  0  0  0  0  0  0  0  0  0
   -0.6336    1.4811   -0.2948 H   0  0  0  0  0  0  0  0  0  0  0  0
   -1.1105   -0.6223    0.2922 H   0  0  0  0  0  0  0  0  0  0  0  0
   -0.4592   -1.3020   -2.6114 H   0  0  0  0  0  0  0  0  0  0  0  0
   -0.9609   -2.5176   -1.4411 H   0  0  0  0  0  0  0  0  0  0  0  0
   -3.1203   -1.2720   -1.0887 H   0  0  0  0  0  0  0  0  0  0  0  0
   -2.6176   -0.0823   -2.2922 H   0  0  0  0  0  0  0  0  0  0  0  0
   -2.9846   -3.0798   -2.8040 H   0  0  0  0  0  0  0  0  0  0  0  0
   -2.4546   -1.9061   -4.0097 H   0  0  0  0  0  0  0  0  0  0  0  0
   -5.1700   -1.8693   -2.5563 H   0  0  0  0  0  0  0  0  0  0  0  0
   -4.6321   -0.6569   -3.7568 H   0  0  0  0  0  0  0  0  0  0  0  0
   -5.8245   -2.1628   -4.9652 H   0  0  0  0  0  0  0  0  0  0  0  0
   -5.2484   -3.4925   -4.1577 H   0  0  0  0  0  0  0  0  0  0  0  0
   -4.2719   -2.6848   -5.2287 H   0  0  0  0  0  0  0  0  0  0  0  0
    0.9673   -2.5118   -0.0522 N   0  0  0  0  0  0  0  0  0  0  0  0
    2.1474   -3.2270    0.3715 C   0  0  2  0  0  0  0  0  0  0  0  0
    1.9596   -4.6961    0.0169 C   0  0  0  0  0  0  0  0  0  0  0  0
    0.8556   -5.2092   -0.1536 O   0  0  0  0  0  0  0  0  0  0  0  0
    2.3933   -3.0548    1.8623 C   0  0  0  0  0  0  0  0  0  0  0  0
    0.1404   -3.0404   -0.3138 H   0  0  0  0  0  0  0  0  0  0  0  0
    2.9876   -2.8173   -0.1997 H   0  0  0  0  0  0  0  0  0  0  0  0
    1.5619   -3.4594    2.4510 H   0  0  0  0  0  0  0  0  0  0  0  0
    3.3045   -3.5743    2.1768 H   0  0  0  0  0  0  0  0  0  0  0  0
    2.4985   -1.9954    2.1202 H   0  0  0  0  0  0  0  0  0  0  0  0
    3.1675   -5.3768   -0.0444 N   0  0  0  0  0  0  0  0  0  0  0  0
    3.2540   -6.7856   -0.3507 C   0  0  0  0  0  0  0  0  0  0  0  0
    4.0356   -4.8673    0.0923 H   0  0  0  0  0  0  0  0  0  0  0  0
    3.2468   -7.3657    0.5839 H   0  0  0  0  0  0  0  0  0  0  0  0
    2.3943   -7.0792   -0.9710 H   0  0  0  0  0  0  0  0  0  0  0  0
    4.1867   -6.9850   -0.8987 H   0  0  0  0  0  0  0  0  0  0  0  0
  1  3  1  0  0  0  0
  1  7  1  0  0  0  0
  1  2  2  0  0  0  0
 40 41  1  0  0  0  0
 41 49  1  0  0  0  0
 41 42  2  0  0  0  0
  8  9  1  0  0  0  0
  9 17  1  0  0  0  0
  9 10  2  0  0  0  0
 18 19  1  0  0  0  0
 19 39  1  0  0  0  0
 19 20  2  0  0  0  0
 40 43  1  0  0  0  0
  8 11  1  0  0  0  0
 49 50  1  0  0  0  0
 22 23  1  0  0  0  0
 21 22  1  0  0  0  0
 23 24  1  0  0  0  0
 18 21  1  0  0  0  0
 24 25  1  0  0  0  0
 39 40  1  0  0  0  0
  7  8  1  0  0  0  0
 17 18  1  0  0  0  0
  3  4  1  0  0  0  0
  3  5  1  0  0  0  0
  3  6  1  0  0  0  0
 43 46  1  0  0  0  0
 43 47  1  0  0  0  0
 43 48  1  0  0  0  0
 11 14  1  0  0  0  0
 11 15  1  0  0  0  0
 11 16  1  0  0  0  0
 50 52  1  0  0  0  0
 50 53  1  0  0  0  0
 50 54  1  0  0  0  0
 22 30  1  0  0  0  0
 22 31  1  0  0  0  0
 23 32  1  0  0  0  0
 23 33  1  0  0  0  0
 21 28  1  0  0  0  0
 21 29  1  0  0  0  0
 24 34  1  0  0  0  0
 24 35  1  0  0  0  0
 40 45  1  0  0  0  0
  8 13  1  0  0  0  0
 18 27  1  0  0  0  0
 49 51  1  0  0  0  0
  7 12  1  0  0  0  0
 39 44  1  0  0  0  0
 17 26  1  0  0  0  0
 25 36  1  0  0  0  0
 25 37  1  0  0  0  0
 25 38  1  0  0  0  0
M  CHG  1  25   1
M  END
$$$$

  -OEChem-05262214473D

 54 53  0     1  0  0  0  0  0999 V2000
    2.6714    2.8829   -3.0005 C   0  0  0  0  0  0  0  0  0  0  0  0
    3.1741    2.4398   -1.9745 O   0  0  0  0  0  0  0  0  0  0  0  0
    3.5527    3.3077   -4.1279 C   0  0  0  0  0  0  0  0  0  0  0  0
    3.8407    4.3691   -4.0597 H   0  0  0  0  0  0  0  0  0  0  0  0
    4.5024    2.7495   -4.1526 H   0  0  0  0  0  0  0  0  0  0  0  0
    3.1208    3.1887   -5.1345 H   0  0  0  0  0  0  0  0  0  0  0  0
    1.3174    3.0407   -3.2467 N   0  0  0  0  0  0  0  0  0  0  0  0
    0.2944    2.6927   -2.2960 C   0  0  2  0  0  0  0  0  0  0  0  0
    0.2976    1.1783   -2.1349 C   0  0  0  0  0  0  0  0  0  0  0  0
    0.7500    0.4142   -2.9850 O   0  0  0  0  0  0  0  0  0  0  0  0
   -1.0710    3.1886   -2.7460 C   0  0  0  0  0  0  0  0  0  0  0  0
    1.0312    3.4224   -4.1464 H   0  0  0  0  0  0  0  0  0  0  0  0
    0.5725    3.1622   -1.3461 H   0  0  0  0  0  0  0  0  0  0  0  0
   -1.3666    2.7292   -3.6963 H   0  0  0  0  0  0  0  0  0  0  0  0
   -1.8434    2.9482   -2.0082 H   0  0  0  0  0  0  0  0  0  0  0  0
   -1.0632    4.2744   -2.8901 H   0  0  0  0  0  0  0  0  0  0  0  0
   -0.3037    0.7742   -0.9484 N   0  0  0  0  0  0  0  0  0  0  0  0
   -0.4352   -0.6095   -0.5718 C   0  0  2  0  0  0  0  0  0  0  0  0
    0.9247   -1.1264   -0.1142 C   0  0  0  0  0  0  0  0  0  0  0  0
    1.7608   -0.4147    0.4390 O   0  0  0  0  0  0  0  0  0  0  0  0
   -1.0461   -1.4541   -1.6963 C   0  0  0  0  0  0  0  0  0  0  0  0
   -2.5166   -1.1321   -1.9930 C   0  0  0  0  0  0  0  0  0  0  0  0
   -3.0647   -2.0281   -3.1061 C   0  0  0  0  0  0  0  0  0  0  0  0
   -4.5157   -1.6895   -3.4145 C   0  0  0  0  0  0  0  0  0  0  0  0
   -4.9959   -2.5633   -4.5119 N   0  3  0  0  0  0  0  0  0  0  0  0
   -0.6336    1.4811   -0.2948 H   0  0  0  0  0  0  0  0  0  0  0  0
   -1.1105   -0.6223    0.2922 H   0  0  0  0  0  0  0  0  0  0  0  0
   -0.4592   -1.3020   -2.6114 H   0  0  0  0  0  0  0  0  0  0  0  0
   -0.9609   -2.5176   -1.4411 H   0  0  0  0  0  0  0  0  0  0  0  0
   -3.1203   -1.2720   -1.0887 H   0  0  0  0  0  0  0  0  0  0  0  0
   -2.6176   -0.0823   -2.2922 H   0  0  0  0  0  0  0  0  0  0  0  0
   -2.9846   -3.0798   -2.8040 H   0  0  0  0  0  0  0  0  0  0  0  0
   -2.4546   -1.9061   -4.0097 H   0  0  0  0  0  0  0  0  0  0  0  0
   -5.1700   -1.8693   -2.5563 H   0  0  0  0  0  0  0  0  0  0  0  0
   -4.6321   -0.6569   -3.7568 H   0  0  0  0  0  0  0  0  0  0  0  0
   -5.8245   -2.1628   -4.9652 H   0  0  0  0  0  0  0  0  0  0  0  0
   -5.2484   -3.4925   -4.1577 H   0  0  0  0  0  0  0  0  0  0  0  0
   -4.2719   -2.6848   -5.2287 H   0  0  0  0  0  0  0  0  0  0  0  0
    1.0840   -2.4816   -0.3650 N   0  0  0  0  0  0  0  0  0  0  0  0
    2.2855   -3.1950   -0.0027 C   0  0  2  0  0  0  0  0  0  0  0  0
    2.2561   -4.5495   -0.6984 C   0  0  0  0  0  0  0  0  0  0  0  0
    1.2184   -5.0815   -1.0872 O   0  0  0  0  0  0  0  0  0  0  0  0
    2.3973   -3.3607    1.5049 C   0  0  0  0  0  0  0  0  0  0  0  0
    0.3300   -2.9888   -0.8187 H   0  0  0  0  0  0  0  0  0  0  0  0
    3.1287   -2.6073   -0.3817 H   0  0  0  0  0  0  0  0  0  0  0  0
    1.5610   -3.9470    1.9028 H   0  0  0  0  0  0  0  0  0  0  0  0
    3.3231   -3.8768    1.7797 H   0  0  0  0  0  0  0  0  0  0  0  0
    2.3883   -2.3866    2.0058 H   0  0  0  0  0  0  0  0  0  0  0  0
    3.5203   -5.1138   -0.7955 N   0  0  0  0  0  0  0  0  0  0  0  0
    3.7541   -6.4025   -1.4042 C   0  0  0  0  0  0  0  0  0  0  0  0
    4.3267   -4.5933   -0.4632 H   0  0  0  0  0  0  0  0  0  0  0  0
    3.7245   -7.1846   -0.6312 H   0  0  0  0  0  0  0  0  0  0  0  0
    2.9750   -6.5999   -2.1553 H   0  0  0  0  0  0  0  0  0  0  0  0
    4.7409   -6.4047   -1.8903 H   0  0  0  0  0  0  0  0  0  0  0  0
  1  3  1  0  0  0  0
  1  7  1  0  0  0  0
  1  2  2  0  0  0  0
 40 41  1  0  0  0  0
 41 49  1  0  0  0  0
 41 42  2  0  0  0  0
  8  9  1  0  0  0  0
  9 17  1  0  0  0  0
  9 10  2  0  0  0  0
 18 19  1  0  0  0  0
 19 39  1  0  0  0  0
 19 20  2  0  0  0  0
 40 43  1  0  0  0  0
  8 11  1  0  0  0  0
 49 50  1  0  0  0  0
 22 23  1  0  0  0  0
 21 22  1  0  0  0  0
 23 24  1  0  0  0  0
 18 21  1  0  0  0  0
 24 25  1  0  0  0  0
 39 40  1  0  0  0  0
  7  8  1  0  0  0  0
 17 18  1  0  0  0  0
  3  4  1  0  0  0  0
  3  5  1  0  0  0  0
  3  6  1  0  0  0  0
 43 46  1  0  0  0  0
 43 47  1  0  0  0  0
 43 48  1  0  0  0  0
 11 14  1  0  0  0  0
 11 15  1  0  0  0  0
 11 16  1  0  0  0  0
 50 52  1  0  0  0  0
 50 53  1  0  0  0  0
 50 54  1  0  0  0  0
 22 30  1  0  0  0  0
 22 31  1  0  0  0  0
 23 32  1  0  0  0  0
 23 33  1  0  0  0  0
 21 28  1  0  0  0  0
 21 29  1  0  0  0  0
 24 34  1  0  0  0  0
 24 35  1  0  0  0  0
 40 45  1  0  0  0  0
  8 13  1  0  0  0  0
 18 27  1  0  0  0  0
 49 51  1  0  0  0  0
  7 12  1  0  0  0  0
 39 44  1  0  0  0  0
 17 26  1  0  0  0  0
 25 36  1  0  0  0  0
 25 37  1  0  0  0  0
 25 38  1  0  0  0  0
M  CHG  1  25   1
M  END
$$$$

  -OEChem-05262214473D

 54 53  0     1  0  0  0  0  0999 V2000
    2.6714    2.8829   -3.0005 C   0  0  0  0  0  0  0  0  0  0  0  0
    3.1741    2.4398   -1.9745 O   0  0  0  0  0  0  0  0  0  0  0  0
    3.5527    3.3077   -4.1279 C   0  0  0  0  0  0  0  0  0  0  0  0
    3.8407    4.3691   -4.0597 H   0  0  0  0  0  0  0  0  0  0  0  0
    4.5024    2.7495   -4.1526 H   0  0  0  0  0  0  0  0  0  0  0  0
    3.1208    3.1887   -5.1345 H   0  0  0  0  0  0  0  0  0  0  0  0
    1.3174    3.0407   -3.2467 N   0  0  0  0  0  0  0  0  0  0  0  0
    0.2944    2.6927   -2.2960 C   0  0  2  0  0  0  0  0  0  0  0  0
    0.2976    1.1783   -2.1349 C   0  0  0  0  0  0  0  0  0  0  0  0
    0.7500    0.4142   -2.9850 O   0  0  0  0  0  0  0  0  0  0  0  0
   -1.0710    3.1886   -2.7460 C   0  0  0  0  0  0  0  0  0  0  0  0
    1.0312    3.4224   -4.1464 H   0  0  0  0  0  0  0  0  0  0  0  0
    0.5725    3.1622   -1.3461 H   0  0  0  0  0  0  0  0  0  0  0  0
   -1.3666    2.7292   -3.6963 H   0  0  0  0  0  0  0  0  0  0  0  0
   -1.8434    2.9482   -2.0082 H   0  0  0  0  0  0  0  0  0  0  0  0
   -1.0632    4.2744   -2.8901 H   0  0  0  0  0  0  0  0  0  0  0  0
   -0.3037    0.7742   -0.9484 N   0  0  0  0  0  0  0  0  0  0  0  0
   -0.4352   -0.6095   -0.5718 C   0  0  2  0  0  0  0  0  0  0  0  0
    0.9247   -1.1264   -0.1142 C   0  0  0  0  0  0  0  0  0  0  0  0
    1.6488   -0.5094    0.6646 O   0  0  0  0  0  0  0  0  0  0  0  0
   -1.0461   -1.4541   -1.6963 C   0  0  0  0  0  0  0  0  0  0  0  0
   -2.5166   -1.1321   -1.9930 C   0  0  0  0  0  0  0  0  0  0  0  0
   -3.0647   -2.0281   -3.1061 C   0  0  0  0  0  0  0  0  0  0  0  0
   -4.5157   -1.6895   -3.4145 C   0  0  0  0  0  0  0  0  0  0  0  0
   -4.9959   -2.5633   -4.5119 N   0  3  0  0  0  0  0  0  0  0  0  0
   -0.6336    1.4811   -0.2948 H   0  0  0  0  0  0  0  0  0  0  0  0
   -1.1105   -0.6223    0.2922 H   0  0  0  0  0  0  0  0  0  0  0  0
   -0.4592   -1.3020   -2.6114 H   0  0  0  0  0  0  0  0  0  0  0  0
   -0.9609   -2.5176   -1.4411 H   0  0  0  0  0  0  0  0  0  0  0  0
   -3.1203   -1.2720   -1.0887 H   0  0  0  0  0  0  0  0  0  0  0  0
   -2.6176   -0.0823   -2.2922 H   0  0  0  0  0  0  0  0  0  0  0  0
   -2.9846   -3.0798   -2.8040 H   0  0  0  0  0  0  0  0  0  0  0  0
   -2.4546   -1.9061   -4.0097 H   0  0  0  0  0  0  0  0  0  0  0  0
   -5.1700   -1.8693   -2.5563 H   0  0  0  0  0  0  0  0  0  0  0  0
   -4.6321   -0.6569   -3.7568 H   0  0  0  0  0  0  0  0  0  0  0  0
   -5.8245   -2.1628   -4.9652 H   0  0  0  0  0  0  0  0  0  0  0  0
   -5.2484   -3.4925   -4.1577 H   0  0  0  0  0  0  0  0  0  0  0  0
   -4.2719   -2.6848   -5.2287 H   0  0  0  0  0  0  0  0  0  0  0  0
    1.2218   -2.3713   -0.6498 N   0  0  0  0  0  0  0  0  0  0  0  0
    2.4492   -3.0671   -0.3446 C   0  0  2  0  0  0  0  0  0  0  0  0
    2.5938   -4.2197   -1.3295 C   0  0  0  0  0  0  0  0  0  0  0  0
    1.6407   -4.7145   -1.9277 O   0  0  0  0  0  0  0  0  0  0  0  0
    2.4563   -3.5733    1.0894 C   0  0  0  0  0  0  0  0  0  0  0  0
    0.5533   -2.8076   -1.2778 H   0  0  0  0  0  0  0  0  0  0  0  0
    3.2646   -2.3515   -0.4966 H   0  0  0  0  0  0  0  0  0  0  0  0
    1.6462   -4.2915    1.2607 H   0  0  0  0  0  0  0  0  0  0  0  0
    3.3994   -4.0759    1.3280 H   0  0  0  0  0  0  0  0  0  0  0  0
    2.3223   -2.7466    1.7953 H   0  0  0  0  0  0  0  0  0  0  0  0
    3.9065   -4.6591   -1.4295 N   0  0  0  0  0  0  0  0  0  0  0  0
    4.2999   -5.7506   -2.2896 C   0  0  0  0  0  0  0  0  0  0  0  0
    4.6354   -4.1778   -0.9111 H   0  0  0  0  0  0  0  0  0  0  0  0
    4.2785   -6.6921   -1.7212 H   0  0  0  0  0  0  0  0  0  0  0  0
    3.6026   -5.8186   -3.1377 H   0  0  0  0  0  0  0  0  0  0  0  0
    5.3182   -5.5724   -2.6655 H   0  0  0  0  0  0  0  0  0  0  0  0
  1  3  1  0  0  0  0
  1  7  1  0  0  0  0
  1  2  2  0  0  0  0
 40 41  1  0  0  0  0
 41 49  1  0  0  0  0
 41 42  2  0  0  0  0
  8  9  1  0  0  0  0
  9 17  1  0  0  0  0
  9 10  2  0  0  0  0
 18 19  1  0  0  0  0
 19 39  1  0  0  0  0
 19 20  2  0  0  0  0
 40 43  1  0  0  0  0
  8 11  1  0  0  0  0
 49 50  1  0  0  0  0
 22 23  1  0  0  0  0
 21 22  1  0  0  0  0
 23 24  1  0  0  0  0
 18 21  1  0  0  0  0
 24 25  1  0  0  0  0
 39 40  1  0  0  0  0
  7  8  1  0  0  0  0
 17 18  1  0  0  0  0
  3  4  1  0  0  0  0
  3  5  1  0  0  0  0
  3  6  1  0  0  0  0
 43 46  1  0  0  0  0
 43 47  1  0  0  0  0
 43 48  1  0  0  0  0
 11 14  1  0  0  0  0
 11 15  1  0  0  0  0
 11 16  1  0  0  0  0
 50 52  1  0  0  0  0
 50 53  1  0  0  0  0
 50 54  1  0  0  0  0
 22 30  1  0  0  0  0
 22 31  1  0  0  0  0
 23 32  1  0  0  0  0
 23 33  1  0  0  0  0
 21 28  1  0  0  0  0
 21 29  1  0  0  0  0
 24 34  1  0  0  0  0
 24 35  1  0  0  0  0
 40 45  1  0  0  0  0
  8 13  1  0  0  0  0
 18 27  1  0  0  0  0
 49 51  1  0  0  0  0
  7 12  1  0  0  0  0
 39 44  1  0  0  0  0
 17 26  1  0  0  0  0
 25 36  1  0  0  0  0
 25 37  1  0  0  0  0
 25 38  1  0  0  0  0
M  CHG  1  25   1
M  END
$$$$

  -OEChem-05262214473D

 54 53  0     1  0  0  0  0  0999 V2000
    2.6714    2.8829   -3.0005 C   0  0  0  0  0  0  0  0  0  0  0  0
    3.1741    2.4398   -1.9745 O   0  0  0  0  0  0  0  0  0  0  0  0
    3.5527    3.3077   -4.1279 C   0  0  0  0  0  0  0  0  0  0  0  0
    3.8407    4.3691   -4.0597 H   0  0  0  0  0  0  0  0  0  0  0  0
    4.5024    2.7495   -4.1526 H   0  0  0  0  0  0  0  0  0  0  0  0
    3.1208    3.1887   -5.1345 H   0  0  0  0  0  0  0  0  0  0  0  0
    1.3174    3.0407   -3.2467 N   0  0  0  0  0  0  0  0  0  0  0  0
    0.2944    2.6927   -2.2960 C   0  0  2  0  0  0  0  0  0  0  0  0
    0.2976    1.1783   -2.1349 C   0  0  0  0  0  0  0  0  0  0  0  0
    0.7500    0.4142   -2.9850 O   0  0  0  0  0  0  0  0  0  0  0  0
   -1.0710    3.1886   -2.7460 C   0  0  0  0  0  0  0  0  0  0  0  0
    1.0312    3.4224   -4.1464 H   0  0  0  0  0  0  0  0  0  0  0  0
    0.5725    3.1622   -1.3461 H   0  0  0  0  0  0  0  0  0  0  0  0
   -1.3666    2.7292   -3.6963 H   0  0  0  0  0  0  0  0  0  0  0  0
   -1.8434    2.9482   -2.0082 H   0  0  0  0  0  0  0  0  0  0  0  0
   -1.0632    4.2744   -2.8901 H   0  0  0  0  0  0  0  0  0  0  0  0
   -0.3037    0.7742   -0.9484 N   0  0  0  0  0  0  0  0  0  0  0  0
   -0.4352   -0.6095   -0.5718 C   0  0  2  0  0  0  0  0  0  0  0  0
    0.9247   -1.1264   -0.1142 C   0  0  0  0  0  0  0  0  0  0  0  0
    1.5283   -0.6616    0.8509 O   0  0  0  0  0  0  0  0  0  0  0  0
   -1.0461   -1.4541   -1.6963 C   0  0  0  0  0  0  0  0  0  0  0  0
   -2.5166   -1.1321   -1.9930 C   0  0  0  0  0  0  0  0  0  0  0  0
   -3.0647   -2.0281   -3.1061 C   0  0  0  0  0  0  0  0  0  0  0  0
   -4.5157   -1.6895   -3.4145 C   0  0  0  0  0  0  0  0  0  0  0  0
   -4.9959   -2.5633   -4.5119 N   0  3  0  0  0  0  0  0  0  0  0  0
   -0.6336    1.4811   -0.2948 H   0  0  0  0  0  0  0  0  0  0  0  0
   -1.1105   -0.6223    0.2922 H   0  0  0  0  0  0  0  0  0  0  0  0
   -0.4592   -1.3020   -2.6114 H   0  0  0  0  0  0  0  0  0  0  0  0
   -0.9609   -2.5176   -1.4411 H   0  0  0  0  0  0  0  0  0  0  0  0
   -3.1203   -1.2720   -1.0887 H   0  0  0  0  0  0  0  0  0  0  0  0
   -2.6176   -0.0823   -2.2922 H   0  0  0  0  0  0  0  0  0  0  0  0
   -2.9846   -3.0798   -2.8040 H   0  0  0  0  0  0  0  0  0  0  0  0
   -2.4546   -1.9061   -4.0097 H   0  0  0  0  0  0  0  0  0  0  0  0
   -5.1700   -1.8693   -2.5563 H   0  0  0  0  0  0  0  0  0  0  0  0
   -4.6321   -0.6569   -3.7568 H   0  0  0  0  0  0  0  0  0  0  0  0
   -5.8245   -2.1628   -4.9652 H   0  0  0  0  0  0  0  0  0  0  0  0
   -5.2484   -3.4925   -4.1577 H   0  0  0  0  0  0  0  0  0  0  0  0
   -4.2719   -2.6848   -5.2287 H   0  0  0  0  0  0  0  0  0  0  0  0
    1.3713   -2.1882   -0.8874 N   0  0  0  0  0  0  0  0  0  0  0  0
    2.6273   -2.8519   -0.6310 C   0  0  2  0  0  0  0  0  0  0  0  0
    2.9498   -3.7292   -1.8334 C   0  0  0  0  0  0  0  0  0  0  0  0
    2.0939   -4.1332   -2.6178 O   0  0  0  0  0  0  0  0  0  0  0  0
    2.5663   -3.6783    0.6441 C   0  0  0  0  0  0  0  0  0  0  0  0
    0.7953   -2.5094   -1.6598 H   0  0  0  0  0  0  0  0  0  0  0  0
    3.3861   -2.0673   -0.5367 H   0  0  0  0  0  0  0  0  0  0  0  0
    1.8115   -4.4695    0.5685 H   0  0  0  0  0  0  0  0  0  0  0  0
    3.5283   -4.1581    0.8525 H   0  0  0  0  0  0  0  0  0  0  0  0
    2.3050   -3.0508    1.5031 H   0  0  0  0  0  0  0  0  0  0  0  0
    4.2998   -4.0436   -1.9030 N   0  0  0  0  0  0  0  0  0  0  0  0
    4.8541   -4.8741   -2.9465 C   0  0  0  0  0  0  0  0  0  0  0  0
    4.9405   -3.6491   -1.2207 H   0  0  0  0  0  0  0  0  0  0  0  0
    4.8710   -5.9218   -2.6118 H   0  0  0  0  0  0  0  0  0  0  0  0
    4.2343   -4.7884   -3.8513 H   0  0  0  0  0  0  0  0  0  0  0  0
    5.8791   -4.5446   -3.1716 H   0  0  0  0  0  0  0  0  0  0  0  0
  1  3  1  0  0  0  0
  1  7  1  0  0  0  0
  1  2  2  0  0  0  0
 40 41  1  0  0  0  0
 41 49  1  0  0  0  0
 41 42  2  0  0  0  0
  8  9  1  0  0  0  0
  9 17  1  0  0  0  0
  9 10  2  0  0  0  0
 18 19  1  0  0  0  0
 19 39  1  0  0  0  0
 19 20  2  0  0  0  0
 40 43  1  0  0  0  0
  8 11  1  0  0  0  0
 49 50  1  0  0  0  0
 22 23  1  0  0  0  0
 21 22  1  0  0  0  0
 23 24  1  0  0  0  0
 18 21  1  0  0  0  0
 24 25  1  0  0  0  0
 39 40  1  0  0  0  0
  7  8  1  0  0  0  0
 17 18  1  0  0  0  0
  3  4  1  0  0  0  0
  3  5  1  0  0  0  0
  3  6  1  0  0  0  0
 43 46  1  0  0  0  0
 43 47  1  0  0  0  0
 43 48  1  0  0  0  0
 11 14  1  0  0  0  0
 11 15  1  0  0  0  0
 11 16  1  0  0  0  0
 50 52  1  0  0  0  0
 50 53  1  0  0  0  0
 50 54  1  0  0  0  0
 22 30  1  0  0  0  0
 22 31  1  0  0  0  0
 23 32  1  0  0  0  0
 23 33  1  0  0  0  0
 21 28  1  0  0  0  0
 21 29  1  0  0  0  0
 24 34  1  0  0  0  0
 24 35  1  0  0  0  0
 40 45  1  0  0  0  0
  8 13  1  0  0  0  0
 18 27  1  0  0  0  0
 49 51  1  0  0  0  0
  7 12  1  0  0  0  0
 39 44  1  0  0  0  0
 17 26  1  0  0  0  0
 25 36  1  0  0  0  0
 25 37  1  0  0  0  0
 25 38  1  0  0  0  0
M  CHG  1  25   1
M  END
$$$$

  -OEChem-05262214473D

 54 53  0     1  0  0  0  0  0999 V2000
    2.6714    2.8829   -3.0005 C   0  0  0  0  0  0  0  0  0  0  0  0
    3.1741    2.4398   -1.9745 O   0  0  0  0  0  0  0  0  0  0  0  0
    3.5527    3.3077   -4.1279 C   0  0  0  0  0  0  0  0  0  0  0  0
    3.8407    4.3691   -4.0597 H   0  0  0  0  0  0  0  0  0  0  0  0
    4.5024    2.7495   -4.1526 H   0  0  0  0  0  0  0  0  0  0  0  0
    3.1208    3.1887   -5.1345 H   0  0  0  0  0  0  0  0  0  0  0  0
    1.3174    3.0407   -3.2467 N   0  0  0  0  0  0  0  0  0  0  0  0
    0.2944    2.6927   -2.2960 C   0  0  2  0  0  0  0  0  0  0  0  0
    0.2976    1.1783   -2.1349 C   0  0  0  0  0  0  0  0  0  0  0  0
    0.7500    0.4142   -2.9850 O   0  0  0  0  0  0  0  0  0  0  0  0
   -1.0710    3.1886   -2.7460 C   0  0  0  0  0  0  0  0  0  0  0  0
    1.0312    3.4224   -4.1464 H   0  0  0  0  0  0  0  0  0  0  0  0
    0.5725    3.1622   -1.3461 H   0  0  0  0  0  0  0  0  0  0  0  0
   -1.3666    2.7292   -3.6963 H   0  0  0  0  0  0  0  0  0  0  0  0
   -1.8434    2.9482   -2.0082 H   0  0  0  0  0  0  0  0  0  0  0  0
   -1.0632    4.2744   -2.8901 H   0  0  0  0  0  0  0  0  0  0  0  0
   -0.3037    0.7742   -0.9484 N   0  0  0  0  0  0  0  0  0  0  0  0
   -0.4352   -0.6095   -0.5718 C   0  0  2  0  0  0  0  0  0  0  0  0
    0.9247   -1.1264   -0.1142 C   0  0  0  0  0  0  0  0  0  0  0  0
    1.4074   -0.8611    0.9850 O   0  0  0  0  0  0  0  0  0  0  0  0
   -1.0461   -1.4541   -1.6963 C   0  0  0  0  0  0  0  0  0  0  0  0
   -2.5166   -1.1321   -1.9930 C   0  0  0  0  0  0  0  0  0  0  0  0
   -3.0647   -2.0281   -3.1061 C   0  0  0  0  0  0  0  0  0  0  0  0
   -4.5157   -1.6895   -3.4145 C   0  0  0  0  0  0  0  0  0  0  0  0
   -4.9959   -2.5633   -4.5119 N   0  3  0  0  0  0  0  0  0  0  0  0
   -0.6336    1.4811   -0.2948 H   0  0  0  0  0  0  0  0  0  0  0  0
   -1.1105   -0.6223    0.2922 H   0  0  0  0  0  0  0  0  0  0  0  0
   -0.4592   -1.3020   -2.6114 H   0  0  0  0  0  0  0  0  0  0  0  0
   -0.9609   -2.5176   -1.4411 H   0  0  0  0  0  0  0  0  0  0  0  0
   -3.1203   -1.2720   -1.0887 H   0  0  0  0  0  0  0  0  0  0  0  0
   -2.6176   -0.0823   -2.2922 H   0  0  0  0  0  0  0  0  0  0  0  0
   -2.9846   -3.0798   -2.8040 H   0  0  0  0  0  0  0  0  0  0  0  0
   -2.4546   -1.9061   -4.0097 H   0  0  0  0  0  0  0  0  0  0  0  0
   -5.1700   -1.8693   -2.5563 H   0  0  0  0  0  0  0  0  0  0  0  0
   -4.6321   -0.6569   -3.7568 H   0  0  0  0  0  0  0  0  0  0  0  0
   -5.8245   -2.1628   -4.9652 H   0  0  0  0  0  0  0  0  0  0  0  0
   -5.2484   -3.4925   -4.1577 H   0  0  0  0  0  0  0  0  0  0  0  0
   -4.2719   -2.6848   -5.2287 H   0  0  0  0  0  0  0  0  0  0  0  0
    1.5224   -1.9450   -1.0616 N   0  0  0  0  0  0  0  0  0  0  0  0
    2.8079   -2.5640   -0.8423 C   0  0  2  0  0  0  0  0  0  0  0  0
    3.2997   -3.1116   -2.1757 C   0  0  0  0  0  0  0  0  0  0  0  0
    2.5470   -3.3773   -3.1104 O   0  0  0  0  0  0  0  0  0  0  0  0
    2.7197   -3.6684    0.1995 C   0  0  0  0  0  0  0  0  0  0  0  0
    1.0393   -2.1143   -1.9388 H   0  0  0  0  0  0  0  0  0  0  0  0
    3.4849   -1.7742   -0.4991 H   0  0  0  0  0  0  0  0  0  0  0  0
    2.0457   -4.4689   -0.1268 H   0  0  0  0  0  0  0  0  0  0  0  0
    3.7008   -4.1176    0.3855 H   0  0  0  0  0  0  0  0  0  0  0  0
    2.3375   -3.2786    1.1492 H   0  0  0  0  0  0  0  0  0  0  0  0
    4.6734   -3.3092   -2.1839 N   0  0  0  0  0  0  0  0  0  0  0  0
    5.3789   -3.8329   -3.3301 C   0  0  0  0  0  0  0  0  0  0  0  0
    5.2214   -3.0432   -1.3710 H   0  0  0  0  0  0  0  0  0  0  0  0
    5.4616   -4.9263   -3.2423 H   0  0  0  0  0  0  0  0  0  0  0  0
    4.8271   -3.5796   -4.2474 H   0  0  0  0  0  0  0  0  0  0  0  0
    6.3855   -3.3916   -3.3741 H   0  0  0  0  0  0  0  0  0  0  0  0
  1  3  1  0  0  0  0
  1  7  1  0  0  0  0
  1  2  2  0  0  0  0
 40 41  1  0  0  0  0
 41 49  1  0  0  0  0
 41 42  2  0  0  0  0
  8  9  1  0  0  0  0
  9 17  1  0  0  0  0
  9 10  2  0  0  0  0
 18 19  1  0  0  0  0
 19 39  1  0  0  0  0
 19 20  2  0  0  0  0
 40 43  1  0  0  0  0
  8 11  1  0  0  0  0
 49 50  1  0  0  0  0
 22 23  1  0  0  0  0
 21 22  1  0  0  0  0
 23 24  1  0  0  0  0
 18 21  1  0  0  0  0
 24 25  1  0  0  0  0
 39 40  1  0  0  0  0
  7  8  1  0  0  0  0
 17 18  1  0  0  0  0
  3  4  1  0  0  0  0
  3  5  1  0  0  0  0
  3  6  1  0  0  0  0
 43 46  1  0  0  0  0
 43 47  1  0  0  0  0
 43 48  1  0  0  0  0
 11 14  1  0  0  0  0
 11 15  1  0  0  0  0
 11 16  1  0  0  0  0
 50 52  1  0  0  0  0
 50 53  1  0  0  0  0
 50 54  1  0  0  0  0
 22 30  1  0  0  0  0
 22 31  1  0  0  0  0
 23 32  1  0  0  0  0
 23 33  1  0  0  0  0
 21 28  1  0  0  0  0
 21 29  1  0  0  0  0
 24 34  1  0  0  0  0
 24 35  1  0  0  0  0
 40 45  1  0  0  0  0
  8 13  1  0  0  0  0
 18 27  1  0  0  0  0
 49 51  1  0  0  0  0
  7 12  1  0  0  0  0
 39 44  1  0  0  0  0
 17 26  1  0  0  0  0
 25 36  1  0  0  0  0
 25 37  1  0  0  0  0
 25 38  1  0  0  0  0
M  CHG  1  25   1
M  END
$$$$

  -OEChem-05262214473D

 54 53  0     1  0  0  0  0  0999 V2000
    2.6714    2.8829   -3.0005 C   0  0  0  0  0  0  0  0  0  0  0  0
    3.1741    2.4398   -1.9745 O   0  0  0  0  0  0  0  0  0  0  0  0
    3.5527    3.3077   -4.1279 C   0  0  0  0  0  0  0  0  0  0  0  0
    3.8407    4.3691   -4.0597 H   0  0  0  0  0  0  0  0  0  0  0  0
    4.5024    2.7495   -4.1526 H   0  0  0  0  0  0  0  0  0  0  0  0
    3.1208    3.1887   -5.1345 H   0  0  0  0  0  0  0  0  0  0  0  0
    1.3174    3.0407   -3.2467 N   0  0  0  0  0  0  0  0  0  0  0  0
    0.2944    2.6927   -2.2960 C   0  0  2  0  0  0  0  0  0  0  0  0
    0.2976    1.1783   -2.1349 C   0  0  0  0  0  0  0  0  0  0  0  0
    0.7500    0.4142   -2.9850 O   0  0  0  0  0  0  0  0  0  0  0  0
   -1.0710    3.1886   -2.7460 C   0  0  0  0  0  0  0  0  0  0  0  0
    1.0312    3.4224   -4.1464 H   0  0  0  0  0  0  0  0  0  0  0  0
    0.5725    3.1622   -1.3461 H   0  0  0  0  0  0  0  0  0  0  0  0
   -1.3666    2.7292   -3.6963 H   0  0  0  0  0  0  0  0  0  0  0  0
   -1.8434    2.9482   -2.0082 H   0  0  0  0  0  0  0  0  0  0  0  0
   -1.0632    4.2744   -2.8901 H   0  0  0  0  0  0  0  0  0  0  0  0
   -0.3037    0.7742   -0.9484 N   0  0  0  0  0  0  0  0  0  0  0  0
   -0.4352   -0.6095   -0.5718 C   0  0  2  0  0  0  0  0  0  0  0  0
    0.9247   -1.1264   -0.1142 C   0  0  0  0  0  0  0  0  0  0  0  0
    1.2942   -1.0940    1.0580 O   0  0  0  0  0  0  0  0  0  0  0  0
   -1.0461   -1.4541   -1.6963 C   0  0  0  0  0  0  0  0  0  0  0  0
   -2.5166   -1.1321   -1.9930 C   0  0  0  0  0  0  0  0  0  0  0  0
   -3.0647   -2.0281   -3.1061 C   0  0  0  0  0  0  0  0  0  0  0  0
   -4.5157   -1.6895   -3.4145 C   0  0  0  0  0  0  0  0  0  0  0  0
   -4.9959   -2.5633   -4.5119 N   0  3  0  0  0  0  0  0  0  0  0  0
   -0.6336    1.4811   -0.2948 H   0  0  0  0  0  0  0  0  0  0  0  0
   -1.1105   -0.6223    0.2922 H   0  0  0  0  0  0  0  0  0  0  0  0
   -0.4592   -1.3020   -2.6114 H   0  0  0  0  0  0  0  0  0  0  0  0
   -0.9609   -2.5176   -1.4411 H   0  0  0  0  0  0  0  0  0  0  0  0
   -3.1203   -1.2720   -1.0887 H   0  0  0  0  0  0  0  0  0  0  0  0
   -2.6176   -0.0823   -2.2922 H   0  0  0  0  0  0  0  0  0  0  0  0
   -2.9846   -3.0798   -2.8040 H   0  0  0  0  0  0  0  0  0  0  0  0
   -2.4546   -1.9061   -4.0097 H   0  0  0  0  0  0  0  0  0  0  0  0
   -5.1700   -1.8693   -2.5563 H   0  0  0  0  0  0  0  0  0  0  0  0
   -4.6321   -0.6569   -3.7568 H   0  0  0  0  0  0  0  0  0  0  0  0
   -5.8245   -2.1628   -4.9652 H   0  0  0  0  0  0  0  0  0  0  0  0
   -5.2484   -3.4925   -4.1577 H   0  0  0  0  0  0  0  0  0  0  0  0
   -4.2719   -2.6848   -5.2287 H   0  0  0  0  0  0  0  0  0  0  0  0
    1.6647   -1.6581   -1.1604 N   0  0  0  0  0  0  0  0  0  0  0  0
    2.9784   -2.2232   -0.9642 C   0  0  2  0  0  0  0  0  0  0  0  0
    3.6198   -2.4088   -2.3330 C   0  0  0  0  0  0  0  0  0  0  0  0
    2.9692   -2.4982   -3.3721 O   0  0  0  0  0  0  0  0  0  0  0  0
    2.9061   -3.5442   -0.2143 C   0  0  0  0  0  0  0  0  0  0  0  0
    1.2688   -1.6494   -2.0957 H   0  0  0  0  0  0  0  0  0  0  0  0
    3.5542   -1.4920   -0.3865 H   0  0  0  0  0  0  0  0  0  0  0  0
    2.3329   -4.2896   -0.7777 H   0  0  0  0  0  0  0  0  0  0  0  0
    3.9053   -3.9574   -0.0412 H   0  0  0  0  0  0  0  0  0  0  0  0
    2.4177   -3.4145    0.7576 H   0  0  0  0  0  0  0  0  0  0  0  0
    5.0019   -2.5059   -2.2529 N   0  0  0  0  0  0  0  0  0  0  0  0
    5.8387   -2.6979   -3.4143 C   0  0  0  0  0  0  0  0  0  0  0  0
    5.4588   -2.4016   -1.3517 H   0  0  0  0  0  0  0  0  0  0  0  0
    6.0101   -3.7733   -3.5698 H   0  0  0  0  0  0  0  0  0  0  0  0
    5.3405   -2.2745   -4.2990 H   0  0  0  0  0  0  0  0  0  0  0  0
    6.8029   -2.1917   -3.2592 H   0  0  0  0  0  0  0  0  0  0  0  0
  1  3  1  0  0  0  0
  1  7  1  0  0  0  0
  1  2  2  0  0  0  0
 40 41  1  0  0  0  0
 41 49  1  0  0  0  0
 41 42  2  0  0  0  0
  8  9  1  0  0  0  0
  9 17  1  0  0  0  0
  9 10  2  0  0  0  0
 18 19  1  0  0  0  0
 19 39  1  0  0  0  0
 19 20  2  0  0  0  0
 40 43  1  0  0  0  0
  8 11  1  0  0  0  0
 49 50  1  0  0  0  0
 22 23  1  0  0  0  0
 21 22  1  0  0  0  0
 23 24  1  0  0  0  0
 18 21  1  0  0  0  0
 24 25  1  0  0  0  0
 39 40  1  0  0  0  0
  7  8  1  0  0  0  0
 17 18  1  0  0  0  0
  3  4  1  0  0  0  0
  3  5  1  0  0  0  0
  3  6  1  0  0  0  0
 43 46  1  0  0  0  0
 43 47  1  0  0  0  0
 43 48  1  0  0  0  0
 11 14  1  0  0  0  0
 11 15  1  0  0  0  0
 11 16  1  0  0  0  0
 50 52  1  0  0  0  0
 50 53  1  0  0  0  0
 50 54  1  0  0  0  0
 22 30  1  0  0  0  0
 22 31  1  0  0  0  0
 23 32  1  0  0  0  0
 23 33  1  0  0  0  0
 21 28  1  0  0  0  0
 21 29  1  0  0  0  0
 24 34  1  0  0  0  0
 24 35  1  0  0  0  0
 40 45  1  0  0  0  0
  8 13  1  0  0  0  0
 18 27  1  0  0  0  0
 49 51  1  0  0  0  0
  7 12  1  0  0  0  0
 39 44  1  0  0  0  0
 17 26  1  0  0  0  0
 25 36  1  0  0  0  0
 25 37  1  0  0  0  0
 25 38  1  0  0  0  0
M  CHG  1  25   1
M  END
$$$$

  -OEChem-05262214473D

 54 53  0     1  0  0  0  0  0999 V2000
    2.6714    2.8829   -3.0005 C   0  0  0  0  0  0  0  0  0  0  0  0
    3.1741    2.4398   -1.9745 O   0  0  0  0  0  0  0  0  0  0  0  0
    3.5527    3.3077   -4.1279 C   0  0  0  0  0  0  0  0  0  0  0  0
    3.8407    4.3691   -4.0597 H   0  0  0  0  0  0  0  0  0  0  0  0
    4.5024    2.7495   -4.1526 H   0  0  0  0  0  0  0  0  0  0  0  0
    3.1208    3.1887   -5.1345 H   0  0  0  0  0  0  0  0  0  0  0  0
    1.3174    3.0407   -3.2467 N   0  0  0  0  0  0  0  0  0  0  0  0
    0.2944    2.6927   -2.2960 C   0  0  2  0  0  0  0  0  0  0  0  0
    0.2976    1.1783   -2.1349 C   0  0  0  0  0  0  0  0  0  0  0  0
    0.7500    0.4142   -2.9850 O   0  0  0  0  0  0  0  0  0  0  0  0
   -1.0710    3.1886   -2.7460 C   0  0  0  0  0  0  0  0  0  0  0  0
    1.0312    3.4224   -4.1464 H   0  0  0  0  0  0  0  0  0  0  0  0
    0.5725    3.1622   -1.3461 H   0  0  0  0  0  0  0  0  0  0  0  0
   -1.3666    2.7292   -3.6963 H   0  0  0  0  0  0  0  0  0  0  0  0
   -1.8434    2.9482   -2.0082 H   0  0  0  0  0  0  0  0  0  0  0  0
   -1.0632    4.2744   -2.8901 H   0  0  0  0  0  0  0  0  0  0  0  0
   -0.3037    0.7742   -0.9484 N   0  0  0  0  0  0  0  0  0  0  0  0
   -0.4352   -0.6095   -0.5718 C   0  0  2  0  0  0  0  0  0  0  0  0
    0.9247   -1.1264   -0.1142 C   0  0  0  0  0  0  0  0  0  0  0  0
    1.1967   -1.3447    1.0648 O   0  0  0  0  0  0  0  0  0  0  0  0
   -1.0461   -1.4541   -1.6963 C   0  0  0  0  0  0  0  0  0  0  0  0
   -2.5166   -1.1321   -1.9930 C   0  0  0  0  0  0  0  0  0  0  0  0
   -3.0647   -2.0281   -3.1061 C   0  0  0  0  0  0  0  0  0  0  0  0
   -4.5157   -1.6895   -3.4145 C   0  0  0  0  0  0  0  0  0  0  0  0
   -4.9959   -2.5633   -4.5119 N   0  3  0  0  0  0  0  0  0  0  0  0
   -0.6336    1.4811   -0.2948 H   0  0  0  0  0  0  0  0  0  0  0  0
   -1.1105   -0.6223    0.2922 H   0  0  0  0  0  0  0  0  0  0  0  0
   -0.4592   -1.3020   -2.6114 H   0  0  0  0  0  0  0  0  0  0  0  0
   -0.9609   -2.5176   -1.4411 H   0  0  0  0  0  0  0  0  0  0  0  0
   -3.1203   -1.2720   -1.0887 H   0  0  0  0  0  0  0  0  0  0  0  0
   -2.6176   -0.0823   -2.2922 H   0  0  0  0  0  0  0  0  0  0  0  0
   -2.9846   -3.0798   -2.8040 H   0  0  0  0  0  0  0  0  0  0  0  0
   -2.4546   -1.9061   -4.0097 H   0  0  0  0  0  0  0  0  0  0  0  0
   -5.1700   -1.8693   -2.5563 H   0  0  0  0  0  0  0  0  0  0  0  0
   -4.6321   -0.6569   -3.7568 H   0  0  0  0  0  0  0  0  0  0  0  0
   -5.8245   -2.1628   -4.9652 H   0  0  0  0  0  0  0  0  0  0  0  0
   -5.2484   -3.4925   -4.1577 H   0  0  0  0  0  0  0  0  0  0  0  0
   -4.2719   -2.6848   -5.2287 H   0  0  0  0  0  0  0  0  0  0  0  0
    1.7886   -1.3471   -1.1772 N   0  0  0  0  0  0  0  0  0  0  0  0
    3.1274   -1.8527   -0.9883 C   0  0  2  0  0  0  0  0  0  0  0  0
    3.8882   -1.6688   -2.2948 C   0  0  0  0  0  0  0  0  0  0  0  0
    3.3316   -1.5560   -3.3850 O   0  0  0  0  0  0  0  0  0  0  0  0
    3.1128   -3.3144   -0.5689 C   0  0  0  0  0  0  0  0  0  0  0  0
    1.4682   -1.1462   -2.1199 H   0  0  0  0  0  0  0  0  0  0  0  0
    3.5894   -1.2400   -0.2066 H   0  0  0  0  0  0  0  0  0  0  0  0
    2.6535   -3.9439   -1.3398 H   0  0  0  0  0  0  0  0  0  0  0  0
    4.1278   -3.6884   -0.3984 H   0  0  0  0  0  0  0  0  0  0  0  0
    2.5400   -3.4491    0.3550 H   0  0  0  0  0  0  0  0  0  0  0  0
    5.2629   -1.6887   -2.1053 N   0  0  0  0  0  0  0  0  0  0  0  0
    6.2020   -1.5463   -3.1934 C   0  0  0  0  0  0  0  0  0  0  0  0
    5.6366   -1.7678   -1.1641 H   0  0  0  0  0  0  0  0  0  0  0  0
    6.4790   -2.5414   -3.5719 H   0  0  0  0  0  0  0  0  0  0  0  0
    5.7396   -0.9621   -4.0026 H   0  0  0  0  0  0  0  0  0  0  0  0
    7.1028   -1.0268   -2.8346 H   0  0  0  0  0  0  0  0  0  0  0  0
  1  3  1  0  0  0  0
  1  7  1  0  0  0  0
  1  2  2  0  0  0  0
 40 41  1  0  0  0  0
 41 49  1  0  0  0  0
 41 42  2  0  0  0  0
  8  9  1  0  0  0  0
  9 17  1  0  0  0  0
  9 10  2  0  0  0  0
 18 19  1  0  0  0  0
 19 39  1  0  0  0  0
 19 20  2  0  0  0  0
 40 43  1  0  0  0  0
  8 11  1  0  0  0  0
 49 50  1  0  0  0  0
 22 23  1  0  0  0  0
 21 22  1  0  0  0  0
 23 24  1  0  0  0  0
 18 21  1  0  0  0  0
 24 25  1  0  0  0  0
 39 40  1  0  0  0  0
  7  8  1  0  0  0  0
 17 18  1  0  0  0  0
  3  4  1  0  0  0  0
  3  5  1  0  0  0  0
  3  6  1  0  0  0  0
 43 46  1  0  0  0  0
 43 47  1  0  0  0  0
 43 48  1  0  0  0  0
 11 14  1  0  0  0  0
 11 15  1  0  0  0  0
 11 16  1  0  0  0  0
 50 52  1  0  0  0  0
 50 53  1  0  0  0  0
 50 54  1  0  0  0  0
 22 30  1  0  0  0  0
 22 31  1  0  0  0  0
 23 32  1  0  0  0  0
 23 33  1  0  0  0  0
 21 28  1  0  0  0  0
 21 29  1  0  0  0  0
 24 34  1  0  0  0  0
 24 35  1  0  0  0  0
 40 45  1  0  0  0  0
  8 13  1  0  0  0  0
 18 27  1  0  0  0  0
 49 51  1  0  0  0  0
  7 12  1  0  0  0  0
 39 44  1  0  0  0  0
 17 26  1  0  0  0  0
 25 36  1  0  0  0  0
 25 37  1  0  0  0  0
 25 38  1  0  0  0  0
M  CHG  1  25   1
M  END
$$$$

  -OEChem-05262214473D

 54 53  0     1  0  0  0  0  0999 V2000
    2.6714    2.8829   -3.0005 C   0  0  0  0  0  0  0  0  0  0  0  0
    3.1741    2.4398   -1.9745 O   0  0  0  0  0  0  0  0  0  0  0  0
    3.5527    3.3077   -4.1279 C   0  0  0  0  0  0  0  0  0  0  0  0
    3.8407    4.3691   -4.0597 H   0  0  0  0  0  0  0  0  0  0  0  0
    4.5024    2.7495   -4.1526 H   0  0  0  0  0  0  0  0  0  0  0  0
    3.1208    3.1887   -5.1345 H   0  0  0  0  0  0  0  0  0  0  0  0
    1.3174    3.0407   -3.2467 N   0  0  0  0  0  0  0  0  0  0  0  0
    0.2944    2.6927   -2.2960 C   0  0  2  0  0  0  0  0  0  0  0  0
    0.2976    1.1783   -2.1349 C   0  0  0  0  0  0  0  0  0  0  0  0
    0.7500    0.4142   -2.9850 O   0  0  0  0  0  0  0  0  0  0  0  0
   -1.0710    3.1886   -2.7460 C   0  0  0  0  0  0  0  0  0  0  0  0
    1.0312    3.4224   -4.1464 H   0  0  0  0  0  0  0  0  0  0  0  0
    0.5725    3.1622   -1.3461 H   0  0  0  0  0  0  0  0  0  0  0  0
   -1.3666    2.7292   -3.6963 H   0  0  0  0  0  0  0  0  0  0  0  0
   -1.8434    2.9482   -2.0082 H   0  0  0  0  0  0  0  0  0  0  0  0
   -1.0632    4.2744   -2.8901 H   0  0  0  0  0  0  0  0  0  0  0  0
   -0.3037    0.7742   -0.9484 N   0  0  0  0  0  0  0  0  0  0  0  0
   -0.4352   -0.6095   -0.5718 C   0  0  2  0  0  0  0  0  0  0  0  0
    0.9247   -1.1264   -0.1142 C   0  0  0  0  0  0  0  0  0  0  0  0
    1.1213   -1.5959    1.0049 O   0  0  0  0  0  0  0  0  0  0  0  0
   -1.0461   -1.4541   -1.6963 C   0  0  0  0  0  0  0  0  0  0  0  0
   -2.5166   -1.1321   -1.9930 C   0  0  0  0  0  0  0  0  0  0  0  0
   -3.0647   -2.0281   -3.1061 C   0  0  0  0  0  0  0  0  0  0  0  0
   -4.5157   -1.6895   -3.4145 C   0  0  0  0  0  0  0  0  0  0  0  0
   -4.9959   -2.5633   -4.5119 N   0  3  0  0  0  0  0  0  0  0  0  0
   -0.6336    1.4811   -0.2948 H   0  0  0  0  0  0  0  0  0  0  0  0
   -1.1105   -0.6223    0.2922 H   0  0  0  0  0  0  0  0  0  0  0  0
   -0.4592   -1.3020   -2.6114 H   0  0  0  0  0  0  0  0  0  0  0  0
   -0.9609   -2.5176   -1.4411 H   0  0  0  0  0  0  0  0  0  0  0  0
   -3.1203   -1.2720   -1.0887 H   0  0  0  0  0  0  0  0  0  0  0  0
   -2.6176   -0.0823   -2.2922 H   0  0  0  0  0  0  0  0  0  0  0  0
   -2.9846   -3.0798   -2.8040 H   0  0  0  0  0  0  0  0  0  0  0  0
   -2.4546   -1.9061   -4.0097 H   0  0  0  0  0  0  0  0  0  0  0  0
   -5.1700   -1.8693   -2.5563 H   0  0  0  0  0  0  0  0  0  0  0  0
   -4.6321   -0.6569   -3.7568 H   0  0  0  0  0  0  0  0  0  0  0  0
   -5.8245   -2.1628   -4.9652 H   0  0  0  0  0  0  0  0  0  0  0  0
   -5.2484   -3.4925   -4.1577 H   0  0  0  0  0  0  0  0  0  0  0  0
   -4.2719   -2.6848   -5.2287 H   0  0  0  0  0  0  0  0  0  0  0  0
    1.8855   -1.0332   -1.1108 N   0  0  0  0  0  0  0  0  0  0  0  0
    3.2446   -1.4776   -0.9130 C   0  0  2  0  0  0  0  0  0  0  0  0
    4.0866   -0.9420   -2.0635 C   0  0  0  0  0  0  0  0  0  0  0  0
    3.6097   -0.6147   -3.1481 O   0  0  0  0  0  0  0  0  0  0  0  0
    3.3258   -2.9945   -0.8403 C   0  0  0  0  0  0  0  0  0  0  0  0
    1.6238   -0.6392   -2.0096 H   0  0  0  0  0  0  0  0  0  0  0  0
    3.5881   -1.0354    0.0285 H   0  0  0  0  0  0  0  0  0  0  0  0
    2.9856   -3.4553   -1.7748 H   0  0  0  0  0  0  0  0  0  0  0  0
    4.3531   -3.3287   -0.6618 H   0  0  0  0  0  0  0  0  0  0  0  0
    2.6962   -3.3801   -0.0312 H   0  0  0  0  0  0  0  0  0  0  0  0
    5.4386   -0.9130   -1.7513 N   0  0  0  0  0  0  0  0  0  0  0  0
    6.4441   -0.4568   -2.6824 C   0  0  0  0  0  0  0  0  0  0  0  0
    5.7426   -1.1850   -0.8211 H   0  0  0  0  0  0  0  0  0  0  0  0
    6.8365   -1.3145   -3.2485 H   0  0  0  0  0  0  0  0  0  0  0  0
    5.9971    0.2682   -3.3785 H   0  0  0  0  0  0  0  0  0  0  0  0
    7.2647    0.0236   -2.1294 H   0  0  0  0  0  0  0  0  0  0  0  0
  1  3  1  0  0  0  0
  1  7  1  0  0  0  0
  1  2  2  0  0  0  0
 40 41  1  0  0  0  0
 41 49  1  0  0  0  0
 41 42  2  0  0  0  0
  8  9  1  0  0  0  0
  9 17  1  0  0  0  0
  9 10  2  0  0  0  0
 18 19  1  0  0  0  0
 19 39  1  0  0  0  0
 19 20  2  0  0  0  0
 40 43  1  0  0  0  0
  8 11  1  0  0  0  0
 49 50  1  0  0  0  0
 22 23  1  0  0  0  0
 21 22  1  0  0  0  0
 23 24  1  0  0  0  0
 18 21  1  0  0  0  0
 24 25  1  0  0  0  0
 39 40  1  0  0  0  0
  7  8  1  0  0  0  0
 17 18  1  0  0  0  0
  3  4  1  0  0  0  0
  3  5  1  0  0  0  0
  3  6  1  0  0  0  0
 43 46  1  0  0  0  0
 43 47  1  0  0  0  0
 43 48  1  0  0  0  0
 11 14  1  0  0  0  0
 11 15  1  0  0  0  0
 11 16  1  0  0  0  0
 50 52  1  0  0  0  0
 50 53  1  0  0  0  0
 50 54  1  0  0  0  0
 22 30  1  0  0  0  0
 22 31  1  0  0  0  0
 23 32  1  0  0  0  0
 23 33  1  0  0  0  0
 21 28  1  0  0  0  0
 21 29  1  0  0  0  0
 24 34  1  0  0  0  0
 24 35  1  0  0  0  0
 40 45  1  0  0  0  0
  8 13  1  0  0  0  0
 18 27  1  0  0  0  0
 49 51  1  0  0  0  0
  7 12  1  0  0  0  0
 39 44  1  0  0  0  0
 17 26  1  0  0  0  0
 25 36  1  0  0  0  0
 25 37  1  0  0  0  0
 25 38  1  0  0  0  0
M  CHG  1  25   1
M  END
$$$$

  -OEChem-05262214473D

 54 53  0     1  0  0  0  0  0999 V2000
    2.6714    2.8829   -3.0005 C   0  0  0  0  0  0  0  0  0  0  0  0
    3.1741    2.4398   -1.9745 O   0  0  0  0  0  0  0  0  0  0  0  0
    3.5527    3.3077   -4.1279 C   0  0  0  0  0  0  0  0  0  0  0  0
    3.8407    4.3691   -4.0597 H   0  0  0  0  0  0  0  0  0  0  0  0
    4.5024    2.7495   -4.1526 H   0  0  0  0  0  0  0  0  0  0  0  0
    3.1208    3.1887   -5.1345 H   0  0  0  0  0  0  0  0  0  0  0  0
    1.3174    3.0407   -3.2467 N   0  0  0  0  0  0  0  0  0  0  0  0
    0.2944    2.6927   -2.2960 C   0  0  2  0  0  0  0  0  0  0  0  0
    0.2976    1.1783   -2.1349 C   0  0  0  0  0  0  0  0  0  0  0  0
    0.7500    0.4142   -2.9850 O   0  0  0  0  0  0  0  0  0  0  0  0
   -1.0710    3.1886   -2.7460 C   0  0  0  0  0  0  0  0  0  0  0  0
    1.0312    3.4224   -4.1464 H   0  0  0  0  0  0  0  0  0  0  0  0
    0.5725    3.1622   -1.3461 H   0  0  0  0  0  0  0  0  0  0  0  0
   -1.3666    2.7292   -3.6963 H   0  0  0  0  0  0  0  0  0  0  0  0
   -1.8434    2.9482   -2.0082 H   0  0  0  0  0  0  0  0  0  0  0  0
   -1.0632    4.2744   -2.8901 H   0  0  0  0  0  0  0  0  0  0  0  0
   -0.3037    0.7742   -0.9484 N   0  0  0  0  0  0  0  0  0  0  0  0
   -0.4352   -0.6095   -0.5718 C   0  0  2  0  0  0  0  0  0  0  0  0
    0.9247   -1.1264   -0.1142 C   0  0  0  0  0  0  0  0  0  0  0  0
    1.0733   -1.8307    0.8825 O   0  0  0  0  0  0  0  0  0  0  0  0
   -1.0461   -1.4541   -1.6963 C   0  0  0  0  0  0  0  0  0  0  0  0
   -2.5166   -1.1321   -1.9930 C   0  0  0  0  0  0  0  0  0  0  0  0
   -3.0647   -2.0281   -3.1061 C   0  0  0  0  0  0  0  0  0  0  0  0
   -4.5157   -1.6895   -3.4145 C   0  0  0  0  0  0  0  0  0  0  0  0
   -4.9959   -2.5633   -4.5119 N   0  3  0  0  0  0  0  0  0  0  0  0
   -0.6336    1.4811   -0.2948 H   0  0  0  0  0  0  0  0  0  0  0  0
   -1.1105   -0.6223    0.2922 H   0  0  0  0  0  0  0  0  0  0  0  0
   -0.4592   -1.3020   -2.6114 H   0  0  0  0  0  0  0  0  0  0  0  0
   -0.9609   -2.5176   -1.4411 H   0  0  0  0  0  0  0  0  0  0  0  0
   -3.1203   -1.2720   -1.0887 H   0  0  0  0  0  0  0  0  0  0  0  0
   -2.6176   -0.0823   -2.2922 H   0  0  0  0  0  0  0  0  0  0  0  0
   -2.9846   -3.0798   -2.8040 H   0  0  0  0  0  0  0  0  0  0  0  0
   -2.4546   -1.9061   -4.0097 H   0  0  0  0  0  0  0  0  0  0  0  0
   -5.1700   -1.8693   -2.5563 H   0  0  0  0  0  0  0  0  0  0  0  0
   -4.6321   -0.6569   -3.7568 H   0  0  0  0  0  0  0  0  0  0  0  0
   -5.8245   -2.1628   -4.9652 H   0  0  0  0  0  0  0  0  0  0  0  0
   -5.2484   -3.4925   -4.1577 H   0  0  0  0  0  0  0  0  0  0  0  0
   -4.2719   -2.6848   -5.2287 H   0  0  0  0  0  0  0  0  0  0  0  0
    1.9489   -0.7379   -0.9657 N   0  0  0  0  0  0  0  0  0  0  0  0
    3.3221   -1.1236   -0.7435 C   0  0  2  0  0  0  0  0  0  0  0  0
    4.2015   -0.2779   -1.6549 C   0  0  0  0  0  0  0  0  0  0  0  0
    3.7844    0.2615   -2.6778 O   0  0  0  0  0  0  0  0  0  0  0  0
    3.5304   -2.6063   -1.0099 C   0  0  0  0  0  0  0  0  0  0  0  0
    1.7250   -0.1628   -1.7724 H   0  0  0  0  0  0  0  0  0  0  0  0
    3.5503   -0.8921    0.3027 H   0  0  0  0  0  0  0  0  0  0  0  0
    3.3066   -2.8572   -2.0532 H   0  0  0  0  0  0  0  0  0  0  0  0
    4.5659   -2.9030   -0.8134 H   0  0  0  0  0  0  0  0  0  0  0  0
    2.8755   -3.2122   -0.3745 H   0  0  0  0  0  0  0  0  0  0  0  0
    5.5170   -0.2318   -1.2150 N   0  0  0  0  0  0  0  0  0  0  0  0
    6.5485    0.4964   -1.9161 C   0  0  0  0  0  0  0  0  0  0  0  0
    5.7697   -0.6931   -0.3460 H   0  0  0  0  0  0  0  0  0  0  0  0
    7.0581   -0.1764   -2.6216 H   0  0  0  0  0  0  0  0  0  0  0  0
    6.0956    1.3325   -2.4690 H   0  0  0  0  0  0  0  0  0  0  0  0
    7.2777    0.8881   -1.1916 H   0  0  0  0  0  0  0  0  0  0  0  0
  1  3  1  0  0  0  0
  1  7  1  0  0  0  0
  1  2  2  0  0  0  0
 40 41  1  0  0  0  0
 41 49  1  0  0  0  0
 41 42  2  0  0  0  0
  8  9  1  0  0  0  0
  9 17  1  0  0  0  0
  9 10  2  0  0  0  0
 18 19  1  0  0  0  0
 19 39  1  0  0  0  0
 19 20  2  0  0  0  0
 40 43  1  0  0  0  0
  8 11  1  0  0  0  0
 49 50  1  0  0  0  0
 22 23  1  0  0  0  0
 21 22  1  0  0  0  0
 23 24  1  0  0  0  0
 18 21  1  0  0  0  0
 24 25  1  0  0  0  0
 39 40  1  0  0  0  0
  7  8  1  0  0  0  0
 17 18  1  0  0  0  0
  3  4  1  0  0  0  0
  3  5  1  0  0  0  0
  3  6  1  0  0  0  0
 43 46  1  0  0  0  0
 43 47  1  0  0  0  0
 43 48  1  0  0  0  0
 11 14  1  0  0  0  0
 11 15  1  0  0  0  0
 11 16  1  0  0  0  0
 50 52  1  0  0  0  0
 50 53  1  0  0  0  0
 50 54  1  0  0  0  0
 22 30  1  0  0  0  0
 22 31  1  0  0  0  0
 23 32  1  0  0  0  0
 23 33  1  0  0  0  0
 21 28  1  0  0  0  0
 21 29  1  0  0  0  0
 24 34  1  0  0  0  0
 24 35  1  0  0  0  0
 40 45  1  0  0  0  0
  8 13  1  0  0  0  0
 18 27  1  0  0  0  0
 49 51  1  0  0  0  0
  7 12  1  0  0  0  0
 39 44  1  0  0  0  0
 17 26  1  0  0  0  0
 25 36  1  0  0  0  0
 25 37  1  0  0  0  0
 25 38  1  0  0  0  0
M  CHG  1  25   1
M  END
$$$$

  -OEChem-05262214473D

 54 53  0     1  0  0  0  0  0999 V2000
    2.6714    2.8829   -3.0005 C   0  0  0  0  0  0  0  0  0  0  0  0
    3.1741    2.4398   -1.9745 O   0  0  0  0  0  0  0  0  0  0  0  0
    3.5527    3.3077   -4.1279 C   0  0  0  0  0  0  0  0  0  0  0  0
    3.8407    4.3691   -4.0597 H   0  0  0  0  0  0  0  0  0  0  0  0
    4.5024    2.7495   -4.1526 H   0  0  0  0  0  0  0  0  0  0  0  0
    3.1208    3.1887   -5.1345 H   0  0  0  0  0  0  0  0  0  0  0  0
    1.3174    3.0407   -3.2467 N   0  0  0  0  0  0  0  0  0  0  0  0
    0.2944    2.6927   -2.2960 C   0  0  2  0  0  0  0  0  0  0  0  0
    0.2976    1.1783   -2.1349 C   0  0  0  0  0  0  0  0  0  0  0  0
    0.7500    0.4142   -2.9850 O   0  0  0  0  0  0  0  0  0  0  0  0
   -1.0710    3.1886   -2.7460 C   0  0  0  0  0  0  0  0  0  0  0  0
    1.0312    3.4224   -4.1464 H   0  0  0  0  0  0  0  0  0  0  0  0
    0.5725    3.1622   -1.3461 H   0  0  0  0  0  0  0  0  0  0  0  0
   -1.3666    2.7292   -3.6963 H   0  0  0  0  0  0  0  0  0  0  0  0
   -1.8434    2.9482   -2.0082 H   0  0  0  0  0  0  0  0  0  0  0  0
   -1.0632    4.2744   -2.8901 H   0  0  0  0  0  0  0  0  0  0  0  0
   -0.3037    0.7742   -0.9484 N   0  0  0  0  0  0  0  0  0  0  0  0
   -0.4352   -0.6095   -0.5718 C   0  0  2  0  0  0  0  0  0  0  0  0
    0.9247   -1.1264   -0.1142 C   0  0  0  0  0  0  0  0  0  0  0  0
    1.0559   -2.0329    0.7059 O   0  0  0  0  0  0  0  0  0  0  0  0
   -1.0461   -1.4541   -1.6963 C   0  0  0  0  0  0  0  0  0  0  0  0
   -2.5166   -1.1321   -1.9930 C   0  0  0  0  0  0  0  0  0  0  0  0
   -3.0647   -2.0281   -3.1061 C   0  0  0  0  0  0  0  0  0  0  0  0
   -4.5157   -1.6895   -3.4145 C   0  0  0  0  0  0  0  0  0  0  0  0
   -4.9959   -2.5633   -4.5119 N   0  3  0  0  0  0  0  0  0  0  0  0
   -0.6336    1.4811   -0.2948 H   0  0  0  0  0  0  0  0  0  0  0  0
   -1.1105   -0.6223    0.2922 H   0  0  0  0  0  0  0  0  0  0  0  0
   -0.4592   -1.3020   -2.6114 H   0  0  0  0  0  0  0  0  0  0  0  0
   -0.9609   -2.5176   -1.4411 H   0  0  0  0  0  0  0  0  0  0  0  0
   -3.1203   -1.2720   -1.0887 H   0  0  0  0  0  0  0  0  0  0  0  0
   -2.6176   -0.0823   -2.2922 H   0  0  0  0  0  0  0  0  0  0  0  0
   -2.9846   -3.0798   -2.8040 H   0  0  0  0  0  0  0  0  0  0  0  0
   -2.4546   -1.9061   -4.0097 H   0  0  0  0  0  0  0  0  0  0  0  0
   -5.1700   -1.8693   -2.5563 H   0  0  0  0  0  0  0  0  0  0  0  0
   -4.6321   -0.6569   -3.7568 H   0  0  0  0  0  0  0  0  0  0  0  0
   -5.8245   -2.1628   -4.9652 H   0  0  0  0  0  0  0  0  0  0  0  0
   -5.2484   -3.4925   -4.1577 H   0  0  0  0  0  0  0  0  0  0  0  0
   -4.2719   -2.6848   -5.2287 H   0  0  0  0  0  0  0  0  0  0  0  0
    1.9745   -0.4811   -0.7518 N   0  0  0  0  0  0  0  0  0  0  0  0
    3.3546   -0.8148   -0.4912 C   0  0  2  0  0  0  0  0  0  0  0  0
    4.2251    0.2782   -1.0970 C   0  0  0  0  0  0  0  0  0  0  0  0
    3.8439    1.0128   -2.0059 O   0  0  0  0  0  0  0  0  0  0  0  0
    3.7128   -2.1762   -1.0662 C   0  0  0  0  0  0  0  0  0  0  0  0
    1.7650    0.2505   -1.4244 H   0  0  0  0  0  0  0  0  0  0  0  0
    3.4786   -0.8200    0.5972 H   0  0  0  0  0  0  0  0  0  0  0  0
    3.5946   -2.1904   -2.1559 H   0  0  0  0  0  0  0  0  0  0  0  0
    4.7517   -2.4403   -0.8430 H   0  0  0  0  0  0  0  0  0  0  0  0
    3.0659   -2.9569   -0.6517 H   0  0  0  0  0  0  0  0  0  0  0  0
    5.4928    0.3084   -0.5328 N   0  0  0  0  0  0  0  0  0  0  0  0
    6.5082    1.2485   -0.9468 C   0  0  0  0  0  0  0  0  0  0  0  0
    5.7160   -0.3254    0.2289 H   0  0  0  0  0  0  0  0  0  0  0  0
    7.1288    0.7956   -1.7340 H   0  0  0  0  0  0  0  0  0  0  0  0
    6.0283    2.1584   -1.3364 H   0  0  0  0  0  0  0  0  0  0  0  0
    7.1408    1.5078   -0.0850 H   0  0  0  0  0  0  0  0  0  0  0  0
  1  3  1  0  0  0  0
  1  7  1  0  0  0  0
  1  2  2  0  0  0  0
 40 41  1  0  0  0  0
 41 49  1  0  0  0  0
 41 42  2  0  0  0  0
  8  9  1  0  0  0  0
  9 17  1  0  0  0  0
  9 10  2  0  0  0  0
 18 19  1  0  0  0  0
 19 39  1  0  0  0  0
 19 20  2  0  0  0  0
 40 43  1  0  0  0  0
  8 11  1  0  0  0  0
 49 50  1  0  0  0  0
 22 23  1  0  0  0  0
 21 22  1  0  0  0  0
 23 24  1  0  0  0  0
 18 21  1  0  0  0  0
 24 25  1  0  0  0  0
 39 40  1  0  0  0  0
  7  8  1  0  0  0  0
 17 18  1  0  0  0  0
  3  4  1  0  0  0  0
  3  5  1  0  0  0  0
  3  6  1  0  0  0  0
 43 46  1  0  0  0  0
 43 47  1  0  0  0  0
 43 48  1  0  0  0  0
 11 14  1  0  0  0  0
 11 15  1  0  0  0  0
 11 16  1  0  0  0  0
 50 52  1  0  0  0  0
 50 53  1  0  0  0  0
 50 54  1  0  0  0  0
 22 30  1  0  0  0  0
 22 31  1  0  0  0  0
 23 32  1  0  0  0  0
 23 33  1  0  0  0  0
 21 28  1  0  0  0  0
 21 29  1  0  0  0  0
 24 34  1  0  0  0  0
 24 35  1  0  0  0  0
 40 45  1  0  0  0  0
  8 13  1  0  0  0  0
 18 27  1  0  0  0  0
 49 51  1  0  0  0  0
  7 12  1  0  0  0  0
 39 44  1  0  0  0  0
 17 26  1  0  0  0  0
 25 36  1  0  0  0  0
 25 37  1  0  0  0  0
 25 38  1  0  0  0  0
M  CHG  1  25   1
M  END
$$$$

  -OEChem-05262214473D

 54 53  0     1  0  0  0  0  0999 V2000
    2.6714    2.8829   -3.0005 C   0  0  0  0  0  0  0  0  0  0  0  0
    3.1741    2.4398   -1.9745 O   0  0  0  0  0  0  0  0  0  0  0  0
    3.5527    3.3077   -4.1279 C   0  0  0  0  0  0  0  0  0  0  0  0
    3.8407    4.3691   -4.0597 H   0  0  0  0  0  0  0  0  0  0  0  0
    4.5024    2.7495   -4.1526 H   0  0  0  0  0  0  0  0  0  0  0  0
    3.1208    3.1887   -5.1345 H   0  0  0  0  0  0  0  0  0  0  0  0
    1.3174    3.0407   -3.2467 N   0  0  0  0  0  0  0  0  0  0  0  0
    0.2944    2.6927   -2.2960 C   0  0  2  0  0  0  0  0  0  0  0  0
    0.2976    1.1783   -2.1349 C   0  0  0  0  0  0  0  0  0  0  0  0
    0.7500    0.4142   -2.9850 O   0  0  0  0  0  0  0  0  0  0  0  0
   -1.0710    3.1886   -2.7460 C   0  0  0  0  0  0  0  0  0  0  0  0
    1.0312    3.4224   -4.1464 H   0  0  0  0  0  0  0  0  0  0  0  0
    0.5725    3.1622   -1.3461 H   0  0  0  0  0  0  0  0  0  0  0  0
   -1.3666    2.7292   -3.6963 H   0  0  0  0  0  0  0  0  0  0  0  0
   -1.8434    2.9482   -2.0082 H   0  0  0  0  0  0  0  0  0  0  0  0
   -1.0632    4.2744   -2.8901 H   0  0  0  0  0  0  0  0  0  0  0  0
   -0.3037    0.7742   -0.9484 N   0  0  0  0  0  0  0  0  0  0  0  0
   -0.4352   -0.6095   -0.5718 C   0  0  2  0  0  0  0  0  0  0  0  0
    0.9247   -1.1264   -0.1142 C   0  0  0  0  0  0  0  0  0  0  0  0
    1.0703   -2.1888    0.4871 O   0  0  0  0  0  0  0  0  0  0  0  0
   -1.0461   -1.4541   -1.6963 C   0  0  0  0  0  0  0  0  0  0  0  0
   -2.5166   -1.1321   -1.9930 C   0  0  0  0  0  0  0  0  0  0  0  0
   -3.0647   -2.0281   -3.1061 C   0  0  0  0  0  0  0  0  0  0  0  0
   -4.5157   -1.6895   -3.4145 C   0  0  0  0  0  0  0  0  0  0  0  0
   -4.9959   -2.5633   -4.5119 N   0  3  0  0  0  0  0  0  0  0  0  0
   -0.6336    1.4811   -0.2948 H   0  0  0  0  0  0  0  0  0  0  0  0
   -1.1105   -0.6223    0.2922 H   0  0  0  0  0  0  0  0  0  0  0  0
   -0.4592   -1.3020   -2.6114 H   0  0  0  0  0  0  0  0  0  0  0  0
   -0.9609   -2.5176   -1.4411 H   0  0  0  0  0  0  0  0  0  0  0  0
   -3.1203   -1.2720   -1.0887 H   0  0  0  0  0  0  0  0  0  0  0  0
   -2.6176   -0.0823   -2.2922 H   0  0  0  0  0  0  0  0  0  0  0  0
   -2.9846   -3.0798   -2.8040 H   0  0  0  0  0  0  0  0  0  0  0  0
   -2.4546   -1.9061   -4.0097 H   0  0  0  0  0  0  0  0  0  0  0  0
   -5.1700   -1.8693   -2.5563 H   0  0  0  0  0  0  0  0  0  0  0  0
   -4.6321   -0.6569   -3.7568 H   0  0  0  0  0  0  0  0  0  0  0  0
   -5.8245   -2.1628   -4.9652 H   0  0  0  0  0  0  0  0  0  0  0  0
   -5.2484   -3.4925   -4.1577 H   0  0  0  0  0  0  0  0  0  0  0  0
   -4.2719   -2.6848   -5.2287 H   0  0  0  0  0  0  0  0  0  0  0  0
    1.9606   -0.2805   -0.4837 N   0  0  0  0  0  0  0  0  0  0  0  0
    3.3398   -0.5721   -0.1733 C   0  0  2  0  0  0  0  0  0  0  0  0
    4.1558    0.6884   -0.4276 C   0  0  0  0  0  0  0  0  0  0  0  0
    3.7840    1.5881   -1.1783 O   0  0  0  0  0  0  0  0  0  0  0  0
    3.8605   -1.7337   -1.0054 C   0  0  0  0  0  0  0  0  0  0  0  0
    1.7410    0.5725   -0.9894 H   0  0  0  0  0  0  0  0  0  0  0  0
    3.3779   -0.8238    0.8921 H   0  0  0  0  0  0  0  0  0  0  0  0
    3.8301   -1.5001   -2.0759 H   0  0  0  0  0  0  0  0  0  0  0  0
    4.8979   -1.9721   -0.7485 H   0  0  0  0  0  0  0  0  0  0  0  0
    3.2542   -2.6315   -0.8438 H   0  0  0  0  0  0  0  0  0  0  0  0
    5.3676    0.6710    0.2487 N   0  0  0  0  0  0  0  0  0  0  0  0
    6.3257    1.7480    0.1596 C   0  0  0  0  0  0  0  0  0  0  0  0
    5.5851   -0.1071    0.8643 H   0  0  0  0  0  0  0  0  0  0  0  0
    7.0437    1.5350   -0.6461 H   0  0  0  0  0  0  0  0  0  0  0  0
    5.7998    2.6894   -0.0576 H   0  0  0  0  0  0  0  0  0  0  0  0
    6.8634    1.8403    1.1148 H   0  0  0  0  0  0  0  0  0  0  0  0
  1  3  1  0  0  0  0
  1  7  1  0  0  0  0
  1  2  2  0  0  0  0
 40 41  1  0  0  0  0
 41 49  1  0  0  0  0
 41 42  2  0  0  0  0
  8  9  1  0  0  0  0
  9 17  1  0  0  0  0
  9 10  2  0  0  0  0
 18 19  1  0  0  0  0
 19 39  1  0  0  0  0
 19 20  2  0  0  0  0
 40 43  1  0  0  0  0
  8 11  1  0  0  0  0
 49 50  1  0  0  0  0
 22 23  1  0  0  0  0
 21 22  1  0  0  0  0
 23 24  1  0  0  0  0
 18 21  1  0  0  0  0
 24 25  1  0  0  0  0
 39 40  1  0  0  0  0
  7  8  1  0  0  0  0
 17 18  1  0  0  0  0
  3  4  1  0  0  0  0
  3  5  1  0  0  0  0
  3  6  1  0  0  0  0
 43 46  1  0  0  0  0
 43 47  1  0  0  0  0
 43 48  1  0  0  0  0
 11 14  1  0  0  0  0
 11 15  1  0  0  0  0
 11 16  1  0  0  0  0
 50 52  1  0  0  0  0
 50 53  1  0  0  0  0
 50 54  1  0  0  0  0
 22 30  1  0  0  0  0
 22 31  1  0  0  0  0
 23 32  1  0  0  0  0
 23 33  1  0  0  0  0
 21 28  1  0  0  0  0
 21 29  1  0  0  0  0
 24 34  1  0  0  0  0
 24 35  1  0  0  0  0
 40 45  1  0  0  0  0
  8 13  1  0  0  0  0
 18 27  1  0  0  0  0
 49 51  1  0  0  0  0
  7 12  1  0  0  0  0
 39 44  1  0  0  0  0
 17 26  1  0  0  0  0
 25 36  1  0  0  0  0
 25 37  1  0  0  0  0
 25 38  1  0  0  0  0
M  CHG  1  25   1
M  END
$$$$

  -OEChem-05262214473D

 54 53  0     1  0  0  0  0  0999 V2000
    2.6714    2.8829   -3.0005 C   0  0  0  0  0  0  0  0  0  0  0  0
    3.1741    2.4398   -1.9745 O   0  0  0  0  0  0  0  0  0  0  0  0
    3.5527    3.3077   -4.1279 C   0  0  0  0  0  0  0  0  0  0  0  0
    3.8407    4.3691   -4.0597 H   0  0  0  0  0  0  0  0  0  0  0  0
    4.5024    2.7495   -4.1526 H   0  0  0  0  0  0  0  0  0  0  0  0
    3.1208    3.1887   -5.1345 H   0  0  0  0  0  0  0  0  0  0  0  0
    1.3174    3.0407   -3.2467 N   0  0  0  0  0  0  0  0  0  0  0  0
    0.2944    2.6927   -2.2960 C   0  0  2  0  0  0  0  0  0  0  0  0
    0.2976    1.1783   -2.1349 C   0  0  0  0  0  0  0  0  0  0  0  0
    0.7500    0.4142   -2.9850 O   0  0  0  0  0  0  0  0  0  0  0  0
   -1.0710    3.1886   -2.7460 C   0  0  0  0  0  0  0  0  0  0  0  0
    1.0312    3.4224   -4.1464 H   0  0  0  0  0  0  0  0  0  0  0  0
    0.5725    3.1622   -1.3461 H   0  0  0  0  0  0  0  0  0  0  0  0
   -1.3666    2.7292   -3.6963 H   0  0  0  0  0  0  0  0  0  0  0  0
   -1.8434    2.9482   -2.0082 H   0  0  0  0  0  0  0  0  0  0  0  0
   -1.0632    4.2744   -2.8901 H   0  0  0  0  0  0  0  0  0  0  0  0
   -0.3037    0.7742   -0.9484 N   0  0  0  0  0  0  0  0  0  0  0  0
   -0.4352   -0.6095   -0.5718 C   0  0  2  0  0  0  0  0  0  0  0  0
    0.9247   -1.1264   -0.1142 C   0  0  0  0  0  0  0  0  0  0  0  0
    1.1154   -2.2878    0.2411 O   0  0  0  0  0  0  0  0  0  0  0  0
   -1.0461   -1.4541   -1.6963 C   0  0  0  0  0  0  0  0  0  0  0  0
   -2.5166   -1.1321   -1.9930 C   0  0  0  0  0  0  0  0  0  0  0  0
   -3.0647   -2.0281   -3.1061 C   0  0  0  0  0  0  0  0  0  0  0  0
   -4.5157   -1.6895   -3.4145 C   0  0  0  0  0  0  0  0  0  0  0  0
   -4.9959   -2.5633   -4.5119 N   0  3  0  0  0  0  0  0  0  0  0  0
   -0.6336    1.4811   -0.2948 H   0  0  0  0  0  0  0  0  0  0  0  0
   -1.1105   -0.6223    0.2922 H   0  0  0  0  0  0  0  0  0  0  0  0
   -0.4592   -1.3020   -2.6114 H   0  0  0  0  0  0  0  0  0  0  0  0
   -0.9609   -2.5176   -1.4411 H   0  0  0  0  0  0  0  0  0  0  0  0
   -3.1203   -1.2720   -1.0887 H   0  0  0  0  0  0  0  0  0  0  0  0
   -2.6176   -0.0823   -2.2922 H   0  0  0  0  0  0  0  0  0  0  0  0
   -2.9846   -3.0798   -2.8040 H   0  0  0  0  0  0  0  0  0  0  0  0
   -2.4546   -1.9061   -4.0097 H   0  0  0  0  0  0  0  0  0  0  0  0
   -5.1700   -1.8693   -2.5563 H   0  0  0  0  0  0  0  0  0  0  0  0
   -4.6321   -0.6569   -3.7568 H   0  0  0  0  0  0  0  0  0  0  0  0
   -5.8245   -2.1628   -4.9652 H   0  0  0  0  0  0  0  0  0  0  0  0
   -5.2484   -3.4925   -4.1577 H   0  0  0  0  0  0  0  0  0  0  0  0
   -4.2719   -2.6848   -5.2287 H   0  0  0  0  0  0  0  0  0  0  0  0
    1.9080   -0.1497   -0.1796 N   0  0  0  0  0  0  0  0  0  0  0  0
    3.2788   -0.4123    0.1883 C   0  0  2  0  0  0  0  0  0  0  0  0
    3.9982    0.9248    0.3075 C   0  0  0  0  0  0  0  0  0  0  0  0
    3.6089    1.9481   -0.2514 O   0  0  0  0  0  0  0  0  0  0  0  0
    3.9635   -1.3088   -0.8315 C   0  0  0  0  0  0  0  0  0  0  0  0
    1.6547    0.7813   -0.4971 H   0  0  0  0  0  0  0  0  0  0  0  0
    3.2550   -0.9034    1.1673 H   0  0  0  0  0  0  0  0  0  0  0  0
    3.9968   -0.8336   -1.8187 H   0  0  0  0  0  0  0  0  0  0  0  0
    4.9944   -1.5304   -0.5364 H   0  0  0  0  0  0  0  0  0  0  0  0
    3.4277   -2.2583   -0.9377 H   0  0  0  0  0  0  0  0  0  0  0  0
    5.1499    0.8311    1.0762 N   0  0  0  0  0  0  0  0  0  0  0  0
    6.0136    1.9611    1.3275 C   0  0  0  0  0  0  0  0  0  0  0  0
    5.3860   -0.0531    1.5169 H   0  0  0  0  0  0  0  0  0  0  0  0
    6.8087    1.9916    0.5679 H   0  0  0  0  0  0  0  0  0  0  0  0
    5.4257    2.8895    1.2801 H   0  0  0  0  0  0  0  0  0  0  0  0
    6.4644    1.8630    2.3261 H   0  0  0  0  0  0  0  0  0  0  0  0
  1  3  1  0  0  0  0
  1  7  1  0  0  0  0
  1  2  2  0  0  0  0
 40 41  1  0  0  0  0
 41 49  1  0  0  0  0
 41 42  2  0  0  0  0
  8  9  1  0  0  0  0
  9 17  1  0  0  0  0
  9 10  2  0  0  0  0
 18 19  1  0  0  0  0
 19 39  1  0  0  0  0
 19 20  2  0  0  0  0
 40 43  1  0  0  0  0
  8 11  1  0  0  0  0
 49 50  1  0  0  0  0
 22 23  1  0  0  0  0
 21 22  1  0  0  0  0
 23 24  1  0  0  0  0
 18 21  1  0  0  0  0
 24 25  1  0  0  0  0
 39 40  1  0  0  0  0
  7  8  1  0  0  0  0
 17 18  1  0  0  0  0
  3  4  1  0  0  0  0
  3  5  1  0  0  0  0
  3  6  1  0  0  0  0
 43 46  1  0  0  0  0
 43 47  1  0  0  0  0
 43 48  1  0  0  0  0
 11 14  1  0  0  0  0
 11 15  1  0  0  0  0
 11 16  1  0  0  0  0
 50 52  1  0  0  0  0
 50 53  1  0  0  0  0
 50 54  1  0  0  0  0
 22 30  1  0  0  0  0
 22 31  1  0  0  0  0
 23 32  1  0  0  0  0
 23 33  1  0  0  0  0
 21 28  1  0  0  0  0
 21 29  1  0  0  0  0
 24 34  1  0  0  0  0
 24 35  1  0  0  0  0
 40 45  1  0  0  0  0
  8 13  1  0  0  0  0
 18 27  1  0  0  0  0
 49 51  1  0  0  0  0
  7 12  1  0  0  0  0
 39 44  1  0  0  0  0
 17 26  1  0  0  0  0
 25 36  1  0  0  0  0
 25 37  1  0  0  0  0
 25 38  1  0  0  0  0
M  CHG  1  25   1
M  END
$$$$

  -OEChem-05262214473D

 54 53  0     1  0  0  0  0  0999 V2000
    2.6714    2.8829   -3.0005 C   0  0  0  0  0  0  0  0  0  0  0  0
    3.1741    2.4398   -1.9745 O   0  0  0  0  0  0  0  0  0  0  0  0
    3.5527    3.3077   -4.1279 C   0  0  0  0  0  0  0  0  0  0  0  0
    3.8407    4.3691   -4.0597 H   0  0  0  0  0  0  0  0  0  0  0  0
    4.5024    2.7495   -4.1526 H   0  0  0  0  0  0  0  0  0  0  0  0
    3.1208    3.1887   -5.1345 H   0  0  0  0  0  0  0  0  0  0  0  0
    1.3174    3.0407   -3.2467 N   0  0  0  0  0  0  0  0  0  0  0  0
    0.2944    2.6927   -2.2960 C   0  0  2  0  0  0  0  0  0  0  0  0
    0.2976    1.1783   -2.1349 C   0  0  0  0  0  0  0  0  0  0  0  0
    0.7500    0.4142   -2.9850 O   0  0  0  0  0  0  0  0  0  0  0  0
   -1.0710    3.1886   -2.7460 C   0  0  0  0  0  0  0  0  0  0  0  0
    1.0312    3.4224   -4.1464 H   0  0  0  0  0  0  0  0  0  0  0  0
    0.5725    3.1622   -1.3461 H   0  0  0  0  0  0  0  0  0  0  0  0
   -1.3666    2.7292   -3.6963 H   0  0  0  0  0  0  0  0  0  0  0  0
   -1.8434    2.9482   -2.0082 H   0  0  0  0  0  0  0  0  0  0  0  0
   -1.0632    4.2744   -2.8901 H   0  0  0  0  0  0  0  0  0  0  0  0
   -0.3037    0.7742   -0.9484 N   0  0  0  0  0  0  0  0  0  0  0  0
   -0.4352   -0.6095   -0.5718 C   0  0  2  0  0  0  0  0  0  0  0  0
    0.9247   -1.1264   -0.1142 C   0  0  0  0  0  0  0  0  0  0  0  0
    1.1883   -2.3232   -0.0155 O   0  0  0  0  0  0  0  0  0  0  0  0
   -1.0461   -1.4541   -1.6963 C   0  0  0  0  0  0  0  0  0  0  0  0
   -2.5166   -1.1321   -1.9930 C   0  0  0  0  0  0  0  0  0  0  0  0
   -3.0647   -2.0281   -3.1061 C   0  0  0  0  0  0  0  0  0  0  0  0
   -4.5157   -1.6895   -3.4145 C   0  0  0  0  0  0  0  0  0  0  0  0
   -4.9959   -2.5633   -4.5119 N   0  3  0  0  0  0  0  0  0  0  0  0
   -0.6336    1.4811   -0.2948 H   0  0  0  0  0  0  0  0  0  0  0  0
   -1.1105   -0.6223    0.2922 H   0  0  0  0  0  0  0  0  0  0  0  0
   -0.4592   -1.3020   -2.6114 H   0  0  0  0  0  0  0  0  0  0  0  0
   -0.9609   -2.5176   -1.4411 H   0  0  0  0  0  0  0  0  0  0  0  0
   -3.1203   -1.2720   -1.0887 H   0  0  0  0  0  0  0  0  0  0  0  0
   -2.6176   -0.0823   -2.2922 H   0  0  0  0  0  0  0  0  0  0  0  0
   -2.9846   -3.0798   -2.8040 H   0  0  0  0  0  0  0  0  0  0  0  0
   -2.4546   -1.9061   -4.0097 H   0  0  0  0  0  0  0  0  0  0  0  0
   -5.1700   -1.8693   -2.5563 H   0  0  0  0  0  0  0  0  0  0  0  0
   -4.6321   -0.6569   -3.7568 H   0  0  0  0  0  0  0  0  0  0  0  0
   -5.8245   -2.1628   -4.9652 H   0  0  0  0  0  0  0  0  0  0  0  0
   -5.2484   -3.4925   -4.1577 H   0  0  0  0  0  0  0  0  0  0  0  0
   -4.2719   -2.6848   -5.2287 H   0  0  0  0  0  0  0  0  0  0  0  0
    1.8203   -0.0976    0.1396 N   0  0  0  0  0  0  0  0  0  0  0  0
    3.1758   -0.3461    0.5692 C   0  0  2  0  0  0  0  0  0  0  0  0
    3.7632    0.9712    1.0583 C   0  0  0  0  0  0  0  0  0  0  0  0
    3.3305    2.0684    0.7117 O   0  0  0  0  0  0  0  0  0  0  0  0
    4.0147   -0.9306   -0.5565 C   0  0  0  0  0  0  0  0  0  0  0  0
    1.5119    0.8626    0.0191 H   0  0  0  0  0  0  0  0  0  0  0  0
    3.1184   -1.0533    1.4039 H   0  0  0  0  0  0  0  0  0  0  0  0
    4.0836   -0.2361   -1.4018 H   0  0  0  0  0  0  0  0  0  0  0  0
    5.0347   -1.1451   -0.2211 H   0  0  0  0  0  0  0  0  0  0  0  0
    3.5745   -1.8626   -0.9271 H   0  0  0  0  0  0  0  0  0  0  0  0
    4.8547    0.7779    1.8934 N   0  0  0  0  0  0  0  0  0  0  0  0
    5.5932    1.8731    2.4774 C   0  0  0  0  0  0  0  0  0  0  0  0
    5.1322   -0.1670    2.1423 H   0  0  0  0  0  0  0  0  0  0  0  0
    6.4397    2.1342    1.8253 H   0  0  0  0  0  0  0  0  0  0  0  0
    4.9314    2.7450    2.5856 H   0  0  0  0  0  0  0  0  0  0  0  0
    5.9709    1.5744    3.4664 H   0  0  0  0  0  0  0  0  0  0  0  0
  1  3  1  0  0  0  0
  1  7  1  0  0  0  0
  1  2  2  0  0  0  0
 40 41  1  0  0  0  0
 41 49  1  0  0  0  0
 41 42  2  0  0  0  0
  8  9  1  0  0  0  0
  9 17  1  0  0  0  0
  9 10  2  0  0  0  0
 18 19  1  0  0  0  0
 19 39  1  0  0  0  0
 19 20  2  0  0  0  0
 40 43  1  0  0  0  0
  8 11  1  0  0  0  0
 49 50  1  0  0  0  0
 22 23  1  0  0  0  0
 21 22  1  0  0  0  0
 23 24  1  0  0  0  0
 18 21  1  0  0  0  0
 24 25  1  0  0  0  0
 39 40  1  0  0  0  0
  7  8  1  0  0  0  0
 17 18  1  0  0  0  0
  3  4  1  0  0  0  0
  3  5  1  0  0  0  0
  3  6  1  0  0  0  0
 43 46  1  0  0  0  0
 43 47  1  0  0  0  0
 43 48  1  0  0  0  0
 11 14  1  0  0  0  0
 11 15  1  0  0  0  0
 11 16  1  0  0  0  0
 50 52  1  0  0  0  0
 50 53  1  0  0  0  0
 50 54  1  0  0  0  0
 22 30  1  0  0  0  0
 22 31  1  0  0  0  0
 23 32  1  0  0  0  0
 23 33  1  0  0  0  0
 21 28  1  0  0  0  0
 21 29  1  0  0  0  0
 24 34  1  0  0  0  0
 24 35  1  0  0  0  0
 40 45  1  0  0  0  0
  8 13  1  0  0  0  0
 18 27  1  0  0  0  0
 49 51  1  0  0  0  0
  7 12  1  0  0  0  0
 39 44  1  0  0  0  0
 17 26  1  0  0  0  0
 25 36  1  0  0  0  0
 25 37  1  0  0  0  0
 25 38  1  0  0  0  0
M  CHG  1  25   1
M  END
$$$$

  -OEChem-05262214473D

 54 53  0     1  0  0  0  0  0999 V2000
    2.6714    2.8829   -3.0005 C   0  0  0  0  0  0  0  0  0  0  0  0
    3.1741    2.4398   -1.9745 O   0  0  0  0  0  0  0  0  0  0  0  0
    3.5527    3.3077   -4.1279 C   0  0  0  0  0  0  0  0  0  0  0  0
    3.8407    4.3691   -4.0597 H   0  0  0  0  0  0  0  0  0  0  0  0
    4.5024    2.7495   -4.1526 H   0  0  0  0  0  0  0  0  0  0  0  0
    3.1208    3.1887   -5.1345 H   0  0  0  0  0  0  0  0  0  0  0  0
    1.3174    3.0407   -3.2467 N   0  0  0  0  0  0  0  0  0  0  0  0
    0.2944    2.6927   -2.2960 C   0  0  2  0  0  0  0  0  0  0  0  0
    0.2976    1.1783   -2.1349 C   0  0  0  0  0  0  0  0  0  0  0  0
    0.7500    0.4142   -2.9850 O   0  0  0  0  0  0  0  0  0  0  0  0
   -1.0710    3.1886   -2.7460 C   0  0  0  0  0  0  0  0  0  0  0  0
    1.0312    3.4224   -4.1464 H   0  0  0  0  0  0  0  0  0  0  0  0
    0.5725    3.1622   -1.3461 H   0  0  0  0  0  0  0  0  0  0  0  0
   -1.3666    2.7292   -3.6963 H   0  0  0  0  0  0  0  0  0  0  0  0
   -1.8434    2.9482   -2.0082 H   0  0  0  0  0  0  0  0  0  0  0  0
   -1.0632    4.2744   -2.8901 H   0  0  0  0  0  0  0  0  0  0  0  0
   -0.3037    0.7742   -0.9484 N   0  0  0  0  0  0  0  0  0  0  0  0
   -0.4352   -0.6095   -0.5718 C   0  0  2  0  0  0  0  0  0  0  0  0
    0.9247   -1.1264   -0.1142 C   0  0  0  0  0  0  0  0  0  0  0  0
    1.2840   -2.2924   -0.2651 O   0  0  0  0  0  0  0  0  0  0  0  0
   -1.0461   -1.4541   -1.6963 C   0  0  0  0  0  0  0  0  0  0  0  0
   -2.5166   -1.1321   -1.9930 C   0  0  0  0  0  0  0  0  0  0  0  0
   -3.0647   -2.0281   -3.1061 C   0  0  0  0  0  0  0  0  0  0  0  0
   -4.5157   -1.6895   -3.4145 C   0  0  0  0  0  0  0  0  0  0  0  0
   -4.9959   -2.5633   -4.5119 N   0  3  0  0  0  0  0  0  0  0  0  0
   -0.6336    1.4811   -0.2948 H   0  0  0  0  0  0  0  0  0  0  0  0
   -1.1105   -0.6223    0.2922 H   0  0  0  0  0  0  0  0  0  0  0  0
   -0.4592   -1.3020   -2.6114 H   0  0  0  0  0  0  0  0  0  0  0  0
   -0.9609   -2.5176   -1.4411 H   0  0  0  0  0  0  0  0  0  0  0  0
   -3.1203   -1.2720   -1.0887 H   0  0  0  0  0  0  0  0  0  0  0  0
   -2.6176   -0.0823   -2.2922 H   0  0  0  0  0  0  0  0  0  0  0  0
   -2.9846   -3.0798   -2.8040 H   0  0  0  0  0  0  0  0  0  0  0  0
   -2.4546   -1.9061   -4.0097 H   0  0  0  0  0  0  0  0  0  0  0  0
   -5.1700   -1.8693   -2.5563 H   0  0  0  0  0  0  0  0  0  0  0  0
   -4.6321   -0.6569   -3.7568 H   0  0  0  0  0  0  0  0  0  0  0  0
   -5.8245   -2.1628   -4.9652 H   0  0  0  0  0  0  0  0  0  0  0  0
   -5.2484   -3.4925   -4.1577 H   0  0  0  0  0  0  0  0  0  0  0  0
   -4.2719   -2.6848   -5.2287 H   0  0  0  0  0  0  0  0  0  0  0  0
    1.7036   -0.1277    0.4524 N   0  0  0  0  0  0  0  0  0  0  0  0
    3.0377   -0.3780    0.9434 C   0  0  2  0  0  0  0  0  0  0  0  0
    3.4667    0.8245    1.7736 C   0  0  0  0  0  0  0  0  0  0  0  0
    2.9677    1.9406    1.6453 O   0  0  0  0  0  0  0  0  0  0  0  0
    4.0107   -0.6247   -0.1991 C   0  0  0  0  0  0  0  0  0  0  0  0
    1.3223    0.8110    0.5240 H   0  0  0  0  0  0  0  0  0  0  0  0
    2.9774   -1.2633    1.5859 H   0  0  0  0  0  0  0  0  0  0  0  0
    4.0844    0.2514   -0.8536 H   0  0  0  0  0  0  0  0  0  0  0  0
    5.0161   -0.8426    0.1760 H   0  0  0  0  0  0  0  0  0  0  0  0
    3.6846   -1.4714   -0.8127 H   0  0  0  0  0  0  0  0  0  0  0  0
    4.5019    0.5149    2.6446 N   0  0  0  0  0  0  0  0  0  0  0  0
    5.0931    1.4901    3.5309 C   0  0  0  0  0  0  0  0  0  0  0  0
    4.8411   -0.4410    2.6978 H   0  0  0  0  0  0  0  0  0  0  0  0
    5.9620    1.9531    3.0404 H   0  0  0  0  0  0  0  0  0  0  0  0
    4.3507    2.2658    3.7699 H   0  0  0  0  0  0  0  0  0  0  0  0
    5.4167    0.9942    4.4580 H   0  0  0  0  0  0  0  0  0  0  0  0
  1  3  1  0  0  0  0
  1  7  1  0  0  0  0
  1  2  2  0  0  0  0
 40 41  1  0  0  0  0
 41 49  1  0  0  0  0
 41 42  2  0  0  0  0
  8  9  1  0  0  0  0
  9 17  1  0  0  0  0
  9 10  2  0  0  0  0
 18 19  1  0  0  0  0
 19 39  1  0  0  0  0
 19 20  2  0  0  0  0
 40 43  1  0  0  0  0
  8 11  1  0  0  0  0
 49 50  1  0  0  0  0
 22 23  1  0  0  0  0
 21 22  1  0  0  0  0
 23 24  1  0  0  0  0
 18 21  1  0  0  0  0
 24 25  1  0  0  0  0
 39 40  1  0  0  0  0
  7  8  1  0  0  0  0
 17 18  1  0  0  0  0
  3  4  1  0  0  0  0
  3  5  1  0  0  0  0
  3  6  1  0  0  0  0
 43 46  1  0  0  0  0
 43 47  1  0  0  0  0
 43 48  1  0  0  0  0
 11 14  1  0  0  0  0
 11 15  1  0  0  0  0
 11 16  1  0  0  0  0
 50 52  1  0  0  0  0
 50 53  1  0  0  0  0
 50 54  1  0  0  0  0
 22 30  1  0  0  0  0
 22 31  1  0  0  0  0
 23 32  1  0  0  0  0
 23 33  1  0  0  0  0
 21 28  1  0  0  0  0
 21 29  1  0  0  0  0
 24 34  1  0  0  0  0
 24 35  1  0  0  0  0
 40 45  1  0  0  0  0
  8 13  1  0  0  0  0
 18 27  1  0  0  0  0
 49 51  1  0  0  0  0
  7 12  1  0  0  0  0
 39 44  1  0  0  0  0
 17 26  1  0  0  0  0
 25 36  1  0  0  0  0
 25 37  1  0  0  0  0
 25 38  1  0  0  0  0
M  CHG  1  25   1
M  END
$$$$

  -OEChem-05262214473D

 54 53  0     1  0  0  0  0  0999 V2000
    2.6714    2.8829   -3.0005 C   0  0  0  0  0  0  0  0  0  0  0  0
    3.1741    2.4398   -1.9745 O   0  0  0  0  0  0  0  0  0  0  0  0
    3.5527    3.3077   -4.1279 C   0  0  0  0  0  0  0  0  0  0  0  0
    3.8407    4.3691   -4.0597 H   0  0  0  0  0  0  0  0  0  0  0  0
    4.5024    2.7495   -4.1526 H   0  0  0  0  0  0  0  0  0  0  0  0
    3.1208    3.1887   -5.1345 H   0  0  0  0  0  0  0  0  0  0  0  0
    1.3174    3.0407   -3.2467 N   0  0  0  0  0  0  0  0  0  0  0  0
    0.2944    2.6927   -2.2960 C   0  0  2  0  0  0  0  0  0  0  0  0
    0.2976    1.1783   -2.1349 C   0  0  0  0  0  0  0  0  0  0  0  0
    0.7500    0.4142   -2.9850 O   0  0  0  0  0  0  0  0  0  0  0  0
   -1.0710    3.1886   -2.7460 C   0  0  0  0  0  0  0  0  0  0  0  0
    1.0312    3.4224   -4.1464 H   0  0  0  0  0  0  0  0  0  0  0  0
    0.5725    3.1622   -1.3461 H   0  0  0  0  0  0  0  0  0  0  0  0
   -1.3666    2.7292   -3.6963 H   0  0  0  0  0  0  0  0  0  0  0  0
   -1.8434    2.9482   -2.0082 H   0  0  0  0  0  0  0  0  0  0  0  0
   -1.0632    4.2744   -2.8901 H   0  0  0  0  0  0  0  0  0  0  0  0
   -0.3037    0.7742   -0.9484 N   0  0  0  0  0  0  0  0  0  0  0  0
   -0.4352   -0.6095   -0.5718 C   0  0  2  0  0  0  0  0  0  0  0  0
    0.9247   -1.1264   -0.1142 C   0  0  0  0  0  0  0  0  0  0  0  0
    1.3960   -2.1977   -0.4907 O   0  0  0  0  0  0  0  0  0  0  0  0
   -1.0461   -1.4541   -1.6963 C   0  0  0  0  0  0  0  0  0  0  0  0
   -2.5166   -1.1321   -1.9930 C   0  0  0  0  0  0  0  0  0  0  0  0
   -3.0647   -2.0281   -3.1061 C   0  0  0  0  0  0  0  0  0  0  0  0
   -4.5157   -1.6895   -3.4145 C   0  0  0  0  0  0  0  0  0  0  0  0
   -4.9959   -2.5633   -4.5119 N   0  3  0  0  0  0  0  0  0  0  0  0
   -0.6336    1.4811   -0.2948 H   0  0  0  0  0  0  0  0  0  0  0  0
   -1.1105   -0.6223    0.2922 H   0  0  0  0  0  0  0  0  0  0  0  0
   -0.4592   -1.3020   -2.6114 H   0  0  0  0  0  0  0  0  0  0  0  0
   -0.9609   -2.5176   -1.4411 H   0  0  0  0  0  0  0  0  0  0  0  0
   -3.1203   -1.2720   -1.0887 H   0  0  0  0  0  0  0  0  0  0  0  0
   -2.6176   -0.0823   -2.2922 H   0  0  0  0  0  0  0  0  0  0  0  0
   -2.9846   -3.0798   -2.8040 H   0  0  0  0  0  0  0  0  0  0  0  0
   -2.4546   -1.9061   -4.0097 H   0  0  0  0  0  0  0  0  0  0  0  0
   -5.1700   -1.8693   -2.5563 H   0  0  0  0  0  0  0  0  0  0  0  0
   -4.6321   -0.6569   -3.7568 H   0  0  0  0  0  0  0  0  0  0  0  0
   -5.8245   -2.1628   -4.9652 H   0  0  0  0  0  0  0  0  0  0  0  0
   -5.2484   -3.4925   -4.1577 H   0  0  0  0  0  0  0  0  0  0  0  0
   -4.2719   -2.6848   -5.2287 H   0  0  0  0  0  0  0  0  0  0  0  0
    1.5658   -0.2381    0.7372 N   0  0  0  0  0  0  0  0  0  0  0  0
    2.8740   -0.5060    1.2853 C   0  0  2  0  0  0  0  0  0  0  0  0
    3.1289    0.4947    2.4047 C   0  0  0  0  0  0  0  0  0  0  0  0
    2.5454    1.5736    2.4857 O   0  0  0  0  0  0  0  0  0  0  0  0
    3.9517   -0.4120    0.2164 C   0  0  0  0  0  0  0  0  0  0  0  0
    1.0990    0.6298    0.9831 H   0  0  0  0  0  0  0  0  0  0  0  0
    2.8414   -1.5191    1.7008 H   0  0  0  0  0  0  0  0  0  0  0  0
    3.9993    0.5960   -0.2115 H   0  0  0  0  0  0  0  0  0  0  0  0
    4.9397   -0.6435    0.6277 H   0  0  0  0  0  0  0  0  0  0  0  0
    3.7506   -1.1115   -0.6022 H   0  0  0  0  0  0  0  0  0  0  0  0
    4.1157    0.0602    3.2786 N   0  0  0  0  0  0  0  0  0  0  0  0
    4.5473    0.8381    4.4163 C   0  0  0  0  0  0  0  0  0  0  0  0
    4.5325   -0.8566    3.1457 H   0  0  0  0  0  0  0  0  0  0  0  0
    5.4080    1.4606    4.1304 H   0  0  0  0  0  0  0  0  0  0  0  0
    3.7231    1.4844    4.7524 H   0  0  0  0  0  0  0  0  0  0  0  0
    4.8394    0.1619    5.2332 H   0  0  0  0  0  0  0  0  0  0  0  0
  1  3  1  0  0  0  0
  1  7  1  0  0  0  0
  1  2  2  0  0  0  0
 40 41  1  0  0  0  0
 41 49  1  0  0  0  0
 41 42  2  0  0  0  0
  8  9  1  0  0  0  0
  9 17  1  0  0  0  0
  9 10  2  0  0  0  0
 18 19  1  0  0  0  0
 19 39  1  0  0  0  0
 19 20  2  0  0  0  0
 40 43  1  0  0  0  0
  8 11  1  0  0  0  0
 49 50  1  0  0  0  0
 22 23  1  0  0  0  0
 21 22  1  0  0  0  0
 23 24  1  0  0  0  0
 18 21  1  0  0  0  0
 24 25  1  0  0  0  0
 39 40  1  0  0  0  0
  7  8  1  0  0  0  0
 17 18  1  0  0  0  0
  3  4  1  0  0  0  0
  3  5  1  0  0  0  0
  3  6  1  0  0  0  0
 43 46  1  0  0  0  0
 43 47  1  0  0  0  0
 43 48  1  0  0  0  0
 11 14  1  0  0  0  0
 11 15  1  0  0  0  0
 11 16  1  0  0  0  0
 50 52  1  0  0  0  0
 50 53  1  0  0  0  0
 50 54  1  0  0  0  0
 22 30  1  0  0  0  0
 22 31  1  0  0  0  0
 23 32  1  0  0  0  0
 23 33  1  0  0  0  0
 21 28  1  0  0  0  0
 21 29  1  0  0  0  0
 24 34  1  0  0  0  0
 24 35  1  0  0  0  0
 40 45  1  0  0  0  0
  8 13  1  0  0  0  0
 18 27  1  0  0  0  0
 49 51  1  0  0  0  0
  7 12  1  0  0  0  0
 39 44  1  0  0  0  0
 17 26  1  0  0  0  0
 25 36  1  0  0  0  0
 25 37  1  0  0  0  0
 25 38  1  0  0  0  0
M  CHG  1  25   1
M  END
$$$$

  -OEChem-05262214473D

 54 53  0     1  0  0  0  0  0999 V2000
    2.6714    2.8829   -3.0005 C   0  0  0  0  0  0  0  0  0  0  0  0
    3.1741    2.4398   -1.9745 O   0  0  0  0  0  0  0  0  0  0  0  0
    3.5527    3.3077   -4.1279 C   0  0  0  0  0  0  0  0  0  0  0  0
    3.8407    4.3691   -4.0597 H   0  0  0  0  0  0  0  0  0  0  0  0
    4.5024    2.7495   -4.1526 H   0  0  0  0  0  0  0  0  0  0  0  0
    3.1208    3.1887   -5.1345 H   0  0  0  0  0  0  0  0  0  0  0  0
    1.3174    3.0407   -3.2467 N   0  0  0  0  0  0  0  0  0  0  0  0
    0.2944    2.6927   -2.2960 C   0  0  2  0  0  0  0  0  0  0  0  0
    0.2976    1.1783   -2.1349 C   0  0  0  0  0  0  0  0  0  0  0  0
    0.7500    0.4142   -2.9850 O   0  0  0  0  0  0  0  0  0  0  0  0
   -1.0710    3.1886   -2.7460 C   0  0  0  0  0  0  0  0  0  0  0  0
    1.0312    3.4224   -4.1464 H   0  0  0  0  0  0  0  0  0  0  0  0
    0.5725    3.1622   -1.3461 H   0  0  0  0  0  0  0  0  0  0  0  0
   -1.3666    2.7292   -3.6963 H   0  0  0  0  0  0  0  0  0  0  0  0
   -1.8434    2.9482   -2.0082 H   0  0  0  0  0  0  0  0  0  0  0  0
   -1.0632    4.2744   -2.8901 H   0  0  0  0  0  0  0  0  0  0  0  0
   -0.3037    0.7742   -0.9484 N   0  0  0  0  0  0  0  0  0  0  0  0
   -0.4352   -0.6095   -0.5718 C   0  0  2  0  0  0  0  0  0  0  0  0
    0.9247   -1.1264   -0.1142 C   0  0  0  0  0  0  0  0  0  0  0  0
    1.5165   -2.0454   -0.6769 O   0  0  0  0  0  0  0  0  0  0  0  0
   -1.0461   -1.4541   -1.6963 C   0  0  0  0  0  0  0  0  0  0  0  0
   -2.5166   -1.1321   -1.9930 C   0  0  0  0  0  0  0  0  0  0  0  0
   -3.0647   -2.0281   -3.1061 C   0  0  0  0  0  0  0  0  0  0  0  0
   -4.5157   -1.6895   -3.4145 C   0  0  0  0  0  0  0  0  0  0  0  0
   -4.9959   -2.5633   -4.5119 N   0  3  0  0  0  0  0  0  0  0  0  0
   -0.6336    1.4811   -0.2948 H   0  0  0  0  0  0  0  0  0  0  0  0
   -1.1105   -0.6223    0.2922 H   0  0  0  0  0  0  0  0  0  0  0  0
   -0.4592   -1.3020   -2.6114 H   0  0  0  0  0  0  0  0  0  0  0  0
   -0.9609   -2.5176   -1.4411 H   0  0  0  0  0  0  0  0  0  0  0  0
   -3.1203   -1.2720   -1.0887 H   0  0  0  0  0  0  0  0  0  0  0  0
   -2.6176   -0.0823   -2.2922 H   0  0  0  0  0  0  0  0  0  0  0  0
   -2.9846   -3.0798   -2.8040 H   0  0  0  0  0  0  0  0  0  0  0  0
   -2.4546   -1.9061   -4.0097 H   0  0  0  0  0  0  0  0  0  0  0  0
   -5.1700   -1.8693   -2.5563 H   0  0  0  0  0  0  0  0  0  0  0  0
   -4.6321   -0.6569   -3.7568 H   0  0  0  0  0  0  0  0  0  0  0  0
   -5.8245   -2.1628   -4.9652 H   0  0  0  0  0  0  0  0  0  0  0  0
   -5.2484   -3.4925   -4.1577 H   0  0  0  0  0  0  0  0  0  0  0  0
   -4.2719   -2.6848   -5.2287 H   0  0  0  0  0  0  0  0  0  0  0  0
    1.4163   -0.4211    0.9749 N   0  0  0  0  0  0  0  0  0  0  0  0
    2.6959   -0.7212    1.5717 C   0  0  2  0  0  0  0  0  0  0  0  0
    2.7730    0.0043    2.9086 C   0  0  0  0  0  0  0  0  0  0  0  0
    2.0922    0.9924    3.1758 O   0  0  0  0  0  0  0  0  0  0  0  0
    3.8417   -0.3071    0.6617 C   0  0  0  0  0  0  0  0  0  0  0  0
    0.8570    0.3316    1.3652 H   0  0  0  0  0  0  0  0  0  0  0  0
    2.7200   -1.8033    1.7408 H   0  0  0  0  0  0  0  0  0  0  0  0
    3.8340    0.7740    0.4807 H   0  0  0  0  0  0  0  0  0  0  0  0
    4.8109   -0.5613    1.1033 H   0  0  0  0  0  0  0  0  0  0  0  0
    3.7680   -0.8072   -0.3101 H   0  0  0  0  0  0  0  0  0  0  0  0
    3.7224   -0.5553    3.7521 N   0  0  0  0  0  0  0  0  0  0  0  0
    3.9931   -0.0383    5.0732 C   0  0  0  0  0  0  0  0  0  0  0  0
    4.2273   -1.3853    3.4553 H   0  0  0  0  0  0  0  0  0  0  0  0
    4.8155    0.6904    5.0210 H   0  0  0  0  0  0  0  0  0  0  0  0
    3.0914    0.4542    5.4659 H   0  0  0  0  0  0  0  0  0  0  0  0
    4.2785   -0.8659    5.7393 H   0  0  0  0  0  0  0  0  0  0  0  0
  1  3  1  0  0  0  0
  1  7  1  0  0  0  0
  1  2  2  0  0  0  0
 40 41  1  0  0  0  0
 41 49  1  0  0  0  0
 41 42  2  0  0  0  0
  8  9  1  0  0  0  0
  9 17  1  0  0  0  0
  9 10  2  0  0  0  0
 18 19  1  0  0  0  0
 19 39  1  0  0  0  0
 19 20  2  0  0  0  0
 40 43  1  0  0  0  0
  8 11  1  0  0  0  0
 49 50  1  0  0  0  0
 22 23  1  0  0  0  0
 21 22  1  0  0  0  0
 23 24  1  0  0  0  0
 18 21  1  0  0  0  0
 24 25  1  0  0  0  0
 39 40  1  0  0  0  0
  7  8  1  0  0  0  0
 17 18  1  0  0  0  0
  3  4  1  0  0  0  0
  3  5  1  0  0  0  0
  3  6  1  0  0  0  0
 43 46  1  0  0  0  0
 43 47  1  0  0  0  0
 43 48  1  0  0  0  0
 11 14  1  0  0  0  0
 11 15  1  0  0  0  0
 11 16  1  0  0  0  0
 50 52  1  0  0  0  0
 50 53  1  0  0  0  0
 50 54  1  0  0  0  0
 22 30  1  0  0  0  0
 22 31  1  0  0  0  0
 23 32  1  0  0  0  0
 23 33  1  0  0  0  0
 21 28  1  0  0  0  0
 21 29  1  0  0  0  0
 24 34  1  0  0  0  0
 24 35  1  0  0  0  0
 40 45  1  0  0  0  0
  8 13  1  0  0  0  0
 18 27  1  0  0  0  0
 49 51  1  0  0  0  0
  7 12  1  0  0  0  0
 39 44  1  0  0  0  0
 17 26  1  0  0  0  0
 25 36  1  0  0  0  0
 25 37  1  0  0  0  0
 25 38  1  0  0  0  0
M  CHG  1  25   1
M  END
$$$$

  -OEChem-05262214473D

 54 53  0     1  0  0  0  0  0999 V2000
    2.6714    2.8829   -3.0005 C   0  0  0  0  0  0  0  0  0  0  0  0
    3.1741    2.4398   -1.9745 O   0  0  0  0  0  0  0  0  0  0  0  0
    3.5527    3.3077   -4.1279 C   0  0  0  0  0  0  0  0  0  0  0  0
    3.8407    4.3691   -4.0597 H   0  0  0  0  0  0  0  0  0  0  0  0
    4.5024    2.7495   -4.1526 H   0  0  0  0  0  0  0  0  0  0  0  0
    3.1208    3.1887   -5.1345 H   0  0  0  0  0  0  0  0  0  0  0  0
    1.3174    3.0407   -3.2467 N   0  0  0  0  0  0  0  0  0  0  0  0
    0.2944    2.6927   -2.2960 C   0  0  2  0  0  0  0  0  0  0  0  0
    0.2976    1.1783   -2.1349 C   0  0  0  0  0  0  0  0  0  0  0  0
    0.7500    0.4142   -2.9850 O   0  0  0  0  0  0  0  0  0  0  0  0
   -1.0710    3.1886   -2.7460 C   0  0  0  0  0  0  0  0  0  0  0  0
    1.0312    3.4224   -4.1464 H   0  0  0  0  0  0  0  0  0  0  0  0
    0.5725    3.1622   -1.3461 H   0  0  0  0  0  0  0  0  0  0  0  0
   -1.3666    2.7292   -3.6963 H   0  0  0  0  0  0  0  0  0  0  0  0
   -1.8434    2.9482   -2.0082 H   0  0  0  0  0  0  0  0  0  0  0  0
   -1.0632    4.2744   -2.8901 H   0  0  0  0  0  0  0  0  0  0  0  0
   -0.3037    0.7742   -0.9484 N   0  0  0  0  0  0  0  0  0  0  0  0
   -0.4352   -0.6095   -0.5718 C   0  0  2  0  0  0  0  0  0  0  0  0
    0.9247   -1.1264   -0.1142 C   0  0  0  0  0  0  0  0  0  0  0  0
    1.6374   -1.8460   -0.8111 O   0  0  0  0  0  0  0  0  0  0  0  0
   -1.0461   -1.4541   -1.6963 C   0  0  0  0  0  0  0  0  0  0  0  0
   -2.5166   -1.1321   -1.9930 C   0  0  0  0  0  0  0  0  0  0  0  0
   -3.0647   -2.0281   -3.1061 C   0  0  0  0  0  0  0  0  0  0  0  0
   -4.5157   -1.6895   -3.4145 C   0  0  0  0  0  0  0  0  0  0  0  0
   -4.9959   -2.5633   -4.5119 N   0  3  0  0  0  0  0  0  0  0  0  0
   -0.6336    1.4811   -0.2948 H   0  0  0  0  0  0  0  0  0  0  0  0
   -1.1105   -0.6223    0.2922 H   0  0  0  0  0  0  0  0  0  0  0  0
   -0.4592   -1.3020   -2.6114 H   0  0  0  0  0  0  0  0  0  0  0  0
   -0.9609   -2.5176   -1.4411 H   0  0  0  0  0  0  0  0  0  0  0  0
   -3.1203   -1.2720   -1.0887 H   0  0  0  0  0  0  0  0  0  0  0  0
   -2.6176   -0.0823   -2.2922 H   0  0  0  0  0  0  0  0  0  0  0  0
   -2.9846   -3.0798   -2.8040 H   0  0  0  0  0  0  0  0  0  0  0  0
   -2.4546   -1.9061   -4.0097 H   0  0  0  0  0  0  0  0  0  0  0  0
   -5.1700   -1.8693   -2.5563 H   0  0  0  0  0  0  0  0  0  0  0  0
   -4.6321   -0.6569   -3.7568 H   0  0  0  0  0  0  0  0  0  0  0  0
   -5.8245   -2.1628   -4.9652 H   0  0  0  0  0  0  0  0  0  0  0  0
   -5.2484   -3.4925   -4.1577 H   0  0  0  0  0  0  0  0  0  0  0  0
   -4.2719   -2.6848   -5.2287 H   0  0  0  0  0  0  0  0  0  0  0  0
    1.2652   -0.6643    1.1490 N   0  0  0  0  0  0  0  0  0  0  0  0
    2.5153   -1.0090    1.7831 C   0  0  2  0  0  0  0  0  0  0  0  0
    2.4230   -0.6134    3.2509 C   0  0  0  0  0  0  0  0  0  0  0  0
    1.6391    0.2364    3.6685 O   0  0  0  0  0  0  0  0  0  0  0  0
    3.6883   -0.3170    1.1063 C   0  0  0  0  0  0  0  0  0  0  0  0
    0.6130   -0.0635    1.6441 H   0  0  0  0  0  0  0  0  0  0  0  0
    2.6212   -2.0964    1.7033 H   0  0  0  0  0  0  0  0  0  0  0  0
    3.5997    0.7733    1.1760 H   0  0  0  0  0  0  0  0  0  0  0  0
    4.6384   -0.6017    1.5703 H   0  0  0  0  0  0  0  0  0  0  0  0
    3.7354   -0.5794    0.0439 H   0  0  0  0  0  0  0  0  0  0  0  0
    3.3488   -1.2897    4.0329 N   0  0  0  0  0  0  0  0  0  0  0  0
    3.4683   -1.0795    5.4568 C   0  0  0  0  0  0  0  0  0  0  0  0
    3.9465   -1.9911    3.6056 H   0  0  0  0  0  0  0  0  0  0  0  0
    4.2249   -0.3052    5.6515 H   0  0  0  0  0  0  0  0  0  0  0  0
    2.4986   -0.7546    5.8620 H   0  0  0  0  0  0  0  0  0  0  0  0
    3.7720   -2.0190    5.9418 H   0  0  0  0  0  0  0  0  0  0  0  0
  1  3  1  0  0  0  0
  1  7  1  0  0  0  0
  1  2  2  0  0  0  0
 40 41  1  0  0  0  0
 41 49  1  0  0  0  0
 41 42  2  0  0  0  0
  8  9  1  0  0  0  0
  9 17  1  0  0  0  0
  9 10  2  0  0  0  0
 18 19  1  0  0  0  0
 19 39  1  0  0  0  0
 19 20  2  0  0  0  0
 40 43  1  0  0  0  0
  8 11  1  0  0  0  0
 49 50  1  0  0  0  0
 22 23  1  0  0  0  0
 21 22  1  0  0  0  0
 23 24  1  0  0  0  0
 18 21  1  0  0  0  0
 24 25  1  0  0  0  0
 39 40  1  0  0  0  0
  7  8  1  0  0  0  0
 17 18  1  0  0  0  0
  3  4  1  0  0  0  0
  3  5  1  0  0  0  0
  3  6  1  0  0  0  0
 43 46  1  0  0  0  0
 43 47  1  0  0  0  0
 43 48  1  0  0  0  0
 11 14  1  0  0  0  0
 11 15  1  0  0  0  0
 11 16  1  0  0  0  0
 50 52  1  0  0  0  0
 50 53  1  0  0  0  0
 50 54  1  0  0  0  0
 22 30  1  0  0  0  0
 22 31  1  0  0  0  0
 23 32  1  0  0  0  0
 23 33  1  0  0  0  0
 21 28  1  0  0  0  0
 21 29  1  0  0  0  0
 24 34  1  0  0  0  0
 24 35  1  0  0  0  0
 40 45  1  0  0  0  0
  8 13  1  0  0  0  0
 18 27  1  0  0  0  0
 49 51  1  0  0  0  0
  7 12  1  0  0  0  0
 39 44  1  0  0  0  0
 17 26  1  0  0  0  0
 25 36  1  0  0  0  0
 25 37  1  0  0  0  0
 25 38  1  0  0  0  0
M  CHG  1  25   1
M  END
$$$$

  -OEChem-05262214473D

 54 53  0     1  0  0  0  0  0999 V2000
    2.6714    2.8829   -3.0005 C   0  0  0  0  0  0  0  0  0  0  0  0
    3.1741    2.4398   -1.9745 O   0  0  0  0  0  0  0  0  0  0  0  0
    3.5527    3.3077   -4.1279 C   0  0  0  0  0  0  0  0  0  0  0  0
    3.8407    4.3691   -4.0597 H   0  0  0  0  0  0  0  0  0  0  0  0
    4.5024    2.7495   -4.1526 H   0  0  0  0  0  0  0  0  0  0  0  0
    3.1208    3.1887   -5.1345 H   0  0  0  0  0  0  0  0  0  0  0  0
    1.3174    3.0407   -3.2467 N   0  0  0  0  0  0  0  0  0  0  0  0
    0.2944    2.6927   -2.2960 C   0  0  2  0  0  0  0  0  0  0  0  0
    0.2976    1.1783   -2.1349 C   0  0  0  0  0  0  0  0  0  0  0  0
    0.7500    0.4142   -2.9850 O   0  0  0  0  0  0  0  0  0  0  0  0
   -1.0710    3.1886   -2.7460 C   0  0  0  0  0  0  0  0  0  0  0  0
    1.0312    3.4224   -4.1464 H   0  0  0  0  0  0  0  0  0  0  0  0
    0.5725    3.1622   -1.3461 H   0  0  0  0  0  0  0  0  0  0  0  0
   -1.3666    2.7292   -3.6963 H   0  0  0  0  0  0  0  0  0  0  0  0
   -1.8434    2.9482   -2.0082 H   0  0  0  0  0  0  0  0  0  0  0  0
   -1.0632    4.2744   -2.8901 H   0  0  0  0  0  0  0  0  0  0  0  0
   -0.3037    0.7742   -0.9484 N   0  0  0  0  0  0  0  0  0  0  0  0
   -0.4352   -0.6095   -0.5718 C   0  0  2  0  0  0  0  0  0  0  0  0
    0.9247   -1.1264   -0.1142 C   0  0  0  0  0  0  0  0  0  0  0  0
    1.7505   -1.6131   -0.8840 O   0  0  0  0  0  0  0  0  0  0  0  0
   -1.0461   -1.4541   -1.6963 C   0  0  0  0  0  0  0  0  0  0  0  0
   -2.5166   -1.1321   -1.9930 C   0  0  0  0  0  0  0  0  0  0  0  0
   -3.0647   -2.0281   -3.1061 C   0  0  0  0  0  0  0  0  0  0  0  0
   -4.5157   -1.6895   -3.4145 C   0  0  0  0  0  0  0  0  0  0  0  0
   -4.9959   -2.5633   -4.5119 N   0  3  0  0  0  0  0  0  0  0  0  0
   -0.6336    1.4811   -0.2948 H   0  0  0  0  0  0  0  0  0  0  0  0
   -1.1105   -0.6223    0.2922 H   0  0  0  0  0  0  0  0  0  0  0  0
   -0.4592   -1.3020   -2.6114 H   0  0  0  0  0  0  0  0  0  0  0  0
   -0.9609   -2.5176   -1.4411 H   0  0  0  0  0  0  0  0  0  0  0  0
   -3.1203   -1.2720   -1.0887 H   0  0  0  0  0  0  0  0  0  0  0  0
   -2.6176   -0.0823   -2.2922 H   0  0  0  0  0  0  0  0  0  0  0  0
   -2.9846   -3.0798   -2.8040 H   0  0  0  0  0  0  0  0  0  0  0  0
   -2.4546   -1.9061   -4.0097 H   0  0  0  0  0  0  0  0  0  0  0  0
   -5.1700   -1.8693   -2.5563 H   0  0  0  0  0  0  0  0  0  0  0  0
   -4.6321   -0.6569   -3.7568 H   0  0  0  0  0  0  0  0  0  0  0  0
   -5.8245   -2.1628   -4.9652 H   0  0  0  0  0  0  0  0  0  0  0  0
   -5.2484   -3.4925   -4.1577 H   0  0  0  0  0  0  0  0  0  0  0  0
   -4.2719   -2.6848   -5.2287 H   0  0  0  0  0  0  0  0  0  0  0  0
    1.1229   -0.9512    1.2478 N   0  0  0  0  0  0  0  0  0  0  0  0
    2.3448   -1.3498    1.9049 C   0  0  2  0  0  0  0  0  0  0  0  0
    2.1029   -1.3161    3.4082 C   0  0  0  0  0  0  0  0  0  0  0  0
    1.2169   -0.6426    3.9302 O   0  0  0  0  0  0  0  0  0  0  0  0
    3.5019   -0.4411    1.5201 C   0  0  0  0  0  0  0  0  0  0  0  0
    0.3835   -0.5284    1.8011 H   0  0  0  0  0  0  0  0  0  0  0  0
    2.5518   -2.3786    1.5907 H   0  0  0  0  0  0  0  0  0  0  0  0
    3.3126    0.5940    1.8269 H   0  0  0  0  0  0  0  0  0  0  0  0
    4.4339   -0.7619    1.9969 H   0  0  0  0  0  0  0  0  0  0  0  0
    3.6553   -0.4435    0.4355 H   0  0  0  0  0  0  0  0  0  0  0  0
    3.0203   -2.0930    4.1019 N   0  0  0  0  0  0  0  0  0  0  0  0
    3.0085   -2.2146    5.5410 C   0  0  0  0  0  0  0  0  0  0  0  0
    3.7091   -2.6328    3.5863 H   0  0  0  0  0  0  0  0  0  0  0  0
    3.6764   -1.4582    5.9789 H   0  0  0  0  0  0  0  0  0  0  0  0
    1.9852   -2.0597    5.9136 H   0  0  0  0  0  0  0  0  0  0  0  0
    3.3547   -3.2188    5.8269 H   0  0  0  0  0  0  0  0  0  0  0  0
  1  3  1  0  0  0  0
  1  7  1  0  0  0  0
  1  2  2  0  0  0  0
 40 41  1  0  0  0  0
 41 49  1  0  0  0  0
 41 42  2  0  0  0  0
  8  9  1  0  0  0  0
  9 17  1  0  0  0  0
  9 10  2  0  0  0  0
 18 19  1  0  0  0  0
 19 39  1  0  0  0  0
 19 20  2  0  0  0  0
 40 43  1  0  0  0  0
  8 11  1  0  0  0  0
 49 50  1  0  0  0  0
 22 23  1  0  0  0  0
 21 22  1  0  0  0  0
 23 24  1  0  0  0  0
 18 21  1  0  0  0  0
 24 25  1  0  0  0  0
 39 40  1  0  0  0  0
  7  8  1  0  0  0  0
 17 18  1  0  0  0  0
  3  4  1  0  0  0  0
  3  5  1  0  0  0  0
  3  6  1  0  0  0  0
 43 46  1  0  0  0  0
 43 47  1  0  0  0  0
 43 48  1  0  0  0  0
 11 14  1  0  0  0  0
 11 15  1  0  0  0  0
 11 16  1  0  0  0  0
 50 52  1  0  0  0  0
 50 53  1  0  0  0  0
 50 54  1  0  0  0  0
 22 30  1  0  0  0  0
 22 31  1  0  0  0  0
 23 32  1  0  0  0  0
 23 33  1  0  0  0  0
 21 28  1  0  0  0  0
 21 29  1  0  0  0  0
 24 34  1  0  0  0  0
 24 35  1  0  0  0  0
 40 45  1  0  0  0  0
  8 13  1  0  0  0  0
 18 27  1  0  0  0  0
 49 51  1  0  0  0  0
  7 12  1  0  0  0  0
 39 44  1  0  0  0  0
 17 26  1  0  0  0  0
 25 36  1  0  0  0  0
 25 37  1  0  0  0  0
 25 38  1  0  0  0  0
M  CHG  1  25   1
M  END
$$$$

  -OEChem-05262214473D

 54 53  0     1  0  0  0  0  0999 V2000
    2.6714    2.8829   -3.0005 C   0  0  0  0  0  0  0  0  0  0  0  0
    3.1741    2.4398   -1.9745 O   0  0  0  0  0  0  0  0  0  0  0  0
    3.5527    3.3077   -4.1279 C   0  0  0  0  0  0  0  0  0  0  0  0
    3.8407    4.3691   -4.0597 H   0  0  0  0  0  0  0  0  0  0  0  0
    4.5024    2.7495   -4.1526 H   0  0  0  0  0  0  0  0  0  0  0  0
    3.1208    3.1887   -5.1345 H   0  0  0  0  0  0  0  0  0  0  0  0
    1.3174    3.0407   -3.2467 N   0  0  0  0  0  0  0  0  0  0  0  0
    0.2944    2.6927   -2.2960 C   0  0  2  0  0  0  0  0  0  0  0  0
    0.2976    1.1783   -2.1349 C   0  0  0  0  0  0  0  0  0  0  0  0
    0.7500    0.4142   -2.9850 O   0  0  0  0  0  0  0  0  0  0  0  0
   -1.0710    3.1886   -2.7460 C   0  0  0  0  0  0  0  0  0  0  0  0
    1.0312    3.4224   -4.1464 H   0  0  0  0  0  0  0  0  0  0  0  0
    0.5725    3.1622   -1.3461 H   0  0  0  0  0  0  0  0  0  0  0  0
   -1.3666    2.7292   -3.6963 H   0  0  0  0  0  0  0  0  0  0  0  0
   -1.8434    2.9482   -2.0082 H   0  0  0  0  0  0  0  0  0  0  0  0
   -1.0632    4.2744   -2.8901 H   0  0  0  0  0  0  0  0  0  0  0  0
   -0.3037    0.7742   -0.9484 N   0  0  0  0  0  0  0  0  0  0  0  0
   -0.4352   -0.6095   -0.5718 C   0  0  2  0  0  0  0  0  0  0  0  0
    0.9247   -1.1264   -0.1142 C   0  0  0  0  0  0  0  0  0  0  0  0
    1.8481   -1.3624   -0.8908 O   0  0  0  0  0  0  0  0  0  0  0  0
   -1.0461   -1.4541   -1.6963 C   0  0  0  0  0  0  0  0  0  0  0  0
   -2.5166   -1.1321   -1.9930 C   0  0  0  0  0  0  0  0  0  0  0  0
   -3.0647   -2.0281   -3.1061 C   0  0  0  0  0  0  0  0  0  0  0  0
   -4.5157   -1.6895   -3.4145 C   0  0  0  0  0  0  0  0  0  0  0  0
   -4.9959   -2.5633   -4.5119 N   0  3  0  0  0  0  0  0  0  0  0  0
   -0.6336    1.4811   -0.2948 H   0  0  0  0  0  0  0  0  0  0  0  0
   -1.1105   -0.6223    0.2922 H   0  0  0  0  0  0  0  0  0  0  0  0
   -0.4592   -1.3020   -2.6114 H   0  0  0  0  0  0  0  0  0  0  0  0
   -0.9609   -2.5176   -1.4411 H   0  0  0  0  0  0  0  0  0  0  0  0
   -3.1203   -1.2720   -1.0887 H   0  0  0  0  0  0  0  0  0  0  0  0
   -2.6176   -0.0823   -2.2922 H   0  0  0  0  0  0  0  0  0  0  0  0
   -2.9846   -3.0798   -2.8040 H   0  0  0  0  0  0  0  0  0  0  0  0
   -2.4546   -1.9061   -4.0097 H   0  0  0  0  0  0  0  0  0  0  0  0
   -5.1700   -1.8693   -2.5563 H   0  0  0  0  0  0  0  0  0  0  0  0
   -4.6321   -0.6569   -3.7568 H   0  0  0  0  0  0  0  0  0  0  0  0
   -5.8245   -2.1628   -4.9652 H   0  0  0  0  0  0  0  0  0  0  0  0
   -5.2484   -3.4925   -4.1577 H   0  0  0  0  0  0  0  0  0  0  0  0
   -4.2719   -2.6848   -5.2287 H   0  0  0  0  0  0  0  0  0  0  0  0
    0.9991   -1.2622    1.2646 N   0  0  0  0  0  0  0  0  0  0  0  0
    2.1958   -1.7204    1.9291 C   0  0  2  0  0  0  0  0  0  0  0  0
    1.8346   -2.0562    3.3700 C   0  0  0  0  0  0  0  0  0  0  0  0
    0.8545   -1.5849    3.9430 O   0  0  0  0  0  0  0  0  0  0  0  0
    3.2951   -0.6710    1.8747 C   0  0  0  0  0  0  0  0  0  0  0  0
    0.1841   -1.0316    1.8252 H   0  0  0  0  0  0  0  0  0  0  0  0
    2.5166   -2.6306    1.4107 H   0  0  0  0  0  0  0  0  0  0  0  0
    2.9920    0.2483    2.3890 H   0  0  0  0  0  0  0  0  0  0  0  0
    4.2114   -1.0310    2.3541 H   0  0  0  0  0  0  0  0  0  0  0  0
    3.5329   -0.4089    0.8381 H   0  0  0  0  0  0  0  0  0  0  0  0
    2.7593   -2.9102    3.9544 N   0  0  0  0  0  0  0  0  0  0  0  0
    2.6452   -3.3661    5.3201 C   0  0  0  0  0  0  0  0  0  0  0  0
    3.5313   -3.2666    3.3987 H   0  0  0  0  0  0  0  0  0  0  0  0
    3.2075   -2.6901    5.9811 H   0  0  0  0  0  0  0  0  0  0  0  0
    1.5861   -3.3721    5.6173 H   0  0  0  0  0  0  0  0  0  0  0  0
    3.0548   -4.3837    5.4023 H   0  0  0  0  0  0  0  0  0  0  0  0
  1  3  1  0  0  0  0
  1  7  1  0  0  0  0
  1  2  2  0  0  0  0
 40 41  1  0  0  0  0
 41 49  1  0  0  0  0
 41 42  2  0  0  0  0
  8  9  1  0  0  0  0
  9 17  1  0  0  0  0
  9 10  2  0  0  0  0
 18 19  1  0  0  0  0
 19 39  1  0  0  0  0
 19 20  2  0  0  0  0
 40 43  1  0  0  0  0
  8 11  1  0  0  0  0
 49 50  1  0  0  0  0
 22 23  1  0  0  0  0
 21 22  1  0  0  0  0
 23 24  1  0  0  0  0
 18 21  1  0  0  0  0
 24 25  1  0  0  0  0
 39 40  1  0  0  0  0
  7  8  1  0  0  0  0
 17 18  1  0  0  0  0
  3  4  1  0  0  0  0
  3  5  1  0  0  0  0
  3  6  1  0  0  0  0
 43 46  1  0  0  0  0
 43 47  1  0  0  0  0
 43 48  1  0  0  0  0
 11 14  1  0  0  0  0
 11 15  1  0  0  0  0
 11 16  1  0  0  0  0
 50 52  1  0  0  0  0
 50 53  1  0  0  0  0
 50 54  1  0  0  0  0
 22 30  1  0  0  0  0
 22 31  1  0  0  0  0
 23 32  1  0  0  0  0
 23 33  1  0  0  0  0
 21 28  1  0  0  0  0
 21 29  1  0  0  0  0
 24 34  1  0  0  0  0
 24 35  1  0  0  0  0
 40 45  1  0  0  0  0
  8 13  1  0  0  0  0
 18 27  1  0  0  0  0
 49 51  1  0  0  0  0
  7 12  1  0  0  0  0
 39 44  1  0  0  0  0
 17 26  1  0  0  0  0
 25 36  1  0  0  0  0
 25 37  1  0  0  0  0
 25 38  1  0  0  0  0
M  CHG  1  25   1
M  END
$$$$

  -OEChem-05262214473D

 54 53  0     1  0  0  0  0  0999 V2000
    2.6714    2.8829   -3.0005 C   0  0  0  0  0  0  0  0  0  0  0  0
    3.1741    2.4398   -1.9745 O   0  0  0  0  0  0  0  0  0  0  0  0
    3.5527    3.3077   -4.1279 C   0  0  0  0  0  0  0  0  0  0  0  0
    3.8407    4.3691   -4.0597 H   0  0  0  0  0  0  0  0  0  0  0  0
    4.5024    2.7495   -4.1526 H   0  0  0  0  0  0  0  0  0  0  0  0
    3.1208    3.1887   -5.1345 H   0  0  0  0  0  0  0  0  0  0  0  0
    1.3174    3.0407   -3.2467 N   0  0  0  0  0  0  0  0  0  0  0  0
    0.2944    2.6927   -2.2960 C   0  0  2  0  0  0  0  0  0  0  0  0
    0.2976    1.1783   -2.1349 C   0  0  0  0  0  0  0  0  0  0  0  0
    0.7500    0.4142   -2.9850 O   0  0  0  0  0  0  0  0  0  0  0  0
   -1.0710    3.1886   -2.7460 C   0  0  0  0  0  0  0  0  0  0  0  0
    1.0312    3.4224   -4.1464 H   0  0  0  0  0  0  0  0  0  0  0  0
    0.5725    3.1622   -1.3461 H   0  0  0  0  0  0  0  0  0  0  0  0
   -1.3666    2.7292   -3.6963 H   0  0  0  0  0  0  0  0  0  0  0  0
   -1.8434    2.9482   -2.0082 H   0  0  0  0  0  0  0  0  0  0  0  0
   -1.0632    4.2744   -2.8901 H   0  0  0  0  0  0  0  0  0  0  0  0
   -0.3037    0.7742   -0.9484 N   0  0  0  0  0  0  0  0  0  0  0  0
   -0.4352   -0.6095   -0.5718 C   0  0  2  0  0  0  0  0  0  0  0  0
    0.9247   -1.1264   -0.1142 C   0  0  0  0  0  0  0  0  0  0  0  0
    1.9235   -1.1111   -0.8310 O   0  0  0  0  0  0  0  0  0  0  0  0
   -1.0461   -1.4541   -1.6963 C   0  0  0  0  0  0  0  0  0  0  0  0
   -2.5166   -1.1321   -1.9930 C   0  0  0  0  0  0  0  0  0  0  0  0
   -3.0647   -2.0281   -3.1061 C   0  0  0  0  0  0  0  0  0  0  0  0
   -4.5157   -1.6895   -3.4145 C   0  0  0  0  0  0  0  0  0  0  0  0
   -4.9959   -2.5633   -4.5119 N   0  3  0  0  0  0  0  0  0  0  0  0
   -0.6336    1.4811   -0.2948 H   0  0  0  0  0  0  0  0  0  0  0  0
   -1.1105   -0.6223    0.2922 H   0  0  0  0  0  0  0  0  0  0  0  0
   -0.4592   -1.3020   -2.6114 H   0  0  0  0  0  0  0  0  0  0  0  0
   -0.9609   -2.5176   -1.4411 H   0  0  0  0  0  0  0  0  0  0  0  0
   -3.1203   -1.2720   -1.0887 H   0  0  0  0  0  0  0  0  0  0  0  0
   -2.6176   -0.0823   -2.2922 H   0  0  0  0  0  0  0  0  0  0  0  0
   -2.9846   -3.0798   -2.8040 H   0  0  0  0  0  0  0  0  0  0  0  0
   -2.4546   -1.9061   -4.0097 H   0  0  0  0  0  0  0  0  0  0  0  0
   -5.1700   -1.8693   -2.5563 H   0  0  0  0  0  0  0  0  0  0  0  0
   -4.6321   -0.6569   -3.7568 H   0  0  0  0  0  0  0  0  0  0  0  0
   -5.8245   -2.1628   -4.9652 H   0  0  0  0  0  0  0  0  0  0  0  0
   -5.2484   -3.4925   -4.1577 H   0  0  0  0  0  0  0  0  0  0  0  0
   -4.2719   -2.6848   -5.2287 H   0  0  0  0  0  0  0  0  0  0  0  0
    0.9021   -1.5761    1.1982 N   0  0  0  0  0  0  0  0  0  0  0  0
    2.0786   -2.0955    1.8538 C   0  0  2  0  0  0  0  0  0  0  0  0
    1.6361   -2.7830    3.1387 C   0  0  0  0  0  0  0  0  0  0  0  0
    0.5764   -2.5262    3.7062 O   0  0  0  0  0  0  0  0  0  0  0  0
    3.0822   -0.9909    2.1461 C   0  0  0  0  0  0  0  0  0  0  0  0
    0.0285   -1.5386    1.7149 H   0  0  0  0  0  0  0  0  0  0  0  0
    2.5179   -2.8352    1.1757 H   0  0  0  0  0  0  0  0  0  0  0  0
    2.6599   -0.2402    2.8240 H   0  0  0  0  0  0  0  0  0  0  0  0
    3.9861   -1.3907    2.6175 H   0  0  0  0  0  0  0  0  0  0  0  0
    3.3768   -0.4779    1.2242 H   0  0  0  0  0  0  0  0  0  0  0  0
    2.5836   -3.6859    3.6004 N   0  0  0  0  0  0  0  0  0  0  0  0
    2.4031   -4.4556    4.8091 C   0  0  0  0  0  0  0  0  0  0  0  0
    3.4252   -3.8493    3.0557 H   0  0  0  0  0  0  0  0  0  0  0  0
    2.8500   -3.9170    5.6576 H   0  0  0  0  0  0  0  0  0  0  0  0
    1.3285   -4.6024    4.9931 H   0  0  0  0  0  0  0  0  0  0  0  0
    2.8929   -5.4341    4.6971 H   0  0  0  0  0  0  0  0  0  0  0  0
  1  3  1  0  0  0  0
  1  7  1  0  0  0  0
  1  2  2  0  0  0  0
 40 41  1  0  0  0  0
 41 49  1  0  0  0  0
 41 42  2  0  0  0  0
  8  9  1  0  0  0  0
  9 17  1  0  0  0  0
  9 10  2  0  0  0  0
 18 19  1  0  0  0  0
 19 39  1  0  0  0  0
 19 20  2  0  0  0  0
 40 43  1  0  0  0  0
  8 11  1  0  0  0  0
 49 50  1  0  0  0  0
 22 23  1  0  0  0  0
 21 22  1  0  0  0  0
 23 24  1  0  0  0  0
 18 21  1  0  0  0  0
 24 25  1  0  0  0  0
 39 40  1  0  0  0  0
  7  8  1  0  0  0  0
 17 18  1  0  0  0  0
  3  4  1  0  0  0  0
  3  5  1  0  0  0  0
  3  6  1  0  0  0  0
 43 46  1  0  0  0  0
 43 47  1  0  0  0  0
 43 48  1  0  0  0  0
 11 14  1  0  0  0  0
 11 15  1  0  0  0  0
 11 16  1  0  0  0  0
 50 52  1  0  0  0  0
 50 53  1  0  0  0  0
 50 54  1  0  0  0  0
 22 30  1  0  0  0  0
 22 31  1  0  0  0  0
 23 32  1  0  0  0  0
 23 33  1  0  0  0  0
 21 28  1  0  0  0  0
 21 29  1  0  0  0  0
 24 34  1  0  0  0  0
 24 35  1  0  0  0  0
 40 45  1  0  0  0  0
  8 13  1  0  0  0  0
 18 27  1  0  0  0  0
 49 51  1  0  0  0  0
  7 12  1  0  0  0  0
 39 44  1  0  0  0  0
 17 26  1  0  0  0  0
 25 36  1  0  0  0  0
 25 37  1  0  0  0  0
 25 38  1  0  0  0  0
M  CHG  1  25   1
M  END
$$$$

  -OEChem-05262214473D

 54 53  0     1  0  0  0  0  0999 V2000
    2.6714    2.8829   -3.0005 C   0  0  0  0  0  0  0  0  0  0  0  0
    3.1741    2.4398   -1.9745 O   0  0  0  0  0  0  0  0  0  0  0  0
    3.5527    3.3077   -4.1279 C   0  0  0  0  0  0  0  0  0  0  0  0
    3.8407    4.3691   -4.0597 H   0  0  0  0  0  0  0  0  0  0  0  0
    4.5024    2.7495   -4.1526 H   0  0  0  0  0  0  0  0  0  0  0  0
    3.1208    3.1887   -5.1345 H   0  0  0  0  0  0  0  0  0  0  0  0
    1.3174    3.0407   -3.2467 N   0  0  0  0  0  0  0  0  0  0  0  0
    0.2944    2.6927   -2.2960 C   0  0  2  0  0  0  0  0  0  0  0  0
    0.2976    1.1783   -2.1349 C   0  0  0  0  0  0  0  0  0  0  0  0
    0.7500    0.4142   -2.9850 O   0  0  0  0  0  0  0  0  0  0  0  0
   -1.0710    3.1886   -2.7460 C   0  0  0  0  0  0  0  0  0  0  0  0
    1.0312    3.4224   -4.1464 H   0  0  0  0  0  0  0  0  0  0  0  0
    0.5725    3.1622   -1.3461 H   0  0  0  0  0  0  0  0  0  0  0  0
   -1.3666    2.7292   -3.6963 H   0  0  0  0  0  0  0  0  0  0  0  0
   -1.8434    2.9482   -2.0082 H   0  0  0  0  0  0  0  0  0  0  0  0
   -1.0632    4.2744   -2.8901 H   0  0  0  0  0  0  0  0  0  0  0  0
   -0.3037    0.7742   -0.9484 N   0  0  0  0  0  0  0  0  0  0  0  0
   -0.4352   -0.6095   -0.5718 C   0  0  2  0  0  0  0  0  0  0  0  0
    0.9247   -1.1264   -0.1142 C   0  0  0  0  0  0  0  0  0  0  0  0
    1.9715   -0.8764   -0.7086 O   0  0  0  0  0  0  0  0  0  0  0  0
   -1.0461   -1.4541   -1.6963 C   0  0  0  0  0  0  0  0  0  0  0  0
   -2.5166   -1.1321   -1.9930 C   0  0  0  0  0  0  0  0  0  0  0  0
   -3.0647   -2.0281   -3.1061 C   0  0  0  0  0  0  0  0  0  0  0  0
   -4.5157   -1.6895   -3.4145 C   0  0  0  0  0  0  0  0  0  0  0  0
   -4.9959   -2.5633   -4.5119 N   0  3  0  0  0  0  0  0  0  0  0  0
   -0.6336    1.4811   -0.2948 H   0  0  0  0  0  0  0  0  0  0  0  0
   -1.1105   -0.6223    0.2922 H   0  0  0  0  0  0  0  0  0  0  0  0
   -0.4592   -1.3020   -2.6114 H   0  0  0  0  0  0  0  0  0  0  0  0
   -0.9609   -2.5176   -1.4411 H   0  0  0  0  0  0  0  0  0  0  0  0
   -3.1203   -1.2720   -1.0887 H   0  0  0  0  0  0  0  0  0  0  0  0
   -2.6176   -0.0823   -2.2922 H   0  0  0  0  0  0  0  0  0  0  0  0
   -2.9846   -3.0798   -2.8040 H   0  0  0  0  0  0  0  0  0  0  0  0
   -2.4546   -1.9061   -4.0097 H   0  0  0  0  0  0  0  0  0  0  0  0
   -5.1700   -1.8693   -2.5563 H   0  0  0  0  0  0  0  0  0  0  0  0
   -4.6321   -0.6569   -3.7568 H   0  0  0  0  0  0  0  0  0  0  0  0
   -5.8245   -2.1628   -4.9652 H   0  0  0  0  0  0  0  0  0  0  0  0
   -5.2484   -3.4925   -4.1577 H   0  0  0  0  0  0  0  0  0  0  0  0
   -4.2719   -2.6848   -5.2287 H   0  0  0  0  0  0  0  0  0  0  0  0
    0.8387   -1.8715    1.0531 N   0  0  0  0  0  0  0  0  0  0  0  0
    2.0011   -2.4495    1.6842 C   0  0  2  0  0  0  0  0  0  0  0  0
    1.5212   -3.4471    2.7301 C   0  0  0  0  0  0  0  0  0  0  0  0
    0.4017   -3.4024    3.2358 O   0  0  0  0  0  0  0  0  0  0  0  0
    2.8776   -1.3791    2.3157 C   0  0  0  0  0  0  0  0  0  0  0  0
   -0.0727   -2.0150    1.4777 H   0  0  0  0  0  0  0  0  0  0  0  0
    2.5558   -2.9785    0.9015 H   0  0  0  0  0  0  0  0  0  0  0  0
    2.3389   -0.8383    3.1024 H   0  0  0  0  0  0  0  0  0  0  0  0
    3.7733   -1.8163    2.7692 H   0  0  0  0  0  0  0  0  0  0  0  0
    3.1974   -0.6458    1.5676 H   0  0  0  0  0  0  0  0  0  0  0  0
    2.5052   -4.3671    3.0640 N   0  0  0  0  0  0  0  0  0  0  0  0
    2.2986   -5.4089    4.0428 C   0  0  0  0  0  0  0  0  0  0  0  0
    3.3982   -4.3413    2.5806 H   0  0  0  0  0  0  0  0  0  0  0  0
    2.6284   -5.0551    5.0308 H   0  0  0  0  0  0  0  0  0  0  0  0
    1.2301   -5.6667    4.0837 H   0  0  0  0  0  0  0  0  0  0  0  0
    2.8799   -6.2987    3.7593 H   0  0  0  0  0  0  0  0  0  0  0  0
  1  3  1  0  0  0  0
  1  7  1  0  0  0  0
  1  2  2  0  0  0  0
 40 41  1  0  0  0  0
 41 49  1  0  0  0  0
 41 42  2  0  0  0  0
  8  9  1  0  0  0  0
  9 17  1  0  0  0  0
  9 10  2  0  0  0  0
 18 19  1  0  0  0  0
 19 39  1  0  0  0  0
 19 20  2  0  0  0  0
 40 43  1  0  0  0  0
  8 11  1  0  0  0  0
 49 50  1  0  0  0  0
 22 23  1  0  0  0  0
 21 22  1  0  0  0  0
 23 24  1  0  0  0  0
 18 21  1  0  0  0  0
 24 25  1  0  0  0  0
 39 40  1  0  0  0  0
  7  8  1  0  0  0  0
 17 18  1  0  0  0  0
  3  4  1  0  0  0  0
  3  5  1  0  0  0  0
  3  6  1  0  0  0  0
 43 46  1  0  0  0  0
 43 47  1  0  0  0  0
 43 48  1  0  0  0  0
 11 14  1  0  0  0  0
 11 15  1  0  0  0  0
 11 16  1  0  0  0  0
 50 52  1  0  0  0  0
 50 53  1  0  0  0  0
 50 54  1  0  0  0  0
 22 30  1  0  0  0  0
 22 31  1  0  0  0  0
 23 32  1  0  0  0  0
 23 33  1  0  0  0  0
 21 28  1  0  0  0  0
 21 29  1  0  0  0  0
 24 34  1  0  0  0  0
 24 35  1  0  0  0  0
 40 45  1  0  0  0  0
  8 13  1  0  0  0  0
 18 27  1  0  0  0  0
 49 51  1  0  0  0  0
  7 12  1  0  0  0  0
 39 44  1  0  0  0  0
 17 26  1  0  0  0  0
 25 36  1  0  0  0  0
 25 37  1  0  0  0  0
 25 38  1  0  0  0  0
M  CHG  1  25   1
M  END
$$$$

  -OEChem-05262214473D

 54 53  0     1  0  0  0  0  0999 V2000
    2.6714    2.8829   -3.0005 C   0  0  0  0  0  0  0  0  0  0  0  0
    3.1741    2.4398   -1.9745 O   0  0  0  0  0  0  0  0  0  0  0  0
    3.5527    3.3077   -4.1279 C   0  0  0  0  0  0  0  0  0  0  0  0
    3.8407    4.3691   -4.0597 H   0  0  0  0  0  0  0  0  0  0  0  0
    4.5024    2.7495   -4.1526 H   0  0  0  0  0  0  0  0  0  0  0  0
    3.1208    3.1887   -5.1345 H   0  0  0  0  0  0  0  0  0  0  0  0
    1.3174    3.0407   -3.2467 N   0  0  0  0  0  0  0  0  0  0  0  0
    0.2944    2.6927   -2.2960 C   0  0  2  0  0  0  0  0  0  0  0  0
    0.2976    1.1783   -2.1349 C   0  0  0  0  0  0  0  0  0  0  0  0
    0.7500    0.4142   -2.9850 O   0  0  0  0  0  0  0  0  0  0  0  0
   -1.0710    3.1886   -2.7460 C   0  0  0  0  0  0  0  0  0  0  0  0
    1.0312    3.4224   -4.1464 H   0  0  0  0  0  0  0  0  0  0  0  0
    0.5725    3.1622   -1.3461 H   0  0  0  0  0  0  0  0  0  0  0  0
   -1.3666    2.7292   -3.6963 H   0  0  0  0  0  0  0  0  0  0  0  0
   -1.8434    2.9482   -2.0082 H   0  0  0  0  0  0  0  0  0  0  0  0
   -1.0632    4.2744   -2.8901 H   0  0  0  0  0  0  0  0  0  0  0  0
   -0.3037    0.7742   -0.9484 N   0  0  0  0  0  0  0  0  0  0  0  0
   -0.4352   -0.6095   -0.5718 C   0  0  2  0  0  0  0  0  0  0  0  0
    0.9247   -1.1264   -0.1142 C   0  0  0  0  0  0  0  0  0  0  0  0
    1.9889   -0.6742   -0.5320 O   0  0  0  0  0  0  0  0  0  0  0  0
   -1.0461   -1.4541   -1.6963 C   0  0  0  0  0  0  0  0  0  0  0  0
   -2.5166   -1.1321   -1.9930 C   0  0  0  0  0  0  0  0  0  0  0  0
   -3.0647   -2.0281   -3.1061 C   0  0  0  0  0  0  0  0  0  0  0  0
   -4.5157   -1.6895   -3.4145 C   0  0  0  0  0  0  0  0  0  0  0  0
   -4.9959   -2.5633   -4.5119 N   0  3  0  0  0  0  0  0  0  0  0  0
   -0.6336    1.4811   -0.2948 H   0  0  0  0  0  0  0  0  0  0  0  0
   -1.1105   -0.6223    0.2922 H   0  0  0  0  0  0  0  0  0  0  0  0
   -0.4592   -1.3020   -2.6114 H   0  0  0  0  0  0  0  0  0  0  0  0
   -0.9609   -2.5176   -1.4411 H   0  0  0  0  0  0  0  0  0  0  0  0
   -3.1203   -1.2720   -1.0887 H   0  0  0  0  0  0  0  0  0  0  0  0
   -2.6176   -0.0823   -2.2922 H   0  0  0  0  0  0  0  0  0  0  0  0
   -2.9846   -3.0798   -2.8040 H   0  0  0  0  0  0  0  0  0  0  0  0
   -2.4546   -1.9061   -4.0097 H   0  0  0  0  0  0  0  0  0  0  0  0
   -5.1700   -1.8693   -2.5563 H   0  0  0  0  0  0  0  0  0  0  0  0
   -4.6321   -0.6569   -3.7568 H   0  0  0  0  0  0  0  0  0  0  0  0
   -5.8245   -2.1628   -4.9652 H   0  0  0  0  0  0  0  0  0  0  0  0
   -5.2484   -3.4925   -4.1577 H   0  0  0  0  0  0  0  0  0  0  0  0
   -4.2719   -2.6848   -5.2287 H   0  0  0  0  0  0  0  0  0  0  0  0
    0.8131   -2.1282    0.8392 N   0  0  0  0  0  0  0  0  0  0  0  0
    1.9687   -2.7583    1.4319 C   0  0  2  0  0  0  0  0  0  0  0  0
    1.4976   -4.0031    2.1722 C   0  0  0  0  0  0  0  0  0  0  0  0
    0.3422   -4.1537    2.5639 O   0  0  0  0  0  0  0  0  0  0  0  0
    2.6952   -1.8091    2.3721 C   0  0  0  0  0  0  0  0  0  0  0  0
   -0.1127   -2.4283    1.1297 H   0  0  0  0  0  0  0  0  0  0  0  0
    2.6275   -3.0506    0.6069 H   0  0  0  0  0  0  0  0  0  0  0  0
    2.0509   -1.5052    3.2051 H   0  0  0  0  0  0  0  0  0  0  0  0
    3.5874   -2.2790    2.7988 H   0  0  0  0  0  0  0  0  0  0  0  0
    3.0071   -0.9011    1.8447 H   0  0  0  0  0  0  0  0  0  0  0  0
    2.5294   -4.9073    2.3819 N   0  0  0  0  0  0  0  0  0  0  0  0
    2.3390   -6.1609    3.0735 C   0  0  0  0  0  0  0  0  0  0  0  0
    3.4519   -4.7089    2.0058 H   0  0  0  0  0  0  0  0  0  0  0  0
    2.5577   -6.0270    4.1432 H   0  0  0  0  0  0  0  0  0  0  0  0
    1.2974   -6.4925    2.9510 H   0  0  0  0  0  0  0  0  0  0  0  0
    3.0168   -6.9183    2.6527 H   0  0  0  0  0  0  0  0  0  0  0  0
  1  3  1  0  0  0  0
  1  7  1  0  0  0  0
  1  2  2  0  0  0  0
 40 41  1  0  0  0  0
 41 49  1  0  0  0  0
 41 42  2  0  0  0  0
  8  9  1  0  0  0  0
  9 17  1  0  0  0  0
  9 10  2  0  0  0  0
 18 19  1  0  0  0  0
 19 39  1  0  0  0  0
 19 20  2  0  0  0  0
 40 43  1  0  0  0  0
  8 11  1  0  0  0  0
 49 50  1  0  0  0  0
 22 23  1  0  0  0  0
 21 22  1  0  0  0  0
 23 24  1  0  0  0  0
 18 21  1  0  0  0  0
 24 25  1  0  0  0  0
 39 40  1  0  0  0  0
  7  8  1  0  0  0  0
 17 18  1  0  0  0  0
  3  4  1  0  0  0  0
  3  5  1  0  0  0  0
  3  6  1  0  0  0  0
 43 46  1  0  0  0  0
 43 47  1  0  0  0  0
 43 48  1  0  0  0  0
 11 14  1  0  0  0  0
 11 15  1  0  0  0  0
 11 16  1  0  0  0  0
 50 52  1  0  0  0  0
 50 53  1  0  0  0  0
 50 54  1  0  0  0  0
 22 30  1  0  0  0  0
 22 31  1  0  0  0  0
 23 32  1  0  0  0  0
 23 33  1  0  0  0  0
 21 28  1  0  0  0  0
 21 29  1  0  0  0  0
 24 34  1  0  0  0  0
 24 35  1  0  0  0  0
 40 45  1  0  0  0  0
  8 13  1  0  0  0  0
 18 27  1  0  0  0  0
 49 51  1  0  0  0  0
  7 12  1  0  0  0  0
 39 44  1  0  0  0  0
 17 26  1  0  0  0  0
 25 36  1  0  0  0  0
 25 37  1  0  0  0  0
 25 38  1  0  0  0  0
M  CHG  1  25   1
M  END
$$$$

  -OEChem-05262214473D

 54 53  0     1  0  0  0  0  0999 V2000
    2.6714    2.8829   -3.0005 C   0  0  0  0  0  0  0  0  0  0  0  0
    3.1741    2.4398   -1.9745 O   0  0  0  0  0  0  0  0  0  0  0  0
    3.5527    3.3077   -4.1279 C   0  0  0  0  0  0  0  0  0  0  0  0
    3.8407    4.3691   -4.0597 H   0  0  0  0  0  0  0  0  0  0  0  0
    4.5024    2.7495   -4.1526 H   0  0  0  0  0  0  0  0  0  0  0  0
    3.1208    3.1887   -5.1345 H   0  0  0  0  0  0  0  0  0  0  0  0
    1.3174    3.0407   -3.2467 N   0  0  0  0  0  0  0  0  0  0  0  0
    0.2944    2.6927   -2.2960 C   0  0  2  0  0  0  0  0  0  0  0  0
    0.2976    1.1783   -2.1349 C   0  0  0  0  0  0  0  0  0  0  0  0
    0.7500    0.4142   -2.9850 O   0  0  0  0  0  0  0  0  0  0  0  0
   -1.0710    3.1886   -2.7460 C   0  0  0  0  0  0  0  0  0  0  0  0
    1.0312    3.4224   -4.1464 H   0  0  0  0  0  0  0  0  0  0  0  0
    0.5725    3.1622   -1.3461 H   0  0  0  0  0  0  0  0  0  0  0  0
   -1.3666    2.7292   -3.6963 H   0  0  0  0  0  0  0  0  0  0  0  0
   -1.8434    2.9482   -2.0082 H   0  0  0  0  0  0  0  0  0  0  0  0
   -1.0632    4.2744   -2.8901 H   0  0  0  0  0  0  0  0  0  0  0  0
   -0.3037    0.7742   -0.9484 N   0  0  0  0  0  0  0  0  0  0  0  0
   -0.4352   -0.6095   -0.5718 C   0  0  2  0  0  0  0  0  0  0  0  0
    0.9247   -1.1264   -0.1142 C   0  0  0  0  0  0  0  0  0  0  0  0
    1.9745   -0.5183   -0.3132 O   0  0  0  0  0  0  0  0  0  0  0  0
   -1.0461   -1.4541   -1.6963 C   0  0  0  0  0  0  0  0  0  0  0  0
   -2.5166   -1.1321   -1.9930 C   0  0  0  0  0  0  0  0  0  0  0  0
   -3.0647   -2.0281   -3.1061 C   0  0  0  0  0  0  0  0  0  0  0  0
   -4.5157   -1.6895   -3.4145 C   0  0  0  0  0  0  0  0  0  0  0  0
   -4.9959   -2.5633   -4.5119 N   0  3  0  0  0  0  0  0  0  0  0  0
   -0.6336    1.4811   -0.2948 H   0  0  0  0  0  0  0  0  0  0  0  0
   -1.1105   -0.6223    0.2922 H   0  0  0  0  0  0  0  0  0  0  0  0
   -0.4592   -1.3020   -2.6114 H   0  0  0  0  0  0  0  0  0  0  0  0
   -0.9609   -2.5176   -1.4411 H   0  0  0  0  0  0  0  0  0  0  0  0
   -3.1203   -1.2720   -1.0887 H   0  0  0  0  0  0  0  0  0  0  0  0
   -2.6176   -0.0823   -2.2922 H   0  0  0  0  0  0  0  0  0  0  0  0
   -2.9846   -3.0798   -2.8040 H   0  0  0  0  0  0  0  0  0  0  0  0
   -2.4546   -1.9061   -4.0097 H   0  0  0  0  0  0  0  0  0  0  0  0
   -5.1700   -1.8693   -2.5563 H   0  0  0  0  0  0  0  0  0  0  0  0
   -4.6321   -0.6569   -3.7568 H   0  0  0  0  0  0  0  0  0  0  0  0
   -5.8245   -2.1628   -4.9652 H   0  0  0  0  0  0  0  0  0  0  0  0
   -5.2484   -3.4925   -4.1577 H   0  0  0  0  0  0  0  0  0  0  0  0
   -4.2719   -2.6848   -5.2287 H   0  0  0  0  0  0  0  0  0  0  0  0
    0.8271   -2.3288    0.5711 N   0  0  0  0  0  0  0  0  0  0  0  0
    1.9834   -3.0009    1.1141 C   0  0  2  0  0  0  0  0  0  0  0  0
    1.5670   -4.4134    1.5028 C   0  0  0  0  0  0  0  0  0  0  0  0
    0.4021   -4.7290    1.7363 O   0  0  0  0  0  0  0  0  0  0  0  0
    2.5475   -2.2516    2.3112 C   0  0  0  0  0  0  0  0  0  0  0  0
   -0.0887   -2.7503    0.6948 H   0  0  0  0  0  0  0  0  0  0  0  0
    2.7282   -3.0468    0.3121 H   0  0  0  0  0  0  0  0  0  0  0  0
    1.8154   -2.1954    3.1251 H   0  0  0  0  0  0  0  0  0  0  0  0
    3.4413   -2.7472    2.7043 H   0  0  0  0  0  0  0  0  0  0  0  0
    2.8188   -1.2265    2.0368 H   0  0  0  0  0  0  0  0  0  0  0  0
    2.6546   -5.2699    1.6004 N   0  0  0  0  0  0  0  0  0  0  0  0
    2.5215   -6.6605    1.9671 C   0  0  0  0  0  0  0  0  0  0  0  0
    3.5828   -4.9272    1.3704 H   0  0  0  0  0  0  0  0  0  0  0  0
    2.6428   -6.7665    3.0553 H   0  0  0  0  0  0  0  0  0  0  0  0
    1.5259   -7.0236    1.6722 H   0  0  0  0  0  0  0  0  0  0  0  0
    3.2942   -7.2508    1.4529 H   0  0  0  0  0  0  0  0  0  0  0  0
  1  3  1  0  0  0  0
  1  7  1  0  0  0  0
  1  2  2  0  0  0  0
 40 41  1  0  0  0  0
 41 49  1  0  0  0  0
 41 42  2  0  0  0  0
  8  9  1  0  0  0  0
  9 17  1  0  0  0  0
  9 10  2  0  0  0  0
 18 19  1  0  0  0  0
 19 39  1  0  0  0  0
 19 20  2  0  0  0  0
 40 43  1  0  0  0  0
  8 11  1  0  0  0  0
 49 50  1  0  0  0  0
 22 23  1  0  0  0  0
 21 22  1  0  0  0  0
 23 24  1  0  0  0  0
 18 21  1  0  0  0  0
 24 25  1  0  0  0  0
 39 40  1  0  0  0  0
  7  8  1  0  0  0  0
 17 18  1  0  0  0  0
  3  4  1  0  0  0  0
  3  5  1  0  0  0  0
  3  6  1  0  0  0  0
 43 46  1  0  0  0  0
 43 47  1  0  0  0  0
 43 48  1  0  0  0  0
 11 14  1  0  0  0  0
 11 15  1  0  0  0  0
 11 16  1  0  0  0  0
 50 52  1  0  0  0  0
 50 53  1  0  0  0  0
 50 54  1  0  0  0  0
 22 30  1  0  0  0  0
 22 31  1  0  0  0  0
 23 32  1  0  0  0  0
 23 33  1  0  0  0  0
 21 28  1  0  0  0  0
 21 29  1  0  0  0  0
 24 34  1  0  0  0  0
 24 35  1  0  0  0  0
 40 45  1  0  0  0  0
  8 13  1  0  0  0  0
 18 27  1  0  0  0  0
 49 51  1  0  0  0  0
  7 12  1  0  0  0  0
 39 44  1  0  0  0  0
 17 26  1  0  0  0  0
 25 36  1  0  0  0  0
 25 37  1  0  0  0  0
 25 38  1  0  0  0  0
M  CHG  1  25   1
M  END
$$$$

  -OEChem-05262214473D

 54 53  0     1  0  0  0  0  0999 V2000
    2.6714    2.8829   -3.0005 C   0  0  0  0  0  0  0  0  0  0  0  0
    3.1741    2.4398   -1.9745 O   0  0  0  0  0  0  0  0  0  0  0  0
    3.5527    3.3077   -4.1279 C   0  0  0  0  0  0  0  0  0  0  0  0
    3.8407    4.3691   -4.0597 H   0  0  0  0  0  0  0  0  0  0  0  0
    4.5024    2.7495   -4.1526 H   0  0  0  0  0  0  0  0  0  0  0  0
    3.1208    3.1887   -5.1345 H   0  0  0  0  0  0  0  0  0  0  0  0
    1.3174    3.0407   -3.2467 N   0  0  0  0  0  0  0  0  0  0  0  0
    0.2944    2.6927   -2.2960 C   0  0  2  0  0  0  0  0  0  0  0  0
    0.2976    1.1783   -2.1349 C   0  0  0  0  0  0  0  0  0  0  0  0
    0.7500    0.4142   -2.9850 O   0  0  0  0  0  0  0  0  0  0  0  0
   -1.0710    3.1886   -2.7460 C   0  0  0  0  0  0  0  0  0  0  0  0
    1.0312    3.4224   -4.1464 H   0  0  0  0  0  0  0  0  0  0  0  0
    0.5725    3.1622   -1.3461 H   0  0  0  0  0  0  0  0  0  0  0  0
   -1.3666    2.7292   -3.6963 H   0  0  0  0  0  0  0  0  0  0  0  0
   -1.8434    2.9482   -2.0082 H   0  0  0  0  0  0  0  0  0  0  0  0
   -1.0632    4.2744   -2.8901 H   0  0  0  0  0  0  0  0  0  0  0  0
   -0.3037    0.7742   -0.9484 N   0  0  0  0  0  0  0  0  0  0  0  0
   -0.4352   -0.6095   -0.5718 C   0  0  2  0  0  0  0  0  0  0  0  0
    0.7980   -1.0220    0.2251 C   0  0  0  0  0  0  0  0  0  0  0  0
    1.7112   -0.2450    0.4969 O   0  0  0  0  0  0  0  0  0  0  0  0
   -0.6902   -1.5120   -1.7848 C   0  0  0  0  0  0  0  0  0  0  0  0
   -2.0579   -1.2993   -2.4469 C   0  0  0  0  0  0  0  0  0  0  0  0
   -2.2518   -2.2484   -3.6318 C   0  0  0  0  0  0  0  0  0  0  0  0
   -3.5987   -2.0179   -4.3010 C   0  0  0  0  0  0  0  0  0  0  0  0
   -3.7323   -2.9399   -5.4544 N   0  3  0  0  0  0  0  0  0  0  0  0
   -0.6336    1.4811   -0.2948 H   0  0  0  0  0  0  0  0  0  0  0  0
   -1.3025   -0.6569    0.0978 H   0  0  0  0  0  0  0  0  0  0  0  0
    0.0953   -1.3326   -2.5303 H   0  0  0  0  0  0  0  0  0  0  0  0
   -0.6028   -2.5629   -1.4824 H   0  0  0  0  0  0  0  0  0  0  0  0
   -2.8577   -1.4678   -1.7165 H   0  0  0  0  0  0  0  0  0  0  0  0
   -2.1487   -0.2639   -2.7955 H   0  0  0  0  0  0  0  0  0  0  0  0
   -2.1817   -3.2871   -3.2856 H   0  0  0  0  0  0  0  0  0  0  0  0
   -1.4447   -2.0972   -4.3594 H   0  0  0  0  0  0  0  0  0  0  0  0
   -4.4334   -2.2305   -3.6264 H   0  0  0  0  0  0  0  0  0  0  0  0
   -3.6925   -1.0014   -4.6945 H   0  0  0  0  0  0  0  0  0  0  0  0
   -4.4457   -2.6058   -6.1116 H   0  0  0  0  0  0  0  0  0  0  0  0
   -4.0046   -3.8792   -5.1441 H   0  0  0  0  0  0  0  0  0  0  0  0
   -2.8461   -3.0208   -5.9651 H   0  0  0  0  0  0  0  0  0  0  0  0
    0.7456   -2.3493    0.6259 N   0  0  0  0  0  0  0  0  0  0  0  0
    1.7952   -2.9589    1.4072 C   0  0  2  0  0  0  0  0  0  0  0  0
    1.5787   -4.4663    1.3907 C   0  0  0  0  0  0  0  0  0  0  0  0
    0.4881   -4.9849    1.1608 O   0  0  0  0  0  0  0  0  0  0  0  0
    1.8049   -2.4268    2.8317 C   0  0  0  0  0  0  0  0  0  0  0  0
   -0.0582   -2.9107    0.3608 H   0  0  0  0  0  0  0  0  0  0  0  0
    2.7406   -2.7197    0.9081 H   0  0  0  0  0  0  0  0  0  0  0  0
    0.8657   -2.6569    3.3478 H   0  0  0  0  0  0  0  0  0  0  0  0
    2.6194   -2.8689    3.4149 H   0  0  0  0  0  0  0  0  0  0  0  0
    1.9309   -1.3387    2.8405 H   0  0  0  0  0  0  0  0  0  0  0  0
    2.7368   -5.1634    1.7053 N   0  0  0  0  0  0  0  0  0  0  0  0
    2.7862   -6.6055    1.7677 C   0  0  0  0  0  0  0  0  0  0  0  0
    3.6004   -4.6524    1.8629 H   0  0  0  0  0  0  0  0  0  0  0  0
    2.5916   -6.9353    2.7989 H   0  0  0  0  0  0  0  0  0  0  0  0
    2.0228   -7.0277    1.0976 H   0  0  0  0  0  0  0  0  0  0  0  0
    3.7818   -6.9521    1.4538 H   0  0  0  0  0  0  0  0  0  0  0  0
  1  3  1  0  0  0  0
  1  7  1  0  0  0  0
  1  2  2  0  0  0  0
 40 41  1  0  0  0  0
 41 49  1  0  0  0  0
 41 42  2  0  0  0  0
  8  9  1  0  0  0  0
  9 17  1  0  0  0  0
  9 10  2  0  0  0  0
 18 19  1  0  0  0  0
 19 39  1  0  0  0  0
 19 20  2  0  0  0  0
 40 43  1  0  0  0  0
  8 11  1  0  0  0  0
 49 50  1  0  0  0  0
 22 23  1  0  0  0  0
 21 22  1  0  0  0  0
 23 24  1  0  0  0  0
 18 21  1  0  0  0  0
 24 25  1  0  0  0  0
 39 40  1  0  0  0  0
  7  8  1  0  0  0  0
 17 18  1  0  0  0  0
  3  4  1  0  0  0  0
  3  5  1  0  0  0  0
  3  6  1  0  0  0  0
 43 46  1  0  0  0  0
 43 47  1  0  0  0  0
 43 48  1  0  0  0  0
 11 14  1  0  0  0  0
 11 15  1  0  0  0  0
 11 16  1  0  0  0  0
 50 52  1  0  0  0  0
 50 53  1  0  0  0  0
 50 54  1  0  0  0  0
 22 30  1  0  0  0  0
 22 31  1  0  0  0  0
 23 32  1  0  0  0  0
 23 33  1  0  0  0  0
 21 28  1  0  0  0  0
 21 29  1  0  0  0  0
 24 34  1  0  0  0  0
 24 35  1  0  0  0  0
 40 45  1  0  0  0  0
  8 13  1  0  0  0  0
 18 27  1  0  0  0  0
 49 51  1  0  0  0  0
  7 12  1  0  0  0  0
 39 44  1  0  0  0  0
 17 26  1  0  0  0  0
 25 36  1  0  0  0  0
 25 37  1  0  0  0  0
 25 38  1  0  0  0  0
M  CHG  1  25   1
M  END
$$$$

  -OEChem-05262214473D

 54 53  0     1  0  0  0  0  0999 V2000
    2.6714    2.8829   -3.0005 C   0  0  0  0  0  0  0  0  0  0  0  0
    3.1741    2.4398   -1.9745 O   0  0  0  0  0  0  0  0  0  0  0  0
    3.5527    3.3077   -4.1279 C   0  0  0  0  0  0  0  0  0  0  0  0
    3.8407    4.3691   -4.0597 H   0  0  0  0  0  0  0  0  0  0  0  0
    4.5024    2.7495   -4.1526 H   0  0  0  0  0  0  0  0  0  0  0  0
    3.1208    3.1887   -5.1345 H   0  0  0  0  0  0  0  0  0  0  0  0
    1.3174    3.0407   -3.2467 N   0  0  0  0  0  0  0  0  0  0  0  0
    0.2944    2.6927   -2.2960 C   0  0  2  0  0  0  0  0  0  0  0  0
    0.2976    1.1783   -2.1349 C   0  0  0  0  0  0  0  0  0  0  0  0
    0.7500    0.4142   -2.9850 O   0  0  0  0  0  0  0  0  0  0  0  0
   -1.0710    3.1886   -2.7460 C   0  0  0  0  0  0  0  0  0  0  0  0
    1.0312    3.4224   -4.1464 H   0  0  0  0  0  0  0  0  0  0  0  0
    0.5725    3.1622   -1.3461 H   0  0  0  0  0  0  0  0  0  0  0  0
   -1.3666    2.7292   -3.6963 H   0  0  0  0  0  0  0  0  0  0  0  0
   -1.8434    2.9482   -2.0082 H   0  0  0  0  0  0  0  0  0  0  0  0
   -1.0632    4.2744   -2.8901 H   0  0  0  0  0  0  0  0  0  0  0  0
   -0.3037    0.7742   -0.9484 N   0  0  0  0  0  0  0  0  0  0  0  0
   -0.4352   -0.6095   -0.5718 C   0  0  2  0  0  0  0  0  0  0  0  0
    0.7980   -1.0220    0.2251 C   0  0  0  0  0  0  0  0  0  0  0  0
    1.5745   -0.2111    0.7261 O   0  0  0  0  0  0  0  0  0  0  0  0
   -0.6902   -1.5120   -1.7848 C   0  0  0  0  0  0  0  0  0  0  0  0
   -2.0579   -1.2993   -2.4469 C   0  0  0  0  0  0  0  0  0  0  0  0
   -2.2518   -2.2484   -3.6318 C   0  0  0  0  0  0  0  0  0  0  0  0
   -3.5987   -2.0179   -4.3010 C   0  0  0  0  0  0  0  0  0  0  0  0
   -3.7323   -2.9399   -5.4544 N   0  3  0  0  0  0  0  0  0  0  0  0
   -0.6336    1.4811   -0.2948 H   0  0  0  0  0  0  0  0  0  0  0  0
   -1.3025   -0.6569    0.0978 H   0  0  0  0  0  0  0  0  0  0  0  0
    0.0953   -1.3326   -2.5303 H   0  0  0  0  0  0  0  0  0  0  0  0
   -0.6028   -2.5629   -1.4824 H   0  0  0  0  0  0  0  0  0  0  0  0
   -2.8577   -1.4678   -1.7165 H   0  0  0  0  0  0  0  0  0  0  0  0
   -2.1487   -0.2639   -2.7955 H   0  0  0  0  0  0  0  0  0  0  0  0
   -2.1817   -3.2871   -3.2856 H   0  0  0  0  0  0  0  0  0  0  0  0
   -1.4447   -2.0972   -4.3594 H   0  0  0  0  0  0  0  0  0  0  0  0
   -4.4334   -2.2305   -3.6264 H   0  0  0  0  0  0  0  0  0  0  0  0
   -3.6925   -1.0014   -4.6945 H   0  0  0  0  0  0  0  0  0  0  0  0
   -4.4457   -2.6058   -6.1116 H   0  0  0  0  0  0  0  0  0  0  0  0
   -4.0046   -3.8792   -5.1441 H   0  0  0  0  0  0  0  0  0  0  0  0
   -2.8461   -3.0208   -5.9651 H   0  0  0  0  0  0  0  0  0  0  0  0
    0.9133   -2.3999    0.3402 N   0  0  0  0  0  0  0  0  0  0  0  0
    1.9941   -3.0234    1.0660 C   0  0  2  0  0  0  0  0  0  0  0  0
    1.9961   -4.5074    0.7234 C   0  0  0  0  0  0  0  0  0  0  0  0
    1.0052   -5.0997    0.3012 O   0  0  0  0  0  0  0  0  0  0  0  0
    1.8485   -2.8118    2.5649 C   0  0  0  0  0  0  0  0  0  0  0  0
    0.2138   -2.9895   -0.1010 H   0  0  0  0  0  0  0  0  0  0  0  0
    2.9219   -2.5641    0.7080 H   0  0  0  0  0  0  0  0  0  0  0  0
    0.9245   -3.2652    2.9419 H   0  0  0  0  0  0  0  0  0  0  0  0
    2.6841   -3.2608    3.1120 H   0  0  0  0  0  0  0  0  0  0  0  0
    1.8173   -1.7439    2.8066 H   0  0  0  0  0  0  0  0  0  0  0  0
    3.2226   -5.1018    0.9855 N   0  0  0  0  0  0  0  0  0  0  0  0
    3.4736   -6.5054    0.7557 C   0  0  0  0  0  0  0  0  0  0  0  0
    3.9942   -4.5303    1.3166 H   0  0  0  0  0  0  0  0  0  0  0  0
    3.2710   -7.0704    1.6775 H   0  0  0  0  0  0  0  0  0  0  0  0
    2.8168   -6.8684   -0.0486 H   0  0  0  0  0  0  0  0  0  0  0  0
    4.5244   -6.6466    0.4627 H   0  0  0  0  0  0  0  0  0  0  0  0
  1  3  1  0  0  0  0
  1  7  1  0  0  0  0
  1  2  2  0  0  0  0
 40 41  1  0  0  0  0
 41 49  1  0  0  0  0
 41 42  2  0  0  0  0
  8  9  1  0  0  0  0
  9 17  1  0  0  0  0
  9 10  2  0  0  0  0
 18 19  1  0  0  0  0
 19 39  1  0  0  0  0
 19 20  2  0  0  0  0
 40 43  1  0  0  0  0
  8 11  1  0  0  0  0
 49 50  1  0  0  0  0
 22 23  1  0  0  0  0
 21 22  1  0  0  0  0
 23 24  1  0  0  0  0
 18 21  1  0  0  0  0
 24 25  1  0  0  0  0
 39 40  1  0  0  0  0
  7  8  1  0  0  0  0
 17 18  1  0  0  0  0
  3  4  1  0  0  0  0
  3  5  1  0  0  0  0
  3  6  1  0  0  0  0
 43 46  1  0  0  0  0
 43 47  1  0  0  0  0
 43 48  1  0  0  0  0
 11 14  1  0  0  0  0
 11 15  1  0  0  0  0
 11 16  1  0  0  0  0
 50 52  1  0  0  0  0
 50 53  1  0  0  0  0
 50 54  1  0  0  0  0
 22 30  1  0  0  0  0
 22 31  1  0  0  0  0
 23 32  1  0  0  0  0
 23 33  1  0  0  0  0
 21 28  1  0  0  0  0
 21 29  1  0  0  0  0
 24 34  1  0  0  0  0
 24 35  1  0  0  0  0
 40 45  1  0  0  0  0
  8 13  1  0  0  0  0
 18 27  1  0  0  0  0
 49 51  1  0  0  0  0
  7 12  1  0  0  0  0
 39 44  1  0  0  0  0
 17 26  1  0  0  0  0
 25 36  1  0  0  0  0
 25 37  1  0  0  0  0
 25 38  1  0  0  0  0
M  CHG  1  25   1
M  END
$$$$

  -OEChem-05262214473D

 54 53  0     1  0  0  0  0  0999 V2000
    2.6714    2.8829   -3.0005 C   0  0  0  0  0  0  0  0  0  0  0  0
    3.1741    2.4398   -1.9745 O   0  0  0  0  0  0  0  0  0  0  0  0
    3.5527    3.3077   -4.1279 C   0  0  0  0  0  0  0  0  0  0  0  0
    3.8407    4.3691   -4.0597 H   0  0  0  0  0  0  0  0  0  0  0  0
    4.5024    2.7495   -4.1526 H   0  0  0  0  0  0  0  0  0  0  0  0
    3.1208    3.1887   -5.1345 H   0  0  0  0  0  0  0  0  0  0  0  0
    1.3174    3.0407   -3.2467 N   0  0  0  0  0  0  0  0  0  0  0  0
    0.2944    2.6927   -2.2960 C   0  0  2  0  0  0  0  0  0  0  0  0
    0.2976    1.1783   -2.1349 C   0  0  0  0  0  0  0  0  0  0  0  0
    0.7500    0.4142   -2.9850 O   0  0  0  0  0  0  0  0  0  0  0  0
   -1.0710    3.1886   -2.7460 C   0  0  0  0  0  0  0  0  0  0  0  0
    1.0312    3.4224   -4.1464 H   0  0  0  0  0  0  0  0  0  0  0  0
    0.5725    3.1622   -1.3461 H   0  0  0  0  0  0  0  0  0  0  0  0
   -1.3666    2.7292   -3.6963 H   0  0  0  0  0  0  0  0  0  0  0  0
   -1.8434    2.9482   -2.0082 H   0  0  0  0  0  0  0  0  0  0  0  0
   -1.0632    4.2744   -2.8901 H   0  0  0  0  0  0  0  0  0  0  0  0
   -0.3037    0.7742   -0.9484 N   0  0  0  0  0  0  0  0  0  0  0  0
   -0.4352   -0.6095   -0.5718 C   0  0  2  0  0  0  0  0  0  0  0  0
    0.7980   -1.0220    0.2251 C   0  0  0  0  0  0  0  0  0  0  0  0
    1.4217   -0.2447    0.9450 O   0  0  0  0  0  0  0  0  0  0  0  0
   -0.6902   -1.5120   -1.7848 C   0  0  0  0  0  0  0  0  0  0  0  0
   -2.0579   -1.2993   -2.4469 C   0  0  0  0  0  0  0  0  0  0  0  0
   -2.2518   -2.2484   -3.6318 C   0  0  0  0  0  0  0  0  0  0  0  0
   -3.5987   -2.0179   -4.3010 C   0  0  0  0  0  0  0  0  0  0  0  0
   -3.7323   -2.9399   -5.4544 N   0  3  0  0  0  0  0  0  0  0  0  0
   -0.6336    1.4811   -0.2948 H   0  0  0  0  0  0  0  0  0  0  0  0
   -1.3025   -0.6569    0.0978 H   0  0  0  0  0  0  0  0  0  0  0  0
    0.0953   -1.3326   -2.5303 H   0  0  0  0  0  0  0  0  0  0  0  0
   -0.6028   -2.5629   -1.4824 H   0  0  0  0  0  0  0  0  0  0  0  0
   -2.8577   -1.4678   -1.7165 H   0  0  0  0  0  0  0  0  0  0  0  0
   -2.1487   -0.2639   -2.7955 H   0  0  0  0  0  0  0  0  0  0  0  0
   -2.1817   -3.2871   -3.2856 H   0  0  0  0  0  0  0  0  0  0  0  0
   -1.4447   -2.0972   -4.3594 H   0  0  0  0  0  0  0  0  0  0  0  0
   -4.4334   -2.2305   -3.6264 H   0  0  0  0  0  0  0  0  0  0  0  0
   -3.6925   -1.0014   -4.6945 H   0  0  0  0  0  0  0  0  0  0  0  0
   -4.4457   -2.6058   -6.1116 H   0  0  0  0  0  0  0  0  0  0  0  0
   -4.0046   -3.8792   -5.1441 H   0  0  0  0  0  0  0  0  0  0  0  0
   -2.8461   -3.0208   -5.9651 H   0  0  0  0  0  0  0  0  0  0  0  0
    1.1021   -2.3663    0.0654 N   0  0  0  0  0  0  0  0  0  0  0  0
    2.2188   -2.9874    0.7369 C   0  0  2  0  0  0  0  0  0  0  0  0
    2.4516   -4.3509    0.0996 C   0  0  0  0  0  0  0  0  0  0  0  0
    1.5803   -4.9607   -0.5169 O   0  0  0  0  0  0  0  0  0  0  0  0
    1.9614   -3.1220    2.2297 C   0  0  0  0  0  0  0  0  0  0  0  0
    0.5196   -2.9322   -0.5445 H   0  0  0  0  0  0  0  0  0  0  0  0
    3.0900   -2.3474    0.5601 H   0  0  0  0  0  0  0  0  0  0  0  0
    1.0920   -3.7599    2.4266 H   0  0  0  0  0  0  0  0  0  0  0  0
    2.8207   -3.5672    2.7419 H   0  0  0  0  0  0  0  0  0  0  0  0
    1.7647   -2.1435    2.6811 H   0  0  0  0  0  0  0  0  0  0  0  0
    3.7338   -4.8259    0.3371 N   0  0  0  0  0  0  0  0  0  0  0  0
    4.1950   -6.1039   -0.1528 C   0  0  0  0  0  0  0  0  0  0  0  0
    4.3964   -4.2447    0.8420 H   0  0  0  0  0  0  0  0  0  0  0  0
    4.0241   -6.8743    0.6136 H   0  0  0  0  0  0  0  0  0  0  0  0
    3.6424   -6.3672   -1.0668 H   0  0  0  0  0  0  0  0  0  0  0  0
    5.2698   -6.0437   -0.3787 H   0  0  0  0  0  0  0  0  0  0  0  0
  1  3  1  0  0  0  0
  1  7  1  0  0  0  0
  1  2  2  0  0  0  0
 40 41  1  0  0  0  0
 41 49  1  0  0  0  0
 41 42  2  0  0  0  0
  8  9  1  0  0  0  0
  9 17  1  0  0  0  0
  9 10  2  0  0  0  0
 18 19  1  0  0  0  0
 19 39  1  0  0  0  0
 19 20  2  0  0  0  0
 40 43  1  0  0  0  0
  8 11  1  0  0  0  0
 49 50  1  0  0  0  0
 22 23  1  0  0  0  0
 21 22  1  0  0  0  0
 23 24  1  0  0  0  0
 18 21  1  0  0  0  0
 24 25  1  0  0  0  0
 39 40  1  0  0  0  0
  7  8  1  0  0  0  0
 17 18  1  0  0  0  0
  3  4  1  0  0  0  0
  3  5  1  0  0  0  0
  3  6  1  0  0  0  0
 43 46  1  0  0  0  0
 43 47  1  0  0  0  0
 43 48  1  0  0  0  0
 11 14  1  0  0  0  0
 11 15  1  0  0  0  0
 11 16  1  0  0  0  0
 50 52  1  0  0  0  0
 50 53  1  0  0  0  0
 50 54  1  0  0  0  0
 22 30  1  0  0  0  0
 22 31  1  0  0  0  0
 23 32  1  0  0  0  0
 23 33  1  0  0  0  0
 21 28  1  0  0  0  0
 21 29  1  0  0  0  0
 24 34  1  0  0  0  0
 24 35  1  0  0  0  0
 40 45  1  0  0  0  0
  8 13  1  0  0  0  0
 18 27  1  0  0  0  0
 49 51  1  0  0  0  0
  7 12  1  0  0  0  0
 39 44  1  0  0  0  0
 17 26  1  0  0  0  0
 25 36  1  0  0  0  0
 25 37  1  0  0  0  0
 25 38  1  0  0  0  0
M  CHG  1  25   1
M  END
$$$$

  -OEChem-05262214473D

 54 53  0     1  0  0  0  0  0999 V2000
    2.6714    2.8829   -3.0005 C   0  0  0  0  0  0  0  0  0  0  0  0
    3.1741    2.4398   -1.9745 O   0  0  0  0  0  0  0  0  0  0  0  0
    3.5527    3.3077   -4.1279 C   0  0  0  0  0  0  0  0  0  0  0  0
    3.8407    4.3691   -4.0597 H   0  0  0  0  0  0  0  0  0  0  0  0
    4.5024    2.7495   -4.1526 H   0  0  0  0  0  0  0  0  0  0  0  0
    3.1208    3.1887   -5.1345 H   0  0  0  0  0  0  0  0  0  0  0  0
    1.3174    3.0407   -3.2467 N   0  0  0  0  0  0  0  0  0  0  0  0
    0.2944    2.6927   -2.2960 C   0  0  2  0  0  0  0  0  0  0  0  0
    0.2976    1.1783   -2.1349 C   0  0  0  0  0  0  0  0  0  0  0  0
    0.7500    0.4142   -2.9850 O   0  0  0  0  0  0  0  0  0  0  0  0
   -1.0710    3.1886   -2.7460 C   0  0  0  0  0  0  0  0  0  0  0  0
    1.0312    3.4224   -4.1464 H   0  0  0  0  0  0  0  0  0  0  0  0
    0.5725    3.1622   -1.3461 H   0  0  0  0  0  0  0  0  0  0  0  0
   -1.3666    2.7292   -3.6963 H   0  0  0  0  0  0  0  0  0  0  0  0
   -1.8434    2.9482   -2.0082 H   0  0  0  0  0  0  0  0  0  0  0  0
   -1.0632    4.2744   -2.8901 H   0  0  0  0  0  0  0  0  0  0  0  0
   -0.3037    0.7742   -0.9484 N   0  0  0  0  0  0  0  0  0  0  0  0
   -0.4352   -0.6095   -0.5718 C   0  0  2  0  0  0  0  0  0  0  0  0
    0.7980   -1.0220    0.2251 C   0  0  0  0  0  0  0  0  0  0  0  0
    1.2634   -0.3437    1.1388 O   0  0  0  0  0  0  0  0  0  0  0  0
   -0.6902   -1.5120   -1.7848 C   0  0  0  0  0  0  0  0  0  0  0  0
   -2.0579   -1.2993   -2.4469 C   0  0  0  0  0  0  0  0  0  0  0  0
   -2.2518   -2.2484   -3.6318 C   0  0  0  0  0  0  0  0  0  0  0  0
   -3.5987   -2.0179   -4.3010 C   0  0  0  0  0  0  0  0  0  0  0  0
   -3.7323   -2.9399   -5.4544 N   0  3  0  0  0  0  0  0  0  0  0  0
   -0.6336    1.4811   -0.2948 H   0  0  0  0  0  0  0  0  0  0  0  0
   -1.3025   -0.6569    0.0978 H   0  0  0  0  0  0  0  0  0  0  0  0
    0.0953   -1.3326   -2.5303 H   0  0  0  0  0  0  0  0  0  0  0  0
   -0.6028   -2.5629   -1.4824 H   0  0  0  0  0  0  0  0  0  0  0  0
   -2.8577   -1.4678   -1.7165 H   0  0  0  0  0  0  0  0  0  0  0  0
   -2.1487   -0.2639   -2.7955 H   0  0  0  0  0  0  0  0  0  0  0  0
   -2.1817   -3.2871   -3.2856 H   0  0  0  0  0  0  0  0  0  0  0  0
   -1.4447   -2.0972   -4.3594 H   0  0  0  0  0  0  0  0  0  0  0  0
   -4.4334   -2.2305   -3.6264 H   0  0  0  0  0  0  0  0  0  0  0  0
   -3.6925   -1.0014   -4.6945 H   0  0  0  0  0  0  0  0  0  0  0  0
   -4.4457   -2.6058   -6.1116 H   0  0  0  0  0  0  0  0  0  0  0  0
   -4.0046   -3.8792   -5.1441 H   0  0  0  0  0  0  0  0  0  0  0  0
   -2.8461   -3.0208   -5.9651 H   0  0  0  0  0  0  0  0  0  0  0  0
    1.2992   -2.2508   -0.1799 N   0  0  0  0  0  0  0  0  0  0  0  0
    2.4540   -2.8534    0.4423 C   0  0  2  0  0  0  0  0  0  0  0  0
    2.9140   -4.0076   -0.4384 C   0  0  0  0  0  0  0  0  0  0  0  0
    2.1744   -4.5775   -1.2379 O   0  0  0  0  0  0  0  0  0  0  0  0
    2.1358   -3.3362    1.8489 C   0  0  0  0  0  0  0  0  0  0  0  0
    0.8382   -2.7427   -0.9395 H   0  0  0  0  0  0  0  0  0  0  0  0
    3.2335   -2.0844    0.4742 H   0  0  0  0  0  0  0  0  0  0  0  0
    1.3568   -4.1072    1.8371 H   0  0  0  0  0  0  0  0  0  0  0  0
    3.0201   -3.7672    2.3299 H   0  0  0  0  0  0  0  0  0  0  0  0
    1.7767   -2.5104    2.4725 H   0  0  0  0  0  0  0  0  0  0  0  0
    4.2357   -4.3546   -0.1956 N   0  0  0  0  0  0  0  0  0  0  0  0
    4.9010   -5.4285   -0.8958 C   0  0  0  0  0  0  0  0  0  0  0  0
    4.7795   -3.8153    0.4715 H   0  0  0  0  0  0  0  0  0  0  0  0
    4.7995   -6.3604   -0.3204 H   0  0  0  0  0  0  0  0  0  0  0  0
    4.4433   -5.5583   -1.8876 H   0  0  0  0  0  0  0  0  0  0  0  0
    5.9672   -5.1844   -1.0131 H   0  0  0  0  0  0  0  0  0  0  0  0
  1  3  1  0  0  0  0
  1  7  1  0  0  0  0
  1  2  2  0  0  0  0
 40 41  1  0  0  0  0
 41 49  1  0  0  0  0
 41 42  2  0  0  0  0
  8  9  1  0  0  0  0
  9 17  1  0  0  0  0
  9 10  2  0  0  0  0
 18 19  1  0  0  0  0
 19 39  1  0  0  0  0
 19 20  2  0  0  0  0
 40 43  1  0  0  0  0
  8 11  1  0  0  0  0
 49 50  1  0  0  0  0
 22 23  1  0  0  0  0
 21 22  1  0  0  0  0
 23 24  1  0  0  0  0
 18 21  1  0  0  0  0
 24 25  1  0  0  0  0
 39 40  1  0  0  0  0
  7  8  1  0  0  0  0
 17 18  1  0  0  0  0
  3  4  1  0  0  0  0
  3  5  1  0  0  0  0
  3  6  1  0  0  0  0
 43 46  1  0  0  0  0
 43 47  1  0  0  0  0
 43 48  1  0  0  0  0
 11 14  1  0  0  0  0
 11 15  1  0  0  0  0
 11 16  1  0  0  0  0
 50 52  1  0  0  0  0
 50 53  1  0  0  0  0
 50 54  1  0  0  0  0
 22 30  1  0  0  0  0
 22 31  1  0  0  0  0
 23 32  1  0  0  0  0
 23 33  1  0  0  0  0
 21 28  1  0  0  0  0
 21 29  1  0  0  0  0
 24 34  1  0  0  0  0
 24 35  1  0  0  0  0
 40 45  1  0  0  0  0
  8 13  1  0  0  0  0
 18 27  1  0  0  0  0
 49 51  1  0  0  0  0
  7 12  1  0  0  0  0
 39 44  1  0  0  0  0
 17 26  1  0  0  0  0
 25 36  1  0  0  0  0
 25 37  1  0  0  0  0
 25 38  1  0  0  0  0
M  CHG  1  25   1
M  END
$$$$

  -OEChem-05262214473D

 54 53  0     1  0  0  0  0  0999 V2000
    2.6714    2.8829   -3.0005 C   0  0  0  0  0  0  0  0  0  0  0  0
    3.1741    2.4398   -1.9745 O   0  0  0  0  0  0  0  0  0  0  0  0
    3.5527    3.3077   -4.1279 C   0  0  0  0  0  0  0  0  0  0  0  0
    3.8407    4.3691   -4.0597 H   0  0  0  0  0  0  0  0  0  0  0  0
    4.5024    2.7495   -4.1526 H   0  0  0  0  0  0  0  0  0  0  0  0
    3.1208    3.1887   -5.1345 H   0  0  0  0  0  0  0  0  0  0  0  0
    1.3174    3.0407   -3.2467 N   0  0  0  0  0  0  0  0  0  0  0  0
    0.2944    2.6927   -2.2960 C   0  0  2  0  0  0  0  0  0  0  0  0
    0.2976    1.1783   -2.1349 C   0  0  0  0  0  0  0  0  0  0  0  0
    0.7500    0.4142   -2.9850 O   0  0  0  0  0  0  0  0  0  0  0  0
   -1.0710    3.1886   -2.7460 C   0  0  0  0  0  0  0  0  0  0  0  0
    1.0312    3.4224   -4.1464 H   0  0  0  0  0  0  0  0  0  0  0  0
    0.5725    3.1622   -1.3461 H   0  0  0  0  0  0  0  0  0  0  0  0
   -1.3666    2.7292   -3.6963 H   0  0  0  0  0  0  0  0  0  0  0  0
   -1.8434    2.9482   -2.0082 H   0  0  0  0  0  0  0  0  0  0  0  0
   -1.0632    4.2744   -2.8901 H   0  0  0  0  0  0  0  0  0  0  0  0
   -0.3037    0.7742   -0.9484 N   0  0  0  0  0  0  0  0  0  0  0  0
   -0.4352   -0.6095   -0.5718 C   0  0  2  0  0  0  0  0  0  0  0  0
    0.7980   -1.0220    0.2251 C   0  0  0  0  0  0  0  0  0  0  0  0
    1.1103   -0.5013    1.2941 O   0  0  0  0  0  0  0  0  0  0  0  0
   -0.6902   -1.5120   -1.7848 C   0  0  0  0  0  0  0  0  0  0  0  0
   -2.0579   -1.2993   -2.4469 C   0  0  0  0  0  0  0  0  0  0  0  0
   -2.2518   -2.2484   -3.6318 C   0  0  0  0  0  0  0  0  0  0  0  0
   -3.5987   -2.0179   -4.3010 C   0  0  0  0  0  0  0  0  0  0  0  0
   -3.7323   -2.9399   -5.4544 N   0  3  0  0  0  0  0  0  0  0  0  0
   -0.6336    1.4811   -0.2948 H   0  0  0  0  0  0  0  0  0  0  0  0
   -1.3025   -0.6569    0.0978 H   0  0  0  0  0  0  0  0  0  0  0  0
    0.0953   -1.3326   -2.5303 H   0  0  0  0  0  0  0  0  0  0  0  0
   -0.6028   -2.5629   -1.4824 H   0  0  0  0  0  0  0  0  0  0  0  0
   -2.8577   -1.4678   -1.7165 H   0  0  0  0  0  0  0  0  0  0  0  0
   -2.1487   -0.2639   -2.7955 H   0  0  0  0  0  0  0  0  0  0  0  0
   -2.1817   -3.2871   -3.2856 H   0  0  0  0  0  0  0  0  0  0  0  0
   -1.4447   -2.0972   -4.3594 H   0  0  0  0  0  0  0  0  0  0  0  0
   -4.4334   -2.2305   -3.6264 H   0  0  0  0  0  0  0  0  0  0  0  0
   -3.6925   -1.0014   -4.6945 H   0  0  0  0  0  0  0  0  0  0  0  0
   -4.4457   -2.6058   -6.1116 H   0  0  0  0  0  0  0  0  0  0  0  0
   -4.0046   -3.8792   -5.1441 H   0  0  0  0  0  0  0  0  0  0  0  0
   -2.8461   -3.0208   -5.9651 H   0  0  0  0  0  0  0  0  0  0  0  0
    1.4912   -2.0612   -0.3788 N   0  0  0  0  0  0  0  0  0  0  0  0
    2.6837   -2.6305    0.2023 C   0  0  2  0  0  0  0  0  0  0  0  0
    3.3520   -3.5009   -0.8538 C   0  0  0  0  0  0  0  0  0  0  0  0
    2.7468   -3.9761   -1.8124 O   0  0  0  0  0  0  0  0  0  0  0  0
    2.3599   -3.4398    1.4484 C   0  0  0  0  0  0  0  0  0  0  0  0
    1.1480   -2.4339   -1.2591 H   0  0  0  0  0  0  0  0  0  0  0  0
    3.3425   -1.7930    0.4564 H   0  0  0  0  0  0  0  0  0  0  0  0
    1.7007   -4.2835    1.2135 H   0  0  0  0  0  0  0  0  0  0  0  0
    3.2685   -3.8472    1.9040 H   0  0  0  0  0  0  0  0  0  0  0  0
    1.8526   -2.8195    2.1951 H   0  0  0  0  0  0  0  0  0  0  0  0
    4.6941   -3.7201   -0.5764 N   0  0  0  0  0  0  0  0  0  0  0  0
    5.5437   -4.5251   -1.4227 C   0  0  0  0  0  0  0  0  0  0  0  0
    5.1174   -3.2710    0.2304 H   0  0  0  0  0  0  0  0  0  0  0  0
    5.5443   -5.5638   -1.0606 H   0  0  0  0  0  0  0  0  0  0  0  0
    5.1651   -4.4970   -2.4551 H   0  0  0  0  0  0  0  0  0  0  0  0
    6.5690   -4.1274   -1.3972 H   0  0  0  0  0  0  0  0  0  0  0  0
  1  3  1  0  0  0  0
  1  7  1  0  0  0  0
  1  2  2  0  0  0  0
 40 41  1  0  0  0  0
 41 49  1  0  0  0  0
 41 42  2  0  0  0  0
  8  9  1  0  0  0  0
  9 17  1  0  0  0  0
  9 10  2  0  0  0  0
 18 19  1  0  0  0  0
 19 39  1  0  0  0  0
 19 20  2  0  0  0  0
 40 43  1  0  0  0  0
  8 11  1  0  0  0  0
 49 50  1  0  0  0  0
 22 23  1  0  0  0  0
 21 22  1  0  0  0  0
 23 24  1  0  0  0  0
 18 21  1  0  0  0  0
 24 25  1  0  0  0  0
 39 40  1  0  0  0  0
  7  8  1  0  0  0  0
 17 18  1  0  0  0  0
  3  4  1  0  0  0  0
  3  5  1  0  0  0  0
  3  6  1  0  0  0  0
 43 46  1  0  0  0  0
 43 47  1  0  0  0  0
 43 48  1  0  0  0  0
 11 14  1  0  0  0  0
 11 15  1  0  0  0  0
 11 16  1  0  0  0  0
 50 52  1  0  0  0  0
 50 53  1  0  0  0  0
 50 54  1  0  0  0  0
 22 30  1  0  0  0  0
 22 31  1  0  0  0  0
 23 32  1  0  0  0  0
 23 33  1  0  0  0  0
 21 28  1  0  0  0  0
 21 29  1  0  0  0  0
 24 34  1  0  0  0  0
 24 35  1  0  0  0  0
 40 45  1  0  0  0  0
  8 13  1  0  0  0  0
 18 27  1  0  0  0  0
 49 51  1  0  0  0  0
  7 12  1  0  0  0  0
 39 44  1  0  0  0  0
 17 26  1  0  0  0  0
 25 36  1  0  0  0  0
 25 37  1  0  0  0  0
 25 38  1  0  0  0  0
M  CHG  1  25   1
M  END
$$$$

  -OEChem-05262214473D

 54 53  0     1  0  0  0  0  0999 V2000
    2.6714    2.8829   -3.0005 C   0  0  0  0  0  0  0  0  0  0  0  0
    3.1741    2.4398   -1.9745 O   0  0  0  0  0  0  0  0  0  0  0  0
    3.5527    3.3077   -4.1279 C   0  0  0  0  0  0  0  0  0  0  0  0
    3.8407    4.3691   -4.0597 H   0  0  0  0  0  0  0  0  0  0  0  0
    4.5024    2.7495   -4.1526 H   0  0  0  0  0  0  0  0  0  0  0  0
    3.1208    3.1887   -5.1345 H   0  0  0  0  0  0  0  0  0  0  0  0
    1.3174    3.0407   -3.2467 N   0  0  0  0  0  0  0  0  0  0  0  0
    0.2944    2.6927   -2.2960 C   0  0  2  0  0  0  0  0  0  0  0  0
    0.2976    1.1783   -2.1349 C   0  0  0  0  0  0  0  0  0  0  0  0
    0.7500    0.4142   -2.9850 O   0  0  0  0  0  0  0  0  0  0  0  0
   -1.0710    3.1886   -2.7460 C   0  0  0  0  0  0  0  0  0  0  0  0
    1.0312    3.4224   -4.1464 H   0  0  0  0  0  0  0  0  0  0  0  0
    0.5725    3.1622   -1.3461 H   0  0  0  0  0  0  0  0  0  0  0  0
   -1.3666    2.7292   -3.6963 H   0  0  0  0  0  0  0  0  0  0  0  0
   -1.8434    2.9482   -2.0082 H   0  0  0  0  0  0  0  0  0  0  0  0
   -1.0632    4.2744   -2.8901 H   0  0  0  0  0  0  0  0  0  0  0  0
   -0.3037    0.7742   -0.9484 N   0  0  0  0  0  0  0  0  0  0  0  0
   -0.4352   -0.6095   -0.5718 C   0  0  2  0  0  0  0  0  0  0  0  0
    0.7980   -1.0220    0.2251 C   0  0  0  0  0  0  0  0  0  0  0  0
    0.9729   -0.7067    1.4004 O   0  0  0  0  0  0  0  0  0  0  0  0
   -0.6902   -1.5120   -1.7848 C   0  0  0  0  0  0  0  0  0  0  0  0
   -2.0579   -1.2993   -2.4469 C   0  0  0  0  0  0  0  0  0  0  0  0
   -2.2518   -2.2484   -3.6318 C   0  0  0  0  0  0  0  0  0  0  0  0
   -3.5987   -2.0179   -4.3010 C   0  0  0  0  0  0  0  0  0  0  0  0
   -3.7323   -2.9399   -5.4544 N   0  3  0  0  0  0  0  0  0  0  0  0
   -0.6336    1.4811   -0.2948 H   0  0  0  0  0  0  0  0  0  0  0  0
   -1.3025   -0.6569    0.0978 H   0  0  0  0  0  0  0  0  0  0  0  0
    0.0953   -1.3326   -2.5303 H   0  0  0  0  0  0  0  0  0  0  0  0
   -0.6028   -2.5629   -1.4824 H   0  0  0  0  0  0  0  0  0  0  0  0
   -2.8577   -1.4678   -1.7165 H   0  0  0  0  0  0  0  0  0  0  0  0
   -2.1487   -0.2639   -2.7955 H   0  0  0  0  0  0  0  0  0  0  0  0
   -2.1817   -3.2871   -3.2856 H   0  0  0  0  0  0  0  0  0  0  0  0
   -1.4447   -2.0972   -4.3594 H   0  0  0  0  0  0  0  0  0  0  0  0
   -4.4334   -2.2305   -3.6264 H   0  0  0  0  0  0  0  0  0  0  0  0
   -3.6925   -1.0014   -4.6945 H   0  0  0  0  0  0  0  0  0  0  0  0
   -4.4457   -2.6058   -6.1116 H   0  0  0  0  0  0  0  0  0  0  0  0
   -4.0046   -3.8792   -5.1441 H   0  0  0  0  0  0  0  0  0  0  0  0
   -2.8461   -3.0208   -5.9651 H   0  0  0  0  0  0  0  0  0  0  0  0
    1.6648   -1.8105   -0.5178 N   0  0  0  0  0  0  0  0  0  0  0  0
    2.8922   -2.3338    0.0331 C   0  0  2  0  0  0  0  0  0  0  0  0
    3.7355   -2.8653   -1.1183 C   0  0  0  0  0  0  0  0  0  0  0  0
    3.2586   -3.1976   -2.2015 O   0  0  0  0  0  0  0  0  0  0  0  0
    2.6185   -3.4258    1.0556 C   0  0  0  0  0  0  0  0  0  0  0  0
    1.4279   -2.0268   -1.4815 H   0  0  0  0  0  0  0  0  0  0  0  0
    3.4096   -1.4930    0.5078 H   0  0  0  0  0  0  0  0  0  0  0  0
    2.1005   -4.2768    0.5984 H   0  0  0  0  0  0  0  0  0  0  0  0
    3.5491   -3.8018    1.4933 H   0  0  0  0  0  0  0  0  0  0  0  0
    1.9871   -3.0498    1.8678 H   0  0  0  0  0  0  0  0  0  0  0  0
    5.0777   -2.9654   -0.7794 N   0  0  0  0  0  0  0  0  0  0  0  0
    6.0792   -3.4552   -1.6975 C   0  0  0  0  0  0  0  0  0  0  0  0
    5.3871   -2.6492    0.1349 H   0  0  0  0  0  0  0  0  0  0  0  0
    6.2079   -4.5386   -1.5568 H   0  0  0  0  0  0  0  0  0  0  0  0
    5.7585   -3.2554   -2.7306 H   0  0  0  0  0  0  0  0  0  0  0  0
    7.0342   -2.9446   -1.5048 H   0  0  0  0  0  0  0  0  0  0  0  0
  1  3  1  0  0  0  0
  1  7  1  0  0  0  0
  1  2  2  0  0  0  0
 40 41  1  0  0  0  0
 41 49  1  0  0  0  0
 41 42  2  0  0  0  0
  8  9  1  0  0  0  0
  9 17  1  0  0  0  0
  9 10  2  0  0  0  0
 18 19  1  0  0  0  0
 19 39  1  0  0  0  0
 19 20  2  0  0  0  0
 40 43  1  0  0  0  0
  8 11  1  0  0  0  0
 49 50  1  0  0  0  0
 22 23  1  0  0  0  0
 21 22  1  0  0  0  0
 23 24  1  0  0  0  0
 18 21  1  0  0  0  0
 24 25  1  0  0  0  0
 39 40  1  0  0  0  0
  7  8  1  0  0  0  0
 17 18  1  0  0  0  0
  3  4  1  0  0  0  0
  3  5  1  0  0  0  0
  3  6  1  0  0  0  0
 43 46  1  0  0  0  0
 43 47  1  0  0  0  0
 43 48  1  0  0  0  0
 11 14  1  0  0  0  0
 11 15  1  0  0  0  0
 11 16  1  0  0  0  0
 50 52  1  0  0  0  0
 50 53  1  0  0  0  0
 50 54  1  0  0  0  0
 22 30  1  0  0  0  0
 22 31  1  0  0  0  0
 23 32  1  0  0  0  0
 23 33  1  0  0  0  0
 21 28  1  0  0  0  0
 21 29  1  0  0  0  0
 24 34  1  0  0  0  0
 24 35  1  0  0  0  0
 40 45  1  0  0  0  0
  8 13  1  0  0  0  0
 18 27  1  0  0  0  0
 49 51  1  0  0  0  0
  7 12  1  0  0  0  0
 39 44  1  0  0  0  0
 17 26  1  0  0  0  0
 25 36  1  0  0  0  0
 25 37  1  0  0  0  0
 25 38  1  0  0  0  0
M  CHG  1  25   1
M  END
$$$$

  -OEChem-05262214473D

 54 53  0     1  0  0  0  0  0999 V2000
    2.6714    2.8829   -3.0005 C   0  0  0  0  0  0  0  0  0  0  0  0
    3.1741    2.4398   -1.9745 O   0  0  0  0  0  0  0  0  0  0  0  0
    3.5527    3.3077   -4.1279 C   0  0  0  0  0  0  0  0  0  0  0  0
    3.8407    4.3691   -4.0597 H   0  0  0  0  0  0  0  0  0  0  0  0
    4.5024    2.7495   -4.1526 H   0  0  0  0  0  0  0  0  0  0  0  0
    3.1208    3.1887   -5.1345 H   0  0  0  0  0  0  0  0  0  0  0  0
    1.3174    3.0407   -3.2467 N   0  0  0  0  0  0  0  0  0  0  0  0
    0.2944    2.6927   -2.2960 C   0  0  2  0  0  0  0  0  0  0  0  0
    0.2976    1.1783   -2.1349 C   0  0  0  0  0  0  0  0  0  0  0  0
    0.7500    0.4142   -2.9850 O   0  0  0  0  0  0  0  0  0  0  0  0
   -1.0710    3.1886   -2.7460 C   0  0  0  0  0  0  0  0  0  0  0  0
    1.0312    3.4224   -4.1464 H   0  0  0  0  0  0  0  0  0  0  0  0
    0.5725    3.1622   -1.3461 H   0  0  0  0  0  0  0  0  0  0  0  0
   -1.3666    2.7292   -3.6963 H   0  0  0  0  0  0  0  0  0  0  0  0
   -1.8434    2.9482   -2.0082 H   0  0  0  0  0  0  0  0  0  0  0  0
   -1.0632    4.2744   -2.8901 H   0  0  0  0  0  0  0  0  0  0  0  0
   -0.3037    0.7742   -0.9484 N   0  0  0  0  0  0  0  0  0  0  0  0
   -0.4352   -0.6095   -0.5718 C   0  0  2  0  0  0  0  0  0  0  0  0
    0.7980   -1.0220    0.2251 C   0  0  0  0  0  0  0  0  0  0  0  0
    0.8605   -0.9460    1.4506 O   0  0  0  0  0  0  0  0  0  0  0  0
   -0.6902   -1.5120   -1.7848 C   0  0  0  0  0  0  0  0  0  0  0  0
   -2.0579   -1.2993   -2.4469 C   0  0  0  0  0  0  0  0  0  0  0  0
   -2.2518   -2.2484   -3.6318 C   0  0  0  0  0  0  0  0  0  0  0  0
   -3.5987   -2.0179   -4.3010 C   0  0  0  0  0  0  0  0  0  0  0  0
   -3.7323   -2.9399   -5.4544 N   0  3  0  0  0  0  0  0  0  0  0  0
   -0.6336    1.4811   -0.2948 H   0  0  0  0  0  0  0  0  0  0  0  0
   -1.3025   -0.6569    0.0978 H   0  0  0  0  0  0  0  0  0  0  0  0
    0.0953   -1.3326   -2.5303 H   0  0  0  0  0  0  0  0  0  0  0  0
   -0.6028   -2.5629   -1.4824 H   0  0  0  0  0  0  0  0  0  0  0  0
   -2.8577   -1.4678   -1.7165 H   0  0  0  0  0  0  0  0  0  0  0  0
   -2.1487   -0.2639   -2.7955 H   0  0  0  0  0  0  0  0  0  0  0  0
   -2.1817   -3.2871   -3.2856 H   0  0  0  0  0  0  0  0  0  0  0  0
   -1.4447   -2.0972   -4.3594 H   0  0  0  0  0  0  0  0  0  0  0  0
   -4.4334   -2.2305   -3.6264 H   0  0  0  0  0  0  0  0  0  0  0  0
   -3.6925   -1.0014   -4.6945 H   0  0  0  0  0  0  0  0  0  0  0  0
   -4.4457   -2.6058   -6.1116 H   0  0  0  0  0  0  0  0  0  0  0  0
   -4.0046   -3.8792   -5.1441 H   0  0  0  0  0  0  0  0  0  0  0  0
   -2.8461   -3.0208   -5.9651 H   0  0  0  0  0  0  0  0  0  0  0  0
    1.8084   -1.5158   -0.5874 N   0  0  0  0  0  0  0  0  0  0  0  0
    3.0653   -1.9837   -0.0536 C   0  0  2  0  0  0  0  0  0  0  0  0
    4.0386   -2.1441   -1.2140 C   0  0  0  0  0  0  0  0  0  0  0  0
    3.6750   -2.2950   -2.3785 O   0  0  0  0  0  0  0  0  0  0  0  0
    2.8938   -3.2951    0.6972 C   0  0  0  0  0  0  0  0  0  0  0  0
    1.6587   -1.5492   -1.5915 H   0  0  0  0  0  0  0  0  0  0  0  0
    3.4303   -1.2050    0.6249 H   0  0  0  0  0  0  0  0  0  0  0  0
    2.5288   -4.0875    0.0336 H   0  0  0  0  0  0  0  0  0  0  0  0
    3.8427   -3.6340    1.1257 H   0  0  0  0  0  0  0  0  0  0  0  0
    2.1710   -3.1855    1.5129 H   0  0  0  0  0  0  0  0  0  0  0  0
    5.3603   -2.1421   -0.7907 N   0  0  0  0  0  0  0  0  0  0  0  0
    6.4710   -2.2919   -1.7017 C   0  0  0  0  0  0  0  0  0  0  0  0
    5.5701   -1.9921    0.1918 H   0  0  0  0  0  0  0  0  0  0  0  0
    6.7449   -3.3548   -1.7751 H   0  0  0  0  0  0  0  0  0  0  0  0
    6.1830   -1.9182   -2.6953 H   0  0  0  0  0  0  0  0  0  0  0  0
    7.3312   -1.7166   -1.3287 H   0  0  0  0  0  0  0  0  0  0  0  0
  1  3  1  0  0  0  0
  1  7  1  0  0  0  0
  1  2  2  0  0  0  0
 40 41  1  0  0  0  0
 41 49  1  0  0  0  0
 41 42  2  0  0  0  0
  8  9  1  0  0  0  0
  9 17  1  0  0  0  0
  9 10  2  0  0  0  0
 18 19  1  0  0  0  0
 19 39  1  0  0  0  0
 19 20  2  0  0  0  0
 40 43  1  0  0  0  0
  8 11  1  0  0  0  0
 49 50  1  0  0  0  0
 22 23  1  0  0  0  0
 21 22  1  0  0  0  0
 23 24  1  0  0  0  0
 18 21  1  0  0  0  0
 24 25  1  0  0  0  0
 39 40  1  0  0  0  0
  7  8  1  0  0  0  0
 17 18  1  0  0  0  0
  3  4  1  0  0  0  0
  3  5  1  0  0  0  0
  3  6  1  0  0  0  0
 43 46  1  0  0  0  0
 43 47  1  0  0  0  0
 43 48  1  0  0  0  0
 11 14  1  0  0  0  0
 11 15  1  0  0  0  0
 11 16  1  0  0  0  0
 50 52  1  0  0  0  0
 50 53  1  0  0  0  0
 50 54  1  0  0  0  0
 22 30  1  0  0  0  0
 22 31  1  0  0  0  0
 23 32  1  0  0  0  0
 23 33  1  0  0  0  0
 21 28  1  0  0  0  0
 21 29  1  0  0  0  0
 24 34  1  0  0  0  0
 24 35  1  0  0  0  0
 40 45  1  0  0  0  0
  8 13  1  0  0  0  0
 18 27  1  0  0  0  0
 49 51  1  0  0  0  0
  7 12  1  0  0  0  0
 39 44  1  0  0  0  0
 17 26  1  0  0  0  0
 25 36  1  0  0  0  0
 25 37  1  0  0  0  0
 25 38  1  0  0  0  0
M  CHG  1  25   1
M  END
$$$$

  -OEChem-05262214473D

 54 53  0     1  0  0  0  0  0999 V2000
    2.6714    2.8829   -3.0005 C   0  0  0  0  0  0  0  0  0  0  0  0
    3.1741    2.4398   -1.9745 O   0  0  0  0  0  0  0  0  0  0  0  0
    3.5527    3.3077   -4.1279 C   0  0  0  0  0  0  0  0  0  0  0  0
    3.8407    4.3691   -4.0597 H   0  0  0  0  0  0  0  0  0  0  0  0
    4.5024    2.7495   -4.1526 H   0  0  0  0  0  0  0  0  0  0  0  0
    3.1208    3.1887   -5.1345 H   0  0  0  0  0  0  0  0  0  0  0  0
    1.3174    3.0407   -3.2467 N   0  0  0  0  0  0  0  0  0  0  0  0
    0.2944    2.6927   -2.2960 C   0  0  2  0  0  0  0  0  0  0  0  0
    0.2976    1.1783   -2.1349 C   0  0  0  0  0  0  0  0  0  0  0  0
    0.7500    0.4142   -2.9850 O   0  0  0  0  0  0  0  0  0  0  0  0
   -1.0710    3.1886   -2.7460 C   0  0  0  0  0  0  0  0  0  0  0  0
    1.0312    3.4224   -4.1464 H   0  0  0  0  0  0  0  0  0  0  0  0
    0.5725    3.1622   -1.3461 H   0  0  0  0  0  0  0  0  0  0  0  0
   -1.3666    2.7292   -3.6963 H   0  0  0  0  0  0  0  0  0  0  0  0
   -1.8434    2.9482   -2.0082 H   0  0  0  0  0  0  0  0  0  0  0  0
   -1.0632    4.2744   -2.8901 H   0  0  0  0  0  0  0  0  0  0  0  0
   -0.3037    0.7742   -0.9484 N   0  0  0  0  0  0  0  0  0  0  0  0
   -0.4352   -0.6095   -0.5718 C   0  0  2  0  0  0  0  0  0  0  0  0
    0.7980   -1.0220    0.2251 C   0  0  0  0  0  0  0  0  0  0  0  0
    0.7808   -1.2027    1.4410 O   0  0  0  0  0  0  0  0  0  0  0  0
   -0.6902   -1.5120   -1.7848 C   0  0  0  0  0  0  0  0  0  0  0  0
   -2.0579   -1.2993   -2.4469 C   0  0  0  0  0  0  0  0  0  0  0  0
   -2.2518   -2.2484   -3.6318 C   0  0  0  0  0  0  0  0  0  0  0  0
   -3.5987   -2.0179   -4.3010 C   0  0  0  0  0  0  0  0  0  0  0  0
   -3.7323   -2.9399   -5.4544 N   0  3  0  0  0  0  0  0  0  0  0  0
   -0.6336    1.4811   -0.2948 H   0  0  0  0  0  0  0  0  0  0  0  0
   -1.3025   -0.6569    0.0978 H   0  0  0  0  0  0  0  0  0  0  0  0
    0.0953   -1.3326   -2.5303 H   0  0  0  0  0  0  0  0  0  0  0  0
   -0.6028   -2.5629   -1.4824 H   0  0  0  0  0  0  0  0  0  0  0  0
   -2.8577   -1.4678   -1.7165 H   0  0  0  0  0  0  0  0  0  0  0  0
   -2.1487   -0.2639   -2.7955 H   0  0  0  0  0  0  0  0  0  0  0  0
   -2.1817   -3.2871   -3.2856 H   0  0  0  0  0  0  0  0  0  0  0  0
   -1.4447   -2.0972   -4.3594 H   0  0  0  0  0  0  0  0  0  0  0  0
   -4.4334   -2.2305   -3.6264 H   0  0  0  0  0  0  0  0  0  0  0  0
   -3.6925   -1.0014   -4.6945 H   0  0  0  0  0  0  0  0  0  0  0  0
   -4.4457   -2.6058   -6.1116 H   0  0  0  0  0  0  0  0  0  0  0  0
   -4.0046   -3.8792   -5.1441 H   0  0  0  0  0  0  0  0  0  0  0  0
   -2.8461   -3.0208   -5.9651 H   0  0  0  0  0  0  0  0  0  0  0  0
    1.9122   -1.1972   -0.5830 N   0  0  0  0  0  0  0  0  0  0  0  0
    3.1913   -1.6040   -0.0520 C   0  0  2  0  0  0  0  0  0  0  0  0
    4.2405   -1.3865   -1.1343 C   0  0  0  0  0  0  0  0  0  0  0  0
    3.9675   -1.3297   -2.3315 O   0  0  0  0  0  0  0  0  0  0  0  0
    3.1672   -3.0565    0.3976 C   0  0  0  0  0  0  0  0  0  0  0  0
    1.8248   -1.0337   -1.5816 H   0  0  0  0  0  0  0  0  0  0  0  0
    3.4031   -0.9484    0.7998 H   0  0  0  0  0  0  0  0  0  0  0  0
    2.9564   -3.7285   -0.4424 H   0  0  0  0  0  0  0  0  0  0  0  0
    4.1294   -3.3552    0.8264 H   0  0  0  0  0  0  0  0  0  0  0  0
    2.3919   -3.2174    1.1545 H   0  0  0  0  0  0  0  0  0  0  0  0
    5.5228   -1.3063   -0.6094 N   0  0  0  0  0  0  0  0  0  0  0  0
    6.6924   -1.1144   -1.4348 C   0  0  0  0  0  0  0  0  0  0  0  0
    5.6541   -1.3446    0.3971 H   0  0  0  0  0  0  0  0  0  0  0  0
    7.1189   -2.0930   -1.7005 H   0  0  0  0  0  0  0  0  0  0  0  0
    6.4098   -0.5766   -2.3517 H   0  0  0  0  0  0  0  0  0  0  0  0
    7.4396   -0.5272   -0.8808 H   0  0  0  0  0  0  0  0  0  0  0  0
  1  3  1  0  0  0  0
  1  7  1  0  0  0  0
  1  2  2  0  0  0  0
 40 41  1  0  0  0  0
 41 49  1  0  0  0  0
 41 42  2  0  0  0  0
  8  9  1  0  0  0  0
  9 17  1  0  0  0  0
  9 10  2  0  0  0  0
 18 19  1  0  0  0  0
 19 39  1  0  0  0  0
 19 20  2  0  0  0  0
 40 43  1  0  0  0  0
  8 11  1  0  0  0  0
 49 50  1  0  0  0  0
 22 23  1  0  0  0  0
 21 22  1  0  0  0  0
 23 24  1  0  0  0  0
 18 21  1  0  0  0  0
 24 25  1  0  0  0  0
 39 40  1  0  0  0  0
  7  8  1  0  0  0  0
 17 18  1  0  0  0  0
  3  4  1  0  0  0  0
  3  5  1  0  0  0  0
  3  6  1  0  0  0  0
 43 46  1  0  0  0  0
 43 47  1  0  0  0  0
 43 48  1  0  0  0  0
 11 14  1  0  0  0  0
 11 15  1  0  0  0  0
 11 16  1  0  0  0  0
 50 52  1  0  0  0  0
 50 53  1  0  0  0  0
 50 54  1  0  0  0  0
 22 30  1  0  0  0  0
 22 31  1  0  0  0  0
 23 32  1  0  0  0  0
 23 33  1  0  0  0  0
 21 28  1  0  0  0  0
 21 29  1  0  0  0  0
 24 34  1  0  0  0  0
 24 35  1  0  0  0  0
 40 45  1  0  0  0  0
  8 13  1  0  0  0  0
 18 27  1  0  0  0  0
 49 51  1  0  0  0  0
  7 12  1  0  0  0  0
 39 44  1  0  0  0  0
 17 26  1  0  0  0  0
 25 36  1  0  0  0  0
 25 37  1  0  0  0  0
 25 38  1  0  0  0  0
M  CHG  1  25   1
M  END
$$$$

  -OEChem-05262214473D

 54 53  0     1  0  0  0  0  0999 V2000
    2.6714    2.8829   -3.0005 C   0  0  0  0  0  0  0  0  0  0  0  0
    3.1741    2.4398   -1.9745 O   0  0  0  0  0  0  0  0  0  0  0  0
    3.5527    3.3077   -4.1279 C   0  0  0  0  0  0  0  0  0  0  0  0
    3.8407    4.3691   -4.0597 H   0  0  0  0  0  0  0  0  0  0  0  0
    4.5024    2.7495   -4.1526 H   0  0  0  0  0  0  0  0  0  0  0  0
    3.1208    3.1887   -5.1345 H   0  0  0  0  0  0  0  0  0  0  0  0
    1.3174    3.0407   -3.2467 N   0  0  0  0  0  0  0  0  0  0  0  0
    0.2944    2.6927   -2.2960 C   0  0  2  0  0  0  0  0  0  0  0  0
    0.2976    1.1783   -2.1349 C   0  0  0  0  0  0  0  0  0  0  0  0
    0.7500    0.4142   -2.9850 O   0  0  0  0  0  0  0  0  0  0  0  0
   -1.0710    3.1886   -2.7460 C   0  0  0  0  0  0  0  0  0  0  0  0
    1.0312    3.4224   -4.1464 H   0  0  0  0  0  0  0  0  0  0  0  0
    0.5725    3.1622   -1.3461 H   0  0  0  0  0  0  0  0  0  0  0  0
   -1.3666    2.7292   -3.6963 H   0  0  0  0  0  0  0  0  0  0  0  0
   -1.8434    2.9482   -2.0082 H   0  0  0  0  0  0  0  0  0  0  0  0
   -1.0632    4.2744   -2.8901 H   0  0  0  0  0  0  0  0  0  0  0  0
   -0.3037    0.7742   -0.9484 N   0  0  0  0  0  0  0  0  0  0  0  0
   -0.4352   -0.6095   -0.5718 C   0  0  2  0  0  0  0  0  0  0  0  0
    0.7980   -1.0220    0.2251 C   0  0  0  0  0  0  0  0  0  0  0  0
    0.7391   -1.4596    1.3725 O   0  0  0  0  0  0  0  0  0  0  0  0
   -0.6902   -1.5120   -1.7848 C   0  0  0  0  0  0  0  0  0  0  0  0
   -2.0579   -1.2993   -2.4469 C   0  0  0  0  0  0  0  0  0  0  0  0
   -2.2518   -2.2484   -3.6318 C   0  0  0  0  0  0  0  0  0  0  0  0
   -3.5987   -2.0179   -4.3010 C   0  0  0  0  0  0  0  0  0  0  0  0
   -3.7323   -2.9399   -5.4544 N   0  3  0  0  0  0  0  0  0  0  0  0
   -0.6336    1.4811   -0.2948 H   0  0  0  0  0  0  0  0  0  0  0  0
   -1.3025   -0.6569    0.0978 H   0  0  0  0  0  0  0  0  0  0  0  0
    0.0953   -1.3326   -2.5303 H   0  0  0  0  0  0  0  0  0  0  0  0
   -0.6028   -2.5629   -1.4824 H   0  0  0  0  0  0  0  0  0  0  0  0
   -2.8577   -1.4678   -1.7165 H   0  0  0  0  0  0  0  0  0  0  0  0
   -2.1487   -0.2639   -2.7955 H   0  0  0  0  0  0  0  0  0  0  0  0
   -2.1817   -3.2871   -3.2856 H   0  0  0  0  0  0  0  0  0  0  0  0
   -1.4447   -2.0972   -4.3594 H   0  0  0  0  0  0  0  0  0  0  0  0
   -4.4334   -2.2305   -3.6264 H   0  0  0  0  0  0  0  0  0  0  0  0
   -3.6925   -1.0014   -4.6945 H   0  0  0  0  0  0  0  0  0  0  0  0
   -4.4457   -2.6058   -6.1116 H   0  0  0  0  0  0  0  0  0  0  0  0
   -4.0046   -3.8792   -5.1441 H   0  0  0  0  0  0  0  0  0  0  0  0
   -2.8461   -3.0208   -5.9651 H   0  0  0  0  0  0  0  0  0  0  0  0
    1.9690   -0.8763   -0.5048 N   0  0  0  0  0  0  0  0  0  0  0  0
    3.2615   -1.2204    0.0379 C   0  0  2  0  0  0  0  0  0  0  0  0
    4.3275   -0.6440   -0.8845 C   0  0  0  0  0  0  0  0  0  0  0  0
    4.1162   -0.3677   -2.0635 O   0  0  0  0  0  0  0  0  0  0  0  0
    3.4199   -2.7265    0.1773 C   0  0  0  0  0  0  0  0  0  0  0  0
    1.9149   -0.5153   -1.4526 H   0  0  0  0  0  0  0  0  0  0  0  0
    3.3299   -0.7409    1.0205 H   0  0  0  0  0  0  0  0  0  0  0  0
    3.3542   -3.2243   -0.7970 H   0  0  0  0  0  0  0  0  0  0  0  0
    4.3896   -2.9846    0.6156 H   0  0  0  0  0  0  0  0  0  0  0  0
    2.6347   -3.1434    0.8171 H   0  0  0  0  0  0  0  0  0  0  0  0
    5.5541   -0.5149   -0.2481 N   0  0  0  0  0  0  0  0  0  0  0  0
    6.7284   -0.0029   -0.9151 C   0  0  0  0  0  0  0  0  0  0  0  0
    5.6333   -0.7507    0.7367 H   0  0  0  0  0  0  0  0  0  0  0  0
    7.3042   -0.8392   -1.3383 H   0  0  0  0  0  0  0  0  0  0  0  0
    6.4233    0.6781   -1.7232 H   0  0  0  0  0  0  0  0  0  0  0  0
    7.3522    0.5426   -0.1917 H   0  0  0  0  0  0  0  0  0  0  0  0
  1  3  1  0  0  0  0
  1  7  1  0  0  0  0
  1  2  2  0  0  0  0
 40 41  1  0  0  0  0
 41 49  1  0  0  0  0
 41 42  2  0  0  0  0
  8  9  1  0  0  0  0
  9 17  1  0  0  0  0
  9 10  2  0  0  0  0
 18 19  1  0  0  0  0
 19 39  1  0  0  0  0
 19 20  2  0  0  0  0
 40 43  1  0  0  0  0
  8 11  1  0  0  0  0
 49 50  1  0  0  0  0
 22 23  1  0  0  0  0
 21 22  1  0  0  0  0
 23 24  1  0  0  0  0
 18 21  1  0  0  0  0
 24 25  1  0  0  0  0
 39 40  1  0  0  0  0
  7  8  1  0  0  0  0
 17 18  1  0  0  0  0
  3  4  1  0  0  0  0
  3  5  1  0  0  0  0
  3  6  1  0  0  0  0
 43 46  1  0  0  0  0
 43 47  1  0  0  0  0
 43 48  1  0  0  0  0
 11 14  1  0  0  0  0
 11 15  1  0  0  0  0
 11 16  1  0  0  0  0
 50 52  1  0  0  0  0
 50 53  1  0  0  0  0
 50 54  1  0  0  0  0
 22 30  1  0  0  0  0
 22 31  1  0  0  0  0
 23 32  1  0  0  0  0
 23 33  1  0  0  0  0
 21 28  1  0  0  0  0
 21 29  1  0  0  0  0
 24 34  1  0  0  0  0
 24 35  1  0  0  0  0
 40 45  1  0  0  0  0
  8 13  1  0  0  0  0
 18 27  1  0  0  0  0
 49 51  1  0  0  0  0
  7 12  1  0  0  0  0
 39 44  1  0  0  0  0
 17 26  1  0  0  0  0
 25 36  1  0  0  0  0
 25 37  1  0  0  0  0
 25 38  1  0  0  0  0
M  CHG  1  25   1
M  END
$$$$

  -OEChem-05262214473D

 54 53  0     1  0  0  0  0  0999 V2000
    2.6714    2.8829   -3.0005 C   0  0  0  0  0  0  0  0  0  0  0  0
    3.1741    2.4398   -1.9745 O   0  0  0  0  0  0  0  0  0  0  0  0
    3.5527    3.3077   -4.1279 C   0  0  0  0  0  0  0  0  0  0  0  0
    3.8407    4.3691   -4.0597 H   0  0  0  0  0  0  0  0  0  0  0  0
    4.5024    2.7495   -4.1526 H   0  0  0  0  0  0  0  0  0  0  0  0
    3.1208    3.1887   -5.1345 H   0  0  0  0  0  0  0  0  0  0  0  0
    1.3174    3.0407   -3.2467 N   0  0  0  0  0  0  0  0  0  0  0  0
    0.2944    2.6927   -2.2960 C   0  0  2  0  0  0  0  0  0  0  0  0
    0.2976    1.1783   -2.1349 C   0  0  0  0  0  0  0  0  0  0  0  0
    0.7500    0.4142   -2.9850 O   0  0  0  0  0  0  0  0  0  0  0  0
   -1.0710    3.1886   -2.7460 C   0  0  0  0  0  0  0  0  0  0  0  0
    1.0312    3.4224   -4.1464 H   0  0  0  0  0  0  0  0  0  0  0  0
    0.5725    3.1622   -1.3461 H   0  0  0  0  0  0  0  0  0  0  0  0
   -1.3666    2.7292   -3.6963 H   0  0  0  0  0  0  0  0  0  0  0  0
   -1.8434    2.9482   -2.0082 H   0  0  0  0  0  0  0  0  0  0  0  0
   -1.0632    4.2744   -2.8901 H   0  0  0  0  0  0  0  0  0  0  0  0
   -0.3037    0.7742   -0.9484 N   0  0  0  0  0  0  0  0  0  0  0  0
   -0.4352   -0.6095   -0.5718 C   0  0  2  0  0  0  0  0  0  0  0  0
    0.7980   -1.0220    0.2251 C   0  0  0  0  0  0  0  0  0  0  0  0
    0.7384   -1.6989    1.2496 O   0  0  0  0  0  0  0  0  0  0  0  0
   -0.6902   -1.5120   -1.7848 C   0  0  0  0  0  0  0  0  0  0  0  0
   -2.0579   -1.2993   -2.4469 C   0  0  0  0  0  0  0  0  0  0  0  0
   -2.2518   -2.2484   -3.6318 C   0  0  0  0  0  0  0  0  0  0  0  0
   -3.5987   -2.0179   -4.3010 C   0  0  0  0  0  0  0  0  0  0  0  0
   -3.7323   -2.9399   -5.4544 N   0  3  0  0  0  0  0  0  0  0  0  0
   -0.6336    1.4811   -0.2948 H   0  0  0  0  0  0  0  0  0  0  0  0
   -1.3025   -0.6569    0.0978 H   0  0  0  0  0  0  0  0  0  0  0  0
    0.0953   -1.3326   -2.5303 H   0  0  0  0  0  0  0  0  0  0  0  0
   -0.6028   -2.5629   -1.4824 H   0  0  0  0  0  0  0  0  0  0  0  0
   -2.8577   -1.4678   -1.7165 H   0  0  0  0  0  0  0  0  0  0  0  0
   -2.1487   -0.2639   -2.7955 H   0  0  0  0  0  0  0  0  0  0  0  0
   -2.1817   -3.2871   -3.2856 H   0  0  0  0  0  0  0  0  0  0  0  0
   -1.4447   -2.0972   -4.3594 H   0  0  0  0  0  0  0  0  0  0  0  0
   -4.4334   -2.2305   -3.6264 H   0  0  0  0  0  0  0  0  0  0  0  0
   -3.6925   -1.0014   -4.6945 H   0  0  0  0  0  0  0  0  0  0  0  0
   -4.4457   -2.6058   -6.1116 H   0  0  0  0  0  0  0  0  0  0  0  0
   -4.0046   -3.8792   -5.1441 H   0  0  0  0  0  0  0  0  0  0  0  0
   -2.8461   -3.0208   -5.9651 H   0  0  0  0  0  0  0  0  0  0  0  0
    1.9749   -0.5750   -0.3580 N   0  0  0  0  0  0  0  0  0  0  0  0
    3.2712   -0.8593    0.2099 C   0  0  2  0  0  0  0  0  0  0  0  0
    4.2936    0.0326   -0.4819 C   0  0  0  0  0  0  0  0  0  0  0  0
    4.1109    0.5256   -1.5930 O   0  0  0  0  0  0  0  0  0  0  0  0
    3.6349   -2.3274    0.0513 C   0  0  0  0  0  0  0  0  0  0  0  0
    1.9227   -0.0294   -1.2132 H   0  0  0  0  0  0  0  0  0  0  0  0
    3.2157   -0.5966    1.2719 H   0  0  0  0  0  0  0  0  0  0  0  0
    3.6952   -2.6093   -1.0063 H   0  0  0  0  0  0  0  0  0  0  0  0
    4.6056   -2.5473    0.5078 H   0  0  0  0  0  0  0  0  0  0  0  0
    2.8828   -2.9685    0.5237 H   0  0  0  0  0  0  0  0  0  0  0  0
    5.4519    0.1781    0.2687 N   0  0  0  0  0  0  0  0  0  0  0  0
    6.5764    0.9668   -0.1779 C   0  0  0  0  0  0  0  0  0  0  0  0
    5.5091   -0.2510    1.1876 H   0  0  0  0  0  0  0  0  0  0  0  0
    7.2883    0.3211   -0.7130 H   0  0  0  0  0  0  0  0  0  0  0  0
    6.2227    1.7604   -0.8525 H   0  0  0  0  0  0  0  0  0  0  0  0
    7.0748    1.4199    0.6917 H   0  0  0  0  0  0  0  0  0  0  0  0
  1  3  1  0  0  0  0
  1  7  1  0  0  0  0
  1  2  2  0  0  0  0
 40 41  1  0  0  0  0
 41 49  1  0  0  0  0
 41 42  2  0  0  0  0
  8  9  1  0  0  0  0
  9 17  1  0  0  0  0
  9 10  2  0  0  0  0
 18 19  1  0  0  0  0
 19 39  1  0  0  0  0
 19 20  2  0  0  0  0
 40 43  1  0  0  0  0
  8 11  1  0  0  0  0
 49 50  1  0  0  0  0
 22 23  1  0  0  0  0
 21 22  1  0  0  0  0
 23 24  1  0  0  0  0
 18 21  1  0  0  0  0
 24 25  1  0  0  0  0
 39 40  1  0  0  0  0
  7  8  1  0  0  0  0
 17 18  1  0  0  0  0
  3  4  1  0  0  0  0
  3  5  1  0  0  0  0
  3  6  1  0  0  0  0
 43 46  1  0  0  0  0
 43 47  1  0  0  0  0
 43 48  1  0  0  0  0
 11 14  1  0  0  0  0
 11 15  1  0  0  0  0
 11 16  1  0  0  0  0
 50 52  1  0  0  0  0
 50 53  1  0  0  0  0
 50 54  1  0  0  0  0
 22 30  1  0  0  0  0
 22 31  1  0  0  0  0
 23 32  1  0  0  0  0
 23 33  1  0  0  0  0
 21 28  1  0  0  0  0
 21 29  1  0  0  0  0
 24 34  1  0  0  0  0
 24 35  1  0  0  0  0
 40 45  1  0  0  0  0
  8 13  1  0  0  0  0
 18 27  1  0  0  0  0
 49 51  1  0  0  0  0
  7 12  1  0  0  0  0
 39 44  1  0  0  0  0
 17 26  1  0  0  0  0
 25 36  1  0  0  0  0
 25 37  1  0  0  0  0
 25 38  1  0  0  0  0
M  CHG  1  25   1
M  END
$$$$

  -OEChem-05262214473D

 54 53  0     1  0  0  0  0  0999 V2000
    2.6714    2.8829   -3.0005 C   0  0  0  0  0  0  0  0  0  0  0  0
    3.1741    2.4398   -1.9745 O   0  0  0  0  0  0  0  0  0  0  0  0
    3.5527    3.3077   -4.1279 C   0  0  0  0  0  0  0  0  0  0  0  0
    3.8407    4.3691   -4.0597 H   0  0  0  0  0  0  0  0  0  0  0  0
    4.5024    2.7495   -4.1526 H   0  0  0  0  0  0  0  0  0  0  0  0
    3.1208    3.1887   -5.1345 H   0  0  0  0  0  0  0  0  0  0  0  0
    1.3174    3.0407   -3.2467 N   0  0  0  0  0  0  0  0  0  0  0  0
    0.2944    2.6927   -2.2960 C   0  0  2  0  0  0  0  0  0  0  0  0
    0.2976    1.1783   -2.1349 C   0  0  0  0  0  0  0  0  0  0  0  0
    0.7500    0.4142   -2.9850 O   0  0  0  0  0  0  0  0  0  0  0  0
   -1.0710    3.1886   -2.7460 C   0  0  0  0  0  0  0  0  0  0  0  0
    1.0312    3.4224   -4.1464 H   0  0  0  0  0  0  0  0  0  0  0  0
    0.5725    3.1622   -1.3461 H   0  0  0  0  0  0  0  0  0  0  0  0
   -1.3666    2.7292   -3.6963 H   0  0  0  0  0  0  0  0  0  0  0  0
   -1.8434    2.9482   -2.0082 H   0  0  0  0  0  0  0  0  0  0  0  0
   -1.0632    4.2744   -2.8901 H   0  0  0  0  0  0  0  0  0  0  0  0
   -0.3037    0.7742   -0.9484 N   0  0  0  0  0  0  0  0  0  0  0  0
   -0.4352   -0.6095   -0.5718 C   0  0  2  0  0  0  0  0  0  0  0  0
    0.7980   -1.0220    0.2251 C   0  0  0  0  0  0  0  0  0  0  0  0
    0.7788   -1.9045    1.0808 O   0  0  0  0  0  0  0  0  0  0  0  0
   -0.6902   -1.5120   -1.7848 C   0  0  0  0  0  0  0  0  0  0  0  0
   -2.0579   -1.2993   -2.4469 C   0  0  0  0  0  0  0  0  0  0  0  0
   -2.2518   -2.2484   -3.6318 C   0  0  0  0  0  0  0  0  0  0  0  0
   -3.5987   -2.0179   -4.3010 C   0  0  0  0  0  0  0  0  0  0  0  0
   -3.7323   -2.9399   -5.4544 N   0  3  0  0  0  0  0  0  0  0  0  0
   -0.6336    1.4811   -0.2948 H   0  0  0  0  0  0  0  0  0  0  0  0
   -1.3025   -0.6569    0.0978 H   0  0  0  0  0  0  0  0  0  0  0  0
    0.0953   -1.3326   -2.5303 H   0  0  0  0  0  0  0  0  0  0  0  0
   -0.6028   -2.5629   -1.4824 H   0  0  0  0  0  0  0  0  0  0  0  0
   -2.8577   -1.4678   -1.7165 H   0  0  0  0  0  0  0  0  0  0  0  0
   -2.1487   -0.2639   -2.7955 H   0  0  0  0  0  0  0  0  0  0  0  0
   -2.1817   -3.2871   -3.2856 H   0  0  0  0  0  0  0  0  0  0  0  0
   -1.4447   -2.0972   -4.3594 H   0  0  0  0  0  0  0  0  0  0  0  0
   -4.4334   -2.2305   -3.6264 H   0  0  0  0  0  0  0  0  0  0  0  0
   -3.6925   -1.0014   -4.6945 H   0  0  0  0  0  0  0  0  0  0  0  0
   -4.4457   -2.6058   -6.1116 H   0  0  0  0  0  0  0  0  0  0  0  0
   -4.0046   -3.8792   -5.1441 H   0  0  0  0  0  0  0  0  0  0  0  0
   -2.8461   -3.0208   -5.9651 H   0  0  0  0  0  0  0  0  0  0  0  0
    1.9297   -0.3139   -0.1529 N   0  0  0  0  0  0  0  0  0  0  0  0
    3.2196   -0.5452    0.4523 C   0  0  2  0  0  0  0  0  0  0  0  0
    4.1413    0.5973    0.0463 C   0  0  0  0  0  0  0  0  0  0  0  0
    3.9521    1.2893   -0.9519 O   0  0  0  0  0  0  0  0  0  0  0  0
    3.7973   -1.8865    0.0281 C   0  0  0  0  0  0  0  0  0  0  0  0
    1.8478    0.3908   -0.8797 H   0  0  0  0  0  0  0  0  0  0  0  0
    3.0682   -0.5252    1.5371 H   0  0  0  0  0  0  0  0  0  0  0  0
    3.9559   -1.9253   -1.0558 H   0  0  0  0  0  0  0  0  0  0  0  0
    4.7626   -2.0731    0.5103 H   0  0  0  0  0  0  0  0  0  0  0  0
    3.1193   -2.7046    0.2943 H   0  0  0  0  0  0  0  0  0  0  0  0
    5.2234    0.7255    0.9058 N   0  0  0  0  0  0  0  0  0  0  0  0
    6.2469    1.7286    0.7264 C   0  0  0  0  0  0  0  0  0  0  0  0
    5.2900    0.1206    1.7191 H   0  0  0  0  0  0  0  0  0  0  0  0
    7.0723    1.3089    0.1326 H   0  0  0  0  0  0  0  0  0  0  0  0
    5.8216    2.5964    0.2010 H   0  0  0  0  0  0  0  0  0  0  0  0
    6.6264    2.0449    1.7093 H   0  0  0  0  0  0  0  0  0  0  0  0
  1  3  1  0  0  0  0
  1  7  1  0  0  0  0
  1  2  2  0  0  0  0
 40 41  1  0  0  0  0
 41 49  1  0  0  0  0
 41 42  2  0  0  0  0
  8  9  1  0  0  0  0
  9 17  1  0  0  0  0
  9 10  2  0  0  0  0
 18 19  1  0  0  0  0
 19 39  1  0  0  0  0
 19 20  2  0  0  0  0
 40 43  1  0  0  0  0
  8 11  1  0  0  0  0
 49 50  1  0  0  0  0
 22 23  1  0  0  0  0
 21 22  1  0  0  0  0
 23 24  1  0  0  0  0
 18 21  1  0  0  0  0
 24 25  1  0  0  0  0
 39 40  1  0  0  0  0
  7  8  1  0  0  0  0
 17 18  1  0  0  0  0
  3  4  1  0  0  0  0
  3  5  1  0  0  0  0
  3  6  1  0  0  0  0
 43 46  1  0  0  0  0
 43 47  1  0  0  0  0
 43 48  1  0  0  0  0
 11 14  1  0  0  0  0
 11 15  1  0  0  0  0
 11 16  1  0  0  0  0
 50 52  1  0  0  0  0
 50 53  1  0  0  0  0
 50 54  1  0  0  0  0
 22 30  1  0  0  0  0
 22 31  1  0  0  0  0
 23 32  1  0  0  0  0
 23 33  1  0  0  0  0
 21 28  1  0  0  0  0
 21 29  1  0  0  0  0
 24 34  1  0  0  0  0
 24 35  1  0  0  0  0
 40 45  1  0  0  0  0
  8 13  1  0  0  0  0
 18 27  1  0  0  0  0
 49 51  1  0  0  0  0
  7 12  1  0  0  0  0
 39 44  1  0  0  0  0
 17 26  1  0  0  0  0
 25 36  1  0  0  0  0
 25 37  1  0  0  0  0
 25 38  1  0  0  0  0
M  CHG  1  25   1
M  END
$$$$

  -OEChem-05262214473D

 54 53  0     1  0  0  0  0  0999 V2000
    2.6714    2.8829   -3.0005 C   0  0  0  0  0  0  0  0  0  0  0  0
    3.1741    2.4398   -1.9745 O   0  0  0  0  0  0  0  0  0  0  0  0
    3.5527    3.3077   -4.1279 C   0  0  0  0  0  0  0  0  0  0  0  0
    3.8407    4.3691   -4.0597 H   0  0  0  0  0  0  0  0  0  0  0  0
    4.5024    2.7495   -4.1526 H   0  0  0  0  0  0  0  0  0  0  0  0
    3.1208    3.1887   -5.1345 H   0  0  0  0  0  0  0  0  0  0  0  0
    1.3174    3.0407   -3.2467 N   0  0  0  0  0  0  0  0  0  0  0  0
    0.2944    2.6927   -2.2960 C   0  0  2  0  0  0  0  0  0  0  0  0
    0.2976    1.1783   -2.1349 C   0  0  0  0  0  0  0  0  0  0  0  0
    0.7500    0.4142   -2.9850 O   0  0  0  0  0  0  0  0  0  0  0  0
   -1.0710    3.1886   -2.7460 C   0  0  0  0  0  0  0  0  0  0  0  0
    1.0312    3.4224   -4.1464 H   0  0  0  0  0  0  0  0  0  0  0  0
    0.5725    3.1622   -1.3461 H   0  0  0  0  0  0  0  0  0  0  0  0
   -1.3666    2.7292   -3.6963 H   0  0  0  0  0  0  0  0  0  0  0  0
   -1.8434    2.9482   -2.0082 H   0  0  0  0  0  0  0  0  0  0  0  0
   -1.0632    4.2744   -2.8901 H   0  0  0  0  0  0  0  0  0  0  0  0
   -0.3037    0.7742   -0.9484 N   0  0  0  0  0  0  0  0  0  0  0  0
   -0.4352   -0.6095   -0.5718 C   0  0  2  0  0  0  0  0  0  0  0  0
    0.7980   -1.0220    0.2251 C   0  0  0  0  0  0  0  0  0  0  0  0
    0.8573   -2.0623    0.8776 O   0  0  0  0  0  0  0  0  0  0  0  0
   -0.6902   -1.5120   -1.7848 C   0  0  0  0  0  0  0  0  0  0  0  0
   -2.0579   -1.2993   -2.4469 C   0  0  0  0  0  0  0  0  0  0  0  0
   -2.2518   -2.2484   -3.6318 C   0  0  0  0  0  0  0  0  0  0  0  0
   -3.5987   -2.0179   -4.3010 C   0  0  0  0  0  0  0  0  0  0  0  0
   -3.7323   -2.9399   -5.4544 N   0  3  0  0  0  0  0  0  0  0  0  0
   -0.6336    1.4811   -0.2948 H   0  0  0  0  0  0  0  0  0  0  0  0
   -1.3025   -0.6569    0.0978 H   0  0  0  0  0  0  0  0  0  0  0  0
    0.0953   -1.3326   -2.5303 H   0  0  0  0  0  0  0  0  0  0  0  0
   -0.6028   -2.5629   -1.4824 H   0  0  0  0  0  0  0  0  0  0  0  0
   -2.8577   -1.4678   -1.7165 H   0  0  0  0  0  0  0  0  0  0  0  0
   -2.1487   -0.2639   -2.7955 H   0  0  0  0  0  0  0  0  0  0  0  0
   -2.1817   -3.2871   -3.2856 H   0  0  0  0  0  0  0  0  0  0  0  0
   -1.4447   -2.0972   -4.3594 H   0  0  0  0  0  0  0  0  0  0  0  0
   -4.4334   -2.2305   -3.6264 H   0  0  0  0  0  0  0  0  0  0  0  0
   -3.6925   -1.0014   -4.6945 H   0  0  0  0  0  0  0  0  0  0  0  0
   -4.4457   -2.6058   -6.1116 H   0  0  0  0  0  0  0  0  0  0  0  0
   -4.0046   -3.8792   -5.1441 H   0  0  0  0  0  0  0  0  0  0  0  0
   -2.8461   -3.0208   -5.9651 H   0  0  0  0  0  0  0  0  0  0  0  0
    1.8363   -0.1107    0.0968 N   0  0  0  0  0  0  0  0  0  0  0  0
    3.1104   -0.2995    0.7486 C   0  0  2  0  0  0  0  0  0  0  0  0
    3.8807    1.0116    0.6640 C   0  0  0  0  0  0  0  0  0  0  0  0
    3.6506    1.8713   -0.1839 O   0  0  0  0  0  0  0  0  0  0  0  0
    3.8962   -1.4338    0.1094 C   0  0  0  0  0  0  0  0  0  0  0  0
    1.6952    0.7169   -0.4748 H   0  0  0  0  0  0  0  0  0  0  0  0
    2.8976   -0.5317    1.7978 H   0  0  0  0  0  0  0  0  0  0  0  0
    4.1188   -1.2191   -0.9422 H   0  0  0  0  0  0  0  0  0  0  0  0
    4.8499   -1.5944    0.6229 H   0  0  0  0  0  0  0  0  0  0  0  0
    3.3282   -2.3696    0.1445 H   0  0  0  0  0  0  0  0  0  0  0  0
    4.8839    1.0901    1.6198 N   0  0  0  0  0  0  0  0  0  0  0  0
    5.7623    2.2307    1.7363 C   0  0  0  0  0  0  0  0  0  0  0  0
    4.9909    0.3386    2.2948 H   0  0  0  0  0  0  0  0  0  0  0  0
    6.6708    2.0568    1.1411 H   0  0  0  0  0  0  0  0  0  0  0  0
    5.2474    3.1292    1.3654 H   0  0  0  0  0  0  0  0  0  0  0  0
    6.0375    2.3751    2.7915 H   0  0  0  0  0  0  0  0  0  0  0  0
  1  3  1  0  0  0  0
  1  7  1  0  0  0  0
  1  2  2  0  0  0  0
 40 41  1  0  0  0  0
 41 49  1  0  0  0  0
 41 42  2  0  0  0  0
  8  9  1  0  0  0  0
  9 17  1  0  0  0  0
  9 10  2  0  0  0  0
 18 19  1  0  0  0  0
 19 39  1  0  0  0  0
 19 20  2  0  0  0  0
 40 43  1  0  0  0  0
  8 11  1  0  0  0  0
 49 50  1  0  0  0  0
 22 23  1  0  0  0  0
 21 22  1  0  0  0  0
 23 24  1  0  0  0  0
 18 21  1  0  0  0  0
 24 25  1  0  0  0  0
 39 40  1  0  0  0  0
  7  8  1  0  0  0  0
 17 18  1  0  0  0  0
  3  4  1  0  0  0  0
  3  5  1  0  0  0  0
  3  6  1  0  0  0  0
 43 46  1  0  0  0  0
 43 47  1  0  0  0  0
 43 48  1  0  0  0  0
 11 14  1  0  0  0  0
 11 15  1  0  0  0  0
 11 16  1  0  0  0  0
 50 52  1  0  0  0  0
 50 53  1  0  0  0  0
 50 54  1  0  0  0  0
 22 30  1  0  0  0  0
 22 31  1  0  0  0  0
 23 32  1  0  0  0  0
 23 33  1  0  0  0  0
 21 28  1  0  0  0  0
 21 29  1  0  0  0  0
 24 34  1  0  0  0  0
 24 35  1  0  0  0  0
 40 45  1  0  0  0  0
  8 13  1  0  0  0  0
 18 27  1  0  0  0  0
 49 51  1  0  0  0  0
  7 12  1  0  0  0  0
 39 44  1  0  0  0  0
 17 26  1  0  0  0  0
 25 36  1  0  0  0  0
 25 37  1  0  0  0  0
 25 38  1  0  0  0  0
M  CHG  1  25   1
M  END
$$$$

  -OEChem-05262214473D

 54 53  0     1  0  0  0  0  0999 V2000
    2.6714    2.8829   -3.0005 C   0  0  0  0  0  0  0  0  0  0  0  0
    3.1741    2.4398   -1.9745 O   0  0  0  0  0  0  0  0  0  0  0  0
    3.5527    3.3077   -4.1279 C   0  0  0  0  0  0  0  0  0  0  0  0
    3.8407    4.3691   -4.0597 H   0  0  0  0  0  0  0  0  0  0  0  0
    4.5024    2.7495   -4.1526 H   0  0  0  0  0  0  0  0  0  0  0  0
    3.1208    3.1887   -5.1345 H   0  0  0  0  0  0  0  0  0  0  0  0
    1.3174    3.0407   -3.2467 N   0  0  0  0  0  0  0  0  0  0  0  0
    0.2944    2.6927   -2.2960 C   0  0  2  0  0  0  0  0  0  0  0  0
    0.2976    1.1783   -2.1349 C   0  0  0  0  0  0  0  0  0  0  0  0
    0.7500    0.4142   -2.9850 O   0  0  0  0  0  0  0  0  0  0  0  0
   -1.0710    3.1886   -2.7460 C   0  0  0  0  0  0  0  0  0  0  0  0
    1.0312    3.4224   -4.1464 H   0  0  0  0  0  0  0  0  0  0  0  0
    0.5725    3.1622   -1.3461 H   0  0  0  0  0  0  0  0  0  0  0  0
   -1.3666    2.7292   -3.6963 H   0  0  0  0  0  0  0  0  0  0  0  0
   -1.8434    2.9482   -2.0082 H   0  0  0  0  0  0  0  0  0  0  0  0
   -1.0632    4.2744   -2.8901 H   0  0  0  0  0  0  0  0  0  0  0  0
   -0.3037    0.7742   -0.9484 N   0  0  0  0  0  0  0  0  0  0  0  0
   -0.4352   -0.6095   -0.5718 C   0  0  2  0  0  0  0  0  0  0  0  0
    0.7980   -1.0220    0.2251 C   0  0  0  0  0  0  0  0  0  0  0  0
    0.9688   -2.1616    0.6537 O   0  0  0  0  0  0  0  0  0  0  0  0
   -0.6902   -1.5120   -1.7848 C   0  0  0  0  0  0  0  0  0  0  0  0
   -2.0579   -1.2993   -2.4469 C   0  0  0  0  0  0  0  0  0  0  0  0
   -2.2518   -2.2484   -3.6318 C   0  0  0  0  0  0  0  0  0  0  0  0
   -3.5987   -2.0179   -4.3010 C   0  0  0  0  0  0  0  0  0  0  0  0
   -3.7323   -2.9399   -5.4544 N   0  3  0  0  0  0  0  0  0  0  0  0
   -0.6336    1.4811   -0.2948 H   0  0  0  0  0  0  0  0  0  0  0  0
   -1.3025   -0.6569    0.0978 H   0  0  0  0  0  0  0  0  0  0  0  0
    0.0953   -1.3326   -2.5303 H   0  0  0  0  0  0  0  0  0  0  0  0
   -0.6028   -2.5629   -1.4824 H   0  0  0  0  0  0  0  0  0  0  0  0
   -2.8577   -1.4678   -1.7165 H   0  0  0  0  0  0  0  0  0  0  0  0
   -2.1487   -0.2639   -2.7955 H   0  0  0  0  0  0  0  0  0  0  0  0
   -2.1817   -3.2871   -3.2856 H   0  0  0  0  0  0  0  0  0  0  0  0
   -1.4447   -2.0972   -4.3594 H   0  0  0  0  0  0  0  0  0  0  0  0
   -4.4334   -2.2305   -3.6264 H   0  0  0  0  0  0  0  0  0  0  0  0
   -3.6925   -1.0014   -4.6945 H   0  0  0  0  0  0  0  0  0  0  0  0
   -4.4457   -2.6058   -6.1116 H   0  0  0  0  0  0  0  0  0  0  0  0
   -4.0046   -3.8792   -5.1441 H   0  0  0  0  0  0  0  0  0  0  0  0
   -2.8461   -3.0208   -5.9651 H   0  0  0  0  0  0  0  0  0  0  0  0
    1.7012    0.0206    0.3739 N   0  0  0  0  0  0  0  0  0  0  0  0
    2.9509   -0.1389    1.0785 C   0  0  2  0  0  0  0  0  0  0  0  0
    3.5298    1.2473    1.3291 C   0  0  0  0  0  0  0  0  0  0  0  0
    3.2268    2.2320    0.6585 O   0  0  0  0  0  0  0  0  0  0  0  0
    3.9249   -1.0001    0.2896 C   0  0  0  0  0  0  0  0  0  0  0  0
    1.4754    0.9264   -0.0262 H   0  0  0  0  0  0  0  0  0  0  0  0
    2.7154   -0.6156    2.0363 H   0  0  0  0  0  0  0  0  0  0  0  0
    4.1727   -0.5386   -0.6733 H   0  0  0  0  0  0  0  0  0  0  0  0
    4.8617   -1.1437    0.8380 H   0  0  0  0  0  0  0  0  0  0  0  0
    3.4951   -1.9865    0.0845 H   0  0  0  0  0  0  0  0  0  0  0  0
    4.4568    1.2469    2.3620 N   0  0  0  0  0  0  0  0  0  0  0  0
    5.1556    2.4387    2.7829 C   0  0  0  0  0  0  0  0  0  0  0  0
    4.6322    0.3883    2.8756 H   0  0  0  0  0  0  0  0  0  0  0  0
    6.1113    2.5139    2.2436 H   0  0  0  0  0  0  0  0  0  0  0  0
    4.5392    3.3225    2.5615 H   0  0  0  0  0  0  0  0  0  0  0  0
    5.3482    2.3878    3.8647 H   0  0  0  0  0  0  0  0  0  0  0  0
  1  3  1  0  0  0  0
  1  7  1  0  0  0  0
  1  2  2  0  0  0  0
 40 41  1  0  0  0  0
 41 49  1  0  0  0  0
 41 42  2  0  0  0  0
  8  9  1  0  0  0  0
  9 17  1  0  0  0  0
  9 10  2  0  0  0  0
 18 19  1  0  0  0  0
 19 39  1  0  0  0  0
 19 20  2  0  0  0  0
 40 43  1  0  0  0  0
  8 11  1  0  0  0  0
 49 50  1  0  0  0  0
 22 23  1  0  0  0  0
 21 22  1  0  0  0  0
 23 24  1  0  0  0  0
 18 21  1  0  0  0  0
 24 25  1  0  0  0  0
 39 40  1  0  0  0  0
  7  8  1  0  0  0  0
 17 18  1  0  0  0  0
  3  4  1  0  0  0  0
  3  5  1  0  0  0  0
  3  6  1  0  0  0  0
 43 46  1  0  0  0  0
 43 47  1  0  0  0  0
 43 48  1  0  0  0  0
 11 14  1  0  0  0  0
 11 15  1  0  0  0  0
 11 16  1  0  0  0  0
 50 52  1  0  0  0  0
 50 53  1  0  0  0  0
 50 54  1  0  0  0  0
 22 30  1  0  0  0  0
 22 31  1  0  0  0  0
 23 32  1  0  0  0  0
 23 33  1  0  0  0  0
 21 28  1  0  0  0  0
 21 29  1  0  0  0  0
 24 34  1  0  0  0  0
 24 35  1  0  0  0  0
 40 45  1  0  0  0  0
  8 13  1  0  0  0  0
 18 27  1  0  0  0  0
 49 51  1  0  0  0  0
  7 12  1  0  0  0  0
 39 44  1  0  0  0  0
 17 26  1  0  0  0  0
 25 36  1  0  0  0  0
 25 37  1  0  0  0  0
 25 38  1  0  0  0  0
M  CHG  1  25   1
M  END
$$$$

  -OEChem-05262214473D

 54 53  0     1  0  0  0  0  0999 V2000
    2.6714    2.8829   -3.0005 C   0  0  0  0  0  0  0  0  0  0  0  0
    3.1741    2.4398   -1.9745 O   0  0  0  0  0  0  0  0  0  0  0  0
    3.5527    3.3077   -4.1279 C   0  0  0  0  0  0  0  0  0  0  0  0
    3.8407    4.3691   -4.0597 H   0  0  0  0  0  0  0  0  0  0  0  0
    4.5024    2.7495   -4.1526 H   0  0  0  0  0  0  0  0  0  0  0  0
    3.1208    3.1887   -5.1345 H   0  0  0  0  0  0  0  0  0  0  0  0
    1.3174    3.0407   -3.2467 N   0  0  0  0  0  0  0  0  0  0  0  0
    0.2944    2.6927   -2.2960 C   0  0  2  0  0  0  0  0  0  0  0  0
    0.2976    1.1783   -2.1349 C   0  0  0  0  0  0  0  0  0  0  0  0
    0.7500    0.4142   -2.9850 O   0  0  0  0  0  0  0  0  0  0  0  0
   -1.0710    3.1886   -2.7460 C   0  0  0  0  0  0  0  0  0  0  0  0
    1.0312    3.4224   -4.1464 H   0  0  0  0  0  0  0  0  0  0  0  0
    0.5725    3.1622   -1.3461 H   0  0  0  0  0  0  0  0  0  0  0  0
   -1.3666    2.7292   -3.6963 H   0  0  0  0  0  0  0  0  0  0  0  0
   -1.8434    2.9482   -2.0082 H   0  0  0  0  0  0  0  0  0  0  0  0
   -1.0632    4.2744   -2.8901 H   0  0  0  0  0  0  0  0  0  0  0  0
   -0.3037    0.7742   -0.9484 N   0  0  0  0  0  0  0  0  0  0  0  0
   -0.4352   -0.6095   -0.5718 C   0  0  2  0  0  0  0  0  0  0  0  0
    0.7980   -1.0220    0.2251 C   0  0  0  0  0  0  0  0  0  0  0  0
    1.1055   -2.1956    0.4245 O   0  0  0  0  0  0  0  0  0  0  0  0
   -0.6902   -1.5120   -1.7848 C   0  0  0  0  0  0  0  0  0  0  0  0
   -2.0579   -1.2993   -2.4469 C   0  0  0  0  0  0  0  0  0  0  0  0
   -2.2518   -2.2484   -3.6318 C   0  0  0  0  0  0  0  0  0  0  0  0
   -3.5987   -2.0179   -4.3010 C   0  0  0  0  0  0  0  0  0  0  0  0
   -3.7323   -2.9399   -5.4544 N   0  3  0  0  0  0  0  0  0  0  0  0
   -0.6336    1.4811   -0.2948 H   0  0  0  0  0  0  0  0  0  0  0  0
   -1.3025   -0.6569    0.0978 H   0  0  0  0  0  0  0  0  0  0  0  0
    0.0953   -1.3326   -2.5303 H   0  0  0  0  0  0  0  0  0  0  0  0
   -0.6028   -2.5629   -1.4824 H   0  0  0  0  0  0  0  0  0  0  0  0
   -2.8577   -1.4678   -1.7165 H   0  0  0  0  0  0  0  0  0  0  0  0
   -2.1487   -0.2639   -2.7955 H   0  0  0  0  0  0  0  0  0  0  0  0
   -2.1817   -3.2871   -3.2856 H   0  0  0  0  0  0  0  0  0  0  0  0
   -1.4447   -2.0972   -4.3594 H   0  0  0  0  0  0  0  0  0  0  0  0
   -4.4334   -2.2305   -3.6264 H   0  0  0  0  0  0  0  0  0  0  0  0
   -3.6925   -1.0014   -4.6945 H   0  0  0  0  0  0  0  0  0  0  0  0
   -4.4457   -2.6058   -6.1116 H   0  0  0  0  0  0  0  0  0  0  0  0
   -4.0046   -3.8792   -5.1441 H   0  0  0  0  0  0  0  0  0  0  0  0
   -2.8461   -3.0208   -5.9651 H   0  0  0  0  0  0  0  0  0  0  0  0
    1.5335    0.0712    0.6597 N   0  0  0  0  0  0  0  0  0  0  0  0
    2.7521   -0.0744    1.4196 C   0  0  2  0  0  0  0  0  0  0  0  0
    3.1123    1.2884    1.9964 C   0  0  0  0  0  0  0  0  0  0  0  0
    2.7098    2.3468    1.5181 O   0  0  0  0  0  0  0  0  0  0  0  0
    3.8813   -0.6150    0.5564 C   0  0  0  0  0  0  0  0  0  0  0  0
    1.2034    1.0053    0.4356 H   0  0  0  0  0  0  0  0  0  0  0  0
    2.5341   -0.7712    2.2363 H   0  0  0  0  0  0  0  0  0  0  0  0
    4.1138    0.0697   -0.2674 H   0  0  0  0  0  0  0  0  0  0  0  0
    4.7970   -0.7519    1.1410 H   0  0  0  0  0  0  0  0  0  0  0  0
    3.6087   -1.5813    0.1184 H   0  0  0  0  0  0  0  0  0  0  0  0
    3.9711    1.1852    3.0817 N   0  0  0  0  0  0  0  0  0  0  0  0
    4.4681    2.3386    3.7950 C   0  0  0  0  0  0  0  0  0  0  0  0
    4.2383    0.2662    3.4219 H   0  0  0  0  0  0  0  0  0  0  0  0
    5.4319    2.6490    3.3650 H   0  0  0  0  0  0  0  0  0  0  0  0
    3.7452    3.1631    3.7076 H   0  0  0  0  0  0  0  0  0  0  0  0
    4.6056    2.0823    4.8558 H   0  0  0  0  0  0  0  0  0  0  0  0
  1  3  1  0  0  0  0
  1  7  1  0  0  0  0
  1  2  2  0  0  0  0
 40 41  1  0  0  0  0
 41 49  1  0  0  0  0
 41 42  2  0  0  0  0
  8  9  1  0  0  0  0
  9 17  1  0  0  0  0
  9 10  2  0  0  0  0
 18 19  1  0  0  0  0
 19 39  1  0  0  0  0
 19 20  2  0  0  0  0
 40 43  1  0  0  0  0
  8 11  1  0  0  0  0
 49 50  1  0  0  0  0
 22 23  1  0  0  0  0
 21 22  1  0  0  0  0
 23 24  1  0  0  0  0
 18 21  1  0  0  0  0
 24 25  1  0  0  0  0
 39 40  1  0  0  0  0
  7  8  1  0  0  0  0
 17 18  1  0  0  0  0
  3  4  1  0  0  0  0
  3  5  1  0  0  0  0
  3  6  1  0  0  0  0
 43 46  1  0  0  0  0
 43 47  1  0  0  0  0
 43 48  1  0  0  0  0
 11 14  1  0  0  0  0
 11 15  1  0  0  0  0
 11 16  1  0  0  0  0
 50 52  1  0  0  0  0
 50 53  1  0  0  0  0
 50 54  1  0  0  0  0
 22 30  1  0  0  0  0
 22 31  1  0  0  0  0
 23 32  1  0  0  0  0
 23 33  1  0  0  0  0
 21 28  1  0  0  0  0
 21 29  1  0  0  0  0
 24 34  1  0  0  0  0
 24 35  1  0  0  0  0
 40 45  1  0  0  0  0
  8 13  1  0  0  0  0
 18 27  1  0  0  0  0
 49 51  1  0  0  0  0
  7 12  1  0  0  0  0
 39 44  1  0  0  0  0
 17 26  1  0  0  0  0
 25 36  1  0  0  0  0
 25 37  1  0  0  0  0
 25 38  1  0  0  0  0
M  CHG  1  25   1
M  END
$$$$

  -OEChem-05262214473D

 54 53  0     1  0  0  0  0  0999 V2000
    2.6714    2.8829   -3.0005 C   0  0  0  0  0  0  0  0  0  0  0  0
    3.1741    2.4398   -1.9745 O   0  0  0  0  0  0  0  0  0  0  0  0
    3.5527    3.3077   -4.1279 C   0  0  0  0  0  0  0  0  0  0  0  0
    3.8407    4.3691   -4.0597 H   0  0  0  0  0  0  0  0  0  0  0  0
    4.5024    2.7495   -4.1526 H   0  0  0  0  0  0  0  0  0  0  0  0
    3.1208    3.1887   -5.1345 H   0  0  0  0  0  0  0  0  0  0  0  0
    1.3174    3.0407   -3.2467 N   0  0  0  0  0  0  0  0  0  0  0  0
    0.2944    2.6927   -2.2960 C   0  0  2  0  0  0  0  0  0  0  0  0
    0.2976    1.1783   -2.1349 C   0  0  0  0  0  0  0  0  0  0  0  0
    0.7500    0.4142   -2.9850 O   0  0  0  0  0  0  0  0  0  0  0  0
   -1.0710    3.1886   -2.7460 C   0  0  0  0  0  0  0  0  0  0  0  0
    1.0312    3.4224   -4.1464 H   0  0  0  0  0  0  0  0  0  0  0  0
    0.5725    3.1622   -1.3461 H   0  0  0  0  0  0  0  0  0  0  0  0
   -1.3666    2.7292   -3.6963 H   0  0  0  0  0  0  0  0  0  0  0  0
   -1.8434    2.9482   -2.0082 H   0  0  0  0  0  0  0  0  0  0  0  0
   -1.0632    4.2744   -2.8901 H   0  0  0  0  0  0  0  0  0  0  0  0
   -0.3037    0.7742   -0.9484 N   0  0  0  0  0  0  0  0  0  0  0  0
   -0.4352   -0.6095   -0.5718 C   0  0  2  0  0  0  0  0  0  0  0  0
    0.7980   -1.0220    0.2251 C   0  0  0  0  0  0  0  0  0  0  0  0
    1.2583   -2.1619    0.2055 O   0  0  0  0  0  0  0  0  0  0  0  0
   -0.6902   -1.5120   -1.7848 C   0  0  0  0  0  0  0  0  0  0  0  0
   -2.0579   -1.2993   -2.4469 C   0  0  0  0  0  0  0  0  0  0  0  0
   -2.2518   -2.2484   -3.6318 C   0  0  0  0  0  0  0  0  0  0  0  0
   -3.5987   -2.0179   -4.3010 C   0  0  0  0  0  0  0  0  0  0  0  0
   -3.7323   -2.9399   -5.4544 N   0  3  0  0  0  0  0  0  0  0  0  0
   -0.6336    1.4811   -0.2948 H   0  0  0  0  0  0  0  0  0  0  0  0
   -1.3025   -0.6569    0.0978 H   0  0  0  0  0  0  0  0  0  0  0  0
    0.0953   -1.3326   -2.5303 H   0  0  0  0  0  0  0  0  0  0  0  0
   -0.6028   -2.5629   -1.4824 H   0  0  0  0  0  0  0  0  0  0  0  0
   -2.8577   -1.4678   -1.7165 H   0  0  0  0  0  0  0  0  0  0  0  0
   -2.1487   -0.2639   -2.7955 H   0  0  0  0  0  0  0  0  0  0  0  0
   -2.1817   -3.2871   -3.2856 H   0  0  0  0  0  0  0  0  0  0  0  0
   -1.4447   -2.0972   -4.3594 H   0  0  0  0  0  0  0  0  0  0  0  0
   -4.4334   -2.2305   -3.6264 H   0  0  0  0  0  0  0  0  0  0  0  0
   -3.6925   -1.0014   -4.6945 H   0  0  0  0  0  0  0  0  0  0  0  0
   -4.4457   -2.6058   -6.1116 H   0  0  0  0  0  0  0  0  0  0  0  0
   -4.0046   -3.8792   -5.1441 H   0  0  0  0  0  0  0  0  0  0  0  0
   -2.8461   -3.0208   -5.9651 H   0  0  0  0  0  0  0  0  0  0  0  0
    1.3446    0.0376    0.9345 N   0  0  0  0  0  0  0  0  0  0  0  0
    2.5274   -0.1104    1.7487 C   0  0  2  0  0  0  0  0  0  0  0  0
    2.6569    1.1319    2.6202 C   0  0  0  0  0  0  0  0  0  0  0  0
    2.1346    2.2079    2.3363 O   0  0  0  0  0  0  0  0  0  0  0  0
    3.7684   -0.3048    0.8916 C   0  0  0  0  0  0  0  0  0  0  0  0
    0.8976    0.9480    0.8791 H   0  0  0  0  0  0  0  0  0  0  0  0
    2.3660   -0.9879    2.3843 H   0  0  0  0  0  0  0  0  0  0  0  0
    3.9464    0.5643    0.2479 H   0  0  0  0  0  0  0  0  0  0  0  0
    4.6604   -0.4455    1.5110 H   0  0  0  0  0  0  0  0  0  0  0  0
    3.6613   -1.1817    0.2439 H   0  0  0  0  0  0  0  0  0  0  0  0
    3.4599    0.9094    3.7301 N   0  0  0  0  0  0  0  0  0  0  0  0
    3.7468    1.9371    4.7034 C   0  0  0  0  0  0  0  0  0  0  0  0
    3.8361   -0.0193    3.8965 H   0  0  0  0  0  0  0  0  0  0  0  0
    4.6788    2.4529    4.4289 H   0  0  0  0  0  0  0  0  0  0  0  0
    2.9197    2.6619    4.7258 H   0  0  0  0  0  0  0  0  0  0  0  0
    3.8602    1.4794    5.6972 H   0  0  0  0  0  0  0  0  0  0  0  0
  1  3  1  0  0  0  0
  1  7  1  0  0  0  0
  1  2  2  0  0  0  0
 40 41  1  0  0  0  0
 41 49  1  0  0  0  0
 41 42  2  0  0  0  0
  8  9  1  0  0  0  0
  9 17  1  0  0  0  0
  9 10  2  0  0  0  0
 18 19  1  0  0  0  0
 19 39  1  0  0  0  0
 19 20  2  0  0  0  0
 40 43  1  0  0  0  0
  8 11  1  0  0  0  0
 49 50  1  0  0  0  0
 22 23  1  0  0  0  0
 21 22  1  0  0  0  0
 23 24  1  0  0  0  0
 18 21  1  0  0  0  0
 24 25  1  0  0  0  0
 39 40  1  0  0  0  0
  7  8  1  0  0  0  0
 17 18  1  0  0  0  0
  3  4  1  0  0  0  0
  3  5  1  0  0  0  0
  3  6  1  0  0  0  0
 43 46  1  0  0  0  0
 43 47  1  0  0  0  0
 43 48  1  0  0  0  0
 11 14  1  0  0  0  0
 11 15  1  0  0  0  0
 11 16  1  0  0  0  0
 50 52  1  0  0  0  0
 50 53  1  0  0  0  0
 50 54  1  0  0  0  0
 22 30  1  0  0  0  0
 22 31  1  0  0  0  0
 23 32  1  0  0  0  0
 23 33  1  0  0  0  0
 21 28  1  0  0  0  0
 21 29  1  0  0  0  0
 24 34  1  0  0  0  0
 24 35  1  0  0  0  0
 40 45  1  0  0  0  0
  8 13  1  0  0  0  0
 18 27  1  0  0  0  0
 49 51  1  0  0  0  0
  7 12  1  0  0  0  0
 39 44  1  0  0  0  0
 17 26  1  0  0  0  0
 25 36  1  0  0  0  0
 25 37  1  0  0  0  0
 25 38  1  0  0  0  0
M  CHG  1  25   1
M  END
$$$$

  -OEChem-05262214473D

 54 53  0     1  0  0  0  0  0999 V2000
    2.6714    2.8829   -3.0005 C   0  0  0  0  0  0  0  0  0  0  0  0
    3.1741    2.4398   -1.9745 O   0  0  0  0  0  0  0  0  0  0  0  0
    3.5527    3.3077   -4.1279 C   0  0  0  0  0  0  0  0  0  0  0  0
    3.8407    4.3691   -4.0597 H   0  0  0  0  0  0  0  0  0  0  0  0
    4.5024    2.7495   -4.1526 H   0  0  0  0  0  0  0  0  0  0  0  0
    3.1208    3.1887   -5.1345 H   0  0  0  0  0  0  0  0  0  0  0  0
    1.3174    3.0407   -3.2467 N   0  0  0  0  0  0  0  0  0  0  0  0
    0.2944    2.6927   -2.2960 C   0  0  2  0  0  0  0  0  0  0  0  0
    0.2976    1.1783   -2.1349 C   0  0  0  0  0  0  0  0  0  0  0  0
    0.7500    0.4142   -2.9850 O   0  0  0  0  0  0  0  0  0  0  0  0
   -1.0710    3.1886   -2.7460 C   0  0  0  0  0  0  0  0  0  0  0  0
    1.0312    3.4224   -4.1464 H   0  0  0  0  0  0  0  0  0  0  0  0
    0.5725    3.1622   -1.3461 H   0  0  0  0  0  0  0  0  0  0  0  0
   -1.3666    2.7292   -3.6963 H   0  0  0  0  0  0  0  0  0  0  0  0
   -1.8434    2.9482   -2.0082 H   0  0  0  0  0  0  0  0  0  0  0  0
   -1.0632    4.2744   -2.8901 H   0  0  0  0  0  0  0  0  0  0  0  0
   -0.3037    0.7742   -0.9484 N   0  0  0  0  0  0  0  0  0  0  0  0
   -0.4352   -0.6095   -0.5718 C   0  0  2  0  0  0  0  0  0  0  0  0
    0.7980   -1.0220    0.2251 C   0  0  0  0  0  0  0  0  0  0  0  0
    1.4166   -2.0629    0.0118 O   0  0  0  0  0  0  0  0  0  0  0  0
   -0.6902   -1.5120   -1.7848 C   0  0  0  0  0  0  0  0  0  0  0  0
   -2.0579   -1.2993   -2.4469 C   0  0  0  0  0  0  0  0  0  0  0  0
   -2.2518   -2.2484   -3.6318 C   0  0  0  0  0  0  0  0  0  0  0  0
   -3.5987   -2.0179   -4.3010 C   0  0  0  0  0  0  0  0  0  0  0  0
   -3.7323   -2.9399   -5.4544 N   0  3  0  0  0  0  0  0  0  0  0  0
   -0.6336    1.4811   -0.2948 H   0  0  0  0  0  0  0  0  0  0  0  0
   -1.3025   -0.6569    0.0978 H   0  0  0  0  0  0  0  0  0  0  0  0
    0.0953   -1.3326   -2.5303 H   0  0  0  0  0  0  0  0  0  0  0  0
   -0.6028   -2.5629   -1.4824 H   0  0  0  0  0  0  0  0  0  0  0  0
   -2.8577   -1.4678   -1.7165 H   0  0  0  0  0  0  0  0  0  0  0  0
   -2.1487   -0.2639   -2.7955 H   0  0  0  0  0  0  0  0  0  0  0  0
   -2.1817   -3.2871   -3.2856 H   0  0  0  0  0  0  0  0  0  0  0  0
   -1.4447   -2.0972   -4.3594 H   0  0  0  0  0  0  0  0  0  0  0  0
   -4.4334   -2.2305   -3.6264 H   0  0  0  0  0  0  0  0  0  0  0  0
   -3.6925   -1.0014   -4.6945 H   0  0  0  0  0  0  0  0  0  0  0  0
   -4.4457   -2.6058   -6.1116 H   0  0  0  0  0  0  0  0  0  0  0  0
   -4.0046   -3.8792   -5.1441 H   0  0  0  0  0  0  0  0  0  0  0  0
   -2.8461   -3.0208   -5.9651 H   0  0  0  0  0  0  0  0  0  0  0  0
    1.1475   -0.0779    1.1797 N   0  0  0  0  0  0  0  0  0  0  0  0
    2.2921   -0.2444    2.0434 C   0  0  2  0  0  0  0  0  0  0  0  0
    2.1944    0.7886    3.1582 C   0  0  0  0  0  0  0  0  0  0  0  0
    1.5406    1.8247    3.0572 O   0  0  0  0  0  0  0  0  0  0  0  0
    3.5940   -0.0906    1.2725 C   0  0  0  0  0  0  0  0  0  0  0  0
    0.5790    0.7585    1.2741 H   0  0  0  0  0  0  0  0  0  0  0  0
    2.2225   -1.2509    2.4702 H   0  0  0  0  0  0  0  0  0  0  0  0
    3.6816    0.9116    0.8374 H   0  0  0  0  0  0  0  0  0  0  0  0
    4.4610   -0.2455    1.9231 H   0  0  0  0  0  0  0  0  0  0  0  0
    3.6492   -0.8148    0.4525 H   0  0  0  0  0  0  0  0  0  0  0  0
    2.9580    0.4381    4.2628 N   0  0  0  0  0  0  0  0  0  0  0  0
    3.0407    1.2617    5.4464 C   0  0  0  0  0  0  0  0  0  0  0  0
    3.4530   -0.4488    4.2670 H   0  0  0  0  0  0  0  0  0  0  0  0
    3.9034    1.9391    5.3628 H   0  0  0  0  0  0  0  0  0  0  0  0
    2.1187    1.8531    5.5467 H   0  0  0  0  0  0  0  0  0  0  0  0
    3.1629    0.6201    6.3316 H   0  0  0  0  0  0  0  0  0  0  0  0
  1  3  1  0  0  0  0
  1  7  1  0  0  0  0
  1  2  2  0  0  0  0
 40 41  1  0  0  0  0
 41 49  1  0  0  0  0
 41 42  2  0  0  0  0
  8  9  1  0  0  0  0
  9 17  1  0  0  0  0
  9 10  2  0  0  0  0
 18 19  1  0  0  0  0
 19 39  1  0  0  0  0
 19 20  2  0  0  0  0
 40 43  1  0  0  0  0
  8 11  1  0  0  0  0
 49 50  1  0  0  0  0
 22 23  1  0  0  0  0
 21 22  1  0  0  0  0
 23 24  1  0  0  0  0
 18 21  1  0  0  0  0
 24 25  1  0  0  0  0
 39 40  1  0  0  0  0
  7  8  1  0  0  0  0
 17 18  1  0  0  0  0
  3  4  1  0  0  0  0
  3  5  1  0  0  0  0
  3  6  1  0  0  0  0
 43 46  1  0  0  0  0
 43 47  1  0  0  0  0
 43 48  1  0  0  0  0
 11 14  1  0  0  0  0
 11 15  1  0  0  0  0
 11 16  1  0  0  0  0
 50 52  1  0  0  0  0
 50 53  1  0  0  0  0
 50 54  1  0  0  0  0
 22 30  1  0  0  0  0
 22 31  1  0  0  0  0
 23 32  1  0  0  0  0
 23 33  1  0  0  0  0
 21 28  1  0  0  0  0
 21 29  1  0  0  0  0
 24 34  1  0  0  0  0
 24 35  1  0  0  0  0
 40 45  1  0  0  0  0
  8 13  1  0  0  0  0
 18 27  1  0  0  0  0
 49 51  1  0  0  0  0
  7 12  1  0  0  0  0
 39 44  1  0  0  0  0
 17 26  1  0  0  0  0
 25 36  1  0  0  0  0
 25 37  1  0  0  0  0
 25 38  1  0  0  0  0
M  CHG  1  25   1
M  END
$$$$

  -OEChem-05262214473D

 54 53  0     1  0  0  0  0  0999 V2000
    2.6714    2.8829   -3.0005 C   0  0  0  0  0  0  0  0  0  0  0  0
    3.1741    2.4398   -1.9745 O   0  0  0  0  0  0  0  0  0  0  0  0
    3.5527    3.3077   -4.1279 C   0  0  0  0  0  0  0  0  0  0  0  0
    3.8407    4.3691   -4.0597 H   0  0  0  0  0  0  0  0  0  0  0  0
    4.5024    2.7495   -4.1526 H   0  0  0  0  0  0  0  0  0  0  0  0
    3.1208    3.1887   -5.1345 H   0  0  0  0  0  0  0  0  0  0  0  0
    1.3174    3.0407   -3.2467 N   0  0  0  0  0  0  0  0  0  0  0  0
    0.2944    2.6927   -2.2960 C   0  0  2  0  0  0  0  0  0  0  0  0
    0.2976    1.1783   -2.1349 C   0  0  0  0  0  0  0  0  0  0  0  0
    0.7500    0.4142   -2.9850 O   0  0  0  0  0  0  0  0  0  0  0  0
   -1.0710    3.1886   -2.7460 C   0  0  0  0  0  0  0  0  0  0  0  0
    1.0312    3.4224   -4.1464 H   0  0  0  0  0  0  0  0  0  0  0  0
    0.5725    3.1622   -1.3461 H   0  0  0  0  0  0  0  0  0  0  0  0
   -1.3666    2.7292   -3.6963 H   0  0  0  0  0  0  0  0  0  0  0  0
   -1.8434    2.9482   -2.0082 H   0  0  0  0  0  0  0  0  0  0  0  0
   -1.0632    4.2744   -2.8901 H   0  0  0  0  0  0  0  0  0  0  0  0
   -0.3037    0.7742   -0.9484 N   0  0  0  0  0  0  0  0  0  0  0  0
   -0.4352   -0.6095   -0.5718 C   0  0  2  0  0  0  0  0  0  0  0  0
    0.7980   -1.0220    0.2251 C   0  0  0  0  0  0  0  0  0  0  0  0
    1.5696   -1.9053   -0.1435 O   0  0  0  0  0  0  0  0  0  0  0  0
   -0.6902   -1.5120   -1.7848 C   0  0  0  0  0  0  0  0  0  0  0  0
   -2.0579   -1.2993   -2.4469 C   0  0  0  0  0  0  0  0  0  0  0  0
   -2.2518   -2.2484   -3.6318 C   0  0  0  0  0  0  0  0  0  0  0  0
   -3.5987   -2.0179   -4.3010 C   0  0  0  0  0  0  0  0  0  0  0  0
   -3.7323   -2.9399   -5.4544 N   0  3  0  0  0  0  0  0  0  0  0  0
   -0.6336    1.4811   -0.2948 H   0  0  0  0  0  0  0  0  0  0  0  0
   -1.3025   -0.6569    0.0978 H   0  0  0  0  0  0  0  0  0  0  0  0
    0.0953   -1.3326   -2.5303 H   0  0  0  0  0  0  0  0  0  0  0  0
   -0.6028   -2.5629   -1.4824 H   0  0  0  0  0  0  0  0  0  0  0  0
   -2.8577   -1.4678   -1.7165 H   0  0  0  0  0  0  0  0  0  0  0  0
   -2.1487   -0.2639   -2.7955 H   0  0  0  0  0  0  0  0  0  0  0  0
   -2.1817   -3.2871   -3.2856 H   0  0  0  0  0  0  0  0  0  0  0  0
   -1.4447   -2.0972   -4.3594 H   0  0  0  0  0  0  0  0  0  0  0  0
   -4.4334   -2.2305   -3.6264 H   0  0  0  0  0  0  0  0  0  0  0  0
   -3.6925   -1.0014   -4.6945 H   0  0  0  0  0  0  0  0  0  0  0  0
   -4.4457   -2.6058   -6.1116 H   0  0  0  0  0  0  0  0  0  0  0  0
   -4.0046   -3.8792   -5.1441 H   0  0  0  0  0  0  0  0  0  0  0  0
   -2.8461   -3.0208   -5.9651 H   0  0  0  0  0  0  0  0  0  0  0  0
    0.9556   -0.2674    1.3786 N   0  0  0  0  0  0  0  0  0  0  0  0
    2.0625   -0.4673    2.2834 C   0  0  2  0  0  0  0  0  0  0  0  0
    1.7565    0.2819    3.5736 C   0  0  0  0  0  0  0  0  0  0  0  0
    0.9682    1.2233    3.6318 O   0  0  0  0  0  0  0  0  0  0  0  0
    3.3699    0.0130    1.6729 C   0  0  0  0  0  0  0  0  0  0  0  0
    0.2692    0.4496    1.5937 H   0  0  0  0  0  0  0  0  0  0  0  0
    2.1135   -1.5423    2.4880 H   0  0  0  0  0  0  0  0  0  0  0  0
    3.3376    1.0879    1.4610 H   0  0  0  0  0  0  0  0  0  0  0  0
    4.2126   -0.1655    2.3489 H   0  0  0  0  0  0  0  0  0  0  0  0
    3.5734   -0.5057    0.7299 H   0  0  0  0  0  0  0  0  0  0  0  0
    2.4996   -0.1965    4.6437 N   0  0  0  0  0  0  0  0  0  0  0  0
    2.3981    0.3583    5.9733 C   0  0  0  0  0  0  0  0  0  0  0  0
    3.1152   -0.9930    4.5082 H   0  0  0  0  0  0  0  0  0  0  0  0
    3.1585    1.1424    6.1031 H   0  0  0  0  0  0  0  0  0  0  0  0
    1.3969    0.7917    6.1142 H   0  0  0  0  0  0  0  0  0  0  0  0
    2.5611   -0.4369    6.7157 H   0  0  0  0  0  0  0  0  0  0  0  0
  1  3  1  0  0  0  0
  1  7  1  0  0  0  0
  1  2  2  0  0  0  0
 40 41  1  0  0  0  0
 41 49  1  0  0  0  0
 41 42  2  0  0  0  0
  8  9  1  0  0  0  0
  9 17  1  0  0  0  0
  9 10  2  0  0  0  0
 18 19  1  0  0  0  0
 19 39  1  0  0  0  0
 19 20  2  0  0  0  0
 40 43  1  0  0  0  0
  8 11  1  0  0  0  0
 49 50  1  0  0  0  0
 22 23  1  0  0  0  0
 21 22  1  0  0  0  0
 23 24  1  0  0  0  0
 18 21  1  0  0  0  0
 24 25  1  0  0  0  0
 39 40  1  0  0  0  0
  7  8  1  0  0  0  0
 17 18  1  0  0  0  0
  3  4  1  0  0  0  0
  3  5  1  0  0  0  0
  3  6  1  0  0  0  0
 43 46  1  0  0  0  0
 43 47  1  0  0  0  0
 43 48  1  0  0  0  0
 11 14  1  0  0  0  0
 11 15  1  0  0  0  0
 11 16  1  0  0  0  0
 50 52  1  0  0  0  0
 50 53  1  0  0  0  0
 50 54  1  0  0  0  0
 22 30  1  0  0  0  0
 22 31  1  0  0  0  0
 23 32  1  0  0  0  0
 23 33  1  0  0  0  0
 21 28  1  0  0  0  0
 21 29  1  0  0  0  0
 24 34  1  0  0  0  0
 24 35  1  0  0  0  0
 40 45  1  0  0  0  0
  8 13  1  0  0  0  0
 18 27  1  0  0  0  0
 49 51  1  0  0  0  0
  7 12  1  0  0  0  0
 39 44  1  0  0  0  0
 17 26  1  0  0  0  0
 25 36  1  0  0  0  0
 25 37  1  0  0  0  0
 25 38  1  0  0  0  0
M  CHG  1  25   1
M  END
$$$$

  -OEChem-05262214473D

 54 53  0     1  0  0  0  0  0999 V2000
    2.6714    2.8829   -3.0005 C   0  0  0  0  0  0  0  0  0  0  0  0
    3.1741    2.4398   -1.9745 O   0  0  0  0  0  0  0  0  0  0  0  0
    3.5527    3.3077   -4.1279 C   0  0  0  0  0  0  0  0  0  0  0  0
    3.8407    4.3691   -4.0597 H   0  0  0  0  0  0  0  0  0  0  0  0
    4.5024    2.7495   -4.1526 H   0  0  0  0  0  0  0  0  0  0  0  0
    3.1208    3.1887   -5.1345 H   0  0  0  0  0  0  0  0  0  0  0  0
    1.3174    3.0407   -3.2467 N   0  0  0  0  0  0  0  0  0  0  0  0
    0.2944    2.6927   -2.2960 C   0  0  2  0  0  0  0  0  0  0  0  0
    0.2976    1.1783   -2.1349 C   0  0  0  0  0  0  0  0  0  0  0  0
    0.7500    0.4142   -2.9850 O   0  0  0  0  0  0  0  0  0  0  0  0
   -1.0710    3.1886   -2.7460 C   0  0  0  0  0  0  0  0  0  0  0  0
    1.0312    3.4224   -4.1464 H   0  0  0  0  0  0  0  0  0  0  0  0
    0.5725    3.1622   -1.3461 H   0  0  0  0  0  0  0  0  0  0  0  0
   -1.3666    2.7292   -3.6963 H   0  0  0  0  0  0  0  0  0  0  0  0
   -1.8434    2.9482   -2.0082 H   0  0  0  0  0  0  0  0  0  0  0  0
   -1.0632    4.2744   -2.8901 H   0  0  0  0  0  0  0  0  0  0  0  0
   -0.3037    0.7742   -0.9484 N   0  0  0  0  0  0  0  0  0  0  0  0
   -0.4352   -0.6095   -0.5718 C   0  0  2  0  0  0  0  0  0  0  0  0
    0.7980   -1.0220    0.2251 C   0  0  0  0  0  0  0  0  0  0  0  0
    1.7071   -1.6999   -0.2499 O   0  0  0  0  0  0  0  0  0  0  0  0
   -0.6902   -1.5120   -1.7848 C   0  0  0  0  0  0  0  0  0  0  0  0
   -2.0579   -1.2993   -2.4469 C   0  0  0  0  0  0  0  0  0  0  0  0
   -2.2518   -2.2484   -3.6318 C   0  0  0  0  0  0  0  0  0  0  0  0
   -3.5987   -2.0179   -4.3010 C   0  0  0  0  0  0  0  0  0  0  0  0
   -3.7323   -2.9399   -5.4544 N   0  3  0  0  0  0  0  0  0  0  0  0
   -0.6336    1.4811   -0.2948 H   0  0  0  0  0  0  0  0  0  0  0  0
   -1.3025   -0.6569    0.0978 H   0  0  0  0  0  0  0  0  0  0  0  0
    0.0953   -1.3326   -2.5303 H   0  0  0  0  0  0  0  0  0  0  0  0
   -0.6028   -2.5629   -1.4824 H   0  0  0  0  0  0  0  0  0  0  0  0
   -2.8577   -1.4678   -1.7165 H   0  0  0  0  0  0  0  0  0  0  0  0
   -2.1487   -0.2639   -2.7955 H   0  0  0  0  0  0  0  0  0  0  0  0
   -2.1817   -3.2871   -3.2856 H   0  0  0  0  0  0  0  0  0  0  0  0
   -1.4447   -2.0972   -4.3594 H   0  0  0  0  0  0  0  0  0  0  0  0
   -4.4334   -2.2305   -3.6264 H   0  0  0  0  0  0  0  0  0  0  0  0
   -3.6925   -1.0014   -4.6945 H   0  0  0  0  0  0  0  0  0  0  0  0
   -4.4457   -2.6058   -6.1116 H   0  0  0  0  0  0  0  0  0  0  0  0
   -4.0046   -3.8792   -5.1441 H   0  0  0  0  0  0  0  0  0  0  0  0
   -2.8461   -3.0208   -5.9651 H   0  0  0  0  0  0  0  0  0  0  0  0
    0.7819   -0.5181    1.5176 N   0  0  0  0  0  0  0  0  0  0  0  0
    1.8539   -0.7640    2.4526 C   0  0  2  0  0  0  0  0  0  0  0  0
    1.3729   -0.3537    3.8381 C   0  0  0  0  0  0  0  0  0  0  0  0
    0.4563    0.4448    4.0208 O   0  0  0  0  0  0  0  0  0  0  0  0
    3.1113   -0.0011    2.0658 C   0  0  0  0  0  0  0  0  0  0  0  0
   -0.0107    0.0426    1.8160 H   0  0  0  0  0  0  0  0  0  0  0  0
    2.0464   -1.8423    2.4366 H   0  0  0  0  0  0  0  0  0  0  0  0
    2.9379    1.0812    2.0762 H   0  0  0  0  0  0  0  0  0  0  0  0
    3.9320   -0.2109    2.7597 H   0  0  0  0  0  0  0  0  0  0  0  0
    3.4389   -0.2755    1.0572 H   0  0  0  0  0  0  0  0  0  0  0  0
    2.1160   -0.9511    4.8466 N   0  0  0  0  0  0  0  0  0  0  0  0
    1.8626   -0.7115    6.2482 C   0  0  0  0  0  0  0  0  0  0  0  0
    2.8455   -1.6148    4.6036 H   0  0  0  0  0  0  0  0  0  0  0  0
    2.4950    0.1172    6.5993 H   0  0  0  0  0  0  0  0  0  0  0  0
    0.8036   -0.4499    6.3897 H   0  0  0  0  0  0  0  0  0  0  0  0
    2.0958   -1.6197    6.8233 H   0  0  0  0  0  0  0  0  0  0  0  0
  1  3  1  0  0  0  0
  1  7  1  0  0  0  0
  1  2  2  0  0  0  0
 40 41  1  0  0  0  0
 41 49  1  0  0  0  0
 41 42  2  0  0  0  0
  8  9  1  0  0  0  0
  9 17  1  0  0  0  0
  9 10  2  0  0  0  0
 18 19  1  0  0  0  0
 19 39  1  0  0  0  0
 19 20  2  0  0  0  0
 40 43  1  0  0  0  0
  8 11  1  0  0  0  0
 49 50  1  0  0  0  0
 22 23  1  0  0  0  0
 21 22  1  0  0  0  0
 23 24  1  0  0  0  0
 18 21  1  0  0  0  0
 24 25  1  0  0  0  0
 39 40  1  0  0  0  0
  7  8  1  0  0  0  0
 17 18  1  0  0  0  0
  3  4  1  0  0  0  0
  3  5  1  0  0  0  0
  3  6  1  0  0  0  0
 43 46  1  0  0  0  0
 43 47  1  0  0  0  0
 43 48  1  0  0  0  0
 11 14  1  0  0  0  0
 11 15  1  0  0  0  0
 11 16  1  0  0  0  0
 50 52  1  0  0  0  0
 50 53  1  0  0  0  0
 50 54  1  0  0  0  0
 22 30  1  0  0  0  0
 22 31  1  0  0  0  0
 23 32  1  0  0  0  0
 23 33  1  0  0  0  0
 21 28  1  0  0  0  0
 21 29  1  0  0  0  0
 24 34  1  0  0  0  0
 24 35  1  0  0  0  0
 40 45  1  0  0  0  0
  8 13  1  0  0  0  0
 18 27  1  0  0  0  0
 49 51  1  0  0  0  0
  7 12  1  0  0  0  0
 39 44  1  0  0  0  0
 17 26  1  0  0  0  0
 25 36  1  0  0  0  0
 25 37  1  0  0  0  0
 25 38  1  0  0  0  0
M  CHG  1  25   1
M  END
$$$$

  -OEChem-05262214473D

 54 53  0     1  0  0  0  0  0999 V2000
    2.6714    2.8829   -3.0005 C   0  0  0  0  0  0  0  0  0  0  0  0
    3.1741    2.4398   -1.9745 O   0  0  0  0  0  0  0  0  0  0  0  0
    3.5527    3.3077   -4.1279 C   0  0  0  0  0  0  0  0  0  0  0  0
    3.8407    4.3691   -4.0597 H   0  0  0  0  0  0  0  0  0  0  0  0
    4.5024    2.7495   -4.1526 H   0  0  0  0  0  0  0  0  0  0  0  0
    3.1208    3.1887   -5.1345 H   0  0  0  0  0  0  0  0  0  0  0  0
    1.3174    3.0407   -3.2467 N   0  0  0  0  0  0  0  0  0  0  0  0
    0.2944    2.6927   -2.2960 C   0  0  2  0  0  0  0  0  0  0  0  0
    0.2976    1.1783   -2.1349 C   0  0  0  0  0  0  0  0  0  0  0  0
    0.7500    0.4142   -2.9850 O   0  0  0  0  0  0  0  0  0  0  0  0
   -1.0710    3.1886   -2.7460 C   0  0  0  0  0  0  0  0  0  0  0  0
    1.0312    3.4224   -4.1464 H   0  0  0  0  0  0  0  0  0  0  0  0
    0.5725    3.1622   -1.3461 H   0  0  0  0  0  0  0  0  0  0  0  0
   -1.3666    2.7292   -3.6963 H   0  0  0  0  0  0  0  0  0  0  0  0
   -1.8434    2.9482   -2.0082 H   0  0  0  0  0  0  0  0  0  0  0  0
   -1.0632    4.2744   -2.8901 H   0  0  0  0  0  0  0  0  0  0  0  0
   -0.3037    0.7742   -0.9484 N   0  0  0  0  0  0  0  0  0  0  0  0
   -0.4352   -0.6095   -0.5718 C   0  0  2  0  0  0  0  0  0  0  0  0
    0.7980   -1.0220    0.2251 C   0  0  0  0  0  0  0  0  0  0  0  0
    1.8195   -1.4607   -0.3000 O   0  0  0  0  0  0  0  0  0  0  0  0
   -0.6902   -1.5120   -1.7848 C   0  0  0  0  0  0  0  0  0  0  0  0
   -2.0579   -1.2993   -2.4469 C   0  0  0  0  0  0  0  0  0  0  0  0
   -2.2518   -2.2484   -3.6318 C   0  0  0  0  0  0  0  0  0  0  0  0
   -3.5987   -2.0179   -4.3010 C   0  0  0  0  0  0  0  0  0  0  0  0
   -3.7323   -2.9399   -5.4544 N   0  3  0  0  0  0  0  0  0  0  0  0
   -0.6336    1.4811   -0.2948 H   0  0  0  0  0  0  0  0  0  0  0  0
   -1.3025   -0.6569    0.0978 H   0  0  0  0  0  0  0  0  0  0  0  0
    0.0953   -1.3326   -2.5303 H   0  0  0  0  0  0  0  0  0  0  0  0
   -0.6028   -2.5629   -1.4824 H   0  0  0  0  0  0  0  0  0  0  0  0
   -2.8577   -1.4678   -1.7165 H   0  0  0  0  0  0  0  0  0  0  0  0
   -2.1487   -0.2639   -2.7955 H   0  0  0  0  0  0  0  0  0  0  0  0
   -2.1817   -3.2871   -3.2856 H   0  0  0  0  0  0  0  0  0  0  0  0
   -1.4447   -2.0972   -4.3594 H   0  0  0  0  0  0  0  0  0  0  0  0
   -4.4334   -2.2305   -3.6264 H   0  0  0  0  0  0  0  0  0  0  0  0
   -3.6925   -1.0014   -4.6945 H   0  0  0  0  0  0  0  0  0  0  0  0
   -4.4457   -2.6058   -6.1116 H   0  0  0  0  0  0  0  0  0  0  0  0
   -4.0046   -3.8792   -5.1441 H   0  0  0  0  0  0  0  0  0  0  0  0
   -2.8461   -3.0208   -5.9651 H   0  0  0  0  0  0  0  0  0  0  0  0
    0.6383   -0.8128    1.5873 N   0  0  0  0  0  0  0  0  0  0  0  0
    1.6808   -1.1141    2.5393 C   0  0  2  0  0  0  0  0  0  0  0  0
    1.0698   -1.0749    3.9338 C   0  0  0  0  0  0  0  0  0  0  0  0
    0.0400   -0.4579    4.1979 O   0  0  0  0  0  0  0  0  0  0  0  0
    2.8360   -0.1318    2.4242 C   0  0  0  0  0  0  0  0  0  0  0  0
   -0.2415   -0.4350    1.9261 H   0  0  0  0  0  0  0  0  0  0  0  0
    2.0257   -2.1303    2.3195 H   0  0  0  0  0  0  0  0  0  0  0  0
    2.5096    0.8919    2.6409 H   0  0  0  0  0  0  0  0  0  0  0  0
    3.6383   -0.3787    3.1272 H   0  0  0  0  0  0  0  0  0  0  0  0
    3.2550   -0.1397    1.4121 H   0  0  0  0  0  0  0  0  0  0  0  0
    1.8333   -1.7744    4.8579 N   0  0  0  0  0  0  0  0  0  0  0  0
    1.4708   -1.8748    6.2523 C   0  0  0  0  0  0  0  0  0  0  0  0
    2.6624   -2.2719    4.5467 H   0  0  0  0  0  0  0  0  0  0  0  0
    1.9579   -1.0666    6.8175 H   0  0  0  0  0  0  0  0  0  0  0  0
    0.3790   -1.7870    6.3544 H   0  0  0  0  0  0  0  0  0  0  0  0
    1.7989   -2.8477    6.6472 H   0  0  0  0  0  0  0  0  0  0  0  0
  1  3  1  0  0  0  0
  1  7  1  0  0  0  0
  1  2  2  0  0  0  0
 40 41  1  0  0  0  0
 41 49  1  0  0  0  0
 41 42  2  0  0  0  0
  8  9  1  0  0  0  0
  9 17  1  0  0  0  0
  9 10  2  0  0  0  0
 18 19  1  0  0  0  0
 19 39  1  0  0  0  0
 19 20  2  0  0  0  0
 40 43  1  0  0  0  0
  8 11  1  0  0  0  0
 49 50  1  0  0  0  0
 22 23  1  0  0  0  0
 21 22  1  0  0  0  0
 23 24  1  0  0  0  0
 18 21  1  0  0  0  0
 24 25  1  0  0  0  0
 39 40  1  0  0  0  0
  7  8  1  0  0  0  0
 17 18  1  0  0  0  0
  3  4  1  0  0  0  0
  3  5  1  0  0  0  0
  3  6  1  0  0  0  0
 43 46  1  0  0  0  0
 43 47  1  0  0  0  0
 43 48  1  0  0  0  0
 11 14  1  0  0  0  0
 11 15  1  0  0  0  0
 11 16  1  0  0  0  0
 50 52  1  0  0  0  0
 50 53  1  0  0  0  0
 50 54  1  0  0  0  0
 22 30  1  0  0  0  0
 22 31  1  0  0  0  0
 23 32  1  0  0  0  0
 23 33  1  0  0  0  0
 21 28  1  0  0  0  0
 21 29  1  0  0  0  0
 24 34  1  0  0  0  0
 24 35  1  0  0  0  0
 40 45  1  0  0  0  0
  8 13  1  0  0  0  0
 18 27  1  0  0  0  0
 49 51  1  0  0  0  0
  7 12  1  0  0  0  0
 39 44  1  0  0  0  0
 17 26  1  0  0  0  0
 25 36  1  0  0  0  0
 25 37  1  0  0  0  0
 25 38  1  0  0  0  0
M  CHG  1  25   1
M  END
$$$$

  -OEChem-05262214473D

 54 53  0     1  0  0  0  0  0999 V2000
    2.6714    2.8829   -3.0005 C   0  0  0  0  0  0  0  0  0  0  0  0
    3.1741    2.4398   -1.9745 O   0  0  0  0  0  0  0  0  0  0  0  0
    3.5527    3.3077   -4.1279 C   0  0  0  0  0  0  0  0  0  0  0  0
    3.8407    4.3691   -4.0597 H   0  0  0  0  0  0  0  0  0  0  0  0
    4.5024    2.7495   -4.1526 H   0  0  0  0  0  0  0  0  0  0  0  0
    3.1208    3.1887   -5.1345 H   0  0  0  0  0  0  0  0  0  0  0  0
    1.3174    3.0407   -3.2467 N   0  0  0  0  0  0  0  0  0  0  0  0
    0.2944    2.6927   -2.2960 C   0  0  2  0  0  0  0  0  0  0  0  0
    0.2976    1.1783   -2.1349 C   0  0  0  0  0  0  0  0  0  0  0  0
    0.7500    0.4142   -2.9850 O   0  0  0  0  0  0  0  0  0  0  0  0
   -1.0710    3.1886   -2.7460 C   0  0  0  0  0  0  0  0  0  0  0  0
    1.0312    3.4224   -4.1464 H   0  0  0  0  0  0  0  0  0  0  0  0
    0.5725    3.1622   -1.3461 H   0  0  0  0  0  0  0  0  0  0  0  0
   -1.3666    2.7292   -3.6963 H   0  0  0  0  0  0  0  0  0  0  0  0
   -1.8434    2.9482   -2.0082 H   0  0  0  0  0  0  0  0  0  0  0  0
   -1.0632    4.2744   -2.8901 H   0  0  0  0  0  0  0  0  0  0  0  0
   -0.3037    0.7742   -0.9484 N   0  0  0  0  0  0  0  0  0  0  0  0
   -0.4352   -0.6095   -0.5718 C   0  0  2  0  0  0  0  0  0  0  0  0
    0.7980   -1.0220    0.2251 C   0  0  0  0  0  0  0  0  0  0  0  0
    1.8992   -1.2039   -0.2905 O   0  0  0  0  0  0  0  0  0  0  0  0
   -0.6902   -1.5120   -1.7848 C   0  0  0  0  0  0  0  0  0  0  0  0
   -2.0579   -1.2993   -2.4469 C   0  0  0  0  0  0  0  0  0  0  0  0
   -2.2518   -2.2484   -3.6318 C   0  0  0  0  0  0  0  0  0  0  0  0
   -3.5987   -2.0179   -4.3010 C   0  0  0  0  0  0  0  0  0  0  0  0
   -3.7323   -2.9399   -5.4544 N   0  3  0  0  0  0  0  0  0  0  0  0
   -0.6336    1.4811   -0.2948 H   0  0  0  0  0  0  0  0  0  0  0  0
   -1.3025   -0.6569    0.0978 H   0  0  0  0  0  0  0  0  0  0  0  0
    0.0953   -1.3326   -2.5303 H   0  0  0  0  0  0  0  0  0  0  0  0
   -0.6028   -2.5629   -1.4824 H   0  0  0  0  0  0  0  0  0  0  0  0
   -2.8577   -1.4678   -1.7165 H   0  0  0  0  0  0  0  0  0  0  0  0
   -2.1487   -0.2639   -2.7955 H   0  0  0  0  0  0  0  0  0  0  0  0
   -2.1817   -3.2871   -3.2856 H   0  0  0  0  0  0  0  0  0  0  0  0
   -1.4447   -2.0972   -4.3594 H   0  0  0  0  0  0  0  0  0  0  0  0
   -4.4334   -2.2305   -3.6264 H   0  0  0  0  0  0  0  0  0  0  0  0
   -3.6925   -1.0014   -4.6945 H   0  0  0  0  0  0  0  0  0  0  0  0
   -4.4457   -2.6058   -6.1116 H   0  0  0  0  0  0  0  0  0  0  0  0
   -4.0046   -3.8792   -5.1441 H   0  0  0  0  0  0  0  0  0  0  0  0
   -2.8461   -3.0208   -5.9651 H   0  0  0  0  0  0  0  0  0  0  0  0
    0.5346   -1.1315    1.5829 N   0  0  0  0  0  0  0  0  0  0  0  0
    1.5548   -1.4938    2.5376 C   0  0  2  0  0  0  0  0  0  0  0  0
    0.8679   -1.8325    3.8541 C   0  0  0  0  0  0  0  0  0  0  0  0
   -0.2525   -1.4231    4.1508 O   0  0  0  0  0  0  0  0  0  0  0  0
    2.5626   -0.3703    2.7237 C   0  0  0  0  0  0  0  0  0  0  0  0
   -0.4076   -0.9505    1.9162 H   0  0  0  0  0  0  0  0  0  0  0  0
    2.0529   -2.3868    2.1446 H   0  0  0  0  0  0  0  0  0  0  0  0
    2.0820    0.5329    3.1169 H   0  0  0  0  0  0  0  0  0  0  0  0
    3.3516   -0.6574    3.4266 H   0  0  0  0  0  0  0  0  0  0  0  0
    3.0341   -0.1078    1.7705 H   0  0  0  0  0  0  0  0  0  0  0  0
    1.6708   -2.6102    4.6767 N   0  0  0  0  0  0  0  0  0  0  0  0
    1.2493   -3.0524    5.9854 C   0  0  0  0  0  0  0  0  0  0  0  0
    2.5784   -2.9195    4.3415 H   0  0  0  0  0  0  0  0  0  0  0  0
    1.5840   -2.3284    6.7430 H   0  0  0  0  0  0  0  0  0  0  0  0
    0.1523   -3.1287    6.0108 H   0  0  0  0  0  0  0  0  0  0  0  0
    1.6904   -4.0371    6.1993 H   0  0  0  0  0  0  0  0  0  0  0  0
  1  3  1  0  0  0  0
  1  7  1  0  0  0  0
  1  2  2  0  0  0  0
 40 41  1  0  0  0  0
 41 49  1  0  0  0  0
 41 42  2  0  0  0  0
  8  9  1  0  0  0  0
  9 17  1  0  0  0  0
  9 10  2  0  0  0  0
 18 19  1  0  0  0  0
 19 39  1  0  0  0  0
 19 20  2  0  0  0  0
 40 43  1  0  0  0  0
  8 11  1  0  0  0  0
 49 50  1  0  0  0  0
 22 23  1  0  0  0  0
 21 22  1  0  0  0  0
 23 24  1  0  0  0  0
 18 21  1  0  0  0  0
 24 25  1  0  0  0  0
 39 40  1  0  0  0  0
  7  8  1  0  0  0  0
 17 18  1  0  0  0  0
  3  4  1  0  0  0  0
  3  5  1  0  0  0  0
  3  6  1  0  0  0  0
 43 46  1  0  0  0  0
 43 47  1  0  0  0  0
 43 48  1  0  0  0  0
 11 14  1  0  0  0  0
 11 15  1  0  0  0  0
 11 16  1  0  0  0  0
 50 52  1  0  0  0  0
 50 53  1  0  0  0  0
 50 54  1  0  0  0  0
 22 30  1  0  0  0  0
 22 31  1  0  0  0  0
 23 32  1  0  0  0  0
 23 33  1  0  0  0  0
 21 28  1  0  0  0  0
 21 29  1  0  0  0  0
 24 34  1  0  0  0  0
 24 35  1  0  0  0  0
 40 45  1  0  0  0  0
  8 13  1  0  0  0  0
 18 27  1  0  0  0  0
 49 51  1  0  0  0  0
  7 12  1  0  0  0  0
 39 44  1  0  0  0  0
 17 26  1  0  0  0  0
 25 36  1  0  0  0  0
 25 37  1  0  0  0  0
 25 38  1  0  0  0  0
M  CHG  1  25   1
M  END
$$$$

  -OEChem-05262214473D

 54 53  0     1  0  0  0  0  0999 V2000
    2.6714    2.8829   -3.0005 C   0  0  0  0  0  0  0  0  0  0  0  0
    3.1741    2.4398   -1.9745 O   0  0  0  0  0  0  0  0  0  0  0  0
    3.5527    3.3077   -4.1279 C   0  0  0  0  0  0  0  0  0  0  0  0
    3.8407    4.3691   -4.0597 H   0  0  0  0  0  0  0  0  0  0  0  0
    4.5024    2.7495   -4.1526 H   0  0  0  0  0  0  0  0  0  0  0  0
    3.1208    3.1887   -5.1345 H   0  0  0  0  0  0  0  0  0  0  0  0
    1.3174    3.0407   -3.2467 N   0  0  0  0  0  0  0  0  0  0  0  0
    0.2944    2.6927   -2.2960 C   0  0  2  0  0  0  0  0  0  0  0  0
    0.2976    1.1783   -2.1349 C   0  0  0  0  0  0  0  0  0  0  0  0
    0.7500    0.4142   -2.9850 O   0  0  0  0  0  0  0  0  0  0  0  0
   -1.0710    3.1886   -2.7460 C   0  0  0  0  0  0  0  0  0  0  0  0
    1.0312    3.4224   -4.1464 H   0  0  0  0  0  0  0  0  0  0  0  0
    0.5725    3.1622   -1.3461 H   0  0  0  0  0  0  0  0  0  0  0  0
   -1.3666    2.7292   -3.6963 H   0  0  0  0  0  0  0  0  0  0  0  0
   -1.8434    2.9482   -2.0082 H   0  0  0  0  0  0  0  0  0  0  0  0
   -1.0632    4.2744   -2.8901 H   0  0  0  0  0  0  0  0  0  0  0  0
   -0.3037    0.7742   -0.9484 N   0  0  0  0  0  0  0  0  0  0  0  0
   -0.4352   -0.6095   -0.5718 C   0  0  2  0  0  0  0  0  0  0  0  0
    0.7980   -1.0220    0.2251 C   0  0  0  0  0  0  0  0  0  0  0  0
    1.9409   -0.9471   -0.2219 O   0  0  0  0  0  0  0  0  0  0  0  0
   -0.6902   -1.5120   -1.7848 C   0  0  0  0  0  0  0  0  0  0  0  0
   -2.0579   -1.2993   -2.4469 C   0  0  0  0  0  0  0  0  0  0  0  0
   -2.2518   -2.2484   -3.6318 C   0  0  0  0  0  0  0  0  0  0  0  0
   -3.5987   -2.0179   -4.3010 C   0  0  0  0  0  0  0  0  0  0  0  0
   -3.7323   -2.9399   -5.4544 N   0  3  0  0  0  0  0  0  0  0  0  0
   -0.6336    1.4811   -0.2948 H   0  0  0  0  0  0  0  0  0  0  0  0
   -1.3025   -0.6569    0.0978 H   0  0  0  0  0  0  0  0  0  0  0  0
    0.0953   -1.3326   -2.5303 H   0  0  0  0  0  0  0  0  0  0  0  0
   -0.6028   -2.5629   -1.4824 H   0  0  0  0  0  0  0  0  0  0  0  0
   -2.8577   -1.4678   -1.7165 H   0  0  0  0  0  0  0  0  0  0  0  0
   -2.1487   -0.2639   -2.7955 H   0  0  0  0  0  0  0  0  0  0  0  0
   -2.1817   -3.2871   -3.2856 H   0  0  0  0  0  0  0  0  0  0  0  0
   -1.4447   -2.0972   -4.3594 H   0  0  0  0  0  0  0  0  0  0  0  0
   -4.4334   -2.2305   -3.6264 H   0  0  0  0  0  0  0  0  0  0  0  0
   -3.6925   -1.0014   -4.6945 H   0  0  0  0  0  0  0  0  0  0  0  0
   -4.4457   -2.6058   -6.1116 H   0  0  0  0  0  0  0  0  0  0  0  0
   -4.0046   -3.8792   -5.1441 H   0  0  0  0  0  0  0  0  0  0  0  0
   -2.8461   -3.0208   -5.9651 H   0  0  0  0  0  0  0  0  0  0  0  0
    0.4778   -1.4524    1.5046 N   0  0  0  0  0  0  0  0  0  0  0  0
    1.4846   -1.8773    2.4478 C   0  0  2  0  0  0  0  0  0  0  0  0
    0.7809   -2.5750    3.6043 C   0  0  0  0  0  0  0  0  0  0  0  0
   -0.4012   -2.3852    3.8829 O   0  0  0  0  0  0  0  0  0  0  0  0
    2.3099   -0.7004    2.9440 C   0  0  0  0  0  0  0  0  0  0  0  0
   -0.4976   -1.4689    1.7872 H   0  0  0  0  0  0  0  0  0  0  0  0
    2.1261   -2.5943    1.9239 H   0  0  0  0  0  0  0  0  0  0  0  0
    1.6841    0.0288    3.4716 H   0  0  0  0  0  0  0  0  0  0  0  0
    3.0915   -1.0281    3.6374 H   0  0  0  0  0  0  0  0  0  0  0  0
    2.7913   -0.1818    2.1079 H   0  0  0  0  0  0  0  0  0  0  0  0
    1.6396   -3.4016    4.3153 N   0  0  0  0  0  0  0  0  0  0  0  0
    1.2134   -4.1638    5.4657 C   0  0  0  0  0  0  0  0  0  0  0  0
    2.5993   -3.5133    4.0018 H   0  0  0  0  0  0  0  0  0  0  0  0
    1.3987   -3.5822    6.3808 H   0  0  0  0  0  0  0  0  0  0  0  0
    0.1387   -4.3834    5.3823 H   0  0  0  0  0  0  0  0  0  0  0  0
    1.7779   -5.1069    5.5102 H   0  0  0  0  0  0  0  0  0  0  0  0
  1  3  1  0  0  0  0
  1  7  1  0  0  0  0
  1  2  2  0  0  0  0
 40 41  1  0  0  0  0
 41 49  1  0  0  0  0
 41 42  2  0  0  0  0
  8  9  1  0  0  0  0
  9 17  1  0  0  0  0
  9 10  2  0  0  0  0
 18 19  1  0  0  0  0
 19 39  1  0  0  0  0
 19 20  2  0  0  0  0
 40 43  1  0  0  0  0
  8 11  1  0  0  0  0
 49 50  1  0  0  0  0
 22 23  1  0  0  0  0
 21 22  1  0  0  0  0
 23 24  1  0  0  0  0
 18 21  1  0  0  0  0
 24 25  1  0  0  0  0
 39 40  1  0  0  0  0
  7  8  1  0  0  0  0
 17 18  1  0  0  0  0
  3  4  1  0  0  0  0
  3  5  1  0  0  0  0
  3  6  1  0  0  0  0
 43 46  1  0  0  0  0
 43 47  1  0  0  0  0
 43 48  1  0  0  0  0
 11 14  1  0  0  0  0
 11 15  1  0  0  0  0
 11 16  1  0  0  0  0
 50 52  1  0  0  0  0
 50 53  1  0  0  0  0
 50 54  1  0  0  0  0
 22 30  1  0  0  0  0
 22 31  1  0  0  0  0
 23 32  1  0  0  0  0
 23 33  1  0  0  0  0
 21 28  1  0  0  0  0
 21 29  1  0  0  0  0
 24 34  1  0  0  0  0
 24 35  1  0  0  0  0
 40 45  1  0  0  0  0
  8 13  1  0  0  0  0
 18 27  1  0  0  0  0
 49 51  1  0  0  0  0
  7 12  1  0  0  0  0
 39 44  1  0  0  0  0
 17 26  1  0  0  0  0
 25 36  1  0  0  0  0
 25 37  1  0  0  0  0
 25 38  1  0  0  0  0
M  CHG  1  25   1
M  END
$$$$

  -OEChem-05262214473D

 54 53  0     1  0  0  0  0  0999 V2000
    2.6714    2.8829   -3.0005 C   0  0  0  0  0  0  0  0  0  0  0  0
    3.1741    2.4398   -1.9745 O   0  0  0  0  0  0  0  0  0  0  0  0
    3.5527    3.3077   -4.1279 C   0  0  0  0  0  0  0  0  0  0  0  0
    3.8407    4.3691   -4.0597 H   0  0  0  0  0  0  0  0  0  0  0  0
    4.5024    2.7495   -4.1526 H   0  0  0  0  0  0  0  0  0  0  0  0
    3.1208    3.1887   -5.1345 H   0  0  0  0  0  0  0  0  0  0  0  0
    1.3174    3.0407   -3.2467 N   0  0  0  0  0  0  0  0  0  0  0  0
    0.2944    2.6927   -2.2960 C   0  0  2  0  0  0  0  0  0  0  0  0
    0.2976    1.1783   -2.1349 C   0  0  0  0  0  0  0  0  0  0  0  0
    0.7500    0.4142   -2.9850 O   0  0  0  0  0  0  0  0  0  0  0  0
   -1.0710    3.1886   -2.7460 C   0  0  0  0  0  0  0  0  0  0  0  0
    1.0312    3.4224   -4.1464 H   0  0  0  0  0  0  0  0  0  0  0  0
    0.5725    3.1622   -1.3461 H   0  0  0  0  0  0  0  0  0  0  0  0
   -1.3666    2.7292   -3.6963 H   0  0  0  0  0  0  0  0  0  0  0  0
   -1.8434    2.9482   -2.0082 H   0  0  0  0  0  0  0  0  0  0  0  0
   -1.0632    4.2744   -2.8901 H   0  0  0  0  0  0  0  0  0  0  0  0
   -0.3037    0.7742   -0.9484 N   0  0  0  0  0  0  0  0  0  0  0  0
   -0.4352   -0.6095   -0.5718 C   0  0  2  0  0  0  0  0  0  0  0  0
    0.7980   -1.0220    0.2251 C   0  0  0  0  0  0  0  0  0  0  0  0
    1.9415   -0.7077   -0.0991 O   0  0  0  0  0  0  0  0  0  0  0  0
   -0.6902   -1.5120   -1.7848 C   0  0  0  0  0  0  0  0  0  0  0  0
   -2.0579   -1.2993   -2.4469 C   0  0  0  0  0  0  0  0  0  0  0  0
   -2.2518   -2.2484   -3.6318 C   0  0  0  0  0  0  0  0  0  0  0  0
   -3.5987   -2.0179   -4.3010 C   0  0  0  0  0  0  0  0  0  0  0  0
   -3.7323   -2.9399   -5.4544 N   0  3  0  0  0  0  0  0  0  0  0  0
   -0.6336    1.4811   -0.2948 H   0  0  0  0  0  0  0  0  0  0  0  0
   -1.3025   -0.6569    0.0978 H   0  0  0  0  0  0  0  0  0  0  0  0
    0.0953   -1.3326   -2.5303 H   0  0  0  0  0  0  0  0  0  0  0  0
   -0.6028   -2.5629   -1.4824 H   0  0  0  0  0  0  0  0  0  0  0  0
   -2.8577   -1.4678   -1.7165 H   0  0  0  0  0  0  0  0  0  0  0  0
   -2.1487   -0.2639   -2.7955 H   0  0  0  0  0  0  0  0  0  0  0  0
   -2.1817   -3.2871   -3.2856 H   0  0  0  0  0  0  0  0  0  0  0  0
   -1.4447   -2.0972   -4.3594 H   0  0  0  0  0  0  0  0  0  0  0  0
   -4.4334   -2.2305   -3.6264 H   0  0  0  0  0  0  0  0  0  0  0  0
   -3.6925   -1.0014   -4.6945 H   0  0  0  0  0  0  0  0  0  0  0  0
   -4.4457   -2.6058   -6.1116 H   0  0  0  0  0  0  0  0  0  0  0  0
   -4.0046   -3.8792   -5.1441 H   0  0  0  0  0  0  0  0  0  0  0  0
   -2.8461   -3.0208   -5.9651 H   0  0  0  0  0  0  0  0  0  0  0  0
    0.4718   -1.7536    1.3579 N   0  0  0  0  0  0  0  0  0  0  0  0
    1.4749   -2.2385    2.2758 C   0  0  2  0  0  0  0  0  0  0  0  0
    0.8148   -3.2516    3.2017 C   0  0  0  0  0  0  0  0  0  0  0  0
   -0.3960   -3.2785    3.4123 O   0  0  0  0  0  0  0  0  0  0  0  0
    2.0949   -1.0994    3.0700 C   0  0  0  0  0  0  0  0  0  0  0  0
   -0.5054   -1.9548    1.5477 H   0  0  0  0  0  0  0  0  0  0  0  0
    2.2403   -2.7387    1.6724 H   0  0  0  0  0  0  0  0  0  0  0  0
    1.3432   -0.5863    3.6808 H   0  0  0  0  0  0  0  0  0  0  0  0
    2.8755   -1.4654    3.7452 H   0  0  0  0  0  0  0  0  0  0  0  0
    2.5432   -0.3567    2.4013 H   0  0  0  0  0  0  0  0  0  0  0  0
    1.7417   -4.0946    3.7985 N   0  0  0  0  0  0  0  0  0  0  0  0
    1.3653   -5.1335    4.7285 C   0  0  0  0  0  0  0  0  0  0  0  0
    2.7235   -4.0131    3.5509 H   0  0  0  0  0  0  0  0  0  0  0  0
    1.4146   -4.7425    5.7555 H   0  0  0  0  0  0  0  0  0  0  0  0
    0.3393   -5.4656    4.5116 H   0  0  0  0  0  0  0  0  0  0  0  0
    2.0553   -5.9842    4.6268 H   0  0  0  0  0  0  0  0  0  0  0  0
  1  3  1  0  0  0  0
  1  7  1  0  0  0  0
  1  2  2  0  0  0  0
 40 41  1  0  0  0  0
 41 49  1  0  0  0  0
 41 42  2  0  0  0  0
  8  9  1  0  0  0  0
  9 17  1  0  0  0  0
  9 10  2  0  0  0  0
 18 19  1  0  0  0  0
 19 39  1  0  0  0  0
 19 20  2  0  0  0  0
 40 43  1  0  0  0  0
  8 11  1  0  0  0  0
 49 50  1  0  0  0  0
 22 23  1  0  0  0  0
 21 22  1  0  0  0  0
 23 24  1  0  0  0  0
 18 21  1  0  0  0  0
 24 25  1  0  0  0  0
 39 40  1  0  0  0  0
  7  8  1  0  0  0  0
 17 18  1  0  0  0  0
  3  4  1  0  0  0  0
  3  5  1  0  0  0  0
  3  6  1  0  0  0  0
 43 46  1  0  0  0  0
 43 47  1  0  0  0  0
 43 48  1  0  0  0  0
 11 14  1  0  0  0  0
 11 15  1  0  0  0  0
 11 16  1  0  0  0  0
 50 52  1  0  0  0  0
 50 53  1  0  0  0  0
 50 54  1  0  0  0  0
 22 30  1  0  0  0  0
 22 31  1  0  0  0  0
 23 32  1  0  0  0  0
 23 33  1  0  0  0  0
 21 28  1  0  0  0  0
 21 29  1  0  0  0  0
 24 34  1  0  0  0  0
 24 35  1  0  0  0  0
 40 45  1  0  0  0  0
  8 13  1  0  0  0  0
 18 27  1  0  0  0  0
 49 51  1  0  0  0  0
  7 12  1  0  0  0  0
 39 44  1  0  0  0  0
 17 26  1  0  0  0  0
 25 36  1  0  0  0  0
 25 37  1  0  0  0  0
 25 38  1  0  0  0  0
M  CHG  1  25   1
M  END
$$$$

  -OEChem-05262214473D

 54 53  0     1  0  0  0  0  0999 V2000
    2.6714    2.8829   -3.0005 C   0  0  0  0  0  0  0  0  0  0  0  0
    3.1741    2.4398   -1.9745 O   0  0  0  0  0  0  0  0  0  0  0  0
    3.5527    3.3077   -4.1279 C   0  0  0  0  0  0  0  0  0  0  0  0
    3.8407    4.3691   -4.0597 H   0  0  0  0  0  0  0  0  0  0  0  0
    4.5024    2.7495   -4.1526 H   0  0  0  0  0  0  0  0  0  0  0  0
    3.1208    3.1887   -5.1345 H   0  0  0  0  0  0  0  0  0  0  0  0
    1.3174    3.0407   -3.2467 N   0  0  0  0  0  0  0  0  0  0  0  0
    0.2944    2.6927   -2.2960 C   0  0  2  0  0  0  0  0  0  0  0  0
    0.2976    1.1783   -2.1349 C   0  0  0  0  0  0  0  0  0  0  0  0
    0.7500    0.4142   -2.9850 O   0  0  0  0  0  0  0  0  0  0  0  0
   -1.0710    3.1886   -2.7460 C   0  0  0  0  0  0  0  0  0  0  0  0
    1.0312    3.4224   -4.1464 H   0  0  0  0  0  0  0  0  0  0  0  0
    0.5725    3.1622   -1.3461 H   0  0  0  0  0  0  0  0  0  0  0  0
   -1.3666    2.7292   -3.6963 H   0  0  0  0  0  0  0  0  0  0  0  0
   -1.8434    2.9482   -2.0082 H   0  0  0  0  0  0  0  0  0  0  0  0
   -1.0632    4.2744   -2.8901 H   0  0  0  0  0  0  0  0  0  0  0  0
   -0.3037    0.7742   -0.9484 N   0  0  0  0  0  0  0  0  0  0  0  0
   -0.4352   -0.6095   -0.5718 C   0  0  2  0  0  0  0  0  0  0  0  0
    0.7980   -1.0220    0.2251 C   0  0  0  0  0  0  0  0  0  0  0  0
    1.9012   -0.5021    0.0697 O   0  0  0  0  0  0  0  0  0  0  0  0
   -0.6902   -1.5120   -1.7848 C   0  0  0  0  0  0  0  0  0  0  0  0
   -2.0579   -1.2993   -2.4469 C   0  0  0  0  0  0  0  0  0  0  0  0
   -2.2518   -2.2484   -3.6318 C   0  0  0  0  0  0  0  0  0  0  0  0
   -3.5987   -2.0179   -4.3010 C   0  0  0  0  0  0  0  0  0  0  0  0
   -3.7323   -2.9399   -5.4544 N   0  3  0  0  0  0  0  0  0  0  0  0
   -0.6336    1.4811   -0.2948 H   0  0  0  0  0  0  0  0  0  0  0  0
   -1.3025   -0.6569    0.0978 H   0  0  0  0  0  0  0  0  0  0  0  0
    0.0953   -1.3326   -2.5303 H   0  0  0  0  0  0  0  0  0  0  0  0
   -0.6028   -2.5629   -1.4824 H   0  0  0  0  0  0  0  0  0  0  0  0
   -2.8577   -1.4678   -1.7165 H   0  0  0  0  0  0  0  0  0  0  0  0
   -2.1487   -0.2639   -2.7955 H   0  0  0  0  0  0  0  0  0  0  0  0
   -2.1817   -3.2871   -3.2856 H   0  0  0  0  0  0  0  0  0  0  0  0
   -1.4447   -2.0972   -4.3594 H   0  0  0  0  0  0  0  0  0  0  0  0
   -4.4334   -2.2305   -3.6264 H   0  0  0  0  0  0  0  0  0  0  0  0
   -3.6925   -1.0014   -4.6945 H   0  0  0  0  0  0  0  0  0  0  0  0
   -4.4457   -2.6058   -6.1116 H   0  0  0  0  0  0  0  0  0  0  0  0
   -4.0046   -3.8792   -5.1441 H   0  0  0  0  0  0  0  0  0  0  0  0
   -2.8461   -3.0208   -5.9651 H   0  0  0  0  0  0  0  0  0  0  0  0
    0.5171   -2.0147    1.1527 N   0  0  0  0  0  0  0  0  0  0  0  0
    1.5265   -2.5526    2.0334 C   0  0  2  0  0  0  0  0  0  0  0  0
    0.9672   -3.8163    2.6735 C   0  0  0  0  0  0  0  0  0  0  0  0
   -0.2372   -4.0422    2.7712 O   0  0  0  0  0  0  0  0  0  0  0  0
    1.9325   -1.5404    3.0932 C   0  0  0  0  0  0  0  0  0  0  0  0
   -0.4305   -2.3751    1.2142 H   0  0  0  0  0  0  0  0  0  0  0  0
    2.3878   -2.8101    1.4073 H   0  0  0  0  0  0  0  0  0  0  0  0
    1.0824   -1.2702    3.7303 H   0  0  0  0  0  0  0  0  0  0  0  0
    2.7185   -1.9396    3.7427 H   0  0  0  0  0  0  0  0  0  0  0  0
    2.3067   -0.6207    2.6307 H   0  0  0  0  0  0  0  0  0  0  0  0
    1.9703   -4.6421    3.1614 N   0  0  0  0  0  0  0  0  0  0  0  0
    1.6948   -5.8954    3.8242 C   0  0  0  0  0  0  0  0  0  0  0  0
    2.9426   -4.3846    3.0195 H   0  0  0  0  0  0  0  0  0  0  0  0
    1.6306   -5.7303    4.9099 H   0  0  0  0  0  0  0  0  0  0  0  0
    0.7404   -6.3016    3.4581 H   0  0  0  0  0  0  0  0  0  0  0  0
    2.5037   -6.6092    3.6093 H   0  0  0  0  0  0  0  0  0  0  0  0
  1  3  1  0  0  0  0
  1  7  1  0  0  0  0
  1  2  2  0  0  0  0
 40 41  1  0  0  0  0
 41 49  1  0  0  0  0
 41 42  2  0  0  0  0
  8  9  1  0  0  0  0
  9 17  1  0  0  0  0
  9 10  2  0  0  0  0
 18 19  1  0  0  0  0
 19 39  1  0  0  0  0
 19 20  2  0  0  0  0
 40 43  1  0  0  0  0
  8 11  1  0  0  0  0
 49 50  1  0  0  0  0
 22 23  1  0  0  0  0
 21 22  1  0  0  0  0
 23 24  1  0  0  0  0
 18 21  1  0  0  0  0
 24 25  1  0  0  0  0
 39 40  1  0  0  0  0
  7  8  1  0  0  0  0
 17 18  1  0  0  0  0
  3  4  1  0  0  0  0
  3  5  1  0  0  0  0
  3  6  1  0  0  0  0
 43 46  1  0  0  0  0
 43 47  1  0  0  0  0
 43 48  1  0  0  0  0
 11 14  1  0  0  0  0
 11 15  1  0  0  0  0
 11 16  1  0  0  0  0
 50 52  1  0  0  0  0
 50 53  1  0  0  0  0
 50 54  1  0  0  0  0
 22 30  1  0  0  0  0
 22 31  1  0  0  0  0
 23 32  1  0  0  0  0
 23 33  1  0  0  0  0
 21 28  1  0  0  0  0
 21 29  1  0  0  0  0
 24 34  1  0  0  0  0
 24 35  1  0  0  0  0
 40 45  1  0  0  0  0
  8 13  1  0  0  0  0
 18 27  1  0  0  0  0
 49 51  1  0  0  0  0
  7 12  1  0  0  0  0
 39 44  1  0  0  0  0
 17 26  1  0  0  0  0
 25 36  1  0  0  0  0
 25 37  1  0  0  0  0
 25 38  1  0  0  0  0
M  CHG  1  25   1
M  END
$$$$

  -OEChem-05262214473D

 54 53  0     1  0  0  0  0  0999 V2000
    2.6714    2.8829   -3.0005 C   0  0  0  0  0  0  0  0  0  0  0  0
    3.1741    2.4398   -1.9745 O   0  0  0  0  0  0  0  0  0  0  0  0
    3.5527    3.3077   -4.1279 C   0  0  0  0  0  0  0  0  0  0  0  0
    3.8407    4.3691   -4.0597 H   0  0  0  0  0  0  0  0  0  0  0  0
    4.5024    2.7495   -4.1526 H   0  0  0  0  0  0  0  0  0  0  0  0
    3.1208    3.1887   -5.1345 H   0  0  0  0  0  0  0  0  0  0  0  0
    1.3174    3.0407   -3.2467 N   0  0  0  0  0  0  0  0  0  0  0  0
    0.2944    2.6927   -2.2960 C   0  0  2  0  0  0  0  0  0  0  0  0
    0.2976    1.1783   -2.1349 C   0  0  0  0  0  0  0  0  0  0  0  0
    0.7500    0.4142   -2.9850 O   0  0  0  0  0  0  0  0  0  0  0  0
   -1.0710    3.1886   -2.7460 C   0  0  0  0  0  0  0  0  0  0  0  0
    1.0312    3.4224   -4.1464 H   0  0  0  0  0  0  0  0  0  0  0  0
    0.5725    3.1622   -1.3461 H   0  0  0  0  0  0  0  0  0  0  0  0
   -1.3666    2.7292   -3.6963 H   0  0  0  0  0  0  0  0  0  0  0  0
   -1.8434    2.9482   -2.0082 H   0  0  0  0  0  0  0  0  0  0  0  0
   -1.0632    4.2744   -2.8901 H   0  0  0  0  0  0  0  0  0  0  0  0
   -0.3037    0.7742   -0.9484 N   0  0  0  0  0  0  0  0  0  0  0  0
   -0.4352   -0.6095   -0.5718 C   0  0  2  0  0  0  0  0  0  0  0  0
    0.7980   -1.0220    0.2251 C   0  0  0  0  0  0  0  0  0  0  0  0
    1.8227   -0.3443    0.2730 O   0  0  0  0  0  0  0  0  0  0  0  0
   -0.6902   -1.5120   -1.7848 C   0  0  0  0  0  0  0  0  0  0  0  0
   -2.0579   -1.2993   -2.4469 C   0  0  0  0  0  0  0  0  0  0  0  0
   -2.2518   -2.2484   -3.6318 C   0  0  0  0  0  0  0  0  0  0  0  0
   -3.5987   -2.0179   -4.3010 C   0  0  0  0  0  0  0  0  0  0  0  0
   -3.7323   -2.9399   -5.4544 N   0  3  0  0  0  0  0  0  0  0  0  0
   -0.6336    1.4811   -0.2948 H   0  0  0  0  0  0  0  0  0  0  0  0
   -1.3025   -0.6569    0.0978 H   0  0  0  0  0  0  0  0  0  0  0  0
    0.0953   -1.3326   -2.5303 H   0  0  0  0  0  0  0  0  0  0  0  0
   -0.6028   -2.5629   -1.4824 H   0  0  0  0  0  0  0  0  0  0  0  0
   -2.8577   -1.4678   -1.7165 H   0  0  0  0  0  0  0  0  0  0  0  0
   -2.1487   -0.2639   -2.7955 H   0  0  0  0  0  0  0  0  0  0  0  0
   -2.1817   -3.2871   -3.2856 H   0  0  0  0  0  0  0  0  0  0  0  0
   -1.4447   -2.0972   -4.3594 H   0  0  0  0  0  0  0  0  0  0  0  0
   -4.4334   -2.2305   -3.6264 H   0  0  0  0  0  0  0  0  0  0  0  0
   -3.6925   -1.0014   -4.6945 H   0  0  0  0  0  0  0  0  0  0  0  0
   -4.4457   -2.6058   -6.1116 H   0  0  0  0  0  0  0  0  0  0  0  0
   -4.0046   -3.8792   -5.1441 H   0  0  0  0  0  0  0  0  0  0  0  0
   -2.8461   -3.0208   -5.9651 H   0  0  0  0  0  0  0  0  0  0  0  0
    0.6105   -2.2179    0.9031 N   0  0  0  0  0  0  0  0  0  0  0  0
    1.6357   -2.7983    1.7371 C   0  0  2  0  0  0  0  0  0  0  0  0
    1.2277   -4.2306    2.0558 C   0  0  0  0  0  0  0  0  0  0  0  0
    0.0644   -4.6242    2.0033 O   0  0  0  0  0  0  0  0  0  0  0  0
    1.8336   -1.9931    3.0119 C   0  0  0  0  0  0  0  0  0  0  0  0
   -0.2780   -2.7011    0.8094 H   0  0  0  0  0  0  0  0  0  0  0  0
    2.5584   -2.8036    1.1466 H   0  0  0  0  0  0  0  0  0  0  0  0
    0.9195   -1.9765    3.6167 H   0  0  0  0  0  0  0  0  0  0  0  0
    2.6312   -2.4183    3.6300 H   0  0  0  0  0  0  0  0  0  0  0  0
    2.0978   -0.9556    2.7805 H   0  0  0  0  0  0  0  0  0  0  0  0
    2.3097   -5.0066    2.4474 N   0  0  0  0  0  0  0  0  0  0  0  0
    2.1795   -6.3974    2.8143 C   0  0  0  0  0  0  0  0  0  0  0  0
    3.2417   -4.6027    2.4437 H   0  0  0  0  0  0  0  0  0  0  0  0
    2.0321   -6.4782    3.9014 H   0  0  0  0  0  0  0  0  0  0  0  0
    1.3146   -6.8344    2.2937 H   0  0  0  0  0  0  0  0  0  0  0  0
    3.0926   -6.9393    2.5270 H   0  0  0  0  0  0  0  0  0  0  0  0
  1  3  1  0  0  0  0
  1  7  1  0  0  0  0
  1  2  2  0  0  0  0
 40 41  1  0  0  0  0
 41 49  1  0  0  0  0
 41 42  2  0  0  0  0
  8  9  1  0  0  0  0
  9 17  1  0  0  0  0
  9 10  2  0  0  0  0
 18 19  1  0  0  0  0
 19 39  1  0  0  0  0
 19 20  2  0  0  0  0
 40 43  1  0  0  0  0
  8 11  1  0  0  0  0
 49 50  1  0  0  0  0
 22 23  1  0  0  0  0
 21 22  1  0  0  0  0
 23 24  1  0  0  0  0
 18 21  1  0  0  0  0
 24 25  1  0  0  0  0
 39 40  1  0  0  0  0
  7  8  1  0  0  0  0
 17 18  1  0  0  0  0
  3  4  1  0  0  0  0
  3  5  1  0  0  0  0
  3  6  1  0  0  0  0
 43 46  1  0  0  0  0
 43 47  1  0  0  0  0
 43 48  1  0  0  0  0
 11 14  1  0  0  0  0
 11 15  1  0  0  0  0
 11 16  1  0  0  0  0
 50 52  1  0  0  0  0
 50 53  1  0  0  0  0
 50 54  1  0  0  0  0
 22 30  1  0  0  0  0
 22 31  1  0  0  0  0
 23 32  1  0  0  0  0
 23 33  1  0  0  0  0
 21 28  1  0  0  0  0
 21 29  1  0  0  0  0
 24 34  1  0  0  0  0
 24 35  1  0  0  0  0
 40 45  1  0  0  0  0
  8 13  1  0  0  0  0
 18 27  1  0  0  0  0
 49 51  1  0  0  0  0
  7 12  1  0  0  0  0
 39 44  1  0  0  0  0
 17 26  1  0  0  0  0
 25 36  1  0  0  0  0
 25 37  1  0  0  0  0
 25 38  1  0  0  0  0
M  CHG  1  25   1
M  END
$$$$

  -OEChem-05262214473D

 54 53  0     1  0  0  0  0  0999 V2000
    2.6714    2.8829   -3.0005 C   0  0  0  0  0  0  0  0  0  0  0  0
    3.1741    2.4398   -1.9745 O   0  0  0  0  0  0  0  0  0  0  0  0
    3.5527    3.3077   -4.1279 C   0  0  0  0  0  0  0  0  0  0  0  0
    3.8407    4.3691   -4.0597 H   0  0  0  0  0  0  0  0  0  0  0  0
    4.5024    2.7495   -4.1526 H   0  0  0  0  0  0  0  0  0  0  0  0
    3.1208    3.1887   -5.1345 H   0  0  0  0  0  0  0  0  0  0  0  0
    1.3174    3.0407   -3.2467 N   0  0  0  0  0  0  0  0  0  0  0  0
    0.2944    2.6927   -2.2960 C   0  0  2  0  0  0  0  0  0  0  0  0
    0.2976    1.1783   -2.1349 C   0  0  0  0  0  0  0  0  0  0  0  0
    0.7500    0.4142   -2.9850 O   0  0  0  0  0  0  0  0  0  0  0  0
   -1.0710    3.1886   -2.7460 C   0  0  0  0  0  0  0  0  0  0  0  0
    1.0312    3.4224   -4.1464 H   0  0  0  0  0  0  0  0  0  0  0  0
    0.5725    3.1622   -1.3461 H   0  0  0  0  0  0  0  0  0  0  0  0
   -1.3666    2.7292   -3.6963 H   0  0  0  0  0  0  0  0  0  0  0  0
   -1.8434    2.9482   -2.0082 H   0  0  0  0  0  0  0  0  0  0  0  0
   -1.0632    4.2744   -2.8901 H   0  0  0  0  0  0  0  0  0  0  0  0
   -0.3037    0.7742   -0.9484 N   0  0  0  0  0  0  0  0  0  0  0  0
   -0.4352   -0.6095   -0.5718 C   0  0  2  0  0  0  0  0  0  0  0  0
    0.5842   -0.9218    0.5188 C   0  0  0  0  0  0  0  0  0  0  0  0
    1.3485   -0.0782    0.9833 O   0  0  0  0  0  0  0  0  0  0  0  0
   -0.3206   -1.5459   -1.7805 C   0  0  0  0  0  0  0  0  0  0  0  0
   -1.4906   -1.4404   -2.7674 C   0  0  0  0  0  0  0  0  0  0  0  0
   -1.3209   -2.4186   -3.9322 C   0  0  0  0  0  0  0  0  0  0  0  0
   -2.4703   -2.2940   -4.9214 C   0  0  0  0  0  0  0  0  0  0  0  0
   -2.2519   -3.2404   -6.0417 N   0  3  0  0  0  0  0  0  0  0  0  0
   -0.6336    1.4811   -0.2948 H   0  0  0  0  0  0  0  0  0  0  0  0
   -1.4372   -0.7080   -0.1369 H   0  0  0  0  0  0  0  0  0  0  0  0
    0.6128   -1.3228   -2.3133 H   0  0  0  0  0  0  0  0  0  0  0  0
   -0.2436   -2.5833   -1.4321 H   0  0  0  0  0  0  0  0  0  0  0  0
   -2.4348   -1.6540   -2.2530 H   0  0  0  0  0  0  0  0  0  0  0  0
   -1.5583   -0.4194   -3.1608 H   0  0  0  0  0  0  0  0  0  0  0  0
   -1.2724   -3.4445   -3.5461 H   0  0  0  0  0  0  0  0  0  0  0  0
   -0.3693   -2.2218   -4.4414 H   0  0  0  0  0  0  0  0  0  0  0  0
   -3.4313   -2.5549   -4.4682 H   0  0  0  0  0  0  0  0  0  0  0  0
   -2.5285   -1.2928   -5.3584 H   0  0  0  0  0  0  0  0  0  0  0  0
   -2.7989   -2.9676   -6.8656 H   0  0  0  0  0  0  0  0  0  0  0  0
   -2.5316   -4.1918   -5.7784 H   0  0  0  0  0  0  0  0  0  0  0  0
   -1.2630   -3.2662   -6.3138 H   0  0  0  0  0  0  0  0  0  0  0  0
    0.5194   -2.2432    0.9366 N   0  0  0  0  0  0  0  0  0  0  0  0
    1.3780   -2.7653    1.9729 C   0  0  2  0  0  0  0  0  0  0  0  0
    1.2705   -4.2843    1.9518 C   0  0  0  0  0  0  0  0  0  0  0  0
    0.3076   -4.8821    1.4756 O   0  0  0  0  0  0  0  0  0  0  0  0
    0.9976   -2.2124    3.3375 C   0  0  0  0  0  0  0  0  0  0  0  0
   -0.1548   -2.8640    0.4987 H   0  0  0  0  0  0  0  0  0  0  0  0
    2.4005   -2.4674    1.7163 H   0  0  0  0  0  0  0  0  0  0  0  0
   -0.0238   -2.5005    3.6118 H   0  0  0  0  0  0  0  0  0  0  0  0
    1.6676   -2.5871    4.1183 H   0  0  0  0  0  0  0  0  0  0  0  0
    1.0467   -1.1181    3.3422 H   0  0  0  0  0  0  0  0  0  0  0  0
    2.3560   -4.8930    2.5659 N   0  0  0  0  0  0  0  0  0  0  0  0
    2.4814   -6.3269    2.6851 C   0  0  0  0  0  0  0  0  0  0  0  0
    3.1180   -4.3199    2.9162 H   0  0  0  0  0  0  0  0  0  0  0  0
    2.0574   -6.6540    3.6459 H   0  0  0  0  0  0  0  0  0  0  0  0
    1.9384   -6.8121    1.8606 H   0  0  0  0  0  0  0  0  0  0  0  0
    3.5442   -6.6070    2.6391 H   0  0  0  0  0  0  0  0  0  0  0  0
  1  3  1  0  0  0  0
  1  7  1  0  0  0  0
  1  2  2  0  0  0  0
 40 41  1  0  0  0  0
 41 49  1  0  0  0  0
 41 42  2  0  0  0  0
  8  9  1  0  0  0  0
  9 17  1  0  0  0  0
  9 10  2  0  0  0  0
 18 19  1  0  0  0  0
 19 39  1  0  0  0  0
 19 20  2  0  0  0  0
 40 43  1  0  0  0  0
  8 11  1  0  0  0  0
 49 50  1  0  0  0  0
 22 23  1  0  0  0  0
 21 22  1  0  0  0  0
 23 24  1  0  0  0  0
 18 21  1  0  0  0  0
 24 25  1  0  0  0  0
 39 40  1  0  0  0  0
  7  8  1  0  0  0  0
 17 18  1  0  0  0  0
  3  4  1  0  0  0  0
  3  5  1  0  0  0  0
  3  6  1  0  0  0  0
 43 46  1  0  0  0  0
 43 47  1  0  0  0  0
 43 48  1  0  0  0  0
 11 14  1  0  0  0  0
 11 15  1  0  0  0  0
 11 16  1  0  0  0  0
 50 52  1  0  0  0  0
 50 53  1  0  0  0  0
 50 54  1  0  0  0  0
 22 30  1  0  0  0  0
 22 31  1  0  0  0  0
 23 32  1  0  0  0  0
 23 33  1  0  0  0  0
 21 28  1  0  0  0  0
 21 29  1  0  0  0  0
 24 34  1  0  0  0  0
 24 35  1  0  0  0  0
 40 45  1  0  0  0  0
  8 13  1  0  0  0  0
 18 27  1  0  0  0  0
 49 51  1  0  0  0  0
  7 12  1  0  0  0  0
 39 44  1  0  0  0  0
 17 26  1  0  0  0  0
 25 36  1  0  0  0  0
 25 37  1  0  0  0  0
 25 38  1  0  0  0  0
M  CHG  1  25   1
M  END
$$$$

  -OEChem-05262214473D

 54 53  0     1  0  0  0  0  0999 V2000
    2.6714    2.8829   -3.0005 C   0  0  0  0  0  0  0  0  0  0  0  0
    3.1741    2.4398   -1.9745 O   0  0  0  0  0  0  0  0  0  0  0  0
    3.5527    3.3077   -4.1279 C   0  0  0  0  0  0  0  0  0  0  0  0
    3.8407    4.3691   -4.0597 H   0  0  0  0  0  0  0  0  0  0  0  0
    4.5024    2.7495   -4.1526 H   0  0  0  0  0  0  0  0  0  0  0  0
    3.1208    3.1887   -5.1345 H   0  0  0  0  0  0  0  0  0  0  0  0
    1.3174    3.0407   -3.2467 N   0  0  0  0  0  0  0  0  0  0  0  0
    0.2944    2.6927   -2.2960 C   0  0  2  0  0  0  0  0  0  0  0  0
    0.2976    1.1783   -2.1349 C   0  0  0  0  0  0  0  0  0  0  0  0
    0.7500    0.4142   -2.9850 O   0  0  0  0  0  0  0  0  0  0  0  0
   -1.0710    3.1886   -2.7460 C   0  0  0  0  0  0  0  0  0  0  0  0
    1.0312    3.4224   -4.1464 H   0  0  0  0  0  0  0  0  0  0  0  0
    0.5725    3.1622   -1.3461 H   0  0  0  0  0  0  0  0  0  0  0  0
   -1.3666    2.7292   -3.6963 H   0  0  0  0  0  0  0  0  0  0  0  0
   -1.8434    2.9482   -2.0082 H   0  0  0  0  0  0  0  0  0  0  0  0
   -1.0632    4.2744   -2.8901 H   0  0  0  0  0  0  0  0  0  0  0  0
   -0.3037    0.7742   -0.9484 N   0  0  0  0  0  0  0  0  0  0  0  0
   -0.4352   -0.6095   -0.5718 C   0  0  2  0  0  0  0  0  0  0  0  0
    0.5842   -0.9218    0.5188 C   0  0  0  0  0  0  0  0  0  0  0  0
    1.1569   -0.0505    1.1702 O   0  0  0  0  0  0  0  0  0  0  0  0
   -0.3206   -1.5459   -1.7805 C   0  0  0  0  0  0  0  0  0  0  0  0
   -1.4906   -1.4404   -2.7674 C   0  0  0  0  0  0  0  0  0  0  0  0
   -1.3209   -2.4186   -3.9322 C   0  0  0  0  0  0  0  0  0  0  0  0
   -2.4703   -2.2940   -4.9214 C   0  0  0  0  0  0  0  0  0  0  0  0
   -2.2519   -3.2404   -6.0417 N   0  3  0  0  0  0  0  0  0  0  0  0
   -0.6336    1.4811   -0.2948 H   0  0  0  0  0  0  0  0  0  0  0  0
   -1.4372   -0.7080   -0.1369 H   0  0  0  0  0  0  0  0  0  0  0  0
    0.6128   -1.3228   -2.3133 H   0  0  0  0  0  0  0  0  0  0  0  0
   -0.2436   -2.5833   -1.4321 H   0  0  0  0  0  0  0  0  0  0  0  0
   -2.4348   -1.6540   -2.2530 H   0  0  0  0  0  0  0  0  0  0  0  0
   -1.5583   -0.4194   -3.1608 H   0  0  0  0  0  0  0  0  0  0  0  0
   -1.2724   -3.4445   -3.5461 H   0  0  0  0  0  0  0  0  0  0  0  0
   -0.3693   -2.2218   -4.4414 H   0  0  0  0  0  0  0  0  0  0  0  0
   -3.4313   -2.5549   -4.4682 H   0  0  0  0  0  0  0  0  0  0  0  0
   -2.5285   -1.2928   -5.3584 H   0  0  0  0  0  0  0  0  0  0  0  0
   -2.7989   -2.9676   -6.8656 H   0  0  0  0  0  0  0  0  0  0  0  0
   -2.5316   -4.1918   -5.7784 H   0  0  0  0  0  0  0  0  0  0  0  0
   -1.2630   -3.2662   -6.3138 H   0  0  0  0  0  0  0  0  0  0  0  0
    0.7560   -2.2861    0.7032 N   0  0  0  0  0  0  0  0  0  0  0  0
    1.6595   -2.8207    1.6939 C   0  0  2  0  0  0  0  0  0  0  0  0
    1.8429   -4.3058    1.4105 C   0  0  0  0  0  0  0  0  0  0  0  0
    1.0291   -4.9730    0.7751 O   0  0  0  0  0  0  0  0  0  0  0  0
    1.1312   -2.5974    3.1024 C   0  0  0  0  0  0  0  0  0  0  0  0
    0.2284   -2.9303    0.1216 H   0  0  0  0  0  0  0  0  0  0  0  0
    2.6156   -2.3024    1.5625 H   0  0  0  0  0  0  0  0  0  0  0  0
    0.1736   -3.1092    3.2529 H   0  0  0  0  0  0  0  0  0  0  0  0
    1.8310   -2.9779    3.8537 H   0  0  0  0  0  0  0  0  0  0  0  0
    0.9716   -1.5308    3.2942 H   0  0  0  0  0  0  0  0  0  0  0  0
    3.0010   -4.8081    1.9874 N   0  0  0  0  0  0  0  0  0  0  0  0
    3.3917   -6.1937    1.8723 C   0  0  0  0  0  0  0  0  0  0  0  0
    3.6270   -4.1785    2.4809 H   0  0  0  0  0  0  0  0  0  0  0  0
    3.0025   -6.7577    2.7329 H   0  0  0  0  0  0  0  0  0  0  0  0
    2.9812   -6.6143    0.9425 H   0  0  0  0  0  0  0  0  0  0  0  0
    4.4892   -6.2648    1.8537 H   0  0  0  0  0  0  0  0  0  0  0  0
  1  3  1  0  0  0  0
  1  7  1  0  0  0  0
  1  2  2  0  0  0  0
 40 41  1  0  0  0  0
 41 49  1  0  0  0  0
 41 42  2  0  0  0  0
  8  9  1  0  0  0  0
  9 17  1  0  0  0  0
  9 10  2  0  0  0  0
 18 19  1  0  0  0  0
 19 39  1  0  0  0  0
 19 20  2  0  0  0  0
 40 43  1  0  0  0  0
  8 11  1  0  0  0  0
 49 50  1  0  0  0  0
 22 23  1  0  0  0  0
 21 22  1  0  0  0  0
 23 24  1  0  0  0  0
 18 21  1  0  0  0  0
 24 25  1  0  0  0  0
 39 40  1  0  0  0  0
  7  8  1  0  0  0  0
 17 18  1  0  0  0  0
  3  4  1  0  0  0  0
  3  5  1  0  0  0  0
  3  6  1  0  0  0  0
 43 46  1  0  0  0  0
 43 47  1  0  0  0  0
 43 48  1  0  0  0  0
 11 14  1  0  0  0  0
 11 15  1  0  0  0  0
 11 16  1  0  0  0  0
 50 52  1  0  0  0  0
 50 53  1  0  0  0  0
 50 54  1  0  0  0  0
 22 30  1  0  0  0  0
 22 31  1  0  0  0  0
 23 32  1  0  0  0  0
 23 33  1  0  0  0  0
 21 28  1  0  0  0  0
 21 29  1  0  0  0  0
 24 34  1  0  0  0  0
 24 35  1  0  0  0  0
 40 45  1  0  0  0  0
  8 13  1  0  0  0  0
 18 27  1  0  0  0  0
 49 51  1  0  0  0  0
  7 12  1  0  0  0  0
 39 44  1  0  0  0  0
 17 26  1  0  0  0  0
 25 36  1  0  0  0  0
 25 37  1  0  0  0  0
 25 38  1  0  0  0  0
M  CHG  1  25   1
M  END
$$$$

  -OEChem-05262214473D

 54 53  0     1  0  0  0  0  0999 V2000
    2.6714    2.8829   -3.0005 C   0  0  0  0  0  0  0  0  0  0  0  0
    3.1741    2.4398   -1.9745 O   0  0  0  0  0  0  0  0  0  0  0  0
    3.5527    3.3077   -4.1279 C   0  0  0  0  0  0  0  0  0  0  0  0
    3.8407    4.3691   -4.0597 H   0  0  0  0  0  0  0  0  0  0  0  0
    4.5024    2.7495   -4.1526 H   0  0  0  0  0  0  0  0  0  0  0  0
    3.1208    3.1887   -5.1345 H   0  0  0  0  0  0  0  0  0  0  0  0
    1.3174    3.0407   -3.2467 N   0  0  0  0  0  0  0  0  0  0  0  0
    0.2944    2.6927   -2.2960 C   0  0  2  0  0  0  0  0  0  0  0  0
    0.2976    1.1783   -2.1349 C   0  0  0  0  0  0  0  0  0  0  0  0
    0.7500    0.4142   -2.9850 O   0  0  0  0  0  0  0  0  0  0  0  0
   -1.0710    3.1886   -2.7460 C   0  0  0  0  0  0  0  0  0  0  0  0
    1.0312    3.4224   -4.1464 H   0  0  0  0  0  0  0  0  0  0  0  0
    0.5725    3.1622   -1.3461 H   0  0  0  0  0  0  0  0  0  0  0  0
   -1.3666    2.7292   -3.6963 H   0  0  0  0  0  0  0  0  0  0  0  0
   -1.8434    2.9482   -2.0082 H   0  0  0  0  0  0  0  0  0  0  0  0
   -1.0632    4.2744   -2.8901 H   0  0  0  0  0  0  0  0  0  0  0  0
   -0.3037    0.7742   -0.9484 N   0  0  0  0  0  0  0  0  0  0  0  0
   -0.4352   -0.6095   -0.5718 C   0  0  2  0  0  0  0  0  0  0  0  0
    0.5842   -0.9218    0.5188 C   0  0  0  0  0  0  0  0  0  0  0  0
    0.9569   -0.0916    1.3454 O   0  0  0  0  0  0  0  0  0  0  0  0
   -0.3206   -1.5459   -1.7805 C   0  0  0  0  0  0  0  0  0  0  0  0
   -1.4906   -1.4404   -2.7674 C   0  0  0  0  0  0  0  0  0  0  0  0
   -1.3209   -2.4186   -3.9322 C   0  0  0  0  0  0  0  0  0  0  0  0
   -2.4703   -2.2940   -4.9214 C   0  0  0  0  0  0  0  0  0  0  0  0
   -2.2519   -3.2404   -6.0417 N   0  3  0  0  0  0  0  0  0  0  0  0
   -0.6336    1.4811   -0.2948 H   0  0  0  0  0  0  0  0  0  0  0  0
   -1.4372   -0.7080   -0.1369 H   0  0  0  0  0  0  0  0  0  0  0  0
    0.6128   -1.3228   -2.3133 H   0  0  0  0  0  0  0  0  0  0  0  0
   -0.2436   -2.5833   -1.4321 H   0  0  0  0  0  0  0  0  0  0  0  0
   -2.4348   -1.6540   -2.2530 H   0  0  0  0  0  0  0  0  0  0  0  0
   -1.5583   -0.4194   -3.1608 H   0  0  0  0  0  0  0  0  0  0  0  0
   -1.2724   -3.4445   -3.5461 H   0  0  0  0  0  0  0  0  0  0  0  0
   -0.3693   -2.2218   -4.4414 H   0  0  0  0  0  0  0  0  0  0  0  0
   -3.4313   -2.5549   -4.4682 H   0  0  0  0  0  0  0  0  0  0  0  0
   -2.5285   -1.2928   -5.3584 H   0  0  0  0  0  0  0  0  0  0  0  0
   -2.7989   -2.9676   -6.8656 H   0  0  0  0  0  0  0  0  0  0  0  0
   -2.5316   -4.1918   -5.7784 H   0  0  0  0  0  0  0  0  0  0  0  0
   -1.2630   -3.2662   -6.3138 H   0  0  0  0  0  0  0  0  0  0  0  0
    1.0048   -2.2434    0.4828 N   0  0  0  0  0  0  0  0  0  0  0  0
    1.9563   -2.7739    1.4298 C   0  0  2  0  0  0  0  0  0  0  0  0
    2.4285   -4.1270    0.9143 C   0  0  0  0  0  0  0  0  0  0  0  0
    1.7800   -4.8061    0.1211 O   0  0  0  0  0  0  0  0  0  0  0  0
    1.3439   -2.9038    2.8158 C   0  0  0  0  0  0  0  0  0  0  0  0
    0.6307   -2.8582   -0.2339 H   0  0  0  0  0  0  0  0  0  0  0  0
    2.8009   -2.0767    1.4539 H   0  0  0  0  0  0  0  0  0  0  0  0
    0.4960   -3.5985    2.8114 H   0  0  0  0  0  0  0  0  0  0  0  0
    2.0752   -3.2794    3.5391 H   0  0  0  0  0  0  0  0  0  0  0  0
    0.9780   -1.9350    3.1725 H   0  0  0  0  0  0  0  0  0  0  0  0
    3.6389   -4.5066    1.4775 N   0  0  0  0  0  0  0  0  0  0  0  0
    4.2893   -5.7560    1.1586 C   0  0  0  0  0  0  0  0  0  0  0  0
    4.1155   -3.8725    2.1119 H   0  0  0  0  0  0  0  0  0  0  0  0
    3.9829   -6.5250    1.8831 H   0  0  0  0  0  0  0  0  0  0  0  0
    4.0005   -6.0715    0.1451 H   0  0  0  0  0  0  0  0  0  0  0  0
    5.3804   -5.6234    1.2043 H   0  0  0  0  0  0  0  0  0  0  0  0
  1  3  1  0  0  0  0
  1  7  1  0  0  0  0
  1  2  2  0  0  0  0
 40 41  1  0  0  0  0
 41 49  1  0  0  0  0
 41 42  2  0  0  0  0
  8  9  1  0  0  0  0
  9 17  1  0  0  0  0
  9 10  2  0  0  0  0
 18 19  1  0  0  0  0
 19 39  1  0  0  0  0
 19 20  2  0  0  0  0
 40 43  1  0  0  0  0
  8 11  1  0  0  0  0
 49 50  1  0  0  0  0
 22 23  1  0  0  0  0
 21 22  1  0  0  0  0
 23 24  1  0  0  0  0
 18 21  1  0  0  0  0
 24 25  1  0  0  0  0
 39 40  1  0  0  0  0
  7  8  1  0  0  0  0
 17 18  1  0  0  0  0
  3  4  1  0  0  0  0
  3  5  1  0  0  0  0
  3  6  1  0  0  0  0
 43 46  1  0  0  0  0
 43 47  1  0  0  0  0
 43 48  1  0  0  0  0
 11 14  1  0  0  0  0
 11 15  1  0  0  0  0
 11 16  1  0  0  0  0
 50 52  1  0  0  0  0
 50 53  1  0  0  0  0
 50 54  1  0  0  0  0
 22 30  1  0  0  0  0
 22 31  1  0  0  0  0
 23 32  1  0  0  0  0
 23 33  1  0  0  0  0
 21 28  1  0  0  0  0
 21 29  1  0  0  0  0
 24 34  1  0  0  0  0
 24 35  1  0  0  0  0
 40 45  1  0  0  0  0
  8 13  1  0  0  0  0
 18 27  1  0  0  0  0
 49 51  1  0  0  0  0
  7 12  1  0  0  0  0
 39 44  1  0  0  0  0
 17 26  1  0  0  0  0
 25 36  1  0  0  0  0
 25 37  1  0  0  0  0
 25 38  1  0  0  0  0
M  CHG  1  25   1
M  END
$$$$

  -OEChem-05262214473D

 54 53  0     1  0  0  0  0  0999 V2000
    2.6714    2.8829   -3.0005 C   0  0  0  0  0  0  0  0  0  0  0  0
    3.1741    2.4398   -1.9745 O   0  0  0  0  0  0  0  0  0  0  0  0
    3.5527    3.3077   -4.1279 C   0  0  0  0  0  0  0  0  0  0  0  0
    3.8407    4.3691   -4.0597 H   0  0  0  0  0  0  0  0  0  0  0  0
    4.5024    2.7495   -4.1526 H   0  0  0  0  0  0  0  0  0  0  0  0
    3.1208    3.1887   -5.1345 H   0  0  0  0  0  0  0  0  0  0  0  0
    1.3174    3.0407   -3.2467 N   0  0  0  0  0  0  0  0  0  0  0  0
    0.2944    2.6927   -2.2960 C   0  0  2  0  0  0  0  0  0  0  0  0
    0.2976    1.1783   -2.1349 C   0  0  0  0  0  0  0  0  0  0  0  0
    0.7500    0.4142   -2.9850 O   0  0  0  0  0  0  0  0  0  0  0  0
   -1.0710    3.1886   -2.7460 C   0  0  0  0  0  0  0  0  0  0  0  0
    1.0312    3.4224   -4.1464 H   0  0  0  0  0  0  0  0  0  0  0  0
    0.5725    3.1622   -1.3461 H   0  0  0  0  0  0  0  0  0  0  0  0
   -1.3666    2.7292   -3.6963 H   0  0  0  0  0  0  0  0  0  0  0  0
   -1.8434    2.9482   -2.0082 H   0  0  0  0  0  0  0  0  0  0  0  0
   -1.0632    4.2744   -2.8901 H   0  0  0  0  0  0  0  0  0  0  0  0
   -0.3037    0.7742   -0.9484 N   0  0  0  0  0  0  0  0  0  0  0  0
   -0.4352   -0.6095   -0.5718 C   0  0  2  0  0  0  0  0  0  0  0  0
    0.5842   -0.9218    0.5188 C   0  0  0  0  0  0  0  0  0  0  0  0
    0.7620   -0.1986    1.4970 O   0  0  0  0  0  0  0  0  0  0  0  0
   -0.3206   -1.5459   -1.7805 C   0  0  0  0  0  0  0  0  0  0  0  0
   -1.4906   -1.4404   -2.7674 C   0  0  0  0  0  0  0  0  0  0  0  0
   -1.3209   -2.4186   -3.9322 C   0  0  0  0  0  0  0  0  0  0  0  0
   -2.4703   -2.2940   -4.9214 C   0  0  0  0  0  0  0  0  0  0  0  0
   -2.2519   -3.2404   -6.0417 N   0  3  0  0  0  0  0  0  0  0  0  0
   -0.6336    1.4811   -0.2948 H   0  0  0  0  0  0  0  0  0  0  0  0
   -1.4372   -0.7080   -0.1369 H   0  0  0  0  0  0  0  0  0  0  0  0
    0.6128   -1.3228   -2.3133 H   0  0  0  0  0  0  0  0  0  0  0  0
   -0.2436   -2.5833   -1.4321 H   0  0  0  0  0  0  0  0  0  0  0  0
   -2.4348   -1.6540   -2.2530 H   0  0  0  0  0  0  0  0  0  0  0  0
   -1.5583   -0.4194   -3.1608 H   0  0  0  0  0  0  0  0  0  0  0  0
   -1.2724   -3.4445   -3.5461 H   0  0  0  0  0  0  0  0  0  0  0  0
   -0.3693   -2.2218   -4.4414 H   0  0  0  0  0  0  0  0  0  0  0  0
   -3.4313   -2.5549   -4.4682 H   0  0  0  0  0  0  0  0  0  0  0  0
   -2.5285   -1.2928   -5.3584 H   0  0  0  0  0  0  0  0  0  0  0  0
   -2.7989   -2.9676   -6.8656 H   0  0  0  0  0  0  0  0  0  0  0  0
   -2.5316   -4.1918   -5.7784 H   0  0  0  0  0  0  0  0  0  0  0  0
   -1.2630   -3.2662   -6.3138 H   0  0  0  0  0  0  0  0  0  0  0  0
    1.2490   -2.1180    0.2905 N   0  0  0  0  0  0  0  0  0  0  0  0
    2.2484   -2.6281    1.1986 C   0  0  2  0  0  0  0  0  0  0  0  0
    2.9874   -3.7600    0.4970 C   0  0  0  0  0  0  0  0  0  0  0  0
    2.5090   -4.3928   -0.4421 O   0  0  0  0  0  0  0  0  0  0  0  0
    1.6213   -3.1109    2.4971 C   0  0  0  0  0  0  0  0  0  0  0  0
    1.0249   -2.6527   -0.5435 H   0  0  0  0  0  0  0  0  0  0  0  0
    2.9439   -1.8055    1.3979 H   0  0  0  0  0  0  0  0  0  0  0  0
    0.9214   -3.9351    2.3175 H   0  0  0  0  0  0  0  0  0  0  0  0
    2.3835   -3.4710    3.1960 H   0  0  0  0  0  0  0  0  0  0  0  0
    1.0654   -2.3032    2.9854 H   0  0  0  0  0  0  0  0  0  0  0  0
    4.2262   -4.0091    1.0709 N   0  0  0  0  0  0  0  0  0  0  0  0
    5.1132   -5.0437    0.5924 C   0  0  0  0  0  0  0  0  0  0  0  0
    4.5503   -3.4226    1.8343 H   0  0  0  0  0  0  0  0  0  0  0  0
    4.9318   -5.9717    1.1544 H   0  0  0  0  0  0  0  0  0  0  0  0
    4.9269   -5.2205   -0.4771 H   0  0  0  0  0  0  0  0  0  0  0  0
    6.1568   -4.7267    0.7353 H   0  0  0  0  0  0  0  0  0  0  0  0
  1  3  1  0  0  0  0
  1  7  1  0  0  0  0
  1  2  2  0  0  0  0
 40 41  1  0  0  0  0
 41 49  1  0  0  0  0
 41 42  2  0  0  0  0
  8  9  1  0  0  0  0
  9 17  1  0  0  0  0
  9 10  2  0  0  0  0
 18 19  1  0  0  0  0
 19 39  1  0  0  0  0
 19 20  2  0  0  0  0
 40 43  1  0  0  0  0
  8 11  1  0  0  0  0
 49 50  1  0  0  0  0
 22 23  1  0  0  0  0
 21 22  1  0  0  0  0
 23 24  1  0  0  0  0
 18 21  1  0  0  0  0
 24 25  1  0  0  0  0
 39 40  1  0  0  0  0
  7  8  1  0  0  0  0
 17 18  1  0  0  0  0
  3  4  1  0  0  0  0
  3  5  1  0  0  0  0
  3  6  1  0  0  0  0
 43 46  1  0  0  0  0
 43 47  1  0  0  0  0
 43 48  1  0  0  0  0
 11 14  1  0  0  0  0
 11 15  1  0  0  0  0
 11 16  1  0  0  0  0
 50 52  1  0  0  0  0
 50 53  1  0  0  0  0
 50 54  1  0  0  0  0
 22 30  1  0  0  0  0
 22 31  1  0  0  0  0
 23 32  1  0  0  0  0
 23 33  1  0  0  0  0
 21 28  1  0  0  0  0
 21 29  1  0  0  0  0
 24 34  1  0  0  0  0
 24 35  1  0  0  0  0
 40 45  1  0  0  0  0
  8 13  1  0  0  0  0
 18 27  1  0  0  0  0
 49 51  1  0  0  0  0
  7 12  1  0  0  0  0
 39 44  1  0  0  0  0
 17 26  1  0  0  0  0
 25 36  1  0  0  0  0
 25 37  1  0  0  0  0
 25 38  1  0  0  0  0
M  CHG  1  25   1
M  END
$$$$

  -OEChem-05262214473D

 54 53  0     1  0  0  0  0  0999 V2000
    2.6714    2.8829   -3.0005 C   0  0  0  0  0  0  0  0  0  0  0  0
    3.1741    2.4398   -1.9745 O   0  0  0  0  0  0  0  0  0  0  0  0
    3.5527    3.3077   -4.1279 C   0  0  0  0  0  0  0  0  0  0  0  0
    3.8407    4.3691   -4.0597 H   0  0  0  0  0  0  0  0  0  0  0  0
    4.5024    2.7495   -4.1526 H   0  0  0  0  0  0  0  0  0  0  0  0
    3.1208    3.1887   -5.1345 H   0  0  0  0  0  0  0  0  0  0  0  0
    1.3174    3.0407   -3.2467 N   0  0  0  0  0  0  0  0  0  0  0  0
    0.2944    2.6927   -2.2960 C   0  0  2  0  0  0  0  0  0  0  0  0
    0.2976    1.1783   -2.1349 C   0  0  0  0  0  0  0  0  0  0  0  0
    0.7500    0.4142   -2.9850 O   0  0  0  0  0  0  0  0  0  0  0  0
   -1.0710    3.1886   -2.7460 C   0  0  0  0  0  0  0  0  0  0  0  0
    1.0312    3.4224   -4.1464 H   0  0  0  0  0  0  0  0  0  0  0  0
    0.5725    3.1622   -1.3461 H   0  0  0  0  0  0  0  0  0  0  0  0
   -1.3666    2.7292   -3.6963 H   0  0  0  0  0  0  0  0  0  0  0  0
   -1.8434    2.9482   -2.0082 H   0  0  0  0  0  0  0  0  0  0  0  0
   -1.0632    4.2744   -2.8901 H   0  0  0  0  0  0  0  0  0  0  0  0
   -0.3037    0.7742   -0.9484 N   0  0  0  0  0  0  0  0  0  0  0  0
   -0.4352   -0.6095   -0.5718 C   0  0  2  0  0  0  0  0  0  0  0  0
    0.5842   -0.9218    0.5188 C   0  0  0  0  0  0  0  0  0  0  0  0
    0.5856   -0.3642    1.6145 O   0  0  0  0  0  0  0  0  0  0  0  0
   -0.3206   -1.5459   -1.7805 C   0  0  0  0  0  0  0  0  0  0  0  0
   -1.4906   -1.4404   -2.7674 C   0  0  0  0  0  0  0  0  0  0  0  0
   -1.3209   -2.4186   -3.9322 C   0  0  0  0  0  0  0  0  0  0  0  0
   -2.4703   -2.2940   -4.9214 C   0  0  0  0  0  0  0  0  0  0  0  0
   -2.2519   -3.2404   -6.0417 N   0  3  0  0  0  0  0  0  0  0  0  0
   -0.6336    1.4811   -0.2948 H   0  0  0  0  0  0  0  0  0  0  0  0
   -1.4372   -0.7080   -0.1369 H   0  0  0  0  0  0  0  0  0  0  0  0
    0.6128   -1.3228   -2.3133 H   0  0  0  0  0  0  0  0  0  0  0  0
   -0.2436   -2.5833   -1.4321 H   0  0  0  0  0  0  0  0  0  0  0  0
   -2.4348   -1.6540   -2.2530 H   0  0  0  0  0  0  0  0  0  0  0  0
   -1.5583   -0.4194   -3.1608 H   0  0  0  0  0  0  0  0  0  0  0  0
   -1.2724   -3.4445   -3.5461 H   0  0  0  0  0  0  0  0  0  0  0  0
   -0.3693   -2.2218   -4.4414 H   0  0  0  0  0  0  0  0  0  0  0  0
   -3.4313   -2.5549   -4.4682 H   0  0  0  0  0  0  0  0  0  0  0  0
   -2.5285   -1.2928   -5.3584 H   0  0  0  0  0  0  0  0  0  0  0  0
   -2.7989   -2.9676   -6.8656 H   0  0  0  0  0  0  0  0  0  0  0  0
   -2.5316   -4.1918   -5.7784 H   0  0  0  0  0  0  0  0  0  0  0  0
   -1.2630   -3.2662   -6.3138 H   0  0  0  0  0  0  0  0  0  0  0  0
    1.4718   -1.9184    0.1394 N   0  0  0  0  0  0  0  0  0  0  0  0
    2.5159   -2.3931    1.0159 C   0  0  2  0  0  0  0  0  0  0  0  0
    3.4814   -3.2300    0.1871 C   0  0  0  0  0  0  0  0  0  0  0  0
    3.1666   -3.7612   -0.8758 O   0  0  0  0  0  0  0  0  0  0  0  0
    1.9445   -3.2044    2.1683 C   0  0  0  0  0  0  0  0  0  0  0  0
    1.3840   -2.3276   -0.7861 H   0  0  0  0  0  0  0  0  0  0  0  0
    3.0348   -1.5074    1.3983 H   0  0  0  0  0  0  0  0  0  0  0  0
    1.4208   -4.0960    1.8046 H   0  0  0  0  0  0  0  0  0  0  0  0
    2.7350   -3.5397    2.8478 H   0  0  0  0  0  0  0  0  0  0  0  0
    1.2279   -2.6103    2.7456 H   0  0  0  0  0  0  0  0  0  0  0  0
    4.7231   -3.3495    0.7953 N   0  0  0  0  0  0  0  0  0  0  0  0
    5.8072   -4.1052    0.2125 C   0  0  0  0  0  0  0  0  0  0  0  0
    4.9018   -2.8596    1.6670 H   0  0  0  0  0  0  0  0  0  0  0  0
    5.7847   -5.1356    0.5967 H   0  0  0  0  0  0  0  0  0  0  0  0
    5.6972   -4.1195   -0.8819 H   0  0  0  0  0  0  0  0  0  0  0  0
    6.7658   -3.6357    0.4785 H   0  0  0  0  0  0  0  0  0  0  0  0
  1  3  1  0  0  0  0
  1  7  1  0  0  0  0
  1  2  2  0  0  0  0
 40 41  1  0  0  0  0
 41 49  1  0  0  0  0
 41 42  2  0  0  0  0
  8  9  1  0  0  0  0
  9 17  1  0  0  0  0
  9 10  2  0  0  0  0
 18 19  1  0  0  0  0
 19 39  1  0  0  0  0
 19 20  2  0  0  0  0
 40 43  1  0  0  0  0
  8 11  1  0  0  0  0
 49 50  1  0  0  0  0
 22 23  1  0  0  0  0
 21 22  1  0  0  0  0
 23 24  1  0  0  0  0
 18 21  1  0  0  0  0
 24 25  1  0  0  0  0
 39 40  1  0  0  0  0
  7  8  1  0  0  0  0
 17 18  1  0  0  0  0
  3  4  1  0  0  0  0
  3  5  1  0  0  0  0
  3  6  1  0  0  0  0
 43 46  1  0  0  0  0
 43 47  1  0  0  0  0
 43 48  1  0  0  0  0
 11 14  1  0  0  0  0
 11 15  1  0  0  0  0
 11 16  1  0  0  0  0
 50 52  1  0  0  0  0
 50 53  1  0  0  0  0
 50 54  1  0  0  0  0
 22 30  1  0  0  0  0
 22 31  1  0  0  0  0
 23 32  1  0  0  0  0
 23 33  1  0  0  0  0
 21 28  1  0  0  0  0
 21 29  1  0  0  0  0
 24 34  1  0  0  0  0
 24 35  1  0  0  0  0
 40 45  1  0  0  0  0
  8 13  1  0  0  0  0
 18 27  1  0  0  0  0
 49 51  1  0  0  0  0
  7 12  1  0  0  0  0
 39 44  1  0  0  0  0
 17 26  1  0  0  0  0
 25 36  1  0  0  0  0
 25 37  1  0  0  0  0
 25 38  1  0  0  0  0
M  CHG  1  25   1
M  END
$$$$

  -OEChem-05262214473D

 54 53  0     1  0  0  0  0  0999 V2000
    2.6714    2.8829   -3.0005 C   0  0  0  0  0  0  0  0  0  0  0  0
    3.1741    2.4398   -1.9745 O   0  0  0  0  0  0  0  0  0  0  0  0
    3.5527    3.3077   -4.1279 C   0  0  0  0  0  0  0  0  0  0  0  0
    3.8407    4.3691   -4.0597 H   0  0  0  0  0  0  0  0  0  0  0  0
    4.5024    2.7495   -4.1526 H   0  0  0  0  0  0  0  0  0  0  0  0
    3.1208    3.1887   -5.1345 H   0  0  0  0  0  0  0  0  0  0  0  0
    1.3174    3.0407   -3.2467 N   0  0  0  0  0  0  0  0  0  0  0  0
    0.2944    2.6927   -2.2960 C   0  0  2  0  0  0  0  0  0  0  0  0
    0.2976    1.1783   -2.1349 C   0  0  0  0  0  0  0  0  0  0  0  0
    0.7500    0.4142   -2.9850 O   0  0  0  0  0  0  0  0  0  0  0  0
   -1.0710    3.1886   -2.7460 C   0  0  0  0  0  0  0  0  0  0  0  0
    1.0312    3.4224   -4.1464 H   0  0  0  0  0  0  0  0  0  0  0  0
    0.5725    3.1622   -1.3461 H   0  0  0  0  0  0  0  0  0  0  0  0
   -1.3666    2.7292   -3.6963 H   0  0  0  0  0  0  0  0  0  0  0  0
   -1.8434    2.9482   -2.0082 H   0  0  0  0  0  0  0  0  0  0  0  0
   -1.0632    4.2744   -2.8901 H   0  0  0  0  0  0  0  0  0  0  0  0
   -0.3037    0.7742   -0.9484 N   0  0  0  0  0  0  0  0  0  0  0  0
   -0.4352   -0.6095   -0.5718 C   0  0  2  0  0  0  0  0  0  0  0  0
    0.5842   -0.9218    0.5188 C   0  0  0  0  0  0  0  0  0  0  0  0
    0.4395   -0.5772    1.6900 O   0  0  0  0  0  0  0  0  0  0  0  0
   -0.3206   -1.5459   -1.7805 C   0  0  0  0  0  0  0  0  0  0  0  0
   -1.4906   -1.4404   -2.7674 C   0  0  0  0  0  0  0  0  0  0  0  0
   -1.3209   -2.4186   -3.9322 C   0  0  0  0  0  0  0  0  0  0  0  0
   -2.4703   -2.2940   -4.9214 C   0  0  0  0  0  0  0  0  0  0  0  0
   -2.2519   -3.2404   -6.0417 N   0  3  0  0  0  0  0  0  0  0  0  0
   -0.6336    1.4811   -0.2948 H   0  0  0  0  0  0  0  0  0  0  0  0
   -1.4372   -0.7080   -0.1369 H   0  0  0  0  0  0  0  0  0  0  0  0
    0.6128   -1.3228   -2.3133 H   0  0  0  0  0  0  0  0  0  0  0  0
   -0.2436   -2.5833   -1.4321 H   0  0  0  0  0  0  0  0  0  0  0  0
   -2.4348   -1.6540   -2.2530 H   0  0  0  0  0  0  0  0  0  0  0  0
   -1.5583   -0.4194   -3.1608 H   0  0  0  0  0  0  0  0  0  0  0  0
   -1.2724   -3.4445   -3.5461 H   0  0  0  0  0  0  0  0  0  0  0  0
   -0.3693   -2.2218   -4.4414 H   0  0  0  0  0  0  0  0  0  0  0  0
   -3.4313   -2.5549   -4.4682 H   0  0  0  0  0  0  0  0  0  0  0  0
   -2.5285   -1.2928   -5.3584 H   0  0  0  0  0  0  0  0  0  0  0  0
   -2.7989   -2.9676   -6.8656 H   0  0  0  0  0  0  0  0  0  0  0  0
   -2.5316   -4.1918   -5.7784 H   0  0  0  0  0  0  0  0  0  0  0  0
   -1.2630   -3.2662   -6.3138 H   0  0  0  0  0  0  0  0  0  0  0  0
    1.6581   -1.6582    0.0398 N   0  0  0  0  0  0  0  0  0  0  0  0
    2.7404   -2.0851    0.8942 C   0  0  2  0  0  0  0  0  0  0  0  0
    3.8769   -2.5729    0.0055 C   0  0  0  0  0  0  0  0  0  0  0  0
    3.7078   -2.9544   -1.1508 O   0  0  0  0  0  0  0  0  0  0  0  0
    2.2914   -3.1781    1.8515 C   0  0  0  0  0  0  0  0  0  0  0  0
    1.6836   -1.9052   -0.9451 H   0  0  0  0  0  0  0  0  0  0  0  0
    3.0674   -1.2027    1.4550 H   0  0  0  0  0  0  0  0  0  0  0  0
    1.9600   -4.0703    1.3079 H   0  0  0  0  0  0  0  0  0  0  0  0
    3.1057   -3.4807    2.5182 H   0  0  0  0  0  0  0  0  0  0  0  0
    1.4544   -2.8354    2.4694 H   0  0  0  0  0  0  0  0  0  0  0  0
    5.0956   -2.5728    0.6696 N   0  0  0  0  0  0  0  0  0  0  0  0
    6.3240   -3.0044    0.0446 C   0  0  0  0  0  0  0  0  0  0  0  0
    5.1459   -2.2218    1.6214 H   0  0  0  0  0  0  0  0  0  0  0  0
    6.4833   -4.0737    0.2477 H   0  0  0  0  0  0  0  0  0  0  0  0
    6.2590   -2.8434   -1.0416 H   0  0  0  0  0  0  0  0  0  0  0  0
    7.1656   -2.4247    0.4515 H   0  0  0  0  0  0  0  0  0  0  0  0
  1  3  1  0  0  0  0
  1  7  1  0  0  0  0
  1  2  2  0  0  0  0
 40 41  1  0  0  0  0
 41 49  1  0  0  0  0
 41 42  2  0  0  0  0
  8  9  1  0  0  0  0
  9 17  1  0  0  0  0
  9 10  2  0  0  0  0
 18 19  1  0  0  0  0
 19 39  1  0  0  0  0
 19 20  2  0  0  0  0
 40 43  1  0  0  0  0
  8 11  1  0  0  0  0
 49 50  1  0  0  0  0
 22 23  1  0  0  0  0
 21 22  1  0  0  0  0
 23 24  1  0  0  0  0
 18 21  1  0  0  0  0
 24 25  1  0  0  0  0
 39 40  1  0  0  0  0
  7  8  1  0  0  0  0
 17 18  1  0  0  0  0
  3  4  1  0  0  0  0
  3  5  1  0  0  0  0
  3  6  1  0  0  0  0
 43 46  1  0  0  0  0
 43 47  1  0  0  0  0
 43 48  1  0  0  0  0
 11 14  1  0  0  0  0
 11 15  1  0  0  0  0
 11 16  1  0  0  0  0
 50 52  1  0  0  0  0
 50 53  1  0  0  0  0
 50 54  1  0  0  0  0
 22 30  1  0  0  0  0
 22 31  1  0  0  0  0
 23 32  1  0  0  0  0
 23 33  1  0  0  0  0
 21 28  1  0  0  0  0
 21 29  1  0  0  0  0
 24 34  1  0  0  0  0
 24 35  1  0  0  0  0
 40 45  1  0  0  0  0
  8 13  1  0  0  0  0
 18 27  1  0  0  0  0
 49 51  1  0  0  0  0
  7 12  1  0  0  0  0
 39 44  1  0  0  0  0
 17 26  1  0  0  0  0
 25 36  1  0  0  0  0
 25 37  1  0  0  0  0
 25 38  1  0  0  0  0
M  CHG  1  25   1
M  END
$$$$

  -OEChem-05262214473D

 54 53  0     1  0  0  0  0  0999 V2000
    2.6714    2.8829   -3.0005 C   0  0  0  0  0  0  0  0  0  0  0  0
    3.1741    2.4398   -1.9745 O   0  0  0  0  0  0  0  0  0  0  0  0
    3.5527    3.3077   -4.1279 C   0  0  0  0  0  0  0  0  0  0  0  0
    3.8407    4.3691   -4.0597 H   0  0  0  0  0  0  0  0  0  0  0  0
    4.5024    2.7495   -4.1526 H   0  0  0  0  0  0  0  0  0  0  0  0
    3.1208    3.1887   -5.1345 H   0  0  0  0  0  0  0  0  0  0  0  0
    1.3174    3.0407   -3.2467 N   0  0  0  0  0  0  0  0  0  0  0  0
    0.2944    2.6927   -2.2960 C   0  0  2  0  0  0  0  0  0  0  0  0
    0.2976    1.1783   -2.1349 C   0  0  0  0  0  0  0  0  0  0  0  0
    0.7500    0.4142   -2.9850 O   0  0  0  0  0  0  0  0  0  0  0  0
   -1.0710    3.1886   -2.7460 C   0  0  0  0  0  0  0  0  0  0  0  0
    1.0312    3.4224   -4.1464 H   0  0  0  0  0  0  0  0  0  0  0  0
    0.5725    3.1622   -1.3461 H   0  0  0  0  0  0  0  0  0  0  0  0
   -1.3666    2.7292   -3.6963 H   0  0  0  0  0  0  0  0  0  0  0  0
   -1.8434    2.9482   -2.0082 H   0  0  0  0  0  0  0  0  0  0  0  0
   -1.0632    4.2744   -2.8901 H   0  0  0  0  0  0  0  0  0  0  0  0
   -0.3037    0.7742   -0.9484 N   0  0  0  0  0  0  0  0  0  0  0  0
   -0.4352   -0.6095   -0.5718 C   0  0  2  0  0  0  0  0  0  0  0  0
    0.5842   -0.9218    0.5188 C   0  0  0  0  0  0  0  0  0  0  0  0
    0.3339   -0.8230    1.7184 O   0  0  0  0  0  0  0  0  0  0  0  0
   -0.3206   -1.5459   -1.7805 C   0  0  0  0  0  0  0  0  0  0  0  0
   -1.4906   -1.4404   -2.7674 C   0  0  0  0  0  0  0  0  0  0  0  0
   -1.3209   -2.4186   -3.9322 C   0  0  0  0  0  0  0  0  0  0  0  0
   -2.4703   -2.2940   -4.9214 C   0  0  0  0  0  0  0  0  0  0  0  0
   -2.2519   -3.2404   -6.0417 N   0  3  0  0  0  0  0  0  0  0  0  0
   -0.6336    1.4811   -0.2948 H   0  0  0  0  0  0  0  0  0  0  0  0
   -1.4372   -0.7080   -0.1369 H   0  0  0  0  0  0  0  0  0  0  0  0
    0.6128   -1.3228   -2.3133 H   0  0  0  0  0  0  0  0  0  0  0  0
   -0.2436   -2.5833   -1.4321 H   0  0  0  0  0  0  0  0  0  0  0  0
   -2.4348   -1.6540   -2.2530 H   0  0  0  0  0  0  0  0  0  0  0  0
   -1.5583   -0.4194   -3.1608 H   0  0  0  0  0  0  0  0  0  0  0  0
   -1.2724   -3.4445   -3.5461 H   0  0  0  0  0  0  0  0  0  0  0  0
   -0.3693   -2.2218   -4.4414 H   0  0  0  0  0  0  0  0  0  0  0  0
   -3.4313   -2.5549   -4.4682 H   0  0  0  0  0  0  0  0  0  0  0  0
   -2.5285   -1.2928   -5.3584 H   0  0  0  0  0  0  0  0  0  0  0  0
   -2.7989   -2.9676   -6.8656 H   0  0  0  0  0  0  0  0  0  0  0  0
   -2.5316   -4.1918   -5.7784 H   0  0  0  0  0  0  0  0  0  0  0  0
   -1.2630   -3.2662   -6.3138 H   0  0  0  0  0  0  0  0  0  0  0  0
    1.7951   -1.3551   -0.0016 N   0  0  0  0  0  0  0  0  0  0  0  0
    2.9066   -1.7249    0.8419 C   0  0  2  0  0  0  0  0  0  0  0  0
    4.1469   -1.8336   -0.0352 C   0  0  0  0  0  0  0  0  0  0  0  0
    4.0959   -2.0274   -1.2480 O   0  0  0  0  0  0  0  0  0  0  0  0
    2.6384   -3.0337    1.5686 C   0  0  0  0  0  0  0  0  0  0  0  0
    1.9032   -1.4142   -1.0098 H   0  0  0  0  0  0  0  0  0  0  0  0
    3.0396   -0.9122    1.5643 H   0  0  0  0  0  0  0  0  0  0  0  0
    2.5025   -3.8598    0.8611 H   0  0  0  0  0  0  0  0  0  0  0  0
    3.4703   -3.2982    2.2297 H   0  0  0  0  0  0  0  0  0  0  0  0
    1.7294   -2.9631    2.1757 H   0  0  0  0  0  0  0  0  0  0  0  0
    5.3182   -1.7319    0.7022 N   0  0  0  0  0  0  0  0  0  0  0  0
    6.6284   -1.8166    0.1003 C   0  0  0  0  0  0  0  0  0  0  0  0
    5.2661   -1.5526    1.7007 H   0  0  0  0  0  0  0  0  0  0  0  0
    6.9801   -2.8583    0.1314 H   0  0  0  0  0  0  0  0  0  0  0  0
    6.5738   -1.4791   -0.9453 H   0  0  0  0  0  0  0  0  0  0  0  0
    7.3292   -1.1763    0.6561 H   0  0  0  0  0  0  0  0  0  0  0  0
  1  3  1  0  0  0  0
  1  7  1  0  0  0  0
  1  2  2  0  0  0  0
 40 41  1  0  0  0  0
 41 49  1  0  0  0  0
 41 42  2  0  0  0  0
  8  9  1  0  0  0  0
  9 17  1  0  0  0  0
  9 10  2  0  0  0  0
 18 19  1  0  0  0  0
 19 39  1  0  0  0  0
 19 20  2  0  0  0  0
 40 43  1  0  0  0  0
  8 11  1  0  0  0  0
 49 50  1  0  0  0  0
 22 23  1  0  0  0  0
 21 22  1  0  0  0  0
 23 24  1  0  0  0  0
 18 21  1  0  0  0  0
 24 25  1  0  0  0  0
 39 40  1  0  0  0  0
  7  8  1  0  0  0  0
 17 18  1  0  0  0  0
  3  4  1  0  0  0  0
  3  5  1  0  0  0  0
  3  6  1  0  0  0  0
 43 46  1  0  0  0  0
 43 47  1  0  0  0  0
 43 48  1  0  0  0  0
 11 14  1  0  0  0  0
 11 15  1  0  0  0  0
 11 16  1  0  0  0  0
 50 52  1  0  0  0  0
 50 53  1  0  0  0  0
 50 54  1  0  0  0  0
 22 30  1  0  0  0  0
 22 31  1  0  0  0  0
 23 32  1  0  0  0  0
 23 33  1  0  0  0  0
 21 28  1  0  0  0  0
 21 29  1  0  0  0  0
 24 34  1  0  0  0  0
 24 35  1  0  0  0  0
 40 45  1  0  0  0  0
  8 13  1  0  0  0  0
 18 27  1  0  0  0  0
 49 51  1  0  0  0  0
  7 12  1  0  0  0  0
 39 44  1  0  0  0  0
 17 26  1  0  0  0  0
 25 36  1  0  0  0  0
 25 37  1  0  0  0  0
 25 38  1  0  0  0  0
M  CHG  1  25   1
M  END
$$$$

  -OEChem-05262214473D

 54 53  0     1  0  0  0  0  0999 V2000
    2.6714    2.8829   -3.0005 C   0  0  0  0  0  0  0  0  0  0  0  0
    3.1741    2.4398   -1.9745 O   0  0  0  0  0  0  0  0  0  0  0  0
    3.5527    3.3077   -4.1279 C   0  0  0  0  0  0  0  0  0  0  0  0
    3.8407    4.3691   -4.0597 H   0  0  0  0  0  0  0  0  0  0  0  0
    4.5024    2.7495   -4.1526 H   0  0  0  0  0  0  0  0  0  0  0  0
    3.1208    3.1887   -5.1345 H   0  0  0  0  0  0  0  0  0  0  0  0
    1.3174    3.0407   -3.2467 N   0  0  0  0  0  0  0  0  0  0  0  0
    0.2944    2.6927   -2.2960 C   0  0  2  0  0  0  0  0  0  0  0  0
    0.2976    1.1783   -2.1349 C   0  0  0  0  0  0  0  0  0  0  0  0
    0.7500    0.4142   -2.9850 O   0  0  0  0  0  0  0  0  0  0  0  0
   -1.0710    3.1886   -2.7460 C   0  0  0  0  0  0  0  0  0  0  0  0
    1.0312    3.4224   -4.1464 H   0  0  0  0  0  0  0  0  0  0  0  0
    0.5725    3.1622   -1.3461 H   0  0  0  0  0  0  0  0  0  0  0  0
   -1.3666    2.7292   -3.6963 H   0  0  0  0  0  0  0  0  0  0  0  0
   -1.8434    2.9482   -2.0082 H   0  0  0  0  0  0  0  0  0  0  0  0
   -1.0632    4.2744   -2.8901 H   0  0  0  0  0  0  0  0  0  0  0  0
   -0.3037    0.7742   -0.9484 N   0  0  0  0  0  0  0  0  0  0  0  0
   -0.4352   -0.6095   -0.5718 C   0  0  2  0  0  0  0  0  0  0  0  0
    0.5842   -0.9218    0.5188 C   0  0  0  0  0  0  0  0  0  0  0  0
    0.2758   -1.0849    1.6976 O   0  0  0  0  0  0  0  0  0  0  0  0
   -0.3206   -1.5459   -1.7805 C   0  0  0  0  0  0  0  0  0  0  0  0
   -1.4906   -1.4404   -2.7674 C   0  0  0  0  0  0  0  0  0  0  0  0
   -1.3209   -2.4186   -3.9322 C   0  0  0  0  0  0  0  0  0  0  0  0
   -2.4703   -2.2940   -4.9214 C   0  0  0  0  0  0  0  0  0  0  0  0
   -2.2519   -3.2404   -6.0417 N   0  3  0  0  0  0  0  0  0  0  0  0
   -0.6336    1.4811   -0.2948 H   0  0  0  0  0  0  0  0  0  0  0  0
   -1.4372   -0.7080   -0.1369 H   0  0  0  0  0  0  0  0  0  0  0  0
    0.6128   -1.3228   -2.3133 H   0  0  0  0  0  0  0  0  0  0  0  0
   -0.2436   -2.5833   -1.4321 H   0  0  0  0  0  0  0  0  0  0  0  0
   -2.4348   -1.6540   -2.2530 H   0  0  0  0  0  0  0  0  0  0  0  0
   -1.5583   -0.4194   -3.1608 H   0  0  0  0  0  0  0  0  0  0  0  0
   -1.2724   -3.4445   -3.5461 H   0  0  0  0  0  0  0  0  0  0  0  0
   -0.3693   -2.2218   -4.4414 H   0  0  0  0  0  0  0  0  0  0  0  0
   -3.4313   -2.5549   -4.4682 H   0  0  0  0  0  0  0  0  0  0  0  0
   -2.5285   -1.2928   -5.3584 H   0  0  0  0  0  0  0  0  0  0  0  0
   -2.7989   -2.9676   -6.8656 H   0  0  0  0  0  0  0  0  0  0  0  0
   -2.5316   -4.1918   -5.7784 H   0  0  0  0  0  0  0  0  0  0  0  0
   -1.2630   -3.2662   -6.3138 H   0  0  0  0  0  0  0  0  0  0  0  0
    1.8736   -1.0299    0.0182 N   0  0  0  0  0  0  0  0  0  0  0  0
    3.0034   -1.3372    0.8625 C   0  0  2  0  0  0  0  0  0  0  0  0
    4.2731   -1.0625    0.0676 C   0  0  0  0  0  0  0  0  0  0  0  0
    4.3043   -1.0433   -1.1611 O   0  0  0  0  0  0  0  0  0  0  0  0
    2.9618   -2.7810    1.3386 C   0  0  0  0  0  0  0  0  0  0  0  0
    2.0278   -0.8881   -0.9757 H   0  0  0  0  0  0  0  0  0  0  0  0
    2.9531   -0.6556    1.7186 H   0  0  0  0  0  0  0  0  0  0  0  0
    3.0112   -3.4787    0.4947 H   0  0  0  0  0  0  0  0  0  0  0  0
    3.8039   -3.0044    2.0019 H   0  0  0  0  0  0  0  0  0  0  0  0
    2.0343   -2.9848    1.8845 H   0  0  0  0  0  0  0  0  0  0  0  0
    5.3760   -0.8840    0.8911 N   0  0  0  0  0  0  0  0  0  0  0  0
    6.6996   -0.6224    0.3757 C   0  0  0  0  0  0  0  0  0  0  0  0
    5.2541   -0.8978    1.8994 H   0  0  0  0  0  0  0  0  0  0  0  0
    7.2412   -1.5723    0.2556 H   0  0  0  0  0  0  0  0  0  0  0  0
    6.6204   -0.1198   -0.5996 H   0  0  0  0  0  0  0  0  0  0  0  0
    7.2453    0.0244    1.0784 H   0  0  0  0  0  0  0  0  0  0  0  0
  1  3  1  0  0  0  0
  1  7  1  0  0  0  0
  1  2  2  0  0  0  0
 40 41  1  0  0  0  0
 41 49  1  0  0  0  0
 41 42  2  0  0  0  0
  8  9  1  0  0  0  0
  9 17  1  0  0  0  0
  9 10  2  0  0  0  0
 18 19  1  0  0  0  0
 19 39  1  0  0  0  0
 19 20  2  0  0  0  0
 40 43  1  0  0  0  0
  8 11  1  0  0  0  0
 49 50  1  0  0  0  0
 22 23  1  0  0  0  0
 21 22  1  0  0  0  0
 23 24  1  0  0  0  0
 18 21  1  0  0  0  0
 24 25  1  0  0  0  0
 39 40  1  0  0  0  0
  7  8  1  0  0  0  0
 17 18  1  0  0  0  0
  3  4  1  0  0  0  0
  3  5  1  0  0  0  0
  3  6  1  0  0  0  0
 43 46  1  0  0  0  0
 43 47  1  0  0  0  0
 43 48  1  0  0  0  0
 11 14  1  0  0  0  0
 11 15  1  0  0  0  0
 11 16  1  0  0  0  0
 50 52  1  0  0  0  0
 50 53  1  0  0  0  0
 50 54  1  0  0  0  0
 22 30  1  0  0  0  0
 22 31  1  0  0  0  0
 23 32  1  0  0  0  0
 23 33  1  0  0  0  0
 21 28  1  0  0  0  0
 21 29  1  0  0  0  0
 24 34  1  0  0  0  0
 24 35  1  0  0  0  0
 40 45  1  0  0  0  0
  8 13  1  0  0  0  0
 18 27  1  0  0  0  0
 49 51  1  0  0  0  0
  7 12  1  0  0  0  0
 39 44  1  0  0  0  0
 17 26  1  0  0  0  0
 25 36  1  0  0  0  0
 25 37  1  0  0  0  0
 25 38  1  0  0  0  0
M  CHG  1  25   1
M  END
$$$$

  -OEChem-05262214473D

 54 53  0     1  0  0  0  0  0999 V2000
    2.6714    2.8829   -3.0005 C   0  0  0  0  0  0  0  0  0  0  0  0
    3.1741    2.4398   -1.9745 O   0  0  0  0  0  0  0  0  0  0  0  0
    3.5527    3.3077   -4.1279 C   0  0  0  0  0  0  0  0  0  0  0  0
    3.8407    4.3691   -4.0597 H   0  0  0  0  0  0  0  0  0  0  0  0
    4.5024    2.7495   -4.1526 H   0  0  0  0  0  0  0  0  0  0  0  0
    3.1208    3.1887   -5.1345 H   0  0  0  0  0  0  0  0  0  0  0  0
    1.3174    3.0407   -3.2467 N   0  0  0  0  0  0  0  0  0  0  0  0
    0.2944    2.6927   -2.2960 C   0  0  2  0  0  0  0  0  0  0  0  0
    0.2976    1.1783   -2.1349 C   0  0  0  0  0  0  0  0  0  0  0  0
    0.7500    0.4142   -2.9850 O   0  0  0  0  0  0  0  0  0  0  0  0
   -1.0710    3.1886   -2.7460 C   0  0  0  0  0  0  0  0  0  0  0  0
    1.0312    3.4224   -4.1464 H   0  0  0  0  0  0  0  0  0  0  0  0
    0.5725    3.1622   -1.3461 H   0  0  0  0  0  0  0  0  0  0  0  0
   -1.3666    2.7292   -3.6963 H   0  0  0  0  0  0  0  0  0  0  0  0
   -1.8434    2.9482   -2.0082 H   0  0  0  0  0  0  0  0  0  0  0  0
   -1.0632    4.2744   -2.8901 H   0  0  0  0  0  0  0  0  0  0  0  0
   -0.3037    0.7742   -0.9484 N   0  0  0  0  0  0  0  0  0  0  0  0
   -0.4352   -0.6095   -0.5718 C   0  0  2  0  0  0  0  0  0  0  0  0
    0.5842   -0.9218    0.5188 C   0  0  0  0  0  0  0  0  0  0  0  0
    0.2693   -1.3450    1.6292 O   0  0  0  0  0  0  0  0  0  0  0  0
   -0.3206   -1.5459   -1.7805 C   0  0  0  0  0  0  0  0  0  0  0  0
   -1.4906   -1.4404   -2.7674 C   0  0  0  0  0  0  0  0  0  0  0  0
   -1.3209   -2.4186   -3.9322 C   0  0  0  0  0  0  0  0  0  0  0  0
   -2.4703   -2.2940   -4.9214 C   0  0  0  0  0  0  0  0  0  0  0  0
   -2.2519   -3.2404   -6.0417 N   0  3  0  0  0  0  0  0  0  0  0  0
   -0.6336    1.4811   -0.2948 H   0  0  0  0  0  0  0  0  0  0  0  0
   -1.4372   -0.7080   -0.1369 H   0  0  0  0  0  0  0  0  0  0  0  0
    0.6128   -1.3228   -2.3133 H   0  0  0  0  0  0  0  0  0  0  0  0
   -0.2436   -2.5833   -1.4321 H   0  0  0  0  0  0  0  0  0  0  0  0
   -2.4348   -1.6540   -2.2530 H   0  0  0  0  0  0  0  0  0  0  0  0
   -1.5583   -0.4194   -3.1608 H   0  0  0  0  0  0  0  0  0  0  0  0
   -1.2724   -3.4445   -3.5461 H   0  0  0  0  0  0  0  0  0  0  0  0
   -0.3693   -2.2218   -4.4414 H   0  0  0  0  0  0  0  0  0  0  0  0
   -3.4313   -2.5549   -4.4682 H   0  0  0  0  0  0  0  0  0  0  0  0
   -2.5285   -1.2928   -5.3584 H   0  0  0  0  0  0  0  0  0  0  0  0
   -2.7989   -2.9676   -6.8656 H   0  0  0  0  0  0  0  0  0  0  0  0
   -2.5316   -4.1918   -5.7784 H   0  0  0  0  0  0  0  0  0  0  0  0
   -1.2630   -3.2662   -6.3138 H   0  0  0  0  0  0  0  0  0  0  0  0
    1.8882   -0.7047    0.0977 N   0  0  0  0  0  0  0  0  0  0  0  0
    3.0240   -0.9484    0.9546 C   0  0  2  0  0  0  0  0  0  0  0  0
    4.2468   -0.3121    0.3071 C   0  0  0  0  0  0  0  0  0  0  0  0
    4.3189   -0.0692   -0.8958 O   0  0  0  0  0  0  0  0  0  0  0  0
    3.2397   -2.4372    1.1773 C   0  0  0  0  0  0  0  0  0  0  0  0
    2.0491   -0.3628   -0.8451 H   0  0  0  0  0  0  0  0  0  0  0  0
    2.8139   -0.4505    1.9075 H   0  0  0  0  0  0  0  0  0  0  0  0
    3.4515   -2.9531    0.2336 H   0  0  0  0  0  0  0  0  0  0  0  0
    4.0840   -2.6195    1.8504 H   0  0  0  0  0  0  0  0  0  0  0  0
    2.3483   -2.8989    1.6156 H   0  0  0  0  0  0  0  0  0  0  0  0
    5.2648   -0.0871    1.2232 N   0  0  0  0  0  0  0  0  0  0  0  0
    6.5327    0.4965    0.8520 C   0  0  0  0  0  0  0  0  0  0  0  0
    5.1109   -0.3018    2.2040 H   0  0  0  0  0  0  0  0  0  0  0  0
    7.2488   -0.3032    0.6119 H   0  0  0  0  0  0  0  0  0  0  0  0
    6.3955    1.1421   -0.0280 H   0  0  0  0  0  0  0  0  0  0  0  0
    6.9197    1.0956    1.6895 H   0  0  0  0  0  0  0  0  0  0  0  0
  1  3  1  0  0  0  0
  1  7  1  0  0  0  0
  1  2  2  0  0  0  0
 40 41  1  0  0  0  0
 41 49  1  0  0  0  0
 41 42  2  0  0  0  0
  8  9  1  0  0  0  0
  9 17  1  0  0  0  0
  9 10  2  0  0  0  0
 18 19  1  0  0  0  0
 19 39  1  0  0  0  0
 19 20  2  0  0  0  0
 40 43  1  0  0  0  0
  8 11  1  0  0  0  0
 49 50  1  0  0  0  0
 22 23  1  0  0  0  0
 21 22  1  0  0  0  0
 23 24  1  0  0  0  0
 18 21  1  0  0  0  0
 24 25  1  0  0  0  0
 39 40  1  0  0  0  0
  7  8  1  0  0  0  0
 17 18  1  0  0  0  0
  3  4  1  0  0  0  0
  3  5  1  0  0  0  0
  3  6  1  0  0  0  0
 43 46  1  0  0  0  0
 43 47  1  0  0  0  0
 43 48  1  0  0  0  0
 11 14  1  0  0  0  0
 11 15  1  0  0  0  0
 11 16  1  0  0  0  0
 50 52  1  0  0  0  0
 50 53  1  0  0  0  0
 50 54  1  0  0  0  0
 22 30  1  0  0  0  0
 22 31  1  0  0  0  0
 23 32  1  0  0  0  0
 23 33  1  0  0  0  0
 21 28  1  0  0  0  0
 21 29  1  0  0  0  0
 24 34  1  0  0  0  0
 24 35  1  0  0  0  0
 40 45  1  0  0  0  0
  8 13  1  0  0  0  0
 18 27  1  0  0  0  0
 49 51  1  0  0  0  0
  7 12  1  0  0  0  0
 39 44  1  0  0  0  0
 17 26  1  0  0  0  0
 25 36  1  0  0  0  0
 25 37  1  0  0  0  0
 25 38  1  0  0  0  0
M  CHG  1  25   1
M  END
$$$$

  -OEChem-05262214473D

 54 53  0     1  0  0  0  0  0999 V2000
    2.6714    2.8829   -3.0005 C   0  0  0  0  0  0  0  0  0  0  0  0
    3.1741    2.4398   -1.9745 O   0  0  0  0  0  0  0  0  0  0  0  0
    3.5527    3.3077   -4.1279 C   0  0  0  0  0  0  0  0  0  0  0  0
    3.8407    4.3691   -4.0597 H   0  0  0  0  0  0  0  0  0  0  0  0
    4.5024    2.7495   -4.1526 H   0  0  0  0  0  0  0  0  0  0  0  0
    3.1208    3.1887   -5.1345 H   0  0  0  0  0  0  0  0  0  0  0  0
    1.3174    3.0407   -3.2467 N   0  0  0  0  0  0  0  0  0  0  0  0
    0.2944    2.6927   -2.2960 C   0  0  2  0  0  0  0  0  0  0  0  0
    0.2976    1.1783   -2.1349 C   0  0  0  0  0  0  0  0  0  0  0  0
    0.7500    0.4142   -2.9850 O   0  0  0  0  0  0  0  0  0  0  0  0
   -1.0710    3.1886   -2.7460 C   0  0  0  0  0  0  0  0  0  0  0  0
    1.0312    3.4224   -4.1464 H   0  0  0  0  0  0  0  0  0  0  0  0
    0.5725    3.1622   -1.3461 H   0  0  0  0  0  0  0  0  0  0  0  0
   -1.3666    2.7292   -3.6963 H   0  0  0  0  0  0  0  0  0  0  0  0
   -1.8434    2.9482   -2.0082 H   0  0  0  0  0  0  0  0  0  0  0  0
   -1.0632    4.2744   -2.8901 H   0  0  0  0  0  0  0  0  0  0  0  0
   -0.3037    0.7742   -0.9484 N   0  0  0  0  0  0  0  0  0  0  0  0
   -0.4352   -0.6095   -0.5718 C   0  0  2  0  0  0  0  0  0  0  0  0
    0.5842   -0.9218    0.5188 C   0  0  0  0  0  0  0  0  0  0  0  0
    0.3148   -1.5857    1.5178 O   0  0  0  0  0  0  0  0  0  0  0  0
   -0.3206   -1.5459   -1.7805 C   0  0  0  0  0  0  0  0  0  0  0  0
   -1.4906   -1.4404   -2.7674 C   0  0  0  0  0  0  0  0  0  0  0  0
   -1.3209   -2.4186   -3.9322 C   0  0  0  0  0  0  0  0  0  0  0  0
   -2.4703   -2.2940   -4.9214 C   0  0  0  0  0  0  0  0  0  0  0  0
   -2.2519   -3.2404   -6.0417 N   0  3  0  0  0  0  0  0  0  0  0  0
   -0.6336    1.4811   -0.2948 H   0  0  0  0  0  0  0  0  0  0  0  0
   -1.4372   -0.7080   -0.1369 H   0  0  0  0  0  0  0  0  0  0  0  0
    0.6128   -1.3228   -2.3133 H   0  0  0  0  0  0  0  0  0  0  0  0
   -0.2436   -2.5833   -1.4321 H   0  0  0  0  0  0  0  0  0  0  0  0
   -2.4348   -1.6540   -2.2530 H   0  0  0  0  0  0  0  0  0  0  0  0
   -1.5583   -0.4194   -3.1608 H   0  0  0  0  0  0  0  0  0  0  0  0
   -1.2724   -3.4445   -3.5461 H   0  0  0  0  0  0  0  0  0  0  0  0
   -0.3693   -2.2218   -4.4414 H   0  0  0  0  0  0  0  0  0  0  0  0
   -3.4313   -2.5549   -4.4682 H   0  0  0  0  0  0  0  0  0  0  0  0
   -2.5285   -1.2928   -5.3584 H   0  0  0  0  0  0  0  0  0  0  0  0
   -2.7989   -2.9676   -6.8656 H   0  0  0  0  0  0  0  0  0  0  0  0
   -2.5316   -4.1918   -5.7784 H   0  0  0  0  0  0  0  0  0  0  0  0
   -1.2630   -3.2662   -6.3138 H   0  0  0  0  0  0  0  0  0  0  0  0
    1.8379   -0.4015    0.2315 N   0  0  0  0  0  0  0  0  0  0  0  0
    2.9671   -0.5850    1.1119 C   0  0  2  0  0  0  0  0  0  0  0  0
    4.0699    0.3664    0.6668 C   0  0  0  0  0  0  0  0  0  0  0  0
    4.1387    0.8285   -0.4702 O   0  0  0  0  0  0  0  0  0  0  0  0
    3.4530   -2.0259    1.0957 C   0  0  0  0  0  0  0  0  0  0  0  0
    1.9655    0.1260   -0.6270 H   0  0  0  0  0  0  0  0  0  0  0  0
    2.6314   -0.3108    2.1180 H   0  0  0  0  0  0  0  0  0  0  0  0
    3.7933   -2.3187    0.0958 H   0  0  0  0  0  0  0  0  0  0  0  0
    4.2912   -2.1697    1.7854 H   0  0  0  0  0  0  0  0  0  0  0  0
    2.6499   -2.7113    1.3874 H   0  0  0  0  0  0  0  0  0  0  0  0
    4.9923    0.6047    1.6760 N   0  0  0  0  0  0  0  0  0  0  0  0
    6.1393    1.4641    1.4969 C   0  0  0  0  0  0  0  0  0  0  0  0
    4.8460    0.1947    2.5937 H   0  0  0  0  0  0  0  0  0  0  0  0
    7.0024    0.8623    1.1760 H   0  0  0  0  0  0  0  0  0  0  0  0
    5.9145    2.2204    0.7305 H   0  0  0  0  0  0  0  0  0  0  0  0
    6.3745    1.9644    2.4479 H   0  0  0  0  0  0  0  0  0  0  0  0
  1  3  1  0  0  0  0
  1  7  1  0  0  0  0
  1  2  2  0  0  0  0
 40 41  1  0  0  0  0
 41 49  1  0  0  0  0
 41 42  2  0  0  0  0
  8  9  1  0  0  0  0
  9 17  1  0  0  0  0
  9 10  2  0  0  0  0
 18 19  1  0  0  0  0
 19 39  1  0  0  0  0
 19 20  2  0  0  0  0
 40 43  1  0  0  0  0
  8 11  1  0  0  0  0
 49 50  1  0  0  0  0
 22 23  1  0  0  0  0
 21 22  1  0  0  0  0
 23 24  1  0  0  0  0
 18 21  1  0  0  0  0
 24 25  1  0  0  0  0
 39 40  1  0  0  0  0
  7  8  1  0  0  0  0
 17 18  1  0  0  0  0
  3  4  1  0  0  0  0
  3  5  1  0  0  0  0
  3  6  1  0  0  0  0
 43 46  1  0  0  0  0
 43 47  1  0  0  0  0
 43 48  1  0  0  0  0
 11 14  1  0  0  0  0
 11 15  1  0  0  0  0
 11 16  1  0  0  0  0
 50 52  1  0  0  0  0
 50 53  1  0  0  0  0
 50 54  1  0  0  0  0
 22 30  1  0  0  0  0
 22 31  1  0  0  0  0
 23 32  1  0  0  0  0
 23 33  1  0  0  0  0
 21 28  1  0  0  0  0
 21 29  1  0  0  0  0
 24 34  1  0  0  0  0
 24 35  1  0  0  0  0
 40 45  1  0  0  0  0
  8 13  1  0  0  0  0
 18 27  1  0  0  0  0
 49 51  1  0  0  0  0
  7 12  1  0  0  0  0
 39 44  1  0  0  0  0
 17 26  1  0  0  0  0
 25 36  1  0  0  0  0
 25 37  1  0  0  0  0
 25 38  1  0  0  0  0
M  CHG  1  25   1
M  END
$$$$

  -OEChem-05262214473D

 54 53  0     1  0  0  0  0  0999 V2000
    2.6714    2.8829   -3.0005 C   0  0  0  0  0  0  0  0  0  0  0  0
    3.1741    2.4398   -1.9745 O   0  0  0  0  0  0  0  0  0  0  0  0
    3.5527    3.3077   -4.1279 C   0  0  0  0  0  0  0  0  0  0  0  0
    3.8407    4.3691   -4.0597 H   0  0  0  0  0  0  0  0  0  0  0  0
    4.5024    2.7495   -4.1526 H   0  0  0  0  0  0  0  0  0  0  0  0
    3.1208    3.1887   -5.1345 H   0  0  0  0  0  0  0  0  0  0  0  0
    1.3174    3.0407   -3.2467 N   0  0  0  0  0  0  0  0  0  0  0  0
    0.2944    2.6927   -2.2960 C   0  0  2  0  0  0  0  0  0  0  0  0
    0.2976    1.1783   -2.1349 C   0  0  0  0  0  0  0  0  0  0  0  0
    0.7500    0.4142   -2.9850 O   0  0  0  0  0  0  0  0  0  0  0  0
   -1.0710    3.1886   -2.7460 C   0  0  0  0  0  0  0  0  0  0  0  0
    1.0312    3.4224   -4.1464 H   0  0  0  0  0  0  0  0  0  0  0  0
    0.5725    3.1622   -1.3461 H   0  0  0  0  0  0  0  0  0  0  0  0
   -1.3666    2.7292   -3.6963 H   0  0  0  0  0  0  0  0  0  0  0  0
   -1.8434    2.9482   -2.0082 H   0  0  0  0  0  0  0  0  0  0  0  0
   -1.0632    4.2744   -2.8901 H   0  0  0  0  0  0  0  0  0  0  0  0
   -0.3037    0.7742   -0.9484 N   0  0  0  0  0  0  0  0  0  0  0  0
   -0.4352   -0.6095   -0.5718 C   0  0  2  0  0  0  0  0  0  0  0  0
    0.5842   -0.9218    0.5188 C   0  0  0  0  0  0  0  0  0  0  0  0
    0.4092   -1.7904    1.3710 O   0  0  0  0  0  0  0  0  0  0  0  0
   -0.3206   -1.5459   -1.7805 C   0  0  0  0  0  0  0  0  0  0  0  0
   -1.4906   -1.4404   -2.7674 C   0  0  0  0  0  0  0  0  0  0  0  0
   -1.3209   -2.4186   -3.9322 C   0  0  0  0  0  0  0  0  0  0  0  0
   -2.4703   -2.2940   -4.9214 C   0  0  0  0  0  0  0  0  0  0  0  0
   -2.2519   -3.2404   -6.0417 N   0  3  0  0  0  0  0  0  0  0  0  0
   -0.6336    1.4811   -0.2948 H   0  0  0  0  0  0  0  0  0  0  0  0
   -1.4372   -0.7080   -0.1369 H   0  0  0  0  0  0  0  0  0  0  0  0
    0.6128   -1.3228   -2.3133 H   0  0  0  0  0  0  0  0  0  0  0  0
   -0.2436   -2.5833   -1.4321 H   0  0  0  0  0  0  0  0  0  0  0  0
   -2.4348   -1.6540   -2.2530 H   0  0  0  0  0  0  0  0  0  0  0  0
   -1.5583   -0.4194   -3.1608 H   0  0  0  0  0  0  0  0  0  0  0  0
   -1.2724   -3.4445   -3.5461 H   0  0  0  0  0  0  0  0  0  0  0  0
   -0.3693   -2.2218   -4.4414 H   0  0  0  0  0  0  0  0  0  0  0  0
   -3.4313   -2.5549   -4.4682 H   0  0  0  0  0  0  0  0  0  0  0  0
   -2.5285   -1.2928   -5.3584 H   0  0  0  0  0  0  0  0  0  0  0  0
   -2.7989   -2.9676   -6.8656 H   0  0  0  0  0  0  0  0  0  0  0  0
   -2.5316   -4.1918   -5.7784 H   0  0  0  0  0  0  0  0  0  0  0  0
   -1.2630   -3.2662   -6.3138 H   0  0  0  0  0  0  0  0  0  0  0  0
    1.7261   -0.1412    0.4105 N   0  0  0  0  0  0  0  0  0  0  0  0
    2.8365   -0.2716    1.3237 C   0  0  2  0  0  0  0  0  0  0  0  0
    3.7543    0.9269    1.1222 C   0  0  0  0  0  0  0  0  0  0  0  0
    3.7759    1.5887    0.0866 O   0  0  0  0  0  0  0  0  0  0  0  0
    3.5872   -1.5750    1.0994 C   0  0  0  0  0  0  0  0  0  0  0  0
    1.7827    0.5449   -0.3362 H   0  0  0  0  0  0  0  0  0  0  0  0
    2.4182   -0.2460    2.3358 H   0  0  0  0  0  0  0  0  0  0  0  0
    4.0134   -1.6189    0.0904 H   0  0  0  0  0  0  0  0  0  0  0  0
    4.4116   -1.6857    1.8115 H   0  0  0  0  0  0  0  0  0  0  0  0
    2.9186   -2.4348    1.2154 H   0  0  0  0  0  0  0  0  0  0  0  0
    4.5771    1.1442    2.2186 N   0  0  0  0  0  0  0  0  0  0  0  0
    5.5460    2.2143    2.2663 C   0  0  0  0  0  0  0  0  0  0  0  0
    4.4777    0.5578    3.0420 H   0  0  0  0  0  0  0  0  0  0  0  0
    6.5187    1.8450    1.9094 H   0  0  0  0  0  0  0  0  0  0  0  0
    5.2100    3.0418    1.6241 H   0  0  0  0  0  0  0  0  0  0  0  0
    5.6469    2.5714    3.3018 H   0  0  0  0  0  0  0  0  0  0  0  0
  1  3  1  0  0  0  0
  1  7  1  0  0  0  0
  1  2  2  0  0  0  0
 40 41  1  0  0  0  0
 41 49  1  0  0  0  0
 41 42  2  0  0  0  0
  8  9  1  0  0  0  0
  9 17  1  0  0  0  0
  9 10  2  0  0  0  0
 18 19  1  0  0  0  0
 19 39  1  0  0  0  0
 19 20  2  0  0  0  0
 40 43  1  0  0  0  0
  8 11  1  0  0  0  0
 49 50  1  0  0  0  0
 22 23  1  0  0  0  0
 21 22  1  0  0  0  0
 23 24  1  0  0  0  0
 18 21  1  0  0  0  0
 24 25  1  0  0  0  0
 39 40  1  0  0  0  0
  7  8  1  0  0  0  0
 17 18  1  0  0  0  0
  3  4  1  0  0  0  0
  3  5  1  0  0  0  0
  3  6  1  0  0  0  0
 43 46  1  0  0  0  0
 43 47  1  0  0  0  0
 43 48  1  0  0  0  0
 11 14  1  0  0  0  0
 11 15  1  0  0  0  0
 11 16  1  0  0  0  0
 50 52  1  0  0  0  0
 50 53  1  0  0  0  0
 50 54  1  0  0  0  0
 22 30  1  0  0  0  0
 22 31  1  0  0  0  0
 23 32  1  0  0  0  0
 23 33  1  0  0  0  0
 21 28  1  0  0  0  0
 21 29  1  0  0  0  0
 24 34  1  0  0  0  0
 24 35  1  0  0  0  0
 40 45  1  0  0  0  0
  8 13  1  0  0  0  0
 18 27  1  0  0  0  0
 49 51  1  0  0  0  0
  7 12  1  0  0  0  0
 39 44  1  0  0  0  0
 17 26  1  0  0  0  0
 25 36  1  0  0  0  0
 25 37  1  0  0  0  0
 25 38  1  0  0  0  0
M  CHG  1  25   1
M  END
$$$$

  -OEChem-05262214473D

 54 53  0     1  0  0  0  0  0999 V2000
    2.6714    2.8829   -3.0005 C   0  0  0  0  0  0  0  0  0  0  0  0
    3.1741    2.4398   -1.9745 O   0  0  0  0  0  0  0  0  0  0  0  0
    3.5527    3.3077   -4.1279 C   0  0  0  0  0  0  0  0  0  0  0  0
    3.8407    4.3691   -4.0597 H   0  0  0  0  0  0  0  0  0  0  0  0
    4.5024    2.7495   -4.1526 H   0  0  0  0  0  0  0  0  0  0  0  0
    3.1208    3.1887   -5.1345 H   0  0  0  0  0  0  0  0  0  0  0  0
    1.3174    3.0407   -3.2467 N   0  0  0  0  0  0  0  0  0  0  0  0
    0.2944    2.6927   -2.2960 C   0  0  2  0  0  0  0  0  0  0  0  0
    0.2976    1.1783   -2.1349 C   0  0  0  0  0  0  0  0  0  0  0  0
    0.7500    0.4142   -2.9850 O   0  0  0  0  0  0  0  0  0  0  0  0
   -1.0710    3.1886   -2.7460 C   0  0  0  0  0  0  0  0  0  0  0  0
    1.0312    3.4224   -4.1464 H   0  0  0  0  0  0  0  0  0  0  0  0
    0.5725    3.1622   -1.3461 H   0  0  0  0  0  0  0  0  0  0  0  0
   -1.3666    2.7292   -3.6963 H   0  0  0  0  0  0  0  0  0  0  0  0
   -1.8434    2.9482   -2.0082 H   0  0  0  0  0  0  0  0  0  0  0  0
   -1.0632    4.2744   -2.8901 H   0  0  0  0  0  0  0  0  0  0  0  0
   -0.3037    0.7742   -0.9484 N   0  0  0  0  0  0  0  0  0  0  0  0
   -0.4352   -0.6095   -0.5718 C   0  0  2  0  0  0  0  0  0  0  0  0
    0.5842   -0.9218    0.5188 C   0  0  0  0  0  0  0  0  0  0  0  0
    0.5460   -1.9453    1.1987 O   0  0  0  0  0  0  0  0  0  0  0  0
   -0.3206   -1.5459   -1.7805 C   0  0  0  0  0  0  0  0  0  0  0  0
   -1.4906   -1.4404   -2.7674 C   0  0  0  0  0  0  0  0  0  0  0  0
   -1.3209   -2.4186   -3.9322 C   0  0  0  0  0  0  0  0  0  0  0  0
   -2.4703   -2.2940   -4.9214 C   0  0  0  0  0  0  0  0  0  0  0  0
   -2.2519   -3.2404   -6.0417 N   0  3  0  0  0  0  0  0  0  0  0  0
   -0.6336    1.4811   -0.2948 H   0  0  0  0  0  0  0  0  0  0  0  0
   -1.4372   -0.7080   -0.1369 H   0  0  0  0  0  0  0  0  0  0  0  0
    0.6128   -1.3228   -2.3133 H   0  0  0  0  0  0  0  0  0  0  0  0
   -0.2436   -2.5833   -1.4321 H   0  0  0  0  0  0  0  0  0  0  0  0
   -2.4348   -1.6540   -2.2530 H   0  0  0  0  0  0  0  0  0  0  0  0
   -1.5583   -0.4194   -3.1608 H   0  0  0  0  0  0  0  0  0  0  0  0
   -1.2724   -3.4445   -3.5461 H   0  0  0  0  0  0  0  0  0  0  0  0
   -0.3693   -2.2218   -4.4414 H   0  0  0  0  0  0  0  0  0  0  0  0
   -3.4313   -2.5549   -4.4682 H   0  0  0  0  0  0  0  0  0  0  0  0
   -2.5285   -1.2928   -5.3584 H   0  0  0  0  0  0  0  0  0  0  0  0
   -2.7989   -2.9676   -6.8656 H   0  0  0  0  0  0  0  0  0  0  0  0
   -2.5316   -4.1918   -5.7784 H   0  0  0  0  0  0  0  0  0  0  0  0
   -1.2630   -3.2662   -6.3138 H   0  0  0  0  0  0  0  0  0  0  0  0
    1.5605    0.0586    0.6226 N   0  0  0  0  0  0  0  0  0  0  0  0
    2.6411   -0.0298    1.5755 C   0  0  2  0  0  0  0  0  0  0  0  0
    3.3217    1.3310    1.6424 C   0  0  0  0  0  0  0  0  0  0  0  0
    3.2553    2.1594    0.7366 O   0  0  0  0  0  0  0  0  0  0  0  0
    3.6332   -1.1152    1.1880 C   0  0  0  0  0  0  0  0  0  0  0  0
    1.5132    0.8654    0.0075 H   0  0  0  0  0  0  0  0  0  0  0  0
    2.1887   -0.2606    2.5462 H   0  0  0  0  0  0  0  0  0  0  0  0
    4.0968   -0.9013    0.2180 H   0  0  0  0  0  0  0  0  0  0  0  0
    4.4369   -1.2003    1.9268 H   0  0  0  0  0  0  0  0  0  0  0  0
    3.1361   -2.0883    1.1113 H   0  0  0  0  0  0  0  0  0  0  0  0
    4.0475    1.4946    2.8140 N   0  0  0  0  0  0  0  0  0  0  0  0
    4.7933    2.6960    3.1078 C   0  0  0  0  0  0  0  0  0  0  0  0
    4.0309    0.7628    3.5183 H   0  0  0  0  0  0  0  0  0  0  0  0
    5.8309    2.5778    2.7623 H   0  0  0  0  0  0  0  0  0  0  0  0
    4.3302    3.5502    2.5921 H   0  0  0  0  0  0  0  0  0  0  0  0
    4.7865    2.8754    4.1931 H   0  0  0  0  0  0  0  0  0  0  0  0
  1  3  1  0  0  0  0
  1  7  1  0  0  0  0
  1  2  2  0  0  0  0
 40 41  1  0  0  0  0
 41 49  1  0  0  0  0
 41 42  2  0  0  0  0
  8  9  1  0  0  0  0
  9 17  1  0  0  0  0
  9 10  2  0  0  0  0
 18 19  1  0  0  0  0
 19 39  1  0  0  0  0
 19 20  2  0  0  0  0
 40 43  1  0  0  0  0
  8 11  1  0  0  0  0
 49 50  1  0  0  0  0
 22 23  1  0  0  0  0
 21 22  1  0  0  0  0
 23 24  1  0  0  0  0
 18 21  1  0  0  0  0
 24 25  1  0  0  0  0
 39 40  1  0  0  0  0
  7  8  1  0  0  0  0
 17 18  1  0  0  0  0
  3  4  1  0  0  0  0
  3  5  1  0  0  0  0
  3  6  1  0  0  0  0
 43 46  1  0  0  0  0
 43 47  1  0  0  0  0
 43 48  1  0  0  0  0
 11 14  1  0  0  0  0
 11 15  1  0  0  0  0
 11 16  1  0  0  0  0
 50 52  1  0  0  0  0
 50 53  1  0  0  0  0
 50 54  1  0  0  0  0
 22 30  1  0  0  0  0
 22 31  1  0  0  0  0
 23 32  1  0  0  0  0
 23 33  1  0  0  0  0
 21 28  1  0  0  0  0
 21 29  1  0  0  0  0
 24 34  1  0  0  0  0
 24 35  1  0  0  0  0
 40 45  1  0  0  0  0
  8 13  1  0  0  0  0
 18 27  1  0  0  0  0
 49 51  1  0  0  0  0
  7 12  1  0  0  0  0
 39 44  1  0  0  0  0
 17 26  1  0  0  0  0
 25 36  1  0  0  0  0
 25 37  1  0  0  0  0
 25 38  1  0  0  0  0
M  CHG  1  25   1
M  END
$$$$

  -OEChem-05262214473D

 54 53  0     1  0  0  0  0  0999 V2000
    2.6714    2.8829   -3.0005 C   0  0  0  0  0  0  0  0  0  0  0  0
    3.1741    2.4398   -1.9745 O   0  0  0  0  0  0  0  0  0  0  0  0
    3.5527    3.3077   -4.1279 C   0  0  0  0  0  0  0  0  0  0  0  0
    3.8407    4.3691   -4.0597 H   0  0  0  0  0  0  0  0  0  0  0  0
    4.5024    2.7495   -4.1526 H   0  0  0  0  0  0  0  0  0  0  0  0
    3.1208    3.1887   -5.1345 H   0  0  0  0  0  0  0  0  0  0  0  0
    1.3174    3.0407   -3.2467 N   0  0  0  0  0  0  0  0  0  0  0  0
    0.2944    2.6927   -2.2960 C   0  0  2  0  0  0  0  0  0  0  0  0
    0.2976    1.1783   -2.1349 C   0  0  0  0  0  0  0  0  0  0  0  0
    0.7500    0.4142   -2.9850 O   0  0  0  0  0  0  0  0  0  0  0  0
   -1.0710    3.1886   -2.7460 C   0  0  0  0  0  0  0  0  0  0  0  0
    1.0312    3.4224   -4.1464 H   0  0  0  0  0  0  0  0  0  0  0  0
    0.5725    3.1622   -1.3461 H   0  0  0  0  0  0  0  0  0  0  0  0
   -1.3666    2.7292   -3.6963 H   0  0  0  0  0  0  0  0  0  0  0  0
   -1.8434    2.9482   -2.0082 H   0  0  0  0  0  0  0  0  0  0  0  0
   -1.0632    4.2744   -2.8901 H   0  0  0  0  0  0  0  0  0  0  0  0
   -0.3037    0.7742   -0.9484 N   0  0  0  0  0  0  0  0  0  0  0  0
   -0.4352   -0.6095   -0.5718 C   0  0  2  0  0  0  0  0  0  0  0  0
    0.5842   -0.9218    0.5188 C   0  0  0  0  0  0  0  0  0  0  0  0
    0.7159   -2.0398    1.0128 O   0  0  0  0  0  0  0  0  0  0  0  0
   -0.3206   -1.5459   -1.7805 C   0  0  0  0  0  0  0  0  0  0  0  0
   -1.4906   -1.4404   -2.7674 C   0  0  0  0  0  0  0  0  0  0  0  0
   -1.3209   -2.4186   -3.9322 C   0  0  0  0  0  0  0  0  0  0  0  0
   -2.4703   -2.2940   -4.9214 C   0  0  0  0  0  0  0  0  0  0  0  0
   -2.2519   -3.2404   -6.0417 N   0  3  0  0  0  0  0  0  0  0  0  0
   -0.6336    1.4811   -0.2948 H   0  0  0  0  0  0  0  0  0  0  0  0
   -1.4372   -0.7080   -0.1369 H   0  0  0  0  0  0  0  0  0  0  0  0
    0.6128   -1.3228   -2.3133 H   0  0  0  0  0  0  0  0  0  0  0  0
   -0.2436   -2.5833   -1.4321 H   0  0  0  0  0  0  0  0  0  0  0  0
   -2.4348   -1.6540   -2.2530 H   0  0  0  0  0  0  0  0  0  0  0  0
   -1.5583   -0.4194   -3.1608 H   0  0  0  0  0  0  0  0  0  0  0  0
   -1.2724   -3.4445   -3.5461 H   0  0  0  0  0  0  0  0  0  0  0  0
   -0.3693   -2.2218   -4.4414 H   0  0  0  0  0  0  0  0  0  0  0  0
   -3.4313   -2.5549   -4.4682 H   0  0  0  0  0  0  0  0  0  0  0  0
   -2.5285   -1.2928   -5.3584 H   0  0  0  0  0  0  0  0  0  0  0  0
   -2.7989   -2.9676   -6.8656 H   0  0  0  0  0  0  0  0  0  0  0  0
   -2.5316   -4.1918   -5.7784 H   0  0  0  0  0  0  0  0  0  0  0  0
   -1.2630   -3.2662   -6.3138 H   0  0  0  0  0  0  0  0  0  0  0  0
    1.3522    0.1842    0.8532 N   0  0  0  0  0  0  0  0  0  0  0  0
    2.3943    0.1241    1.8503 C   0  0  2  0  0  0  0  0  0  0  0  0
    2.8014    1.5513    2.1918 C   0  0  0  0  0  0  0  0  0  0  0  0
    2.6123    2.5019    1.4357 O   0  0  0  0  0  0  0  0  0  0  0  0
    3.5879   -0.6780    1.3556 C   0  0  0  0  0  0  0  0  0  0  0  0
    1.1754    1.0657    0.3806 H   0  0  0  0  0  0  0  0  0  0  0  0
    1.9586   -0.3536    2.7346 H   0  0  0  0  0  0  0  0  0  0  0  0
    4.0377   -0.2147    0.4699 H   0  0  0  0  0  0  0  0  0  0  0  0
    4.3655   -0.7468    2.1235 H   0  0  0  0  0  0  0  0  0  0  0  0
    3.2876   -1.6953    1.0823 H   0  0  0  0  0  0  0  0  0  0  0  0
    3.4394    1.6320    3.4217 N   0  0  0  0  0  0  0  0  0  0  0  0
    3.9325    2.8764    3.9641 C   0  0  0  0  0  0  0  0  0  0  0  0
    3.5362    0.7958    3.9902 H   0  0  0  0  0  0  0  0  0  0  0  0
    4.9856    3.0108    3.6764 H   0  0  0  0  0  0  0  0  0  0  0  0
    3.3350    3.7110    3.5684 H   0  0  0  0  0  0  0  0  0  0  0  0
    3.8520    2.8556    5.0610 H   0  0  0  0  0  0  0  0  0  0  0  0
  1  3  1  0  0  0  0
  1  7  1  0  0  0  0
  1  2  2  0  0  0  0
 40 41  1  0  0  0  0
 41 49  1  0  0  0  0
 41 42  2  0  0  0  0
  8  9  1  0  0  0  0
  9 17  1  0  0  0  0
  9 10  2  0  0  0  0
 18 19  1  0  0  0  0
 19 39  1  0  0  0  0
 19 20  2  0  0  0  0
 40 43  1  0  0  0  0
  8 11  1  0  0  0  0
 49 50  1  0  0  0  0
 22 23  1  0  0  0  0
 21 22  1  0  0  0  0
 23 24  1  0  0  0  0
 18 21  1  0  0  0  0
 24 25  1  0  0  0  0
 39 40  1  0  0  0  0
  7  8  1  0  0  0  0
 17 18  1  0  0  0  0
  3  4  1  0  0  0  0
  3  5  1  0  0  0  0
  3  6  1  0  0  0  0
 43 46  1  0  0  0  0
 43 47  1  0  0  0  0
 43 48  1  0  0  0  0
 11 14  1  0  0  0  0
 11 15  1  0  0  0  0
 11 16  1  0  0  0  0
 50 52  1  0  0  0  0
 50 53  1  0  0  0  0
 50 54  1  0  0  0  0
 22 30  1  0  0  0  0
 22 31  1  0  0  0  0
 23 32  1  0  0  0  0
 23 33  1  0  0  0  0
 21 28  1  0  0  0  0
 21 29  1  0  0  0  0
 24 34  1  0  0  0  0
 24 35  1  0  0  0  0
 40 45  1  0  0  0  0
  8 13  1  0  0  0  0
 18 27  1  0  0  0  0
 49 51  1  0  0  0  0
  7 12  1  0  0  0  0
 39 44  1  0  0  0  0
 17 26  1  0  0  0  0
 25 36  1  0  0  0  0
 25 37  1  0  0  0  0
 25 38  1  0  0  0  0
M  CHG  1  25   1
M  END
$$$$

  -OEChem-05262214473D

 54 53  0     1  0  0  0  0  0999 V2000
    2.6714    2.8829   -3.0005 C   0  0  0  0  0  0  0  0  0  0  0  0
    3.1741    2.4398   -1.9745 O   0  0  0  0  0  0  0  0  0  0  0  0
    3.5527    3.3077   -4.1279 C   0  0  0  0  0  0  0  0  0  0  0  0
    3.8407    4.3691   -4.0597 H   0  0  0  0  0  0  0  0  0  0  0  0
    4.5024    2.7495   -4.1526 H   0  0  0  0  0  0  0  0  0  0  0  0
    3.1208    3.1887   -5.1345 H   0  0  0  0  0  0  0  0  0  0  0  0
    1.3174    3.0407   -3.2467 N   0  0  0  0  0  0  0  0  0  0  0  0
    0.2944    2.6927   -2.2960 C   0  0  2  0  0  0  0  0  0  0  0  0
    0.2976    1.1783   -2.1349 C   0  0  0  0  0  0  0  0  0  0  0  0
    0.7500    0.4142   -2.9850 O   0  0  0  0  0  0  0  0  0  0  0  0
   -1.0710    3.1886   -2.7460 C   0  0  0  0  0  0  0  0  0  0  0  0
    1.0312    3.4224   -4.1464 H   0  0  0  0  0  0  0  0  0  0  0  0
    0.5725    3.1622   -1.3461 H   0  0  0  0  0  0  0  0  0  0  0  0
   -1.3666    2.7292   -3.6963 H   0  0  0  0  0  0  0  0  0  0  0  0
   -1.8434    2.9482   -2.0082 H   0  0  0  0  0  0  0  0  0  0  0  0
   -1.0632    4.2744   -2.8901 H   0  0  0  0  0  0  0  0  0  0  0  0
   -0.3037    0.7742   -0.9484 N   0  0  0  0  0  0  0  0  0  0  0  0
   -0.4352   -0.6095   -0.5718 C   0  0  2  0  0  0  0  0  0  0  0  0
    0.5842   -0.9218    0.5188 C   0  0  0  0  0  0  0  0  0  0  0  0
    0.9075   -2.0675    0.8259 O   0  0  0  0  0  0  0  0  0  0  0  0
   -0.3206   -1.5459   -1.7805 C   0  0  0  0  0  0  0  0  0  0  0  0
   -1.4906   -1.4404   -2.7674 C   0  0  0  0  0  0  0  0  0  0  0  0
   -1.3209   -2.4186   -3.9322 C   0  0  0  0  0  0  0  0  0  0  0  0
   -2.4703   -2.2940   -4.9214 C   0  0  0  0  0  0  0  0  0  0  0  0
   -2.2519   -3.2404   -6.0417 N   0  3  0  0  0  0  0  0  0  0  0  0
   -0.6336    1.4811   -0.2948 H   0  0  0  0  0  0  0  0  0  0  0  0
   -1.4372   -0.7080   -0.1369 H   0  0  0  0  0  0  0  0  0  0  0  0
    0.6128   -1.3228   -2.3133 H   0  0  0  0  0  0  0  0  0  0  0  0
   -0.2436   -2.5833   -1.4321 H   0  0  0  0  0  0  0  0  0  0  0  0
   -2.4348   -1.6540   -2.2530 H   0  0  0  0  0  0  0  0  0  0  0  0
   -1.5583   -0.4194   -3.1608 H   0  0  0  0  0  0  0  0  0  0  0  0
   -1.2724   -3.4445   -3.5461 H   0  0  0  0  0  0  0  0  0  0  0  0
   -0.3693   -2.2218   -4.4414 H   0  0  0  0  0  0  0  0  0  0  0  0
   -3.4313   -2.5549   -4.4682 H   0  0  0  0  0  0  0  0  0  0  0  0
   -2.5285   -1.2928   -5.3584 H   0  0  0  0  0  0  0  0  0  0  0  0
   -2.7989   -2.9676   -6.8656 H   0  0  0  0  0  0  0  0  0  0  0  0
   -2.5316   -4.1918   -5.7784 H   0  0  0  0  0  0  0  0  0  0  0  0
   -1.2630   -3.2662   -6.3138 H   0  0  0  0  0  0  0  0  0  0  0  0
    1.1156    0.2271    1.0867 N   0  0  0  0  0  0  0  0  0  0  0  0
    2.1129    0.1795    2.1293 C   0  0  2  0  0  0  0  0  0  0  0  0
    2.2289    1.5728    2.7331 C   0  0  0  0  0  0  0  0  0  0  0  0
    1.8908    2.5929    2.1362 O   0  0  0  0  0  0  0  0  0  0  0  0
    3.4543   -0.2930    1.5907 C   0  0  0  0  0  0  0  0  0  0  0  0
    0.7922    1.1320    0.7578 H   0  0  0  0  0  0  0  0  0  0  0  0
    1.7436   -0.5186    2.8884 H   0  0  0  0  0  0  0  0  0  0  0  0
    3.8402    0.3940    0.8287 H   0  0  0  0  0  0  0  0  0  0  0  0
    4.2021   -0.3559    2.3881 H   0  0  0  0  0  0  0  0  0  0  0  0
    3.3627   -1.2826    1.1302 H   0  0  0  0  0  0  0  0  0  0  0  0
    2.7945    1.5470    4.0002 N   0  0  0  0  0  0  0  0  0  0  0  0
    3.0222    2.7433    4.7768 C   0  0  0  0  0  0  0  0  0  0  0  0
    3.0273    0.6544    4.4254 H   0  0  0  0  0  0  0  0  0  0  0  0
    4.0406    3.1145    4.5894 H   0  0  0  0  0  0  0  0  0  0  0  0
    2.2922    3.5132    4.4866 H   0  0  0  0  0  0  0  0  0  0  0  0
    2.9069    2.5134    5.8464 H   0  0  0  0  0  0  0  0  0  0  0  0
  1  3  1  0  0  0  0
  1  7  1  0  0  0  0
  1  2  2  0  0  0  0
 40 41  1  0  0  0  0
 41 49  1  0  0  0  0
 41 42  2  0  0  0  0
  8  9  1  0  0  0  0
  9 17  1  0  0  0  0
  9 10  2  0  0  0  0
 18 19  1  0  0  0  0
 19 39  1  0  0  0  0
 19 20  2  0  0  0  0
 40 43  1  0  0  0  0
  8 11  1  0  0  0  0
 49 50  1  0  0  0  0
 22 23  1  0  0  0  0
 21 22  1  0  0  0  0
 23 24  1  0  0  0  0
 18 21  1  0  0  0  0
 24 25  1  0  0  0  0
 39 40  1  0  0  0  0
  7  8  1  0  0  0  0
 17 18  1  0  0  0  0
  3  4  1  0  0  0  0
  3  5  1  0  0  0  0
  3  6  1  0  0  0  0
 43 46  1  0  0  0  0
 43 47  1  0  0  0  0
 43 48  1  0  0  0  0
 11 14  1  0  0  0  0
 11 15  1  0  0  0  0
 11 16  1  0  0  0  0
 50 52  1  0  0  0  0
 50 53  1  0  0  0  0
 50 54  1  0  0  0  0
 22 30  1  0  0  0  0
 22 31  1  0  0  0  0
 23 32  1  0  0  0  0
 23 33  1  0  0  0  0
 21 28  1  0  0  0  0
 21 29  1  0  0  0  0
 24 34  1  0  0  0  0
 24 35  1  0  0  0  0
 40 45  1  0  0  0  0
  8 13  1  0  0  0  0
 18 27  1  0  0  0  0
 49 51  1  0  0  0  0
  7 12  1  0  0  0  0
 39 44  1  0  0  0  0
 17 26  1  0  0  0  0
 25 36  1  0  0  0  0
 25 37  1  0  0  0  0
 25 38  1  0  0  0  0
M  CHG  1  25   1
M  END
$$$$

  -OEChem-05262214473D

 54 53  0     1  0  0  0  0  0999 V2000
    2.6714    2.8829   -3.0005 C   0  0  0  0  0  0  0  0  0  0  0  0
    3.1741    2.4398   -1.9745 O   0  0  0  0  0  0  0  0  0  0  0  0
    3.5527    3.3077   -4.1279 C   0  0  0  0  0  0  0  0  0  0  0  0
    3.8407    4.3691   -4.0597 H   0  0  0  0  0  0  0  0  0  0  0  0
    4.5024    2.7495   -4.1526 H   0  0  0  0  0  0  0  0  0  0  0  0
    3.1208    3.1887   -5.1345 H   0  0  0  0  0  0  0  0  0  0  0  0
    1.3174    3.0407   -3.2467 N   0  0  0  0  0  0  0  0  0  0  0  0
    0.2944    2.6927   -2.2960 C   0  0  2  0  0  0  0  0  0  0  0  0
    0.2976    1.1783   -2.1349 C   0  0  0  0  0  0  0  0  0  0  0  0
    0.7500    0.4142   -2.9850 O   0  0  0  0  0  0  0  0  0  0  0  0
   -1.0710    3.1886   -2.7460 C   0  0  0  0  0  0  0  0  0  0  0  0
    1.0312    3.4224   -4.1464 H   0  0  0  0  0  0  0  0  0  0  0  0
    0.5725    3.1622   -1.3461 H   0  0  0  0  0  0  0  0  0  0  0  0
   -1.3666    2.7292   -3.6963 H   0  0  0  0  0  0  0  0  0  0  0  0
   -1.8434    2.9482   -2.0082 H   0  0  0  0  0  0  0  0  0  0  0  0
   -1.0632    4.2744   -2.8901 H   0  0  0  0  0  0  0  0  0  0  0  0
   -0.3037    0.7742   -0.9484 N   0  0  0  0  0  0  0  0  0  0  0  0
   -0.4352   -0.6095   -0.5718 C   0  0  2  0  0  0  0  0  0  0  0  0
    0.5842   -0.9218    0.5188 C   0  0  0  0  0  0  0  0  0  0  0  0
    1.1075   -2.0264    0.6506 O   0  0  0  0  0  0  0  0  0  0  0  0
   -0.3206   -1.5459   -1.7805 C   0  0  0  0  0  0  0  0  0  0  0  0
   -1.4906   -1.4404   -2.7674 C   0  0  0  0  0  0  0  0  0  0  0  0
   -1.3209   -2.4186   -3.9322 C   0  0  0  0  0  0  0  0  0  0  0  0
   -2.4703   -2.2940   -4.9214 C   0  0  0  0  0  0  0  0  0  0  0  0
   -2.2519   -3.2404   -6.0417 N   0  3  0  0  0  0  0  0  0  0  0  0
   -0.6336    1.4811   -0.2948 H   0  0  0  0  0  0  0  0  0  0  0  0
   -1.4372   -0.7080   -0.1369 H   0  0  0  0  0  0  0  0  0  0  0  0
    0.6128   -1.3228   -2.3133 H   0  0  0  0  0  0  0  0  0  0  0  0
   -0.2436   -2.5833   -1.4321 H   0  0  0  0  0  0  0  0  0  0  0  0
   -2.4348   -1.6540   -2.2530 H   0  0  0  0  0  0  0  0  0  0  0  0
   -1.5583   -0.4194   -3.1608 H   0  0  0  0  0  0  0  0  0  0  0  0
   -1.2724   -3.4445   -3.5461 H   0  0  0  0  0  0  0  0  0  0  0  0
   -0.3693   -2.2218   -4.4414 H   0  0  0  0  0  0  0  0  0  0  0  0
   -3.4313   -2.5549   -4.4682 H   0  0  0  0  0  0  0  0  0  0  0  0
   -2.5285   -1.2928   -5.3584 H   0  0  0  0  0  0  0  0  0  0  0  0
   -2.7989   -2.9676   -6.8656 H   0  0  0  0  0  0  0  0  0  0  0  0
   -2.5316   -4.1918   -5.7784 H   0  0  0  0  0  0  0  0  0  0  0  0
   -1.2630   -3.2662   -6.3138 H   0  0  0  0  0  0  0  0  0  0  0  0
    0.8668    0.1844    1.3070 N   0  0  0  0  0  0  0  0  0  0  0  0
    1.8160    0.1327    2.3934 C   0  0  2  0  0  0  0  0  0  0  0  0
    1.6433    1.3940    3.2293 C   0  0  0  0  0  0  0  0  0  0  0  0
    1.1400    2.4260    2.7902 O   0  0  0  0  0  0  0  0  0  0  0  0
    3.2415    0.0135    1.8773 C   0  0  0  0  0  0  0  0  0  0  0  0
    0.3898    1.0600    1.1133 H   0  0  0  0  0  0  0  0  0  0  0  0
    1.5582   -0.7444    2.9970 H   0  0  0  0  0  0  0  0  0  0  0  0
    3.5178    0.8833    1.2702 H   0  0  0  0  0  0  0  0  0  0  0  0
    3.9579   -0.0544    2.7027 H   0  0  0  0  0  0  0  0  0  0  0  0
    3.3563   -0.8784    1.2519 H   0  0  0  0  0  0  0  0  0  0  0  0
    2.1566    1.2456    4.5101 N   0  0  0  0  0  0  0  0  0  0  0  0
    2.1245    2.3056    5.4906 C   0  0  0  0  0  0  0  0  0  0  0  0
    2.5387    0.3484    4.7945 H   0  0  0  0  0  0  0  0  0  0  0  0
    3.0602    2.8817    5.4392 H   0  0  0  0  0  0  0  0  0  0  0  0
    1.2729    2.9704    5.2839 H   0  0  0  0  0  0  0  0  0  0  0  0
    2.0158    1.8720    6.4957 H   0  0  0  0  0  0  0  0  0  0  0  0
  1  3  1  0  0  0  0
  1  7  1  0  0  0  0
  1  2  2  0  0  0  0
 40 41  1  0  0  0  0
 41 49  1  0  0  0  0
 41 42  2  0  0  0  0
  8  9  1  0  0  0  0
  9 17  1  0  0  0  0
  9 10  2  0  0  0  0
 18 19  1  0  0  0  0
 19 39  1  0  0  0  0
 19 20  2  0  0  0  0
 40 43  1  0  0  0  0
  8 11  1  0  0  0  0
 49 50  1  0  0  0  0
 22 23  1  0  0  0  0
 21 22  1  0  0  0  0
 23 24  1  0  0  0  0
 18 21  1  0  0  0  0
 24 25  1  0  0  0  0
 39 40  1  0  0  0  0
  7  8  1  0  0  0  0
 17 18  1  0  0  0  0
  3  4  1  0  0  0  0
  3  5  1  0  0  0  0
  3  6  1  0  0  0  0
 43 46  1  0  0  0  0
 43 47  1  0  0  0  0
 43 48  1  0  0  0  0
 11 14  1  0  0  0  0
 11 15  1  0  0  0  0
 11 16  1  0  0  0  0
 50 52  1  0  0  0  0
 50 53  1  0  0  0  0
 50 54  1  0  0  0  0
 22 30  1  0  0  0  0
 22 31  1  0  0  0  0
 23 32  1  0  0  0  0
 23 33  1  0  0  0  0
 21 28  1  0  0  0  0
 21 29  1  0  0  0  0
 24 34  1  0  0  0  0
 24 35  1  0  0  0  0
 40 45  1  0  0  0  0
  8 13  1  0  0  0  0
 18 27  1  0  0  0  0
 49 51  1  0  0  0  0
  7 12  1  0  0  0  0
 39 44  1  0  0  0  0
 17 26  1  0  0  0  0
 25 36  1  0  0  0  0
 25 37  1  0  0  0  0
 25 38  1  0  0  0  0
M  CHG  1  25   1
M  END
$$$$

  -OEChem-05262214473D

 54 53  0     1  0  0  0  0  0999 V2000
    2.6714    2.8829   -3.0005 C   0  0  0  0  0  0  0  0  0  0  0  0
    3.1741    2.4398   -1.9745 O   0  0  0  0  0  0  0  0  0  0  0  0
    3.5527    3.3077   -4.1279 C   0  0  0  0  0  0  0  0  0  0  0  0
    3.8407    4.3691   -4.0597 H   0  0  0  0  0  0  0  0  0  0  0  0
    4.5024    2.7495   -4.1526 H   0  0  0  0  0  0  0  0  0  0  0  0
    3.1208    3.1887   -5.1345 H   0  0  0  0  0  0  0  0  0  0  0  0
    1.3174    3.0407   -3.2467 N   0  0  0  0  0  0  0  0  0  0  0  0
    0.2944    2.6927   -2.2960 C   0  0  2  0  0  0  0  0  0  0  0  0
    0.2976    1.1783   -2.1349 C   0  0  0  0  0  0  0  0  0  0  0  0
    0.7500    0.4142   -2.9850 O   0  0  0  0  0  0  0  0  0  0  0  0
   -1.0710    3.1886   -2.7460 C   0  0  0  0  0  0  0  0  0  0  0  0
    1.0312    3.4224   -4.1464 H   0  0  0  0  0  0  0  0  0  0  0  0
    0.5725    3.1622   -1.3461 H   0  0  0  0  0  0  0  0  0  0  0  0
   -1.3666    2.7292   -3.6963 H   0  0  0  0  0  0  0  0  0  0  0  0
   -1.8434    2.9482   -2.0082 H   0  0  0  0  0  0  0  0  0  0  0  0
   -1.0632    4.2744   -2.8901 H   0  0  0  0  0  0  0  0  0  0  0  0
   -0.3037    0.7742   -0.9484 N   0  0  0  0  0  0  0  0  0  0  0  0
   -0.4352   -0.6095   -0.5718 C   0  0  2  0  0  0  0  0  0  0  0  0
    0.5842   -0.9218    0.5188 C   0  0  0  0  0  0  0  0  0  0  0  0
    1.3024   -1.9194    0.4991 O   0  0  0  0  0  0  0  0  0  0  0  0
   -0.3206   -1.5459   -1.7805 C   0  0  0  0  0  0  0  0  0  0  0  0
   -1.4906   -1.4404   -2.7674 C   0  0  0  0  0  0  0  0  0  0  0  0
   -1.3209   -2.4186   -3.9322 C   0  0  0  0  0  0  0  0  0  0  0  0
   -2.4703   -2.2940   -4.9214 C   0  0  0  0  0  0  0  0  0  0  0  0
   -2.2519   -3.2404   -6.0417 N   0  3  0  0  0  0  0  0  0  0  0  0
   -0.6336    1.4811   -0.2948 H   0  0  0  0  0  0  0  0  0  0  0  0
   -1.4372   -0.7080   -0.1369 H   0  0  0  0  0  0  0  0  0  0  0  0
    0.6128   -1.3228   -2.3133 H   0  0  0  0  0  0  0  0  0  0  0  0
   -0.2436   -2.5833   -1.4321 H   0  0  0  0  0  0  0  0  0  0  0  0
   -2.4348   -1.6540   -2.2530 H   0  0  0  0  0  0  0  0  0  0  0  0
   -1.5583   -0.4194   -3.1608 H   0  0  0  0  0  0  0  0  0  0  0  0
   -1.2724   -3.4445   -3.5461 H   0  0  0  0  0  0  0  0  0  0  0  0
   -0.3693   -2.2218   -4.4414 H   0  0  0  0  0  0  0  0  0  0  0  0
   -3.4313   -2.5549   -4.4682 H   0  0  0  0  0  0  0  0  0  0  0  0
   -2.5285   -1.2928   -5.3584 H   0  0  0  0  0  0  0  0  0  0  0  0
   -2.7989   -2.9676   -6.8656 H   0  0  0  0  0  0  0  0  0  0  0  0
   -2.5316   -4.1918   -5.7784 H   0  0  0  0  0  0  0  0  0  0  0  0
   -1.2630   -3.2662   -6.3138 H   0  0  0  0  0  0  0  0  0  0  0  0
    0.6226    0.0590    1.4993 N   0  0  0  0  0  0  0  0  0  0  0  0
    1.5239   -0.0132    2.6246 C   0  0  2  0  0  0  0  0  0  0  0  0
    1.0845    1.0270    3.6466 C   0  0  0  0  0  0  0  0  0  0  0  0
    0.4109    2.0127    3.3534 O   0  0  0  0  0  0  0  0  0  0  0  0
    2.9641    0.2205    2.1960 C   0  0  0  0  0  0  0  0  0  0  0  0
   -0.0043    0.8544    1.4229 H   0  0  0  0  0  0  0  0  0  0  0  0
    1.4152   -1.0155    3.0531 H   0  0  0  0  0  0  0  0  0  0  0  0
    3.0925    1.2198    1.7642 H   0  0  0  0  0  0  0  0  0  0  0  0
    3.6495    0.1372    3.0458 H   0  0  0  0  0  0  0  0  0  0  0  0
    3.2689   -0.5102    1.4391 H   0  0  0  0  0  0  0  0  0  0  0  0
    1.5692    0.7481    4.9167 N   0  0  0  0  0  0  0  0  0  0  0  0
    1.3006    1.5932    6.0567 C   0  0  0  0  0  0  0  0  0  0  0  0
    2.1039   -0.1015    5.0721 H   0  0  0  0  0  0  0  0  0  0  0  0
    2.1112    2.3285    6.1678 H   0  0  0  0  0  0  0  0  0  0  0  0
    0.3465    2.1194    5.9062 H   0  0  0  0  0  0  0  0  0  0  0  0
    1.2393    0.9753    6.9647 H   0  0  0  0  0  0  0  0  0  0  0  0
  1  3  1  0  0  0  0
  1  7  1  0  0  0  0
  1  2  2  0  0  0  0
 40 41  1  0  0  0  0
 41 49  1  0  0  0  0
 41 42  2  0  0  0  0
  8  9  1  0  0  0  0
  9 17  1  0  0  0  0
  9 10  2  0  0  0  0
 18 19  1  0  0  0  0
 19 39  1  0  0  0  0
 19 20  2  0  0  0  0
 40 43  1  0  0  0  0
  8 11  1  0  0  0  0
 49 50  1  0  0  0  0
 22 23  1  0  0  0  0
 21 22  1  0  0  0  0
 23 24  1  0  0  0  0
 18 21  1  0  0  0  0
 24 25  1  0  0  0  0
 39 40  1  0  0  0  0
  7  8  1  0  0  0  0
 17 18  1  0  0  0  0
  3  4  1  0  0  0  0
  3  5  1  0  0  0  0
  3  6  1  0  0  0  0
 43 46  1  0  0  0  0
 43 47  1  0  0  0  0
 43 48  1  0  0  0  0
 11 14  1  0  0  0  0
 11 15  1  0  0  0  0
 11 16  1  0  0  0  0
 50 52  1  0  0  0  0
 50 53  1  0  0  0  0
 50 54  1  0  0  0  0
 22 30  1  0  0  0  0
 22 31  1  0  0  0  0
 23 32  1  0  0  0  0
 23 33  1  0  0  0  0
 21 28  1  0  0  0  0
 21 29  1  0  0  0  0
 24 34  1  0  0  0  0
 24 35  1  0  0  0  0
 40 45  1  0  0  0  0
  8 13  1  0  0  0  0
 18 27  1  0  0  0  0
 49 51  1  0  0  0  0
  7 12  1  0  0  0  0
 39 44  1  0  0  0  0
 17 26  1  0  0  0  0
 25 36  1  0  0  0  0
 25 37  1  0  0  0  0
 25 38  1  0  0  0  0
M  CHG  1  25   1
M  END
$$$$

  -OEChem-05262214473D

 54 53  0     1  0  0  0  0  0999 V2000
    2.6714    2.8829   -3.0005 C   0  0  0  0  0  0  0  0  0  0  0  0
    3.1741    2.4398   -1.9745 O   0  0  0  0  0  0  0  0  0  0  0  0
    3.5527    3.3077   -4.1279 C   0  0  0  0  0  0  0  0  0  0  0  0
    3.8407    4.3691   -4.0597 H   0  0  0  0  0  0  0  0  0  0  0  0
    4.5024    2.7495   -4.1526 H   0  0  0  0  0  0  0  0  0  0  0  0
    3.1208    3.1887   -5.1345 H   0  0  0  0  0  0  0  0  0  0  0  0
    1.3174    3.0407   -3.2467 N   0  0  0  0  0  0  0  0  0  0  0  0
    0.2944    2.6927   -2.2960 C   0  0  2  0  0  0  0  0  0  0  0  0
    0.2976    1.1783   -2.1349 C   0  0  0  0  0  0  0  0  0  0  0  0
    0.7500    0.4142   -2.9850 O   0  0  0  0  0  0  0  0  0  0  0  0
   -1.0710    3.1886   -2.7460 C   0  0  0  0  0  0  0  0  0  0  0  0
    1.0312    3.4224   -4.1464 H   0  0  0  0  0  0  0  0  0  0  0  0
    0.5725    3.1622   -1.3461 H   0  0  0  0  0  0  0  0  0  0  0  0
   -1.3666    2.7292   -3.6963 H   0  0  0  0  0  0  0  0  0  0  0  0
   -1.8434    2.9482   -2.0082 H   0  0  0  0  0  0  0  0  0  0  0  0
   -1.0632    4.2744   -2.8901 H   0  0  0  0  0  0  0  0  0  0  0  0
   -0.3037    0.7742   -0.9484 N   0  0  0  0  0  0  0  0  0  0  0  0
   -0.4352   -0.6095   -0.5718 C   0  0  2  0  0  0  0  0  0  0  0  0
    0.5842   -0.9218    0.5188 C   0  0  0  0  0  0  0  0  0  0  0  0
    1.4788   -1.7538    0.3816 O   0  0  0  0  0  0  0  0  0  0  0  0
   -0.3206   -1.5459   -1.7805 C   0  0  0  0  0  0  0  0  0  0  0  0
   -1.4906   -1.4404   -2.7674 C   0  0  0  0  0  0  0  0  0  0  0  0
   -1.3209   -2.4186   -3.9322 C   0  0  0  0  0  0  0  0  0  0  0  0
   -2.4703   -2.2940   -4.9214 C   0  0  0  0  0  0  0  0  0  0  0  0
   -2.2519   -3.2404   -6.0417 N   0  3  0  0  0  0  0  0  0  0  0  0
   -0.6336    1.4811   -0.2948 H   0  0  0  0  0  0  0  0  0  0  0  0
   -1.4372   -0.7080   -0.1369 H   0  0  0  0  0  0  0  0  0  0  0  0
    0.6128   -1.3228   -2.3133 H   0  0  0  0  0  0  0  0  0  0  0  0
   -0.2436   -2.5833   -1.4321 H   0  0  0  0  0  0  0  0  0  0  0  0
   -2.4348   -1.6540   -2.2530 H   0  0  0  0  0  0  0  0  0  0  0  0
   -1.5583   -0.4194   -3.1608 H   0  0  0  0  0  0  0  0  0  0  0  0
   -1.2724   -3.4445   -3.5461 H   0  0  0  0  0  0  0  0  0  0  0  0
   -0.3693   -2.2218   -4.4414 H   0  0  0  0  0  0  0  0  0  0  0  0
   -3.4313   -2.5549   -4.4682 H   0  0  0  0  0  0  0  0  0  0  0  0
   -2.5285   -1.2928   -5.3584 H   0  0  0  0  0  0  0  0  0  0  0  0
   -2.7989   -2.9676   -6.8656 H   0  0  0  0  0  0  0  0  0  0  0  0
   -2.5316   -4.1918   -5.7784 H   0  0  0  0  0  0  0  0  0  0  0  0
   -1.2630   -3.2662   -6.3138 H   0  0  0  0  0  0  0  0  0  0  0  0
    0.3998   -0.1406    1.6505 N   0  0  0  0  0  0  0  0  0  0  0  0
    1.2565   -0.2481    2.8073 C   0  0  2  0  0  0  0  0  0  0  0  0
    0.5904    0.4970    3.9566 C   0  0  0  0  0  0  0  0  0  0  0  0
   -0.2466    1.3811    3.7872 O   0  0  0  0  0  0  0  0  0  0  0  0
    2.6409    0.3141    2.5248 C   0  0  0  0  0  0  0  0  0  0  0  0
   -0.3634    0.5293    1.6654 H   0  0  0  0  0  0  0  0  0  0  0  0
    1.3243   -1.3136    3.0527 H   0  0  0  0  0  0  0  0  0  0  0  0
    2.5931    1.3808    2.2770 H   0  0  0  0  0  0  0  0  0  0  0  0
    3.2981    0.2059    3.3940 H   0  0  0  0  0  0  0  0  0  0  0  0
    3.1064   -0.2031    1.6789 H   0  0  0  0  0  0  0  0  0  0  0  0
    1.0724    0.0885    5.1923 N   0  0  0  0  0  0  0  0  0  0  0  0
    0.6067    0.6547    6.4367 C   0  0  0  0  0  0  0  0  0  0  0  0
    1.7525   -0.6645    5.2393 H   0  0  0  0  0  0  0  0  0  0  0  0
    1.2583    1.4924    6.7256 H   0  0  0  0  0  0  0  0  0  0  0  0
   -0.4238    1.0184    6.3110 H   0  0  0  0  0  0  0  0  0  0  0  0
    0.6304   -0.1157    7.2215 H   0  0  0  0  0  0  0  0  0  0  0  0
  1  3  1  0  0  0  0
  1  7  1  0  0  0  0
  1  2  2  0  0  0  0
 40 41  1  0  0  0  0
 41 49  1  0  0  0  0
 41 42  2  0  0  0  0
  8  9  1  0  0  0  0
  9 17  1  0  0  0  0
  9 10  2  0  0  0  0
 18 19  1  0  0  0  0
 19 39  1  0  0  0  0
 19 20  2  0  0  0  0
 40 43  1  0  0  0  0
  8 11  1  0  0  0  0
 49 50  1  0  0  0  0
 22 23  1  0  0  0  0
 21 22  1  0  0  0  0
 23 24  1  0  0  0  0
 18 21  1  0  0  0  0
 24 25  1  0  0  0  0
 39 40  1  0  0  0  0
  7  8  1  0  0  0  0
 17 18  1  0  0  0  0
  3  4  1  0  0  0  0
  3  5  1  0  0  0  0
  3  6  1  0  0  0  0
 43 46  1  0  0  0  0
 43 47  1  0  0  0  0
 43 48  1  0  0  0  0
 11 14  1  0  0  0  0
 11 15  1  0  0  0  0
 11 16  1  0  0  0  0
 50 52  1  0  0  0  0
 50 53  1  0  0  0  0
 50 54  1  0  0  0  0
 22 30  1  0  0  0  0
 22 31  1  0  0  0  0
 23 32  1  0  0  0  0
 23 33  1  0  0  0  0
 21 28  1  0  0  0  0
 21 29  1  0  0  0  0
 24 34  1  0  0  0  0
 24 35  1  0  0  0  0
 40 45  1  0  0  0  0
  8 13  1  0  0  0  0
 18 27  1  0  0  0  0
 49 51  1  0  0  0  0
  7 12  1  0  0  0  0
 39 44  1  0  0  0  0
 17 26  1  0  0  0  0
 25 36  1  0  0  0  0
 25 37  1  0  0  0  0
 25 38  1  0  0  0  0
M  CHG  1  25   1
M  END
$$$$

  -OEChem-05262214473D

 54 53  0     1  0  0  0  0  0999 V2000
    2.6714    2.8829   -3.0005 C   0  0  0  0  0  0  0  0  0  0  0  0
    3.1741    2.4398   -1.9745 O   0  0  0  0  0  0  0  0  0  0  0  0
    3.5527    3.3077   -4.1279 C   0  0  0  0  0  0  0  0  0  0  0  0
    3.8407    4.3691   -4.0597 H   0  0  0  0  0  0  0  0  0  0  0  0
    4.5024    2.7495   -4.1526 H   0  0  0  0  0  0  0  0  0  0  0  0
    3.1208    3.1887   -5.1345 H   0  0  0  0  0  0  0  0  0  0  0  0
    1.3174    3.0407   -3.2467 N   0  0  0  0  0  0  0  0  0  0  0  0
    0.2944    2.6927   -2.2960 C   0  0  2  0  0  0  0  0  0  0  0  0
    0.2976    1.1783   -2.1349 C   0  0  0  0  0  0  0  0  0  0  0  0
    0.7500    0.4142   -2.9850 O   0  0  0  0  0  0  0  0  0  0  0  0
   -1.0710    3.1886   -2.7460 C   0  0  0  0  0  0  0  0  0  0  0  0
    1.0312    3.4224   -4.1464 H   0  0  0  0  0  0  0  0  0  0  0  0
    0.5725    3.1622   -1.3461 H   0  0  0  0  0  0  0  0  0  0  0  0
   -1.3666    2.7292   -3.6963 H   0  0  0  0  0  0  0  0  0  0  0  0
   -1.8434    2.9482   -2.0082 H   0  0  0  0  0  0  0  0  0  0  0  0
   -1.0632    4.2744   -2.8901 H   0  0  0  0  0  0  0  0  0  0  0  0
   -0.3037    0.7742   -0.9484 N   0  0  0  0  0  0  0  0  0  0  0  0
   -0.4352   -0.6095   -0.5718 C   0  0  2  0  0  0  0  0  0  0  0  0
    0.5842   -0.9218    0.5188 C   0  0  0  0  0  0  0  0  0  0  0  0
    1.6249   -1.5408    0.3061 O   0  0  0  0  0  0  0  0  0  0  0  0
   -0.3206   -1.5459   -1.7805 C   0  0  0  0  0  0  0  0  0  0  0  0
   -1.4906   -1.4404   -2.7674 C   0  0  0  0  0  0  0  0  0  0  0  0
   -1.3209   -2.4186   -3.9322 C   0  0  0  0  0  0  0  0  0  0  0  0
   -2.4703   -2.2940   -4.9214 C   0  0  0  0  0  0  0  0  0  0  0  0
   -2.2519   -3.2404   -6.0417 N   0  3  0  0  0  0  0  0  0  0  0  0
   -0.6336    1.4811   -0.2948 H   0  0  0  0  0  0  0  0  0  0  0  0
   -1.4372   -0.7080   -0.1369 H   0  0  0  0  0  0  0  0  0  0  0  0
    0.6128   -1.3228   -2.3133 H   0  0  0  0  0  0  0  0  0  0  0  0
   -0.2436   -2.5833   -1.4321 H   0  0  0  0  0  0  0  0  0  0  0  0
   -2.4348   -1.6540   -2.2530 H   0  0  0  0  0  0  0  0  0  0  0  0
   -1.5583   -0.4194   -3.1608 H   0  0  0  0  0  0  0  0  0  0  0  0
   -1.2724   -3.4445   -3.5461 H   0  0  0  0  0  0  0  0  0  0  0  0
   -0.3693   -2.2218   -4.4414 H   0  0  0  0  0  0  0  0  0  0  0  0
   -3.4313   -2.5549   -4.4682 H   0  0  0  0  0  0  0  0  0  0  0  0
   -2.5285   -1.2928   -5.3584 H   0  0  0  0  0  0  0  0  0  0  0  0
   -2.7989   -2.9676   -6.8656 H   0  0  0  0  0  0  0  0  0  0  0  0
   -2.5316   -4.1918   -5.7784 H   0  0  0  0  0  0  0  0  0  0  0  0
   -1.2630   -3.2662   -6.3138 H   0  0  0  0  0  0  0  0  0  0  0  0
    0.2135   -0.4008    1.7501 N   0  0  0  0  0  0  0  0  0  0  0  0
    1.0320   -0.5562    2.9290 C   0  0  2  0  0  0  0  0  0  0  0  0
    0.1949   -0.1601    4.1381 C   0  0  0  0  0  0  0  0  0  0  0  0
   -0.7879    0.5743    4.0621 O   0  0  0  0  0  0  0  0  0  0  0  0
    2.2940    0.2878    2.8416 C   0  0  0  0  0  0  0  0  0  0  0  0
   -0.6630    0.1069    1.8245 H   0  0  0  0  0  0  0  0  0  0  0  0
    1.2917   -1.6183    2.9959 H   0  0  0  0  0  0  0  0  0  0  0  0
    2.0538    1.3551    2.7738 H   0  0  0  0  0  0  0  0  0  0  0  0
    2.9274    0.1469    3.7236 H   0  0  0  0  0  0  0  0  0  0  0  0
    2.8799    0.0220    1.9550 H   0  0  0  0  0  0  0  0  0  0  0  0
    0.6999   -0.6882    5.3180 N   0  0  0  0  0  0  0  0  0  0  0  0
    0.0899   -0.4460    6.6046 C   0  0  0  0  0  0  0  0  0  0  0  0
    1.5084   -1.3023    5.2849 H   0  0  0  0  0  0  0  0  0  0  0  0
    0.5597    0.4305    7.0746 H   0  0  0  0  0  0  0  0  0  0  0  0
   -0.9856   -0.2577    6.4706 H   0  0  0  0  0  0  0  0  0  0  0  0
    0.2305   -1.3267    7.2485 H   0  0  0  0  0  0  0  0  0  0  0  0
  1  3  1  0  0  0  0
  1  7  1  0  0  0  0
  1  2  2  0  0  0  0
 40 41  1  0  0  0  0
 41 49  1  0  0  0  0
 41 42  2  0  0  0  0
  8  9  1  0  0  0  0
  9 17  1  0  0  0  0
  9 10  2  0  0  0  0
 18 19  1  0  0  0  0
 19 39  1  0  0  0  0
 19 20  2  0  0  0  0
 40 43  1  0  0  0  0
  8 11  1  0  0  0  0
 49 50  1  0  0  0  0
 22 23  1  0  0  0  0
 21 22  1  0  0  0  0
 23 24  1  0  0  0  0
 18 21  1  0  0  0  0
 24 25  1  0  0  0  0
 39 40  1  0  0  0  0
  7  8  1  0  0  0  0
 17 18  1  0  0  0  0
  3  4  1  0  0  0  0
  3  5  1  0  0  0  0
  3  6  1  0  0  0  0
 43 46  1  0  0  0  0
 43 47  1  0  0  0  0
 43 48  1  0  0  0  0
 11 14  1  0  0  0  0
 11 15  1  0  0  0  0
 11 16  1  0  0  0  0
 50 52  1  0  0  0  0
 50 53  1  0  0  0  0
 50 54  1  0  0  0  0
 22 30  1  0  0  0  0
 22 31  1  0  0  0  0
 23 32  1  0  0  0  0
 23 33  1  0  0  0  0
 21 28  1  0  0  0  0
 21 29  1  0  0  0  0
 24 34  1  0  0  0  0
 24 35  1  0  0  0  0
 40 45  1  0  0  0  0
  8 13  1  0  0  0  0
 18 27  1  0  0  0  0
 49 51  1  0  0  0  0
  7 12  1  0  0  0  0
 39 44  1  0  0  0  0
 17 26  1  0  0  0  0
 25 36  1  0  0  0  0
 25 37  1  0  0  0  0
 25 38  1  0  0  0  0
M  CHG  1  25   1
M  END
$$$$

  -OEChem-05262214473D

 54 53  0     1  0  0  0  0  0999 V2000
    2.6714    2.8829   -3.0005 C   0  0  0  0  0  0  0  0  0  0  0  0
    3.1741    2.4398   -1.9745 O   0  0  0  0  0  0  0  0  0  0  0  0
    3.5527    3.3077   -4.1279 C   0  0  0  0  0  0  0  0  0  0  0  0
    3.8407    4.3691   -4.0597 H   0  0  0  0  0  0  0  0  0  0  0  0
    4.5024    2.7495   -4.1526 H   0  0  0  0  0  0  0  0  0  0  0  0
    3.1208    3.1887   -5.1345 H   0  0  0  0  0  0  0  0  0  0  0  0
    1.3174    3.0407   -3.2467 N   0  0  0  0  0  0  0  0  0  0  0  0
    0.2944    2.6927   -2.2960 C   0  0  2  0  0  0  0  0  0  0  0  0
    0.2976    1.1783   -2.1349 C   0  0  0  0  0  0  0  0  0  0  0  0
    0.7500    0.4142   -2.9850 O   0  0  0  0  0  0  0  0  0  0  0  0
   -1.0710    3.1886   -2.7460 C   0  0  0  0  0  0  0  0  0  0  0  0
    1.0312    3.4224   -4.1464 H   0  0  0  0  0  0  0  0  0  0  0  0
    0.5725    3.1622   -1.3461 H   0  0  0  0  0  0  0  0  0  0  0  0
   -1.3666    2.7292   -3.6963 H   0  0  0  0  0  0  0  0  0  0  0  0
   -1.8434    2.9482   -2.0082 H   0  0  0  0  0  0  0  0  0  0  0  0
   -1.0632    4.2744   -2.8901 H   0  0  0  0  0  0  0  0  0  0  0  0
   -0.3037    0.7742   -0.9484 N   0  0  0  0  0  0  0  0  0  0  0  0
   -0.4352   -0.6095   -0.5718 C   0  0  2  0  0  0  0  0  0  0  0  0
    0.5842   -0.9218    0.5188 C   0  0  0  0  0  0  0  0  0  0  0  0
    1.7305   -1.2950    0.2777 O   0  0  0  0  0  0  0  0  0  0  0  0
   -0.3206   -1.5459   -1.7805 C   0  0  0  0  0  0  0  0  0  0  0  0
   -1.4906   -1.4404   -2.7674 C   0  0  0  0  0  0  0  0  0  0  0  0
   -1.3209   -2.4186   -3.9322 C   0  0  0  0  0  0  0  0  0  0  0  0
   -2.4703   -2.2940   -4.9214 C   0  0  0  0  0  0  0  0  0  0  0  0
   -2.2519   -3.2404   -6.0417 N   0  3  0  0  0  0  0  0  0  0  0  0
   -0.6336    1.4811   -0.2948 H   0  0  0  0  0  0  0  0  0  0  0  0
   -1.4372   -0.7080   -0.1369 H   0  0  0  0  0  0  0  0  0  0  0  0
    0.6128   -1.3228   -2.3133 H   0  0  0  0  0  0  0  0  0  0  0  0
   -0.2436   -2.5833   -1.4321 H   0  0  0  0  0  0  0  0  0  0  0  0
   -2.4348   -1.6540   -2.2530 H   0  0  0  0  0  0  0  0  0  0  0  0
   -1.5583   -0.4194   -3.1608 H   0  0  0  0  0  0  0  0  0  0  0  0
   -1.2724   -3.4445   -3.5461 H   0  0  0  0  0  0  0  0  0  0  0  0
   -0.3693   -2.2218   -4.4414 H   0  0  0  0  0  0  0  0  0  0  0  0
   -3.4313   -2.5549   -4.4682 H   0  0  0  0  0  0  0  0  0  0  0  0
   -2.5285   -1.2928   -5.3584 H   0  0  0  0  0  0  0  0  0  0  0  0
   -2.7989   -2.9676   -6.8656 H   0  0  0  0  0  0  0  0  0  0  0  0
   -2.5316   -4.1918   -5.7784 H   0  0  0  0  0  0  0  0  0  0  0  0
   -1.2630   -3.2662   -6.3138 H   0  0  0  0  0  0  0  0  0  0  0  0
    0.0765   -0.7038    1.7914 N   0  0  0  0  0  0  0  0  0  0  0  0
    0.8657   -0.9163    2.9813 C   0  0  2  0  0  0  0  0  0  0  0  0
   -0.0751   -0.8994    4.1788 C   0  0  0  0  0  0  0  0  0  0  0  0
   -1.1760   -0.3527    4.1594 O   0  0  0  0  0  0  0  0  0  0  0  0
    1.9470    0.1433    3.1245 C   0  0  0  0  0  0  0  0  0  0  0  0
   -0.8826   -0.3841    1.8892 H   0  0  0  0  0  0  0  0  0  0  0  0
    1.3195   -1.9088    2.8867 H   0  0  0  0  0  0  0  0  0  0  0  0
    1.5114    1.1445    3.2206 H   0  0  0  0  0  0  0  0  0  0  0  0
    2.5628   -0.0357    4.0121 H   0  0  0  0  0  0  0  0  0  0  0  0
    2.6049    0.1497    2.2487 H   0  0  0  0  0  0  0  0  0  0  0  0
    0.4773   -1.5291    5.2854 N   0  0  0  0  0  0  0  0  0  0  0  0
   -0.2145   -1.6339    6.5489 C   0  0  0  0  0  0  0  0  0  0  0  0
    1.3882   -1.9715    5.2056 H   0  0  0  0  0  0  0  0  0  0  0  0
    0.0629   -0.7849    7.1909 H   0  0  0  0  0  0  0  0  0  0  0  0
   -1.3005   -1.6219    6.3743 H   0  0  0  0  0  0  0  0  0  0  0  0
    0.0670   -2.5751    7.0439 H   0  0  0  0  0  0  0  0  0  0  0  0
  1  3  1  0  0  0  0
  1  7  1  0  0  0  0
  1  2  2  0  0  0  0
 40 41  1  0  0  0  0
 41 49  1  0  0  0  0
 41 42  2  0  0  0  0
  8  9  1  0  0  0  0
  9 17  1  0  0  0  0
  9 10  2  0  0  0  0
 18 19  1  0  0  0  0
 19 39  1  0  0  0  0
 19 20  2  0  0  0  0
 40 43  1  0  0  0  0
  8 11  1  0  0  0  0
 49 50  1  0  0  0  0
 22 23  1  0  0  0  0
 21 22  1  0  0  0  0
 23 24  1  0  0  0  0
 18 21  1  0  0  0  0
 24 25  1  0  0  0  0
 39 40  1  0  0  0  0
  7  8  1  0  0  0  0
 17 18  1  0  0  0  0
  3  4  1  0  0  0  0
  3  5  1  0  0  0  0
  3  6  1  0  0  0  0
 43 46  1  0  0  0  0
 43 47  1  0  0  0  0
 43 48  1  0  0  0  0
 11 14  1  0  0  0  0
 11 15  1  0  0  0  0
 11 16  1  0  0  0  0
 50 52  1  0  0  0  0
 50 53  1  0  0  0  0
 50 54  1  0  0  0  0
 22 30  1  0  0  0  0
 22 31  1  0  0  0  0
 23 32  1  0  0  0  0
 23 33  1  0  0  0  0
 21 28  1  0  0  0  0
 21 29  1  0  0  0  0
 24 34  1  0  0  0  0
 24 35  1  0  0  0  0
 40 45  1  0  0  0  0
  8 13  1  0  0  0  0
 18 27  1  0  0  0  0
 49 51  1  0  0  0  0
  7 12  1  0  0  0  0
 39 44  1  0  0  0  0
 17 26  1  0  0  0  0
 25 36  1  0  0  0  0
 25 37  1  0  0  0  0
 25 38  1  0  0  0  0
M  CHG  1  25   1
M  END
$$$$

  -OEChem-05262214473D

 54 53  0     1  0  0  0  0  0999 V2000
    2.6714    2.8829   -3.0005 C   0  0  0  0  0  0  0  0  0  0  0  0
    3.1741    2.4398   -1.9745 O   0  0  0  0  0  0  0  0  0  0  0  0
    3.5527    3.3077   -4.1279 C   0  0  0  0  0  0  0  0  0  0  0  0
    3.8407    4.3691   -4.0597 H   0  0  0  0  0  0  0  0  0  0  0  0
    4.5024    2.7495   -4.1526 H   0  0  0  0  0  0  0  0  0  0  0  0
    3.1208    3.1887   -5.1345 H   0  0  0  0  0  0  0  0  0  0  0  0
    1.3174    3.0407   -3.2467 N   0  0  0  0  0  0  0  0  0  0  0  0
    0.2944    2.6927   -2.2960 C   0  0  2  0  0  0  0  0  0  0  0  0
    0.2976    1.1783   -2.1349 C   0  0  0  0  0  0  0  0  0  0  0  0
    0.7500    0.4142   -2.9850 O   0  0  0  0  0  0  0  0  0  0  0  0
   -1.0710    3.1886   -2.7460 C   0  0  0  0  0  0  0  0  0  0  0  0
    1.0312    3.4224   -4.1464 H   0  0  0  0  0  0  0  0  0  0  0  0
    0.5725    3.1622   -1.3461 H   0  0  0  0  0  0  0  0  0  0  0  0
   -1.3666    2.7292   -3.6963 H   0  0  0  0  0  0  0  0  0  0  0  0
   -1.8434    2.9482   -2.0082 H   0  0  0  0  0  0  0  0  0  0  0  0
   -1.0632    4.2744   -2.8901 H   0  0  0  0  0  0  0  0  0  0  0  0
   -0.3037    0.7742   -0.9484 N   0  0  0  0  0  0  0  0  0  0  0  0
   -0.4352   -0.6095   -0.5718 C   0  0  2  0  0  0  0  0  0  0  0  0
    0.5842   -0.9218    0.5188 C   0  0  0  0  0  0  0  0  0  0  0  0
    1.7886   -1.0331    0.2984 O   0  0  0  0  0  0  0  0  0  0  0  0
   -0.3206   -1.5459   -1.7805 C   0  0  0  0  0  0  0  0  0  0  0  0
   -1.4906   -1.4404   -2.7674 C   0  0  0  0  0  0  0  0  0  0  0  0
   -1.3209   -2.4186   -3.9322 C   0  0  0  0  0  0  0  0  0  0  0  0
   -2.4703   -2.2940   -4.9214 C   0  0  0  0  0  0  0  0  0  0  0  0
   -2.2519   -3.2404   -6.0417 N   0  3  0  0  0  0  0  0  0  0  0  0
   -0.6336    1.4811   -0.2948 H   0  0  0  0  0  0  0  0  0  0  0  0
   -1.4372   -0.7080   -0.1369 H   0  0  0  0  0  0  0  0  0  0  0  0
    0.6128   -1.3228   -2.3133 H   0  0  0  0  0  0  0  0  0  0  0  0
   -0.2436   -2.5833   -1.4321 H   0  0  0  0  0  0  0  0  0  0  0  0
   -2.4348   -1.6540   -2.2530 H   0  0  0  0  0  0  0  0  0  0  0  0
   -1.5583   -0.4194   -3.1608 H   0  0  0  0  0  0  0  0  0  0  0  0
   -1.2724   -3.4445   -3.5461 H   0  0  0  0  0  0  0  0  0  0  0  0
   -0.3693   -2.2218   -4.4414 H   0  0  0  0  0  0  0  0  0  0  0  0
   -3.4313   -2.5549   -4.4682 H   0  0  0  0  0  0  0  0  0  0  0  0
   -2.5285   -1.2928   -5.3584 H   0  0  0  0  0  0  0  0  0  0  0  0
   -2.7989   -2.9676   -6.8656 H   0  0  0  0  0  0  0  0  0  0  0  0
   -2.5316   -4.1918   -5.7784 H   0  0  0  0  0  0  0  0  0  0  0  0
   -1.2630   -3.2662   -6.3138 H   0  0  0  0  0  0  0  0  0  0  0  0
   -0.0020   -1.0291    1.7717 N   0  0  0  0  0  0  0  0  0  0  0  0
    0.7689   -1.3040    2.9607 C   0  0  2  0  0  0  0  0  0  0  0  0
   -0.2013   -1.6705    4.0760 C   0  0  0  0  0  0  0  0  0  0  0  0
   -1.3844   -1.3368    4.0724 O   0  0  0  0  0  0  0  0  0  0  0  0
    1.6236   -0.1094    3.3545 C   0  0  0  0  0  0  0  0  0  0  0  0
   -1.0073   -0.9102    1.8551 H   0  0  0  0  0  0  0  0  0  0  0  0
    1.4060   -2.1654    2.7324 H   0  0  0  0  0  0  0  0  0  0  0  0
    1.0026    0.7635    3.5870 H   0  0  0  0  0  0  0  0  0  0  0  0
    2.2291   -0.3294    4.2399 H   0  0  0  0  0  0  0  0  0  0  0  0
    2.3000    0.1714    2.5400 H   0  0  0  0  0  0  0  0  0  0  0  0
    0.4195   -2.3770    5.0965 N   0  0  0  0  0  0  0  0  0  0  0  0
   -0.2857   -2.8280    6.2735 C   0  0  0  0  0  0  0  0  0  0  0  0
    1.4001   -2.6263    5.0069 H   0  0  0  0  0  0  0  0  0  0  0  0
   -0.1981   -2.0709    7.0667 H   0  0  0  0  0  0  0  0  0  0  0  0
   -1.3471   -2.9813    6.0286 H   0  0  0  0  0  0  0  0  0  0  0  0
    0.1509   -3.7758    6.6217 H   0  0  0  0  0  0  0  0  0  0  0  0
  1  3  1  0  0  0  0
  1  7  1  0  0  0  0
  1  2  2  0  0  0  0
 40 41  1  0  0  0  0
 41 49  1  0  0  0  0
 41 42  2  0  0  0  0
  8  9  1  0  0  0  0
  9 17  1  0  0  0  0
  9 10  2  0  0  0  0
 18 19  1  0  0  0  0
 19 39  1  0  0  0  0
 19 20  2  0  0  0  0
 40 43  1  0  0  0  0
  8 11  1  0  0  0  0
 49 50  1  0  0  0  0
 22 23  1  0  0  0  0
 21 22  1  0  0  0  0
 23 24  1  0  0  0  0
 18 21  1  0  0  0  0
 24 25  1  0  0  0  0
 39 40  1  0  0  0  0
  7  8  1  0  0  0  0
 17 18  1  0  0  0  0
  3  4  1  0  0  0  0
  3  5  1  0  0  0  0
  3  6  1  0  0  0  0
 43 46  1  0  0  0  0
 43 47  1  0  0  0  0
 43 48  1  0  0  0  0
 11 14  1  0  0  0  0
 11 15  1  0  0  0  0
 11 16  1  0  0  0  0
 50 52  1  0  0  0  0
 50 53  1  0  0  0  0
 50 54  1  0  0  0  0
 22 30  1  0  0  0  0
 22 31  1  0  0  0  0
 23 32  1  0  0  0  0
 23 33  1  0  0  0  0
 21 28  1  0  0  0  0
 21 29  1  0  0  0  0
 24 34  1  0  0  0  0
 24 35  1  0  0  0  0
 40 45  1  0  0  0  0
  8 13  1  0  0  0  0
 18 27  1  0  0  0  0
 49 51  1  0  0  0  0
  7 12  1  0  0  0  0
 39 44  1  0  0  0  0
 17 26  1  0  0  0  0
 25 36  1  0  0  0  0
 25 37  1  0  0  0  0
 25 38  1  0  0  0  0
M  CHG  1  25   1
M  END
$$$$

  -OEChem-05262214473D

 54 53  0     1  0  0  0  0  0999 V2000
    2.6714    2.8829   -3.0005 C   0  0  0  0  0  0  0  0  0  0  0  0
    3.1741    2.4398   -1.9745 O   0  0  0  0  0  0  0  0  0  0  0  0
    3.5527    3.3077   -4.1279 C   0  0  0  0  0  0  0  0  0  0  0  0
    3.8407    4.3691   -4.0597 H   0  0  0  0  0  0  0  0  0  0  0  0
    4.5024    2.7495   -4.1526 H   0  0  0  0  0  0  0  0  0  0  0  0
    3.1208    3.1887   -5.1345 H   0  0  0  0  0  0  0  0  0  0  0  0
    1.3174    3.0407   -3.2467 N   0  0  0  0  0  0  0  0  0  0  0  0
    0.2944    2.6927   -2.2960 C   0  0  2  0  0  0  0  0  0  0  0  0
    0.2976    1.1783   -2.1349 C   0  0  0  0  0  0  0  0  0  0  0  0
    0.7500    0.4142   -2.9850 O   0  0  0  0  0  0  0  0  0  0  0  0
   -1.0710    3.1886   -2.7460 C   0  0  0  0  0  0  0  0  0  0  0  0
    1.0312    3.4224   -4.1464 H   0  0  0  0  0  0  0  0  0  0  0  0
    0.5725    3.1622   -1.3461 H   0  0  0  0  0  0  0  0  0  0  0  0
   -1.3666    2.7292   -3.6963 H   0  0  0  0  0  0  0  0  0  0  0  0
   -1.8434    2.9482   -2.0082 H   0  0  0  0  0  0  0  0  0  0  0  0
   -1.0632    4.2744   -2.8901 H   0  0  0  0  0  0  0  0  0  0  0  0
   -0.3037    0.7742   -0.9484 N   0  0  0  0  0  0  0  0  0  0  0  0
   -0.4352   -0.6095   -0.5718 C   0  0  2  0  0  0  0  0  0  0  0  0
    0.5842   -0.9218    0.5188 C   0  0  0  0  0  0  0  0  0  0  0  0
    1.7951   -0.7730    0.3668 O   0  0  0  0  0  0  0  0  0  0  0  0
   -0.3206   -1.5459   -1.7805 C   0  0  0  0  0  0  0  0  0  0  0  0
   -1.4906   -1.4404   -2.7674 C   0  0  0  0  0  0  0  0  0  0  0  0
   -1.3209   -2.4186   -3.9322 C   0  0  0  0  0  0  0  0  0  0  0  0
   -2.4703   -2.2940   -4.9214 C   0  0  0  0  0  0  0  0  0  0  0  0
   -2.2519   -3.2404   -6.0417 N   0  3  0  0  0  0  0  0  0  0  0  0
   -0.6336    1.4811   -0.2948 H   0  0  0  0  0  0  0  0  0  0  0  0
   -1.4372   -0.7080   -0.1369 H   0  0  0  0  0  0  0  0  0  0  0  0
    0.6128   -1.3228   -2.3133 H   0  0  0  0  0  0  0  0  0  0  0  0
   -0.2436   -2.5833   -1.4321 H   0  0  0  0  0  0  0  0  0  0  0  0
   -2.4348   -1.6540   -2.2530 H   0  0  0  0  0  0  0  0  0  0  0  0
   -1.5583   -0.4194   -3.1608 H   0  0  0  0  0  0  0  0  0  0  0  0
   -1.2724   -3.4445   -3.5461 H   0  0  0  0  0  0  0  0  0  0  0  0
   -0.3693   -2.2218   -4.4414 H   0  0  0  0  0  0  0  0  0  0  0  0
   -3.4313   -2.5549   -4.4682 H   0  0  0  0  0  0  0  0  0  0  0  0
   -2.5285   -1.2928   -5.3584 H   0  0  0  0  0  0  0  0  0  0  0  0
   -2.7989   -2.9676   -6.8656 H   0  0  0  0  0  0  0  0  0  0  0  0
   -2.5316   -4.1918   -5.7784 H   0  0  0  0  0  0  0  0  0  0  0  0
   -1.2630   -3.2662   -6.3138 H   0  0  0  0  0  0  0  0  0  0  0  0
   -0.0166   -1.3543    1.6922 N   0  0  0  0  0  0  0  0  0  0  0  0
    0.7483   -1.6928    2.8686 C   0  0  2  0  0  0  0  0  0  0  0  0
   -0.1750   -2.4209    3.8365 C   0  0  0  0  0  0  0  0  0  0  0  0
   -1.3990   -2.3109    3.8071 O   0  0  0  0  0  0  0  0  0  0  0  0
    1.3458   -0.4531    3.5158 C   0  0  0  0  0  0  0  0  0  0  0  0
   -1.0285   -1.4355    1.7245 H   0  0  0  0  0  0  0  0  0  0  0  0
    1.5452   -2.3705    2.5435 H   0  0  0  0  0  0  0  0  0  0  0  0
    0.5624    0.2378    3.8480 H   0  0  0  0  0  0  0  0  0  0  0  0
    1.9491   -0.7143    4.3914 H   0  0  0  0  0  0  0  0  0  0  0  0
    1.9860    0.0855    2.8088 H   0  0  0  0  0  0  0  0  0  0  0  0
    0.5307   -3.1740    4.7644 N   0  0  0  0  0  0  0  0  0  0  0  0
   -0.1189   -3.9470    5.7972 C   0  0  0  0  0  0  0  0  0  0  0  0
    1.5434   -3.2223    4.7024 H   0  0  0  0  0  0  0  0  0  0  0  0
   -0.2057   -3.3400    6.7104 H   0  0  0  0  0  0  0  0  0  0  0  0
   -1.1222   -4.2431    5.4571 H   0  0  0  0  0  0  0  0  0  0  0  0
    0.4765   -4.8470    6.0105 H   0  0  0  0  0  0  0  0  0  0  0  0
  1  3  1  0  0  0  0
  1  7  1  0  0  0  0
  1  2  2  0  0  0  0
 40 41  1  0  0  0  0
 41 49  1  0  0  0  0
 41 42  2  0  0  0  0
  8  9  1  0  0  0  0
  9 17  1  0  0  0  0
  9 10  2  0  0  0  0
 18 19  1  0  0  0  0
 19 39  1  0  0  0  0
 19 20  2  0  0  0  0
 40 43  1  0  0  0  0
  8 11  1  0  0  0  0
 49 50  1  0  0  0  0
 22 23  1  0  0  0  0
 21 22  1  0  0  0  0
 23 24  1  0  0  0  0
 18 21  1  0  0  0  0
 24 25  1  0  0  0  0
 39 40  1  0  0  0  0
  7  8  1  0  0  0  0
 17 18  1  0  0  0  0
  3  4  1  0  0  0  0
  3  5  1  0  0  0  0
  3  6  1  0  0  0  0
 43 46  1  0  0  0  0
 43 47  1  0  0  0  0
 43 48  1  0  0  0  0
 11 14  1  0  0  0  0
 11 15  1  0  0  0  0
 11 16  1  0  0  0  0
 50 52  1  0  0  0  0
 50 53  1  0  0  0  0
 50 54  1  0  0  0  0
 22 30  1  0  0  0  0
 22 31  1  0  0  0  0
 23 32  1  0  0  0  0
 23 33  1  0  0  0  0
 21 28  1  0  0  0  0
 21 29  1  0  0  0  0
 24 34  1  0  0  0  0
 24 35  1  0  0  0  0
 40 45  1  0  0  0  0
  8 13  1  0  0  0  0
 18 27  1  0  0  0  0
 49 51  1  0  0  0  0
  7 12  1  0  0  0  0
 39 44  1  0  0  0  0
 17 26  1  0  0  0  0
 25 36  1  0  0  0  0
 25 37  1  0  0  0  0
 25 38  1  0  0  0  0
M  CHG  1  25   1
M  END
$$$$

  -OEChem-05262214473D

 54 53  0     1  0  0  0  0  0999 V2000
    2.6714    2.8829   -3.0005 C   0  0  0  0  0  0  0  0  0  0  0  0
    3.1741    2.4398   -1.9745 O   0  0  0  0  0  0  0  0  0  0  0  0
    3.5527    3.3077   -4.1279 C   0  0  0  0  0  0  0  0  0  0  0  0
    3.8407    4.3691   -4.0597 H   0  0  0  0  0  0  0  0  0  0  0  0
    4.5024    2.7495   -4.1526 H   0  0  0  0  0  0  0  0  0  0  0  0
    3.1208    3.1887   -5.1345 H   0  0  0  0  0  0  0  0  0  0  0  0
    1.3174    3.0407   -3.2467 N   0  0  0  0  0  0  0  0  0  0  0  0
    0.2944    2.6927   -2.2960 C   0  0  2  0  0  0  0  0  0  0  0  0
    0.2976    1.1783   -2.1349 C   0  0  0  0  0  0  0  0  0  0  0  0
    0.7500    0.4142   -2.9850 O   0  0  0  0  0  0  0  0  0  0  0  0
   -1.0710    3.1886   -2.7460 C   0  0  0  0  0  0  0  0  0  0  0  0
    1.0312    3.4224   -4.1464 H   0  0  0  0  0  0  0  0  0  0  0  0
    0.5725    3.1622   -1.3461 H   0  0  0  0  0  0  0  0  0  0  0  0
   -1.3666    2.7292   -3.6963 H   0  0  0  0  0  0  0  0  0  0  0  0
   -1.8434    2.9482   -2.0082 H   0  0  0  0  0  0  0  0  0  0  0  0
   -1.0632    4.2744   -2.8901 H   0  0  0  0  0  0  0  0  0  0  0  0
   -0.3037    0.7742   -0.9484 N   0  0  0  0  0  0  0  0  0  0  0  0
   -0.4352   -0.6095   -0.5718 C   0  0  2  0  0  0  0  0  0  0  0  0
    0.5842   -0.9218    0.5188 C   0  0  0  0  0  0  0  0  0  0  0  0
    1.7496   -0.5324    0.4782 O   0  0  0  0  0  0  0  0  0  0  0  0
   -0.3206   -1.5459   -1.7805 C   0  0  0  0  0  0  0  0  0  0  0  0
   -1.4906   -1.4404   -2.7674 C   0  0  0  0  0  0  0  0  0  0  0  0
   -1.3209   -2.4186   -3.9322 C   0  0  0  0  0  0  0  0  0  0  0  0
   -2.4703   -2.2940   -4.9214 C   0  0  0  0  0  0  0  0  0  0  0  0
   -2.2519   -3.2404   -6.0417 N   0  3  0  0  0  0  0  0  0  0  0  0
   -0.6336    1.4811   -0.2948 H   0  0  0  0  0  0  0  0  0  0  0  0
   -1.4372   -0.7080   -0.1369 H   0  0  0  0  0  0  0  0  0  0  0  0
    0.6128   -1.3228   -2.3133 H   0  0  0  0  0  0  0  0  0  0  0  0
   -0.2436   -2.5833   -1.4321 H   0  0  0  0  0  0  0  0  0  0  0  0
   -2.4348   -1.6540   -2.2530 H   0  0  0  0  0  0  0  0  0  0  0  0
   -1.5583   -0.4194   -3.1608 H   0  0  0  0  0  0  0  0  0  0  0  0
   -1.2724   -3.4445   -3.5461 H   0  0  0  0  0  0  0  0  0  0  0  0
   -0.3693   -2.2218   -4.4414 H   0  0  0  0  0  0  0  0  0  0  0  0
   -3.4313   -2.5549   -4.4682 H   0  0  0  0  0  0  0  0  0  0  0  0
   -2.5285   -1.2928   -5.3584 H   0  0  0  0  0  0  0  0  0  0  0  0
   -2.7989   -2.9676   -6.8656 H   0  0  0  0  0  0  0  0  0  0  0  0
   -2.5316   -4.1918   -5.7784 H   0  0  0  0  0  0  0  0  0  0  0  0
   -1.2630   -3.2662   -6.3138 H   0  0  0  0  0  0  0  0  0  0  0  0
    0.0337   -1.6574    1.5583 N   0  0  0  0  0  0  0  0  0  0  0  0
    0.8053   -2.0563    2.7113 C   0  0  2  0  0  0  0  0  0  0  0  0
    0.0019   -3.0994    3.4768 C   0  0  0  0  0  0  0  0  0  0  0  0
   -1.2188   -3.2086    3.3816 O   0  0  0  0  0  0  0  0  0  0  0  0
    1.1325   -0.8644    3.5974 C   0  0  0  0  0  0  0  0  0  0  0  0
   -0.9449   -1.9243    1.5064 H   0  0  0  0  0  0  0  0  0  0  0  0
    1.7277   -2.5102    2.3330 H   0  0  0  0  0  0  0  0  0  0  0  0
    0.2205   -0.3965    3.9859 H   0  0  0  0  0  0  0  0  0  0  0  0
    1.7419   -1.1641    4.4564 H   0  0  0  0  0  0  0  0  0  0  0  0
    1.6844   -0.1021    3.0370 H   0  0  0  0  0  0  0  0  0  0  0  0
    0.8032   -3.8658    4.3116 N   0  0  0  0  0  0  0  0  0  0  0  0
    0.2746   -4.9145    5.1523 C   0  0  0  0  0  0  0  0  0  0  0  0
    1.8082   -3.7188    4.3126 H   0  0  0  0  0  0  0  0  0  0  0  0
    0.0407   -4.5055    6.1463 H   0  0  0  0  0  0  0  0  0  0  0  0
   -0.6411   -5.3215    4.6986 H   0  0  0  0  0  0  0  0  0  0  0  0
    1.0217   -5.7157    5.2522 H   0  0  0  0  0  0  0  0  0  0  0  0
  1  3  1  0  0  0  0
  1  7  1  0  0  0  0
  1  2  2  0  0  0  0
 40 41  1  0  0  0  0
 41 49  1  0  0  0  0
 41 42  2  0  0  0  0
  8  9  1  0  0  0  0
  9 17  1  0  0  0  0
  9 10  2  0  0  0  0
 18 19  1  0  0  0  0
 19 39  1  0  0  0  0
 19 20  2  0  0  0  0
 40 43  1  0  0  0  0
  8 11  1  0  0  0  0
 49 50  1  0  0  0  0
 22 23  1  0  0  0  0
 21 22  1  0  0  0  0
 23 24  1  0  0  0  0
 18 21  1  0  0  0  0
 24 25  1  0  0  0  0
 39 40  1  0  0  0  0
  7  8  1  0  0  0  0
 17 18  1  0  0  0  0
  3  4  1  0  0  0  0
  3  5  1  0  0  0  0
  3  6  1  0  0  0  0
 43 46  1  0  0  0  0
 43 47  1  0  0  0  0
 43 48  1  0  0  0  0
 11 14  1  0  0  0  0
 11 15  1  0  0  0  0
 11 16  1  0  0  0  0
 50 52  1  0  0  0  0
 50 53  1  0  0  0  0
 50 54  1  0  0  0  0
 22 30  1  0  0  0  0
 22 31  1  0  0  0  0
 23 32  1  0  0  0  0
 23 33  1  0  0  0  0
 21 28  1  0  0  0  0
 21 29  1  0  0  0  0
 24 34  1  0  0  0  0
 24 35  1  0  0  0  0
 40 45  1  0  0  0  0
  8 13  1  0  0  0  0
 18 27  1  0  0  0  0
 49 51  1  0  0  0  0
  7 12  1  0  0  0  0
 39 44  1  0  0  0  0
 17 26  1  0  0  0  0
 25 36  1  0  0  0  0
 25 37  1  0  0  0  0
 25 38  1  0  0  0  0
M  CHG  1  25   1
M  END
$$$$

  -OEChem-05262214473D

 54 53  0     1  0  0  0  0  0999 V2000
    2.6714    2.8829   -3.0005 C   0  0  0  0  0  0  0  0  0  0  0  0
    3.1741    2.4398   -1.9745 O   0  0  0  0  0  0  0  0  0  0  0  0
    3.5527    3.3077   -4.1279 C   0  0  0  0  0  0  0  0  0  0  0  0
    3.8407    4.3691   -4.0597 H   0  0  0  0  0  0  0  0  0  0  0  0
    4.5024    2.7495   -4.1526 H   0  0  0  0  0  0  0  0  0  0  0  0
    3.1208    3.1887   -5.1345 H   0  0  0  0  0  0  0  0  0  0  0  0
    1.3174    3.0407   -3.2467 N   0  0  0  0  0  0  0  0  0  0  0  0
    0.2944    2.6927   -2.2960 C   0  0  2  0  0  0  0  0  0  0  0  0
    0.2976    1.1783   -2.1349 C   0  0  0  0  0  0  0  0  0  0  0  0
    0.7500    0.4142   -2.9850 O   0  0  0  0  0  0  0  0  0  0  0  0
   -1.0710    3.1886   -2.7460 C   0  0  0  0  0  0  0  0  0  0  0  0
    1.0312    3.4224   -4.1464 H   0  0  0  0  0  0  0  0  0  0  0  0
    0.5725    3.1622   -1.3461 H   0  0  0  0  0  0  0  0  0  0  0  0
   -1.3666    2.7292   -3.6963 H   0  0  0  0  0  0  0  0  0  0  0  0
   -1.8434    2.9482   -2.0082 H   0  0  0  0  0  0  0  0  0  0  0  0
   -1.0632    4.2744   -2.8901 H   0  0  0  0  0  0  0  0  0  0  0  0
   -0.3037    0.7742   -0.9484 N   0  0  0  0  0  0  0  0  0  0  0  0
   -0.4352   -0.6095   -0.5718 C   0  0  2  0  0  0  0  0  0  0  0  0
    0.5842   -0.9218    0.5188 C   0  0  0  0  0  0  0  0  0  0  0  0
    1.6553   -0.3276    0.6251 O   0  0  0  0  0  0  0  0  0  0  0  0
   -0.3206   -1.5459   -1.7805 C   0  0  0  0  0  0  0  0  0  0  0  0
   -1.4906   -1.4404   -2.7674 C   0  0  0  0  0  0  0  0  0  0  0  0
   -1.3209   -2.4186   -3.9322 C   0  0  0  0  0  0  0  0  0  0  0  0
   -2.4703   -2.2940   -4.9214 C   0  0  0  0  0  0  0  0  0  0  0  0
   -2.2519   -3.2404   -6.0417 N   0  3  0  0  0  0  0  0  0  0  0  0
   -0.6336    1.4811   -0.2948 H   0  0  0  0  0  0  0  0  0  0  0  0
   -1.4372   -0.7080   -0.1369 H   0  0  0  0  0  0  0  0  0  0  0  0
    0.6128   -1.3228   -2.3133 H   0  0  0  0  0  0  0  0  0  0  0  0
   -0.2436   -2.5833   -1.4321 H   0  0  0  0  0  0  0  0  0  0  0  0
   -2.4348   -1.6540   -2.2530 H   0  0  0  0  0  0  0  0  0  0  0  0
   -1.5583   -0.4194   -3.1608 H   0  0  0  0  0  0  0  0  0  0  0  0
   -1.2724   -3.4445   -3.5461 H   0  0  0  0  0  0  0  0  0  0  0  0
   -0.3693   -2.2218   -4.4414 H   0  0  0  0  0  0  0  0  0  0  0  0
   -3.4313   -2.5549   -4.4682 H   0  0  0  0  0  0  0  0  0  0  0  0
   -2.5285   -1.2928   -5.3584 H   0  0  0  0  0  0  0  0  0  0  0  0
   -2.7989   -2.9676   -6.8656 H   0  0  0  0  0  0  0  0  0  0  0  0
   -2.5316   -4.1918   -5.7784 H   0  0  0  0  0  0  0  0  0  0  0  0
   -1.2630   -3.2662   -6.3138 H   0  0  0  0  0  0  0  0  0  0  0  0
    0.1455   -1.9178    1.3793 N   0  0  0  0  0  0  0  0  0  0  0  0
    0.9358   -2.3696    2.4995 C   0  0  2  0  0  0  0  0  0  0  0  0
    0.3175   -3.6599    3.0214 C   0  0  0  0  0  0  0  0  0  0  0  0
   -0.8560   -3.9688    2.8248 O   0  0  0  0  0  0  0  0  0  0  0  0
    0.9982   -1.3153    3.5937 C   0  0  0  0  0  0  0  0  0  0  0  0
   -0.7621   -2.3432    1.2156 H   0  0  0  0  0  0  0  0  0  0  0  0
    1.9409   -2.5750    2.1151 H   0  0  0  0  0  0  0  0  0  0  0  0
    0.0005   -1.0963    3.9912 H   0  0  0  0  0  0  0  0  0  0  0  0
    1.6215   -1.6482    4.4303 H   0  0  0  0  0  0  0  0  0  0  0  0
    1.4157   -0.3786    3.2090 H   0  0  0  0  0  0  0  0  0  0  0  0
    1.2184   -4.4052    3.7690 N   0  0  0  0  0  0  0  0  0  0  0  0
    0.8679   -5.6647    4.3829 C   0  0  0  0  0  0  0  0  0  0  0  0
    2.1766   -4.0819    3.8644 H   0  0  0  0  0  0  0  0  0  0  0  0
    0.5243   -5.4882    5.4128 H   0  0  0  0  0  0  0  0  0  0  0  0
    0.0633   -6.1429    3.8049 H   0  0  0  0  0  0  0  0  0  0  0  0
    1.7492   -6.3228    4.3982 H   0  0  0  0  0  0  0  0  0  0  0  0
  1  3  1  0  0  0  0
  1  7  1  0  0  0  0
  1  2  2  0  0  0  0
 40 41  1  0  0  0  0
 41 49  1  0  0  0  0
 41 42  2  0  0  0  0
  8  9  1  0  0  0  0
  9 17  1  0  0  0  0
  9 10  2  0  0  0  0
 18 19  1  0  0  0  0
 19 39  1  0  0  0  0
 19 20  2  0  0  0  0
 40 43  1  0  0  0  0
  8 11  1  0  0  0  0
 49 50  1  0  0  0  0
 22 23  1  0  0  0  0
 21 22  1  0  0  0  0
 23 24  1  0  0  0  0
 18 21  1  0  0  0  0
 24 25  1  0  0  0  0
 39 40  1  0  0  0  0
  7  8  1  0  0  0  0
 17 18  1  0  0  0  0
  3  4  1  0  0  0  0
  3  5  1  0  0  0  0
  3  6  1  0  0  0  0
 43 46  1  0  0  0  0
 43 47  1  0  0  0  0
 43 48  1  0  0  0  0
 11 14  1  0  0  0  0
 11 15  1  0  0  0  0
 11 16  1  0  0  0  0
 50 52  1  0  0  0  0
 50 53  1  0  0  0  0
 50 54  1  0  0  0  0
 22 30  1  0  0  0  0
 22 31  1  0  0  0  0
 23 32  1  0  0  0  0
 23 33  1  0  0  0  0
 21 28  1  0  0  0  0
 21 29  1  0  0  0  0
 24 34  1  0  0  0  0
 24 35  1  0  0  0  0
 40 45  1  0  0  0  0
  8 13  1  0  0  0  0
 18 27  1  0  0  0  0
 49 51  1  0  0  0  0
  7 12  1  0  0  0  0
 39 44  1  0  0  0  0
 17 26  1  0  0  0  0
 25 36  1  0  0  0  0
 25 37  1  0  0  0  0
 25 38  1  0  0  0  0
M  CHG  1  25   1
M  END
$$$$

  -OEChem-05262214473D

 54 53  0     1  0  0  0  0  0999 V2000
    2.6714    2.8829   -3.0005 C   0  0  0  0  0  0  0  0  0  0  0  0
    3.1741    2.4398   -1.9745 O   0  0  0  0  0  0  0  0  0  0  0  0
    3.5527    3.3077   -4.1279 C   0  0  0  0  0  0  0  0  0  0  0  0
    3.8407    4.3691   -4.0597 H   0  0  0  0  0  0  0  0  0  0  0  0
    4.5024    2.7495   -4.1526 H   0  0  0  0  0  0  0  0  0  0  0  0
    3.1208    3.1887   -5.1345 H   0  0  0  0  0  0  0  0  0  0  0  0
    1.3174    3.0407   -3.2467 N   0  0  0  0  0  0  0  0  0  0  0  0
    0.2944    2.6927   -2.2960 C   0  0  2  0  0  0  0  0  0  0  0  0
    0.2976    1.1783   -2.1349 C   0  0  0  0  0  0  0  0  0  0  0  0
    0.7500    0.4142   -2.9850 O   0  0  0  0  0  0  0  0  0  0  0  0
   -1.0710    3.1886   -2.7460 C   0  0  0  0  0  0  0  0  0  0  0  0
    1.0312    3.4224   -4.1464 H   0  0  0  0  0  0  0  0  0  0  0  0
    0.5725    3.1622   -1.3461 H   0  0  0  0  0  0  0  0  0  0  0  0
   -1.3666    2.7292   -3.6963 H   0  0  0  0  0  0  0  0  0  0  0  0
   -1.8434    2.9482   -2.0082 H   0  0  0  0  0  0  0  0  0  0  0  0
   -1.0632    4.2744   -2.8901 H   0  0  0  0  0  0  0  0  0  0  0  0
   -0.3037    0.7742   -0.9484 N   0  0  0  0  0  0  0  0  0  0  0  0
   -0.4352   -0.6095   -0.5718 C   0  0  2  0  0  0  0  0  0  0  0  0
    0.5842   -0.9218    0.5188 C   0  0  0  0  0  0  0  0  0  0  0  0
    1.5184   -0.1727    0.7973 O   0  0  0  0  0  0  0  0  0  0  0  0
   -0.3206   -1.5459   -1.7805 C   0  0  0  0  0  0  0  0  0  0  0  0
   -1.4906   -1.4404   -2.7674 C   0  0  0  0  0  0  0  0  0  0  0  0
   -1.3209   -2.4186   -3.9322 C   0  0  0  0  0  0  0  0  0  0  0  0
   -2.4703   -2.2940   -4.9214 C   0  0  0  0  0  0  0  0  0  0  0  0
   -2.2519   -3.2404   -6.0417 N   0  3  0  0  0  0  0  0  0  0  0  0
   -0.6336    1.4811   -0.2948 H   0  0  0  0  0  0  0  0  0  0  0  0
   -1.4372   -0.7080   -0.1369 H   0  0  0  0  0  0  0  0  0  0  0  0
    0.6128   -1.3228   -2.3133 H   0  0  0  0  0  0  0  0  0  0  0  0
   -0.2436   -2.5833   -1.4321 H   0  0  0  0  0  0  0  0  0  0  0  0
   -2.4348   -1.6540   -2.2530 H   0  0  0  0  0  0  0  0  0  0  0  0
   -1.5583   -0.4194   -3.1608 H   0  0  0  0  0  0  0  0  0  0  0  0
   -1.2724   -3.4445   -3.5461 H   0  0  0  0  0  0  0  0  0  0  0  0
   -0.3693   -2.2218   -4.4414 H   0  0  0  0  0  0  0  0  0  0  0  0
   -3.4313   -2.5549   -4.4682 H   0  0  0  0  0  0  0  0  0  0  0  0
   -2.5285   -1.2928   -5.3584 H   0  0  0  0  0  0  0  0  0  0  0  0
   -2.7989   -2.9676   -6.8656 H   0  0  0  0  0  0  0  0  0  0  0  0
   -2.5316   -4.1918   -5.7784 H   0  0  0  0  0  0  0  0  0  0  0  0
   -1.2630   -3.2662   -6.3138 H   0  0  0  0  0  0  0  0  0  0  0  0
    0.3112   -2.1176    1.1672 N   0  0  0  0  0  0  0  0  0  0  0  0
    1.1312   -2.6114    2.2477 C   0  0  2  0  0  0  0  0  0  0  0  0
    0.7502   -4.0640    2.5012 C   0  0  0  0  0  0  0  0  0  0  0  0
   -0.3353   -4.5396    2.1747 O   0  0  0  0  0  0  0  0  0  0  0  0
    0.9522   -1.7751    3.5051 C   0  0  0  0  0  0  0  0  0  0  0  0
   -0.4926   -2.6637    0.8719 H   0  0  0  0  0  0  0  0  0  0  0  0
    2.1704   -2.5604    1.9048 H   0  0  0  0  0  0  0  0  0  0  0  0
   -0.0829   -1.8140    3.8636 H   0  0  0  0  0  0  0  0  0  0  0  0
    1.5961   -2.1335    4.3150 H   0  0  0  0  0  0  0  0  0  0  0  0
    1.1982   -0.7251    3.3131 H   0  0  0  0  0  0  0  0  0  0  0  0
    1.7480   -4.7556    3.1736 N   0  0  0  0  0  0  0  0  0  0  0  0
    1.6206   -6.1465    3.5414 C   0  0  0  0  0  0  0  0  0  0  0  0
    2.6233   -4.2869    3.3880 H   0  0  0  0  0  0  0  0  0  0  0  0
    1.2122   -6.2210    4.5600 H   0  0  0  0  0  0  0  0  0  0  0  0
    0.9431   -6.6513    2.8370 H   0  0  0  0  0  0  0  0  0  0  0  0
    2.6096   -6.6268    3.5070 H   0  0  0  0  0  0  0  0  0  0  0  0
  1  3  1  0  0  0  0
  1  7  1  0  0  0  0
  1  2  2  0  0  0  0
 40 41  1  0  0  0  0
 41 49  1  0  0  0  0
 41 42  2  0  0  0  0
  8  9  1  0  0  0  0
  9 17  1  0  0  0  0
  9 10  2  0  0  0  0
 18 19  1  0  0  0  0
 19 39  1  0  0  0  0
 19 20  2  0  0  0  0
 40 43  1  0  0  0  0
  8 11  1  0  0  0  0
 49 50  1  0  0  0  0
 22 23  1  0  0  0  0
 21 22  1  0  0  0  0
 23 24  1  0  0  0  0
 18 21  1  0  0  0  0
 24 25  1  0  0  0  0
 39 40  1  0  0  0  0
  7  8  1  0  0  0  0
 17 18  1  0  0  0  0
  3  4  1  0  0  0  0
  3  5  1  0  0  0  0
  3  6  1  0  0  0  0
 43 46  1  0  0  0  0
 43 47  1  0  0  0  0
 43 48  1  0  0  0  0
 11 14  1  0  0  0  0
 11 15  1  0  0  0  0
 11 16  1  0  0  0  0
 50 52  1  0  0  0  0
 50 53  1  0  0  0  0
 50 54  1  0  0  0  0
 22 30  1  0  0  0  0
 22 31  1  0  0  0  0
 23 32  1  0  0  0  0
 23 33  1  0  0  0  0
 21 28  1  0  0  0  0
 21 29  1  0  0  0  0
 24 34  1  0  0  0  0
 24 35  1  0  0  0  0
 40 45  1  0  0  0  0
  8 13  1  0  0  0  0
 18 27  1  0  0  0  0
 49 51  1  0  0  0  0
  7 12  1  0  0  0  0
 39 44  1  0  0  0  0
 17 26  1  0  0  0  0
 25 36  1  0  0  0  0
 25 37  1  0  0  0  0
 25 38  1  0  0  0  0
M  CHG  1  25   1
M  END
$$$$

  -OEChem-05262214473D

 54 53  0     1  0  0  0  0  0999 V2000
    2.6714    2.8829   -3.0005 C   0  0  0  0  0  0  0  0  0  0  0  0
    3.1741    2.4398   -1.9745 O   0  0  0  0  0  0  0  0  0  0  0  0
    3.5527    3.3077   -4.1279 C   0  0  0  0  0  0  0  0  0  0  0  0
    3.8407    4.3691   -4.0597 H   0  0  0  0  0  0  0  0  0  0  0  0
    4.5024    2.7495   -4.1526 H   0  0  0  0  0  0  0  0  0  0  0  0
    3.1208    3.1887   -5.1345 H   0  0  0  0  0  0  0  0  0  0  0  0
    1.3174    3.0407   -3.2467 N   0  0  0  0  0  0  0  0  0  0  0  0
    0.2944    2.6927   -2.2960 C   0  0  2  0  0  0  0  0  0  0  0  0
    0.2976    1.1783   -2.1349 C   0  0  0  0  0  0  0  0  0  0  0  0
    0.7500    0.4142   -2.9850 O   0  0  0  0  0  0  0  0  0  0  0  0
   -1.0710    3.1886   -2.7460 C   0  0  0  0  0  0  0  0  0  0  0  0
    1.0312    3.4224   -4.1464 H   0  0  0  0  0  0  0  0  0  0  0  0
    0.5725    3.1622   -1.3461 H   0  0  0  0  0  0  0  0  0  0  0  0
   -1.3666    2.7292   -3.6963 H   0  0  0  0  0  0  0  0  0  0  0  0
   -1.8434    2.9482   -2.0082 H   0  0  0  0  0  0  0  0  0  0  0  0
   -1.0632    4.2744   -2.8901 H   0  0  0  0  0  0  0  0  0  0  0  0
   -0.3037    0.7742   -0.9484 N   0  0  0  0  0  0  0  0  0  0  0  0
   -0.4352   -0.6095   -0.5718 C   0  0  2  0  0  0  0  0  0  0  0  0
    0.2978   -0.8325    0.7469 C   0  0  0  0  0  0  0  0  0  0  0  0
    0.8658    0.0699    1.3589 O   0  0  0  0  0  0  0  0  0  0  0  0
    0.0377   -1.5536   -1.6835 C   0  0  0  0  0  0  0  0  0  0  0  0
   -0.8534   -1.5459   -2.9326 C   0  0  0  0  0  0  0  0  0  0  0  0
   -0.3356   -2.5272   -3.9868 C   0  0  0  0  0  0  0  0  0  0  0  0
   -1.2073   -2.4990   -5.2335 C   0  0  0  0  0  0  0  0  0  0  0  0
   -0.6556   -3.4444   -6.2336 N   0  3  0  0  0  0  0  0  0  0  0  0
   -0.6336    1.4811   -0.2948 H   0  0  0  0  0  0  0  0  0  0  0  0
   -1.5055   -0.7719   -0.3959 H   0  0  0  0  0  0  0  0  0  0  0  0
    1.0581   -1.2731   -1.9753 H   0  0  0  0  0  0  0  0  0  0  0  0
    0.0922   -2.5776   -1.2937 H   0  0  0  0  0  0  0  0  0  0  0  0
   -1.8802   -1.8179   -2.6617 H   0  0  0  0  0  0  0  0  0  0  0  0
   -0.8867   -0.5383   -3.3631 H   0  0  0  0  0  0  0  0  0  0  0  0
   -0.3187   -3.5411   -3.5679 H   0  0  0  0  0  0  0  0  0  0  0  0
    0.6982   -2.2713   -4.2503 H   0  0  0  0  0  0  0  0  0  0  0  0
   -2.2321   -2.8203   -5.0246 H   0  0  0  0  0  0  0  0  0  0  0  0
   -1.2193   -1.5111   -5.7033 H   0  0  0  0  0  0  0  0  0  0  0  0
   -0.9961   -3.2234   -7.1757 H   0  0  0  0  0  0  0  0  0  0  0  0
   -0.9300   -4.4092   -6.0174 H   0  0  0  0  0  0  0  0  0  0  0  0
    0.3694   -3.4044   -6.2512 H   0  0  0  0  0  0  0  0  0  0  0  0
    0.2164   -2.1487    1.1780 N   0  0  0  0  0  0  0  0  0  0  0  0
    0.8213   -2.5932    2.4110 C   0  0  2  0  0  0  0  0  0  0  0  0
    0.8209   -4.1161    2.4128 C   0  0  0  0  0  0  0  0  0  0  0  0
    0.0480   -4.7875    1.7323 O   0  0  0  0  0  0  0  0  0  0  0  0
    0.0774   -2.0480    3.6202 C   0  0  0  0  0  0  0  0  0  0  0  0
   -0.2856   -2.8221    0.6069 H   0  0  0  0  0  0  0  0  0  0  0  0
    1.8539   -2.2276    2.4064 H   0  0  0  0  0  0  0  0  0  0  0  0
   -0.9592   -2.4034    3.6419 H   0  0  0  0  0  0  0  0  0  0  0  0
    0.5542   -2.3625    4.5544 H   0  0  0  0  0  0  0  0  0  0  0  0
    0.0530   -0.9530    3.6016 H   0  0  0  0  0  0  0  0  0  0  0  0
    1.7559   -4.6372    3.2962 N   0  0  0  0  0  0  0  0  0  0  0  0
    1.9401   -6.0567    3.4888 C   0  0  0  0  0  0  0  0  0  0  0  0
    2.3677   -4.0065    3.8057 H   0  0  0  0  0  0  0  0  0  0  0  0
    1.3118   -6.3984    4.3246 H   0  0  0  0  0  0  0  0  0  0  0  0
    1.6524   -6.5914    2.5715 H   0  0  0  0  0  0  0  0  0  0  0  0
    2.9965   -6.2617    3.7167 H   0  0  0  0  0  0  0  0  0  0  0  0
  1  3  1  0  0  0  0
  1  7  1  0  0  0  0
  1  2  2  0  0  0  0
 40 41  1  0  0  0  0
 41 49  1  0  0  0  0
 41 42  2  0  0  0  0
  8  9  1  0  0  0  0
  9 17  1  0  0  0  0
  9 10  2  0  0  0  0
 18 19  1  0  0  0  0
 19 39  1  0  0  0  0
 19 20  2  0  0  0  0
 40 43  1  0  0  0  0
  8 11  1  0  0  0  0
 49 50  1  0  0  0  0
 22 23  1  0  0  0  0
 21 22  1  0  0  0  0
 23 24  1  0  0  0  0
 18 21  1  0  0  0  0
 24 25  1  0  0  0  0
 39 40  1  0  0  0  0
  7  8  1  0  0  0  0
 17 18  1  0  0  0  0
  3  4  1  0  0  0  0
  3  5  1  0  0  0  0
  3  6  1  0  0  0  0
 43 46  1  0  0  0  0
 43 47  1  0  0  0  0
 43 48  1  0  0  0  0
 11 14  1  0  0  0  0
 11 15  1  0  0  0  0
 11 16  1  0  0  0  0
 50 52  1  0  0  0  0
 50 53  1  0  0  0  0
 50 54  1  0  0  0  0
 22 30  1  0  0  0  0
 22 31  1  0  0  0  0
 23 32  1  0  0  0  0
 23 33  1  0  0  0  0
 21 28  1  0  0  0  0
 21 29  1  0  0  0  0
 24 34  1  0  0  0  0
 24 35  1  0  0  0  0
 40 45  1  0  0  0  0
  8 13  1  0  0  0  0
 18 27  1  0  0  0  0
 49 51  1  0  0  0  0
  7 12  1  0  0  0  0
 39 44  1  0  0  0  0
 17 26  1  0  0  0  0
 25 36  1  0  0  0  0
 25 37  1  0  0  0  0
 25 38  1  0  0  0  0
M  CHG  1  25   1
M  END
$$$$

  -OEChem-05262214473D

 54 53  0     1  0  0  0  0  0999 V2000
    2.6714    2.8829   -3.0005 C   0  0  0  0  0  0  0  0  0  0  0  0
    3.1741    2.4398   -1.9745 O   0  0  0  0  0  0  0  0  0  0  0  0
    3.5527    3.3077   -4.1279 C   0  0  0  0  0  0  0  0  0  0  0  0
    3.8407    4.3691   -4.0597 H   0  0  0  0  0  0  0  0  0  0  0  0
    4.5024    2.7495   -4.1526 H   0  0  0  0  0  0  0  0  0  0  0  0
    3.1208    3.1887   -5.1345 H   0  0  0  0  0  0  0  0  0  0  0  0
    1.3174    3.0407   -3.2467 N   0  0  0  0  0  0  0  0  0  0  0  0
    0.2944    2.6927   -2.2960 C   0  0  2  0  0  0  0  0  0  0  0  0
    0.2976    1.1783   -2.1349 C   0  0  0  0  0  0  0  0  0  0  0  0
    0.7500    0.4142   -2.9850 O   0  0  0  0  0  0  0  0  0  0  0  0
   -1.0710    3.1886   -2.7460 C   0  0  0  0  0  0  0  0  0  0  0  0
    1.0312    3.4224   -4.1464 H   0  0  0  0  0  0  0  0  0  0  0  0
    0.5725    3.1622   -1.3461 H   0  0  0  0  0  0  0  0  0  0  0  0
   -1.3666    2.7292   -3.6963 H   0  0  0  0  0  0  0  0  0  0  0  0
   -1.8434    2.9482   -2.0082 H   0  0  0  0  0  0  0  0  0  0  0  0
   -1.0632    4.2744   -2.8901 H   0  0  0  0  0  0  0  0  0  0  0  0
   -0.3037    0.7742   -0.9484 N   0  0  0  0  0  0  0  0  0  0  0  0
   -0.4352   -0.6095   -0.5718 C   0  0  2  0  0  0  0  0  0  0  0  0
    0.2978   -0.8325    0.7469 C   0  0  0  0  0  0  0  0  0  0  0  0
    0.6323    0.0868    1.4916 O   0  0  0  0  0  0  0  0  0  0  0  0
    0.0377   -1.5536   -1.6835 C   0  0  0  0  0  0  0  0  0  0  0  0
   -0.8534   -1.5459   -2.9326 C   0  0  0  0  0  0  0  0  0  0  0  0
   -0.3356   -2.5272   -3.9868 C   0  0  0  0  0  0  0  0  0  0  0  0
   -1.2073   -2.4990   -5.2335 C   0  0  0  0  0  0  0  0  0  0  0  0
   -0.6556   -3.4444   -6.2336 N   0  3  0  0  0  0  0  0  0  0  0  0
   -0.6336    1.4811   -0.2948 H   0  0  0  0  0  0  0  0  0  0  0  0
   -1.5055   -0.7719   -0.3959 H   0  0  0  0  0  0  0  0  0  0  0  0
    1.0581   -1.2731   -1.9753 H   0  0  0  0  0  0  0  0  0  0  0  0
    0.0922   -2.5776   -1.2937 H   0  0  0  0  0  0  0  0  0  0  0  0
   -1.8802   -1.8179   -2.6617 H   0  0  0  0  0  0  0  0  0  0  0  0
   -0.8867   -0.5383   -3.3631 H   0  0  0  0  0  0  0  0  0  0  0  0
   -0.3187   -3.5411   -3.5679 H   0  0  0  0  0  0  0  0  0  0  0  0
    0.6982   -2.2713   -4.2503 H   0  0  0  0  0  0  0  0  0  0  0  0
   -2.2321   -2.8203   -5.0246 H   0  0  0  0  0  0  0  0  0  0  0  0
   -1.2193   -1.5111   -5.7033 H   0  0  0  0  0  0  0  0  0  0  0  0
   -0.9961   -3.2234   -7.1757 H   0  0  0  0  0  0  0  0  0  0  0  0
   -0.9300   -4.4092   -6.0174 H   0  0  0  0  0  0  0  0  0  0  0  0
    0.3694   -3.4044   -6.2512 H   0  0  0  0  0  0  0  0  0  0  0  0
    0.5061   -2.1783    1.0120 N   0  0  0  0  0  0  0  0  0  0  0  0
    1.1664   -2.6327    2.2125 C   0  0  2  0  0  0  0  0  0  0  0  0
    1.5104   -4.1053    2.0313 C   0  0  0  0  0  0  0  0  0  0  0  0
    0.9258   -4.8378    1.2359 O   0  0  0  0  0  0  0  0  0  0  0  0
    0.2901   -2.4260    3.4380 C   0  0  0  0  0  0  0  0  0  0  0  0
    0.1831   -2.8669    0.3388 H   0  0  0  0  0  0  0  0  0  0  0  0
    2.0894   -2.0502    2.3055 H   0  0  0  0  0  0  0  0  0  0  0  0
   -0.6395   -3.0020    3.3629 H   0  0  0  0  0  0  0  0  0  0  0  0
    0.8034   -2.7448    4.3512 H   0  0  0  0  0  0  0  0  0  0  0  0
    0.0191   -1.3707    3.5499 H   0  0  0  0  0  0  0  0  0  0  0  0
    2.5179   -4.5157    2.8932 N   0  0  0  0  0  0  0  0  0  0  0  0
    3.0137   -5.8718    2.9232 C   0  0  0  0  0  0  0  0  0  0  0  0
    2.9589   -3.8361    3.5059 H   0  0  0  0  0  0  0  0  0  0  0  0
    2.4594   -6.4488    3.6781 H   0  0  0  0  0  0  0  0  0  0  0  0
    2.8763   -6.3343    1.9347 H   0  0  0  0  0  0  0  0  0  0  0  0
    4.0834   -5.8654    3.1795 H   0  0  0  0  0  0  0  0  0  0  0  0
  1  3  1  0  0  0  0
  1  7  1  0  0  0  0
  1  2  2  0  0  0  0
 40 41  1  0  0  0  0
 41 49  1  0  0  0  0
 41 42  2  0  0  0  0
  8  9  1  0  0  0  0
  9 17  1  0  0  0  0
  9 10  2  0  0  0  0
 18 19  1  0  0  0  0
 19 39  1  0  0  0  0
 19 20  2  0  0  0  0
 40 43  1  0  0  0  0
  8 11  1  0  0  0  0
 49 50  1  0  0  0  0
 22 23  1  0  0  0  0
 21 22  1  0  0  0  0
 23 24  1  0  0  0  0
 18 21  1  0  0  0  0
 24 25  1  0  0  0  0
 39 40  1  0  0  0  0
  7  8  1  0  0  0  0
 17 18  1  0  0  0  0
  3  4  1  0  0  0  0
  3  5  1  0  0  0  0
  3  6  1  0  0  0  0
 43 46  1  0  0  0  0
 43 47  1  0  0  0  0
 43 48  1  0  0  0  0
 11 14  1  0  0  0  0
 11 15  1  0  0  0  0
 11 16  1  0  0  0  0
 50 52  1  0  0  0  0
 50 53  1  0  0  0  0
 50 54  1  0  0  0  0
 22 30  1  0  0  0  0
 22 31  1  0  0  0  0
 23 32  1  0  0  0  0
 23 33  1  0  0  0  0
 21 28  1  0  0  0  0
 21 29  1  0  0  0  0
 24 34  1  0  0  0  0
 24 35  1  0  0  0  0
 40 45  1  0  0  0  0
  8 13  1  0  0  0  0
 18 27  1  0  0  0  0
 49 51  1  0  0  0  0
  7 12  1  0  0  0  0
 39 44  1  0  0  0  0
 17 26  1  0  0  0  0
 25 36  1  0  0  0  0
 25 37  1  0  0  0  0
 25 38  1  0  0  0  0
M  CHG  1  25   1
M  END
$$$$

  -OEChem-05262214473D

 54 53  0     1  0  0  0  0  0999 V2000
    2.6714    2.8829   -3.0005 C   0  0  0  0  0  0  0  0  0  0  0  0
    3.1741    2.4398   -1.9745 O   0  0  0  0  0  0  0  0  0  0  0  0
    3.5527    3.3077   -4.1279 C   0  0  0  0  0  0  0  0  0  0  0  0
    3.8407    4.3691   -4.0597 H   0  0  0  0  0  0  0  0  0  0  0  0
    4.5024    2.7495   -4.1526 H   0  0  0  0  0  0  0  0  0  0  0  0
    3.1208    3.1887   -5.1345 H   0  0  0  0  0  0  0  0  0  0  0  0
    1.3174    3.0407   -3.2467 N   0  0  0  0  0  0  0  0  0  0  0  0
    0.2944    2.6927   -2.2960 C   0  0  2  0  0  0  0  0  0  0  0  0
    0.2976    1.1783   -2.1349 C   0  0  0  0  0  0  0  0  0  0  0  0
    0.7500    0.4142   -2.9850 O   0  0  0  0  0  0  0  0  0  0  0  0
   -1.0710    3.1886   -2.7460 C   0  0  0  0  0  0  0  0  0  0  0  0
    1.0312    3.4224   -4.1464 H   0  0  0  0  0  0  0  0  0  0  0  0
    0.5725    3.1622   -1.3461 H   0  0  0  0  0  0  0  0  0  0  0  0
   -1.3666    2.7292   -3.6963 H   0  0  0  0  0  0  0  0  0  0  0  0
   -1.8434    2.9482   -2.0082 H   0  0  0  0  0  0  0  0  0  0  0  0
   -1.0632    4.2744   -2.8901 H   0  0  0  0  0  0  0  0  0  0  0  0
   -0.3037    0.7742   -0.9484 N   0  0  0  0  0  0  0  0  0  0  0  0
   -0.4352   -0.6095   -0.5718 C   0  0  2  0  0  0  0  0  0  0  0  0
    0.2978   -0.8325    0.7469 C   0  0  0  0  0  0  0  0  0  0  0  0
    0.3980    0.0343    1.6130 O   0  0  0  0  0  0  0  0  0  0  0  0
    0.0377   -1.5536   -1.6835 C   0  0  0  0  0  0  0  0  0  0  0  0
   -0.8534   -1.5459   -2.9326 C   0  0  0  0  0  0  0  0  0  0  0  0
   -0.3356   -2.5272   -3.9868 C   0  0  0  0  0  0  0  0  0  0  0  0
   -1.2073   -2.4990   -5.2335 C   0  0  0  0  0  0  0  0  0  0  0  0
   -0.6556   -3.4444   -6.2336 N   0  3  0  0  0  0  0  0  0  0  0  0
   -0.6336    1.4811   -0.2948 H   0  0  0  0  0  0  0  0  0  0  0  0
   -1.5055   -0.7719   -0.3959 H   0  0  0  0  0  0  0  0  0  0  0  0
    1.0581   -1.2731   -1.9753 H   0  0  0  0  0  0  0  0  0  0  0  0
    0.0922   -2.5776   -1.2937 H   0  0  0  0  0  0  0  0  0  0  0  0
   -1.8802   -1.8179   -2.6617 H   0  0  0  0  0  0  0  0  0  0  0  0
   -0.8867   -0.5383   -3.3631 H   0  0  0  0  0  0  0  0  0  0  0  0
   -0.3187   -3.5411   -3.5679 H   0  0  0  0  0  0  0  0  0  0  0  0
    0.6982   -2.2713   -4.2503 H   0  0  0  0  0  0  0  0  0  0  0  0
   -2.2321   -2.8203   -5.0246 H   0  0  0  0  0  0  0  0  0  0  0  0
   -1.2193   -1.5111   -5.7033 H   0  0  0  0  0  0  0  0  0  0  0  0
   -0.9961   -3.2234   -7.1757 H   0  0  0  0  0  0  0  0  0  0  0  0
   -0.9300   -4.4092   -6.0174 H   0  0  0  0  0  0  0  0  0  0  0  0
    0.3694   -3.4044   -6.2512 H   0  0  0  0  0  0  0  0  0  0  0  0
    0.7987   -2.1215    0.8589 N   0  0  0  0  0  0  0  0  0  0  0  0
    1.5161   -2.5691    2.0288 C   0  0  2  0  0  0  0  0  0  0  0  0
    2.1885   -3.8930    1.6903 C   0  0  0  0  0  0  0  0  0  0  0  0
    1.8037   -4.6281    0.7833 O   0  0  0  0  0  0  0  0  0  0  0  0
    0.5870   -2.7210    3.2231 C   0  0  0  0  0  0  0  0  0  0  0  0
    0.6559   -2.7719    0.0920 H   0  0  0  0  0  0  0  0  0  0  0  0
    2.2810   -1.8136    2.2390 H   0  0  0  0  0  0  0  0  0  0  0  0
   -0.1862   -3.4738    3.0311 H   0  0  0  0  0  0  0  0  0  0  0  0
    1.1374   -3.0330    4.1168 H   0  0  0  0  0  0  0  0  0  0  0  0
    0.0817   -1.7752    3.4466 H   0  0  0  0  0  0  0  0  0  0  0  0
    3.2420   -4.1776    2.5478 N   0  0  0  0  0  0  0  0  0  0  0  0
    4.0308   -5.3826    2.4405 C   0  0  0  0  0  0  0  0  0  0  0  0
    3.5032   -3.5019    3.2598 H   0  0  0  0  0  0  0  0  0  0  0  0
    3.6037   -6.1603    3.0908 H   0  0  0  0  0  0  0  0  0  0  0  0
    4.0250   -5.7329    1.3978 H   0  0  0  0  0  0  0  0  0  0  0  0
    5.0650   -5.1726    2.7510 H   0  0  0  0  0  0  0  0  0  0  0  0
  1  3  1  0  0  0  0
  1  7  1  0  0  0  0
  1  2  2  0  0  0  0
 40 41  1  0  0  0  0
 41 49  1  0  0  0  0
 41 42  2  0  0  0  0
  8  9  1  0  0  0  0
  9 17  1  0  0  0  0
  9 10  2  0  0  0  0
 18 19  1  0  0  0  0
 19 39  1  0  0  0  0
 19 20  2  0  0  0  0
 40 43  1  0  0  0  0
  8 11  1  0  0  0  0
 49 50  1  0  0  0  0
 22 23  1  0  0  0  0
 21 22  1  0  0  0  0
 23 24  1  0  0  0  0
 18 21  1  0  0  0  0
 24 25  1  0  0  0  0
 39 40  1  0  0  0  0
  7  8  1  0  0  0  0
 17 18  1  0  0  0  0
  3  4  1  0  0  0  0
  3  5  1  0  0  0  0
  3  6  1  0  0  0  0
 43 46  1  0  0  0  0
 43 47  1  0  0  0  0
 43 48  1  0  0  0  0
 11 14  1  0  0  0  0
 11 15  1  0  0  0  0
 11 16  1  0  0  0  0
 50 52  1  0  0  0  0
 50 53  1  0  0  0  0
 50 54  1  0  0  0  0
 22 30  1  0  0  0  0
 22 31  1  0  0  0  0
 23 32  1  0  0  0  0
 23 33  1  0  0  0  0
 21 28  1  0  0  0  0
 21 29  1  0  0  0  0
 24 34  1  0  0  0  0
 24 35  1  0  0  0  0
 40 45  1  0  0  0  0
  8 13  1  0  0  0  0
 18 27  1  0  0  0  0
 49 51  1  0  0  0  0
  7 12  1  0  0  0  0
 39 44  1  0  0  0  0
 17 26  1  0  0  0  0
 25 36  1  0  0  0  0
 25 37  1  0  0  0  0
 25 38  1  0  0  0  0
M  CHG  1  25   1
M  END
$$$$

  -OEChem-05262214473D

 54 53  0     1  0  0  0  0  0999 V2000
    2.6714    2.8829   -3.0005 C   0  0  0  0  0  0  0  0  0  0  0  0
    3.1741    2.4398   -1.9745 O   0  0  0  0  0  0  0  0  0  0  0  0
    3.5527    3.3077   -4.1279 C   0  0  0  0  0  0  0  0  0  0  0  0
    3.8407    4.3691   -4.0597 H   0  0  0  0  0  0  0  0  0  0  0  0
    4.5024    2.7495   -4.1526 H   0  0  0  0  0  0  0  0  0  0  0  0
    3.1208    3.1887   -5.1345 H   0  0  0  0  0  0  0  0  0  0  0  0
    1.3174    3.0407   -3.2467 N   0  0  0  0  0  0  0  0  0  0  0  0
    0.2944    2.6927   -2.2960 C   0  0  2  0  0  0  0  0  0  0  0  0
    0.2976    1.1783   -2.1349 C   0  0  0  0  0  0  0  0  0  0  0  0
    0.7500    0.4142   -2.9850 O   0  0  0  0  0  0  0  0  0  0  0  0
   -1.0710    3.1886   -2.7460 C   0  0  0  0  0  0  0  0  0  0  0  0
    1.0312    3.4224   -4.1464 H   0  0  0  0  0  0  0  0  0  0  0  0
    0.5725    3.1622   -1.3461 H   0  0  0  0  0  0  0  0  0  0  0  0
   -1.3666    2.7292   -3.6963 H   0  0  0  0  0  0  0  0  0  0  0  0
   -1.8434    2.9482   -2.0082 H   0  0  0  0  0  0  0  0  0  0  0  0
   -1.0632    4.2744   -2.8901 H   0  0  0  0  0  0  0  0  0  0  0  0
   -0.3037    0.7742   -0.9484 N   0  0  0  0  0  0  0  0  0  0  0  0
   -0.4352   -0.6095   -0.5718 C   0  0  2  0  0  0  0  0  0  0  0  0
    0.2978   -0.8325    0.7469 C   0  0  0  0  0  0  0  0  0  0  0  0
    0.1788   -0.0839    1.7148 O   0  0  0  0  0  0  0  0  0  0  0  0
    0.0377   -1.5536   -1.6835 C   0  0  0  0  0  0  0  0  0  0  0  0
   -0.8534   -1.5459   -2.9326 C   0  0  0  0  0  0  0  0  0  0  0  0
   -0.3356   -2.5272   -3.9868 C   0  0  0  0  0  0  0  0  0  0  0  0
   -1.2073   -2.4990   -5.2335 C   0  0  0  0  0  0  0  0  0  0  0  0
   -0.6556   -3.4444   -6.2336 N   0  3  0  0  0  0  0  0  0  0  0  0
   -0.6336    1.4811   -0.2948 H   0  0  0  0  0  0  0  0  0  0  0  0
   -1.5055   -0.7719   -0.3959 H   0  0  0  0  0  0  0  0  0  0  0  0
    1.0581   -1.2731   -1.9753 H   0  0  0  0  0  0  0  0  0  0  0  0
    0.0922   -2.5776   -1.2937 H   0  0  0  0  0  0  0  0  0  0  0  0
   -1.8802   -1.8179   -2.6617 H   0  0  0  0  0  0  0  0  0  0  0  0
   -0.8867   -0.5383   -3.3631 H   0  0  0  0  0  0  0  0  0  0  0  0
   -0.3187   -3.5411   -3.5679 H   0  0  0  0  0  0  0  0  0  0  0  0
    0.6982   -2.2713   -4.2503 H   0  0  0  0  0  0  0  0  0  0  0  0
   -2.2321   -2.8203   -5.0246 H   0  0  0  0  0  0  0  0  0  0  0  0
   -1.2193   -1.5111   -5.7033 H   0  0  0  0  0  0  0  0  0  0  0  0
   -0.9961   -3.2234   -7.1757 H   0  0  0  0  0  0  0  0  0  0  0  0
   -0.9300   -4.4092   -6.0174 H   0  0  0  0  0  0  0  0  0  0  0  0
    0.3694   -3.4044   -6.2512 H   0  0  0  0  0  0  0  0  0  0  0  0
    1.0745   -1.9820    0.7292 N   0  0  0  0  0  0  0  0  0  0  0  0
    1.8466   -2.4064    1.8726 C   0  0  2  0  0  0  0  0  0  0  0  0
    2.8088   -3.4938    1.4130 C   0  0  0  0  0  0  0  0  0  0  0  0
    2.6219   -4.1729    0.4055 O   0  0  0  0  0  0  0  0  0  0  0  0
    0.9479   -2.9127    2.9901 C   0  0  0  0  0  0  0  0  0  0  0  0
    1.1007   -2.5437   -0.1166 H   0  0  0  0  0  0  0  0  0  0  0  0
    2.4156   -1.5339    2.2115 H   0  0  0  0  0  0  0  0  0  0  0  0
    0.3698   -3.7869    2.6691 H   0  0  0  0  0  0  0  0  0  0  0  0
    1.5333   -3.2075    3.8673 H   0  0  0  0  0  0  0  0  0  0  0  0
    0.2367   -2.1391    3.2990 H   0  0  0  0  0  0  0  0  0  0  0  0
    3.8788   -3.6460    2.2837 N   0  0  0  0  0  0  0  0  0  0  0  0
    4.9221   -4.6224    2.0736 C   0  0  0  0  0  0  0  0  0  0  0  0
    3.9635   -3.0267    3.0843 H   0  0  0  0  0  0  0  0  0  0  0  0
    4.6666   -5.5524    2.6027 H   0  0  0  0  0  0  0  0  0  0  0  0
    5.0203   -4.8281    0.9975 H   0  0  0  0  0  0  0  0  0  0  0  0
    5.8743   -4.2304    2.4604 H   0  0  0  0  0  0  0  0  0  0  0  0
  1  3  1  0  0  0  0
  1  7  1  0  0  0  0
  1  2  2  0  0  0  0
 40 41  1  0  0  0  0
 41 49  1  0  0  0  0
 41 42  2  0  0  0  0
  8  9  1  0  0  0  0
  9 17  1  0  0  0  0
  9 10  2  0  0  0  0
 18 19  1  0  0  0  0
 19 39  1  0  0  0  0
 19 20  2  0  0  0  0
 40 43  1  0  0  0  0
  8 11  1  0  0  0  0
 49 50  1  0  0  0  0
 22 23  1  0  0  0  0
 21 22  1  0  0  0  0
 23 24  1  0  0  0  0
 18 21  1  0  0  0  0
 24 25  1  0  0  0  0
 39 40  1  0  0  0  0
  7  8  1  0  0  0  0
 17 18  1  0  0  0  0
  3  4  1  0  0  0  0
  3  5  1  0  0  0  0
  3  6  1  0  0  0  0
 43 46  1  0  0  0  0
 43 47  1  0  0  0  0
 43 48  1  0  0  0  0
 11 14  1  0  0  0  0
 11 15  1  0  0  0  0
 11 16  1  0  0  0  0
 50 52  1  0  0  0  0
 50 53  1  0  0  0  0
 50 54  1  0  0  0  0
 22 30  1  0  0  0  0
 22 31  1  0  0  0  0
 23 32  1  0  0  0  0
 23 33  1  0  0  0  0
 21 28  1  0  0  0  0
 21 29  1  0  0  0  0
 24 34  1  0  0  0  0
 24 35  1  0  0  0  0
 40 45  1  0  0  0  0
  8 13  1  0  0  0  0
 18 27  1  0  0  0  0
 49 51  1  0  0  0  0
  7 12  1  0  0  0  0
 39 44  1  0  0  0  0
 17 26  1  0  0  0  0
 25 36  1  0  0  0  0
 25 37  1  0  0  0  0
 25 38  1  0  0  0  0
M  CHG  1  25   1
M  END
$$$$

  -OEChem-05262214473D

 54 53  0     1  0  0  0  0  0999 V2000
    2.6714    2.8829   -3.0005 C   0  0  0  0  0  0  0  0  0  0  0  0
    3.1741    2.4398   -1.9745 O   0  0  0  0  0  0  0  0  0  0  0  0
    3.5527    3.3077   -4.1279 C   0  0  0  0  0  0  0  0  0  0  0  0
    3.8407    4.3691   -4.0597 H   0  0  0  0  0  0  0  0  0  0  0  0
    4.5024    2.7495   -4.1526 H   0  0  0  0  0  0  0  0  0  0  0  0
    3.1208    3.1887   -5.1345 H   0  0  0  0  0  0  0  0  0  0  0  0
    1.3174    3.0407   -3.2467 N   0  0  0  0  0  0  0  0  0  0  0  0
    0.2944    2.6927   -2.2960 C   0  0  2  0  0  0  0  0  0  0  0  0
    0.2976    1.1783   -2.1349 C   0  0  0  0  0  0  0  0  0  0  0  0
    0.7500    0.4142   -2.9850 O   0  0  0  0  0  0  0  0  0  0  0  0
   -1.0710    3.1886   -2.7460 C   0  0  0  0  0  0  0  0  0  0  0  0
    1.0312    3.4224   -4.1464 H   0  0  0  0  0  0  0  0  0  0  0  0
    0.5725    3.1622   -1.3461 H   0  0  0  0  0  0  0  0  0  0  0  0
   -1.3666    2.7292   -3.6963 H   0  0  0  0  0  0  0  0  0  0  0  0
   -1.8434    2.9482   -2.0082 H   0  0  0  0  0  0  0  0  0  0  0  0
   -1.0632    4.2744   -2.8901 H   0  0  0  0  0  0  0  0  0  0  0  0
   -0.3037    0.7742   -0.9484 N   0  0  0  0  0  0  0  0  0  0  0  0
   -0.4352   -0.6095   -0.5718 C   0  0  2  0  0  0  0  0  0  0  0  0
    0.2978   -0.8325    0.7469 C   0  0  0  0  0  0  0  0  0  0  0  0
   -0.0103   -0.2597    1.7902 O   0  0  0  0  0  0  0  0  0  0  0  0
    0.0377   -1.5536   -1.6835 C   0  0  0  0  0  0  0  0  0  0  0  0
   -0.8534   -1.5459   -2.9326 C   0  0  0  0  0  0  0  0  0  0  0  0
   -0.3356   -2.5272   -3.9868 C   0  0  0  0  0  0  0  0  0  0  0  0
   -1.2073   -2.4990   -5.2335 C   0  0  0  0  0  0  0  0  0  0  0  0
   -0.6556   -3.4444   -6.2336 N   0  3  0  0  0  0  0  0  0  0  0  0
   -0.6336    1.4811   -0.2948 H   0  0  0  0  0  0  0  0  0  0  0  0
   -1.5055   -0.7719   -0.3959 H   0  0  0  0  0  0  0  0  0  0  0  0
    1.0581   -1.2731   -1.9753 H   0  0  0  0  0  0  0  0  0  0  0  0
    0.0922   -2.5776   -1.2937 H   0  0  0  0  0  0  0  0  0  0  0  0
   -1.8802   -1.8179   -2.6617 H   0  0  0  0  0  0  0  0  0  0  0  0
   -0.8867   -0.5383   -3.3631 H   0  0  0  0  0  0  0  0  0  0  0  0
   -0.3187   -3.5411   -3.5679 H   0  0  0  0  0  0  0  0  0  0  0  0
    0.6982   -2.2713   -4.2503 H   0  0  0  0  0  0  0  0  0  0  0  0
   -2.2321   -2.8203   -5.0246 H   0  0  0  0  0  0  0  0  0  0  0  0
   -1.2193   -1.5111   -5.7033 H   0  0  0  0  0  0  0  0  0  0  0  0
   -0.9961   -3.2234   -7.1757 H   0  0  0  0  0  0  0  0  0  0  0  0
   -0.9300   -4.4092   -6.0174 H   0  0  0  0  0  0  0  0  0  0  0  0
    0.3694   -3.4044   -6.2512 H   0  0  0  0  0  0  0  0  0  0  0  0
    1.3146   -1.7695    0.6317 N   0  0  0  0  0  0  0  0  0  0  0  0
    2.1354   -2.1560    1.7544 C   0  0  2  0  0  0  0  0  0  0  0  0
    3.3292   -2.9349    1.2182 C   0  0  0  0  0  0  0  0  0  0  0  0
    3.3246   -3.5030    0.1281 O   0  0  0  0  0  0  0  0  0  0  0  0
    1.3483   -2.9882    2.7547 C   0  0  0  0  0  0  0  0  0  0  0  0
    1.4871   -2.1978   -0.2730 H   0  0  0  0  0  0  0  0  0  0  0  0
    2.4841   -1.2301    2.2248 H   0  0  0  0  0  0  0  0  0  0  0  0
    0.9906   -3.9199    2.3015 H   0  0  0  0  0  0  0  0  0  0  0  0
    1.9642   -3.2564    3.6194 H   0  0  0  0  0  0  0  0  0  0  0  0
    0.4734   -2.4375    3.1169 H   0  0  0  0  0  0  0  0  0  0  0  0
    4.3849   -2.9572    2.1188 N   0  0  0  0  0  0  0  0  0  0  0  0
    5.6267   -3.6431    1.8476 C   0  0  0  0  0  0  0  0  0  0  0  0
    4.3084   -2.4428    2.9913 H   0  0  0  0  0  0  0  0  0  0  0  0
    5.5757   -4.6667    2.2471 H   0  0  0  0  0  0  0  0  0  0  0  0
    5.7944   -3.6816    0.7611 H   0  0  0  0  0  0  0  0  0  0  0  0
    6.4561   -3.1031    2.3276 H   0  0  0  0  0  0  0  0  0  0  0  0
  1  3  1  0  0  0  0
  1  7  1  0  0  0  0
  1  2  2  0  0  0  0
 40 41  1  0  0  0  0
 41 49  1  0  0  0  0
 41 42  2  0  0  0  0
  8  9  1  0  0  0  0
  9 17  1  0  0  0  0
  9 10  2  0  0  0  0
 18 19  1  0  0  0  0
 19 39  1  0  0  0  0
 19 20  2  0  0  0  0
 40 43  1  0  0  0  0
  8 11  1  0  0  0  0
 49 50  1  0  0  0  0
 22 23  1  0  0  0  0
 21 22  1  0  0  0  0
 23 24  1  0  0  0  0
 18 21  1  0  0  0  0
 24 25  1  0  0  0  0
 39 40  1  0  0  0  0
  7  8  1  0  0  0  0
 17 18  1  0  0  0  0
  3  4  1  0  0  0  0
  3  5  1  0  0  0  0
  3  6  1  0  0  0  0
 43 46  1  0  0  0  0
 43 47  1  0  0  0  0
 43 48  1  0  0  0  0
 11 14  1  0  0  0  0
 11 15  1  0  0  0  0
 11 16  1  0  0  0  0
 50 52  1  0  0  0  0
 50 53  1  0  0  0  0
 50 54  1  0  0  0  0
 22 30  1  0  0  0  0
 22 31  1  0  0  0  0
 23 32  1  0  0  0  0
 23 33  1  0  0  0  0
 21 28  1  0  0  0  0
 21 29  1  0  0  0  0
 24 34  1  0  0  0  0
 24 35  1  0  0  0  0
 40 45  1  0  0  0  0
  8 13  1  0  0  0  0
 18 27  1  0  0  0  0
 49 51  1  0  0  0  0
  7 12  1  0  0  0  0
 39 44  1  0  0  0  0
 17 26  1  0  0  0  0
 25 36  1  0  0  0  0
 25 37  1  0  0  0  0
 25 38  1  0  0  0  0
M  CHG  1  25   1
M  END
$$$$

  -OEChem-05262214473D

 54 53  0     1  0  0  0  0  0999 V2000
    2.6714    2.8829   -3.0005 C   0  0  0  0  0  0  0  0  0  0  0  0
    3.1741    2.4398   -1.9745 O   0  0  0  0  0  0  0  0  0  0  0  0
    3.5527    3.3077   -4.1279 C   0  0  0  0  0  0  0  0  0  0  0  0
    3.8407    4.3691   -4.0597 H   0  0  0  0  0  0  0  0  0  0  0  0
    4.5024    2.7495   -4.1526 H   0  0  0  0  0  0  0  0  0  0  0  0
    3.1208    3.1887   -5.1345 H   0  0  0  0  0  0  0  0  0  0  0  0
    1.3174    3.0407   -3.2467 N   0  0  0  0  0  0  0  0  0  0  0  0
    0.2944    2.6927   -2.2960 C   0  0  2  0  0  0  0  0  0  0  0  0
    0.2976    1.1783   -2.1349 C   0  0  0  0  0  0  0  0  0  0  0  0
    0.7500    0.4142   -2.9850 O   0  0  0  0  0  0  0  0  0  0  0  0
   -1.0710    3.1886   -2.7460 C   0  0  0  0  0  0  0  0  0  0  0  0
    1.0312    3.4224   -4.1464 H   0  0  0  0  0  0  0  0  0  0  0  0
    0.5725    3.1622   -1.3461 H   0  0  0  0  0  0  0  0  0  0  0  0
   -1.3666    2.7292   -3.6963 H   0  0  0  0  0  0  0  0  0  0  0  0
   -1.8434    2.9482   -2.0082 H   0  0  0  0  0  0  0  0  0  0  0  0
   -1.0632    4.2744   -2.8901 H   0  0  0  0  0  0  0  0  0  0  0  0
   -0.3037    0.7742   -0.9484 N   0  0  0  0  0  0  0  0  0  0  0  0
   -0.4352   -0.6095   -0.5718 C   0  0  2  0  0  0  0  0  0  0  0  0
    0.2978   -0.8325    0.7469 C   0  0  0  0  0  0  0  0  0  0  0  0
   -0.1565   -0.4813    1.8340 O   0  0  0  0  0  0  0  0  0  0  0  0
    0.0377   -1.5536   -1.6835 C   0  0  0  0  0  0  0  0  0  0  0  0
   -0.8534   -1.5459   -2.9326 C   0  0  0  0  0  0  0  0  0  0  0  0
   -0.3356   -2.5272   -3.9868 C   0  0  0  0  0  0  0  0  0  0  0  0
   -1.2073   -2.4990   -5.2335 C   0  0  0  0  0  0  0  0  0  0  0  0
   -0.6556   -3.4444   -6.2336 N   0  3  0  0  0  0  0  0  0  0  0  0
   -0.6336    1.4811   -0.2948 H   0  0  0  0  0  0  0  0  0  0  0  0
   -1.5055   -0.7719   -0.3959 H   0  0  0  0  0  0  0  0  0  0  0  0
    1.0581   -1.2731   -1.9753 H   0  0  0  0  0  0  0  0  0  0  0  0
    0.0922   -2.5776   -1.2937 H   0  0  0  0  0  0  0  0  0  0  0  0
   -1.8802   -1.8179   -2.6617 H   0  0  0  0  0  0  0  0  0  0  0  0
   -0.8867   -0.5383   -3.3631 H   0  0  0  0  0  0  0  0  0  0  0  0
   -0.3187   -3.5411   -3.5679 H   0  0  0  0  0  0  0  0  0  0  0  0
    0.6982   -2.2713   -4.2503 H   0  0  0  0  0  0  0  0  0  0  0  0
   -2.2321   -2.8203   -5.0246 H   0  0  0  0  0  0  0  0  0  0  0  0
   -1.2193   -1.5111   -5.7033 H   0  0  0  0  0  0  0  0  0  0  0  0
   -0.9961   -3.2234   -7.1757 H   0  0  0  0  0  0  0  0  0  0  0  0
   -0.9300   -4.4092   -6.0174 H   0  0  0  0  0  0  0  0  0  0  0  0
    0.3694   -3.4044   -6.2512 H   0  0  0  0  0  0  0  0  0  0  0  0
    1.5026   -1.4983    0.5730 N   0  0  0  0  0  0  0  0  0  0  0  0
    2.3627   -1.8347    1.6824 C   0  0  2  0  0  0  0  0  0  0  0  0
    3.7141   -2.2543    1.1193 C   0  0  0  0  0  0  0  0  0  0  0  0
    3.8640   -2.6642   -0.0299 O   0  0  0  0  0  0  0  0  0  0  0  0
    1.7608   -2.9421    2.5332 C   0  0  0  0  0  0  0  0  0  0  0  0
    1.7889   -1.7577   -0.3663 H   0  0  0  0  0  0  0  0  0  0  0  0
    2.4817   -0.9231    2.2780 H   0  0  0  0  0  0  0  0  0  0  0  0
    1.6340   -3.8637    1.9534 H   0  0  0  0  0  0  0  0  0  0  0  0
    2.4008   -3.1764    3.3903 H   0  0  0  0  0  0  0  0  0  0  0  0
    0.7757   -2.6502    2.9129 H   0  0  0  0  0  0  0  0  0  0  0  0
    4.7259   -2.1581    2.0644 N   0  0  0  0  0  0  0  0  0  0  0  0
    6.0967   -2.5112    1.7777 C   0  0  0  0  0  0  0  0  0  0  0  0
    4.5144   -1.7901    2.9872 H   0  0  0  0  0  0  0  0  0  0  0  0
    6.2691   -3.5634    2.0482 H   0  0  0  0  0  0  0  0  0  0  0  0
    6.2945   -2.3716    0.7046 H   0  0  0  0  0  0  0  0  0  0  0  0
    6.7709   -1.8674    2.3616 H   0  0  0  0  0  0  0  0  0  0  0  0
  1  3  1  0  0  0  0
  1  7  1  0  0  0  0
  1  2  2  0  0  0  0
 40 41  1  0  0  0  0
 41 49  1  0  0  0  0
 41 42  2  0  0  0  0
  8  9  1  0  0  0  0
  9 17  1  0  0  0  0
  9 10  2  0  0  0  0
 18 19  1  0  0  0  0
 19 39  1  0  0  0  0
 19 20  2  0  0  0  0
 40 43  1  0  0  0  0
  8 11  1  0  0  0  0
 49 50  1  0  0  0  0
 22 23  1  0  0  0  0
 21 22  1  0  0  0  0
 23 24  1  0  0  0  0
 18 21  1  0  0  0  0
 24 25  1  0  0  0  0
 39 40  1  0  0  0  0
  7  8  1  0  0  0  0
 17 18  1  0  0  0  0
  3  4  1  0  0  0  0
  3  5  1  0  0  0  0
  3  6  1  0  0  0  0
 43 46  1  0  0  0  0
 43 47  1  0  0  0  0
 43 48  1  0  0  0  0
 11 14  1  0  0  0  0
 11 15  1  0  0  0  0
 11 16  1  0  0  0  0
 50 52  1  0  0  0  0
 50 53  1  0  0  0  0
 50 54  1  0  0  0  0
 22 30  1  0  0  0  0
 22 31  1  0  0  0  0
 23 32  1  0  0  0  0
 23 33  1  0  0  0  0
 21 28  1  0  0  0  0
 21 29  1  0  0  0  0
 24 34  1  0  0  0  0
 24 35  1  0  0  0  0
 40 45  1  0  0  0  0
  8 13  1  0  0  0  0
 18 27  1  0  0  0  0
 49 51  1  0  0  0  0
  7 12  1  0  0  0  0
 39 44  1  0  0  0  0
 17 26  1  0  0  0  0
 25 36  1  0  0  0  0
 25 37  1  0  0  0  0
 25 38  1  0  0  0  0
M  CHG  1  25   1
M  END
$$$$

  -OEChem-05262214473D

 54 53  0     1  0  0  0  0  0999 V2000
    2.6714    2.8829   -3.0005 C   0  0  0  0  0  0  0  0  0  0  0  0
    3.1741    2.4398   -1.9745 O   0  0  0  0  0  0  0  0  0  0  0  0
    3.5527    3.3077   -4.1279 C   0  0  0  0  0  0  0  0  0  0  0  0
    3.8407    4.3691   -4.0597 H   0  0  0  0  0  0  0  0  0  0  0  0
    4.5024    2.7495   -4.1526 H   0  0  0  0  0  0  0  0  0  0  0  0
    3.1208    3.1887   -5.1345 H   0  0  0  0  0  0  0  0  0  0  0  0
    1.3174    3.0407   -3.2467 N   0  0  0  0  0  0  0  0  0  0  0  0
    0.2944    2.6927   -2.2960 C   0  0  2  0  0  0  0  0  0  0  0  0
    0.2976    1.1783   -2.1349 C   0  0  0  0  0  0  0  0  0  0  0  0
    0.7500    0.4142   -2.9850 O   0  0  0  0  0  0  0  0  0  0  0  0
   -1.0710    3.1886   -2.7460 C   0  0  0  0  0  0  0  0  0  0  0  0
    1.0312    3.4224   -4.1464 H   0  0  0  0  0  0  0  0  0  0  0  0
    0.5725    3.1622   -1.3461 H   0  0  0  0  0  0  0  0  0  0  0  0
   -1.3666    2.7292   -3.6963 H   0  0  0  0  0  0  0  0  0  0  0  0
   -1.8434    2.9482   -2.0082 H   0  0  0  0  0  0  0  0  0  0  0  0
   -1.0632    4.2744   -2.8901 H   0  0  0  0  0  0  0  0  0  0  0  0
   -0.3037    0.7742   -0.9484 N   0  0  0  0  0  0  0  0  0  0  0  0
   -0.4352   -0.6095   -0.5718 C   0  0  2  0  0  0  0  0  0  0  0  0
    0.2978   -0.8325    0.7469 C   0  0  0  0  0  0  0  0  0  0  0  0
   -0.2497   -0.7336    1.8432 O   0  0  0  0  0  0  0  0  0  0  0  0
    0.0377   -1.5536   -1.6835 C   0  0  0  0  0  0  0  0  0  0  0  0
   -0.8534   -1.5459   -2.9326 C   0  0  0  0  0  0  0  0  0  0  0  0
   -0.3356   -2.5272   -3.9868 C   0  0  0  0  0  0  0  0  0  0  0  0
   -1.2073   -2.4990   -5.2335 C   0  0  0  0  0  0  0  0  0  0  0  0
   -0.6556   -3.4444   -6.2336 N   0  3  0  0  0  0  0  0  0  0  0  0
   -0.6336    1.4811   -0.2948 H   0  0  0  0  0  0  0  0  0  0  0  0
   -1.5055   -0.7719   -0.3959 H   0  0  0  0  0  0  0  0  0  0  0  0
    1.0581   -1.2731   -1.9753 H   0  0  0  0  0  0  0  0  0  0  0  0
    0.0922   -2.5776   -1.2937 H   0  0  0  0  0  0  0  0  0  0  0  0
   -1.8802   -1.8179   -2.6617 H   0  0  0  0  0  0  0  0  0  0  0  0
   -0.8867   -0.5383   -3.3631 H   0  0  0  0  0  0  0  0  0  0  0  0
   -0.3187   -3.5411   -3.5679 H   0  0  0  0  0  0  0  0  0  0  0  0
    0.6982   -2.2713   -4.2503 H   0  0  0  0  0  0  0  0  0  0  0  0
   -2.2321   -2.8203   -5.0246 H   0  0  0  0  0  0  0  0  0  0  0  0
   -1.2193   -1.5111   -5.7033 H   0  0  0  0  0  0  0  0  0  0  0  0
   -0.9961   -3.2234   -7.1757 H   0  0  0  0  0  0  0  0  0  0  0  0
   -0.9300   -4.4092   -6.0174 H   0  0  0  0  0  0  0  0  0  0  0  0
    0.3694   -3.4044   -6.2512 H   0  0  0  0  0  0  0  0  0  0  0  0
    1.6257   -1.1870    0.5572 N   0  0  0  0  0  0  0  0  0  0  0  0
    2.5131   -1.4645    1.6614 C   0  0  2  0  0  0  0  0  0  0  0  0
    3.9374   -1.4985    1.1230 C   0  0  0  0  0  0  0  0  0  0  0  0
    4.2032   -1.7137   -0.0577 O   0  0  0  0  0  0  0  0  0  0  0  0
    2.1573   -2.7778    2.3406 C   0  0  0  0  0  0  0  0  0  0  0  0
    1.9855   -1.2534   -0.3903 H   0  0  0  0  0  0  0  0  0  0  0  0
    2.4088   -0.6336    2.3676 H   0  0  0  0  0  0  0  0  0  0  0  0
    2.2560   -3.6221    1.6485 H   0  0  0  0  0  0  0  0  0  0  0  0
    2.8132   -2.9729    3.1954 H   0  0  0  0  0  0  0  0  0  0  0  0
    1.1230   -2.7626    2.7008 H   0  0  0  0  0  0  0  0  0  0  0  0
    4.8785   -1.3032    2.1241 N   0  0  0  0  0  0  0  0  0  0  0  0
    6.3001   -1.3041    1.8687 C   0  0  0  0  0  0  0  0  0  0  0  0
    4.5674   -1.1130    3.0722 H   0  0  0  0  0  0  0  0  0  0  0  0
    6.6995   -2.3179    2.0196 H   0  0  0  0  0  0  0  0  0  0  0  0
    6.4864   -0.9872    0.8320 H   0  0  0  0  0  0  0  0  0  0  0  0
    6.7971   -0.6077    2.5600 H   0  0  0  0  0  0  0  0  0  0  0  0
  1  3  1  0  0  0  0
  1  7  1  0  0  0  0
  1  2  2  0  0  0  0
 40 41  1  0  0  0  0
 41 49  1  0  0  0  0
 41 42  2  0  0  0  0
  8  9  1  0  0  0  0
  9 17  1  0  0  0  0
  9 10  2  0  0  0  0
 18 19  1  0  0  0  0
 19 39  1  0  0  0  0
 19 20  2  0  0  0  0
 40 43  1  0  0  0  0
  8 11  1  0  0  0  0
 49 50  1  0  0  0  0
 22 23  1  0  0  0  0
 21 22  1  0  0  0  0
 23 24  1  0  0  0  0
 18 21  1  0  0  0  0
 24 25  1  0  0  0  0
 39 40  1  0  0  0  0
  7  8  1  0  0  0  0
 17 18  1  0  0  0  0
  3  4  1  0  0  0  0
  3  5  1  0  0  0  0
  3  6  1  0  0  0  0
 43 46  1  0  0  0  0
 43 47  1  0  0  0  0
 43 48  1  0  0  0  0
 11 14  1  0  0  0  0
 11 15  1  0  0  0  0
 11 16  1  0  0  0  0
 50 52  1  0  0  0  0
 50 53  1  0  0  0  0
 50 54  1  0  0  0  0
 22 30  1  0  0  0  0
 22 31  1  0  0  0  0
 23 32  1  0  0  0  0
 23 33  1  0  0  0  0
 21 28  1  0  0  0  0
 21 29  1  0  0  0  0
 24 34  1  0  0  0  0
 24 35  1  0  0  0  0
 40 45  1  0  0  0  0
  8 13  1  0  0  0  0
 18 27  1  0  0  0  0
 49 51  1  0  0  0  0
  7 12  1  0  0  0  0
 39 44  1  0  0  0  0
 17 26  1  0  0  0  0
 25 36  1  0  0  0  0
 25 37  1  0  0  0  0
 25 38  1  0  0  0  0
M  CHG  1  25   1
M  END
$$$$

  -OEChem-05262214473D

 54 53  0     1  0  0  0  0  0999 V2000
    2.6714    2.8829   -3.0005 C   0  0  0  0  0  0  0  0  0  0  0  0
    3.1741    2.4398   -1.9745 O   0  0  0  0  0  0  0  0  0  0  0  0
    3.5527    3.3077   -4.1279 C   0  0  0  0  0  0  0  0  0  0  0  0
    3.8407    4.3691   -4.0597 H   0  0  0  0  0  0  0  0  0  0  0  0
    4.5024    2.7495   -4.1526 H   0  0  0  0  0  0  0  0  0  0  0  0
    3.1208    3.1887   -5.1345 H   0  0  0  0  0  0  0  0  0  0  0  0
    1.3174    3.0407   -3.2467 N   0  0  0  0  0  0  0  0  0  0  0  0
    0.2944    2.6927   -2.2960 C   0  0  2  0  0  0  0  0  0  0  0  0
    0.2976    1.1783   -2.1349 C   0  0  0  0  0  0  0  0  0  0  0  0
    0.7500    0.4142   -2.9850 O   0  0  0  0  0  0  0  0  0  0  0  0
   -1.0710    3.1886   -2.7460 C   0  0  0  0  0  0  0  0  0  0  0  0
    1.0312    3.4224   -4.1464 H   0  0  0  0  0  0  0  0  0  0  0  0
    0.5725    3.1622   -1.3461 H   0  0  0  0  0  0  0  0  0  0  0  0
   -1.3666    2.7292   -3.6963 H   0  0  0  0  0  0  0  0  0  0  0  0
   -1.8434    2.9482   -2.0082 H   0  0  0  0  0  0  0  0  0  0  0  0
   -1.0632    4.2744   -2.8901 H   0  0  0  0  0  0  0  0  0  0  0  0
   -0.3037    0.7742   -0.9484 N   0  0  0  0  0  0  0  0  0  0  0  0
   -0.4352   -0.6095   -0.5718 C   0  0  2  0  0  0  0  0  0  0  0  0
    0.2978   -0.8325    0.7469 C   0  0  0  0  0  0  0  0  0  0  0  0
   -0.2837   -0.9992    1.8172 O   0  0  0  0  0  0  0  0  0  0  0  0
    0.0377   -1.5536   -1.6835 C   0  0  0  0  0  0  0  0  0  0  0  0
   -0.8534   -1.5459   -2.9326 C   0  0  0  0  0  0  0  0  0  0  0  0
   -0.3356   -2.5272   -3.9868 C   0  0  0  0  0  0  0  0  0  0  0  0
   -1.2073   -2.4990   -5.2335 C   0  0  0  0  0  0  0  0  0  0  0  0
   -0.6556   -3.4444   -6.2336 N   0  3  0  0  0  0  0  0  0  0  0  0
   -0.6336    1.4811   -0.2948 H   0  0  0  0  0  0  0  0  0  0  0  0
   -1.5055   -0.7719   -0.3959 H   0  0  0  0  0  0  0  0  0  0  0  0
    1.0581   -1.2731   -1.9753 H   0  0  0  0  0  0  0  0  0  0  0  0
    0.0922   -2.5776   -1.2937 H   0  0  0  0  0  0  0  0  0  0  0  0
   -1.8802   -1.8179   -2.6617 H   0  0  0  0  0  0  0  0  0  0  0  0
   -0.8867   -0.5383   -3.3631 H   0  0  0  0  0  0  0  0  0  0  0  0
   -0.3187   -3.5411   -3.5679 H   0  0  0  0  0  0  0  0  0  0  0  0
    0.6982   -2.2713   -4.2503 H   0  0  0  0  0  0  0  0  0  0  0  0
   -2.2321   -2.8203   -5.0246 H   0  0  0  0  0  0  0  0  0  0  0  0
   -1.2193   -1.5111   -5.7033 H   0  0  0  0  0  0  0  0  0  0  0  0
   -0.9961   -3.2234   -7.1757 H   0  0  0  0  0  0  0  0  0  0  0  0
   -0.9300   -4.4092   -6.0174 H   0  0  0  0  0  0  0  0  0  0  0  0
    0.3694   -3.4044   -6.2512 H   0  0  0  0  0  0  0  0  0  0  0  0
    1.6756   -0.8568    0.5853 N   0  0  0  0  0  0  0  0  0  0  0  0
    2.5764   -1.0707    1.6928 C   0  0  2  0  0  0  0  0  0  0  0  0
    3.9838   -0.7190    1.2290 C   0  0  0  0  0  0  0  0  0  0  0  0
    4.3193   -0.7161    0.0464 O   0  0  0  0  0  0  0  0  0  0  0  0
    2.5108   -2.5064    2.1899 C   0  0  0  0  0  0  0  0  0  0  0  0
    2.0634   -0.7194   -0.3433 H   0  0  0  0  0  0  0  0  0  0  0  0
    2.2701   -0.3815    2.4873 H   0  0  0  0  0  0  0  0  0  0  0  0
    2.8143   -3.2116    1.4075 H   0  0  0  0  0  0  0  0  0  0  0  0
    3.1734   -2.6598    3.0481 H   0  0  0  0  0  0  0  0  0  0  0  0
    1.4917   -2.7670    2.4952 H   0  0  0  0  0  0  0  0  0  0  0  0
    4.8324   -0.4506    2.2939 N   0  0  0  0  0  0  0  0  0  0  0  0
    6.2229   -0.1039    2.1146 C   0  0  0  0  0  0  0  0  0  0  0  0
    4.4640   -0.4577    3.2405 H   0  0  0  0  0  0  0  0  0  0  0  0
    6.8376   -1.0148    2.1631 H   0  0  0  0  0  0  0  0  0  0  0  0
    6.3573    0.3771    1.1345 H   0  0  0  0  0  0  0  0  0  0  0  0
    6.5330    0.5904    2.9094 H   0  0  0  0  0  0  0  0  0  0  0  0
  1  3  1  0  0  0  0
  1  7  1  0  0  0  0
  1  2  2  0  0  0  0
 40 41  1  0  0  0  0
 41 49  1  0  0  0  0
 41 42  2  0  0  0  0
  8  9  1  0  0  0  0
  9 17  1  0  0  0  0
  9 10  2  0  0  0  0
 18 19  1  0  0  0  0
 19 39  1  0  0  0  0
 19 20  2  0  0  0  0
 40 43  1  0  0  0  0
  8 11  1  0  0  0  0
 49 50  1  0  0  0  0
 22 23  1  0  0  0  0
 21 22  1  0  0  0  0
 23 24  1  0  0  0  0
 18 21  1  0  0  0  0
 24 25  1  0  0  0  0
 39 40  1  0  0  0  0
  7  8  1  0  0  0  0
 17 18  1  0  0  0  0
  3  4  1  0  0  0  0
  3  5  1  0  0  0  0
  3  6  1  0  0  0  0
 43 46  1  0  0  0  0
 43 47  1  0  0  0  0
 43 48  1  0  0  0  0
 11 14  1  0  0  0  0
 11 15  1  0  0  0  0
 11 16  1  0  0  0  0
 50 52  1  0  0  0  0
 50 53  1  0  0  0  0
 50 54  1  0  0  0  0
 22 30  1  0  0  0  0
 22 31  1  0  0  0  0
 23 32  1  0  0  0  0
 23 33  1  0  0  0  0
 21 28  1  0  0  0  0
 21 29  1  0  0  0  0
 24 34  1  0  0  0  0
 24 35  1  0  0  0  0
 40 45  1  0  0  0  0
  8 13  1  0  0  0  0
 18 27  1  0  0  0  0
 49 51  1  0  0  0  0
  7 12  1  0  0  0  0
 39 44  1  0  0  0  0
 17 26  1  0  0  0  0
 25 36  1  0  0  0  0
 25 37  1  0  0  0  0
 25 38  1  0  0  0  0
M  CHG  1  25   1
M  END
$$$$

  -OEChem-05262214473D

 54 53  0     1  0  0  0  0  0999 V2000
    2.6714    2.8829   -3.0005 C   0  0  0  0  0  0  0  0  0  0  0  0
    3.1741    2.4398   -1.9745 O   0  0  0  0  0  0  0  0  0  0  0  0
    3.5527    3.3077   -4.1279 C   0  0  0  0  0  0  0  0  0  0  0  0
    3.8407    4.3691   -4.0597 H   0  0  0  0  0  0  0  0  0  0  0  0
    4.5024    2.7495   -4.1526 H   0  0  0  0  0  0  0  0  0  0  0  0
    3.1208    3.1887   -5.1345 H   0  0  0  0  0  0  0  0  0  0  0  0
    1.3174    3.0407   -3.2467 N   0  0  0  0  0  0  0  0  0  0  0  0
    0.2944    2.6927   -2.2960 C   0  0  2  0  0  0  0  0  0  0  0  0
    0.2976    1.1783   -2.1349 C   0  0  0  0  0  0  0  0  0  0  0  0
    0.7500    0.4142   -2.9850 O   0  0  0  0  0  0  0  0  0  0  0  0
   -1.0710    3.1886   -2.7460 C   0  0  0  0  0  0  0  0  0  0  0  0
    1.0312    3.4224   -4.1464 H   0  0  0  0  0  0  0  0  0  0  0  0
    0.5725    3.1622   -1.3461 H   0  0  0  0  0  0  0  0  0  0  0  0
   -1.3666    2.7292   -3.6963 H   0  0  0  0  0  0  0  0  0  0  0  0
   -1.8434    2.9482   -2.0082 H   0  0  0  0  0  0  0  0  0  0  0  0
   -1.0632    4.2744   -2.8901 H   0  0  0  0  0  0  0  0  0  0  0  0
   -0.3037    0.7742   -0.9484 N   0  0  0  0  0  0  0  0  0  0  0  0
   -0.4352   -0.6095   -0.5718 C   0  0  2  0  0  0  0  0  0  0  0  0
    0.2978   -0.8325    0.7469 C   0  0  0  0  0  0  0  0  0  0  0  0
   -0.2561   -1.2601    1.7577 O   0  0  0  0  0  0  0  0  0  0  0  0
    0.0377   -1.5536   -1.6835 C   0  0  0  0  0  0  0  0  0  0  0  0
   -0.8534   -1.5459   -2.9326 C   0  0  0  0  0  0  0  0  0  0  0  0
   -0.3356   -2.5272   -3.9868 C   0  0  0  0  0  0  0  0  0  0  0  0
   -1.2073   -2.4990   -5.2335 C   0  0  0  0  0  0  0  0  0  0  0  0
   -0.6556   -3.4444   -6.2336 N   0  3  0  0  0  0  0  0  0  0  0  0
   -0.6336    1.4811   -0.2948 H   0  0  0  0  0  0  0  0  0  0  0  0
   -1.5055   -0.7719   -0.3959 H   0  0  0  0  0  0  0  0  0  0  0  0
    1.0581   -1.2731   -1.9753 H   0  0  0  0  0  0  0  0  0  0  0  0
    0.0922   -2.5776   -1.2937 H   0  0  0  0  0  0  0  0  0  0  0  0
   -1.8802   -1.8179   -2.6617 H   0  0  0  0  0  0  0  0  0  0  0  0
   -0.8867   -0.5383   -3.3631 H   0  0  0  0  0  0  0  0  0  0  0  0
   -0.3187   -3.5411   -3.5679 H   0  0  0  0  0  0  0  0  0  0  0  0
    0.6982   -2.2713   -4.2503 H   0  0  0  0  0  0  0  0  0  0  0  0
   -2.2321   -2.8203   -5.0246 H   0  0  0  0  0  0  0  0  0  0  0  0
   -1.2193   -1.5111   -5.7033 H   0  0  0  0  0  0  0  0  0  0  0  0
   -0.9961   -3.2234   -7.1757 H   0  0  0  0  0  0  0  0  0  0  0  0
   -0.9300   -4.4092   -6.0174 H   0  0  0  0  0  0  0  0  0  0  0  0
    0.3694   -3.4044   -6.2512 H   0  0  0  0  0  0  0  0  0  0  0  0
    1.6488   -0.5301    0.6554 N   0  0  0  0  0  0  0  0  0  0  0  0
    2.5482   -0.6801    1.7745 C   0  0  2  0  0  0  0  0  0  0  0  0
    3.8501    0.0312    1.4302 C   0  0  0  0  0  0  0  0  0  0  0  0
    4.2042    0.2605    0.2756 O   0  0  0  0  0  0  0  0  0  0  0  0
    2.7973   -2.1464    2.0916 C   0  0  0  0  0  0  0  0  0  0  0  0
    2.0174   -0.1920   -0.2286 H   0  0  0  0  0  0  0  0  0  0  0  0
    2.0752   -0.1839    2.6290 H   0  0  0  0  0  0  0  0  0  0  0  0
    3.2708   -2.6602    1.2470 H   0  0  0  0  0  0  0  0  0  0  0  0
    3.4569   -2.2584    2.9584 H   0  0  0  0  0  0  0  0  0  0  0  0
    1.8565   -2.6632    2.3099 H   0  0  0  0  0  0  0  0  0  0  0  0
    4.5905    0.3414    2.5623 N   0  0  0  0  0  0  0  0  0  0  0  0
    5.8705    1.0075    2.4984 C   0  0  0  0  0  0  0  0  0  0  0  0
    4.2110    0.1312    3.4807 H   0  0  0  0  0  0  0  0  0  0  0  0
    6.6740    0.2568    2.4691 H   0  0  0  0  0  0  0  0  0  0  0  0
    5.9157    1.6284    1.5915 H   0  0  0  0  0  0  0  0  0  0  0  0
    5.9966    1.6450    3.3859 H   0  0  0  0  0  0  0  0  0  0  0  0
  1  3  1  0  0  0  0
  1  7  1  0  0  0  0
  1  2  2  0  0  0  0
 40 41  1  0  0  0  0
 41 49  1  0  0  0  0
 41 42  2  0  0  0  0
  8  9  1  0  0  0  0
  9 17  1  0  0  0  0
  9 10  2  0  0  0  0
 18 19  1  0  0  0  0
 19 39  1  0  0  0  0
 19 20  2  0  0  0  0
 40 43  1  0  0  0  0
  8 11  1  0  0  0  0
 49 50  1  0  0  0  0
 22 23  1  0  0  0  0
 21 22  1  0  0  0  0
 23 24  1  0  0  0  0
 18 21  1  0  0  0  0
 24 25  1  0  0  0  0
 39 40  1  0  0  0  0
  7  8  1  0  0  0  0
 17 18  1  0  0  0  0
  3  4  1  0  0  0  0
  3  5  1  0  0  0  0
  3  6  1  0  0  0  0
 43 46  1  0  0  0  0
 43 47  1  0  0  0  0
 43 48  1  0  0  0  0
 11 14  1  0  0  0  0
 11 15  1  0  0  0  0
 11 16  1  0  0  0  0
 50 52  1  0  0  0  0
 50 53  1  0  0  0  0
 50 54  1  0  0  0  0
 22 30  1  0  0  0  0
 22 31  1  0  0  0  0
 23 32  1  0  0  0  0
 23 33  1  0  0  0  0
 21 28  1  0  0  0  0
 21 29  1  0  0  0  0
 24 34  1  0  0  0  0
 24 35  1  0  0  0  0
 40 45  1  0  0  0  0
  8 13  1  0  0  0  0
 18 27  1  0  0  0  0
 49 51  1  0  0  0  0
  7 12  1  0  0  0  0
 39 44  1  0  0  0  0
 17 26  1  0  0  0  0
 25 36  1  0  0  0  0
 25 37  1  0  0  0  0
 25 38  1  0  0  0  0
M  CHG  1  25   1
M  END
$$$$

  -OEChem-05262214473D

 54 53  0     1  0  0  0  0  0999 V2000
    2.6714    2.8829   -3.0005 C   0  0  0  0  0  0  0  0  0  0  0  0
    3.1741    2.4398   -1.9745 O   0  0  0  0  0  0  0  0  0  0  0  0
    3.5527    3.3077   -4.1279 C   0  0  0  0  0  0  0  0  0  0  0  0
    3.8407    4.3691   -4.0597 H   0  0  0  0  0  0  0  0  0  0  0  0
    4.5024    2.7495   -4.1526 H   0  0  0  0  0  0  0  0  0  0  0  0
    3.1208    3.1887   -5.1345 H   0  0  0  0  0  0  0  0  0  0  0  0
    1.3174    3.0407   -3.2467 N   0  0  0  0  0  0  0  0  0  0  0  0
    0.2944    2.6927   -2.2960 C   0  0  2  0  0  0  0  0  0  0  0  0
    0.2976    1.1783   -2.1349 C   0  0  0  0  0  0  0  0  0  0  0  0
    0.7500    0.4142   -2.9850 O   0  0  0  0  0  0  0  0  0  0  0  0
   -1.0710    3.1886   -2.7460 C   0  0  0  0  0  0  0  0  0  0  0  0
    1.0312    3.4224   -4.1464 H   0  0  0  0  0  0  0  0  0  0  0  0
    0.5725    3.1622   -1.3461 H   0  0  0  0  0  0  0  0  0  0  0  0
   -1.3666    2.7292   -3.6963 H   0  0  0  0  0  0  0  0  0  0  0  0
   -1.8434    2.9482   -2.0082 H   0  0  0  0  0  0  0  0  0  0  0  0
   -1.0632    4.2744   -2.8901 H   0  0  0  0  0  0  0  0  0  0  0  0
   -0.3037    0.7742   -0.9484 N   0  0  0  0  0  0  0  0  0  0  0  0
   -0.4352   -0.6095   -0.5718 C   0  0  2  0  0  0  0  0  0  0  0  0
    0.2978   -0.8325    0.7469 C   0  0  0  0  0  0  0  0  0  0  0  0
   -0.1688   -1.4986    1.6688 O   0  0  0  0  0  0  0  0  0  0  0  0
    0.0377   -1.5536   -1.6835 C   0  0  0  0  0  0  0  0  0  0  0  0
   -0.8534   -1.5459   -2.9326 C   0  0  0  0  0  0  0  0  0  0  0  0
   -0.3356   -2.5272   -3.9868 C   0  0  0  0  0  0  0  0  0  0  0  0
   -1.2073   -2.4990   -5.2335 C   0  0  0  0  0  0  0  0  0  0  0  0
   -0.6556   -3.4444   -6.2336 N   0  3  0  0  0  0  0  0  0  0  0  0
   -0.6336    1.4811   -0.2948 H   0  0  0  0  0  0  0  0  0  0  0  0
   -1.5055   -0.7719   -0.3959 H   0  0  0  0  0  0  0  0  0  0  0  0
    1.0581   -1.2731   -1.9753 H   0  0  0  0  0  0  0  0  0  0  0  0
    0.0922   -2.5776   -1.2937 H   0  0  0  0  0  0  0  0  0  0  0  0
   -1.8802   -1.8179   -2.6617 H   0  0  0  0  0  0  0  0  0  0  0  0
   -0.8867   -0.5383   -3.3631 H   0  0  0  0  0  0  0  0  0  0  0  0
   -0.3187   -3.5411   -3.5679 H   0  0  0  0  0  0  0  0  0  0  0  0
    0.6982   -2.2713   -4.2503 H   0  0  0  0  0  0  0  0  0  0  0  0
   -2.2321   -2.8203   -5.0246 H   0  0  0  0  0  0  0  0  0  0  0  0
   -1.2193   -1.5111   -5.7033 H   0  0  0  0  0  0  0  0  0  0  0  0
   -0.9961   -3.2234   -7.1757 H   0  0  0  0  0  0  0  0  0  0  0  0
   -0.9300   -4.4092   -6.0174 H   0  0  0  0  0  0  0  0  0  0  0  0
    0.3694   -3.4044   -6.2512 H   0  0  0  0  0  0  0  0  0  0  0  0
    1.5472   -0.2293    0.7628 N   0  0  0  0  0  0  0  0  0  0  0  0
    2.4304   -0.3192    1.9010 C   0  0  2  0  0  0  0  0  0  0  0  0
    3.5455    0.7009    1.7128 C   0  0  0  0  0  0  0  0  0  0  0  0
    3.8658    1.1495    0.6140 O   0  0  0  0  0  0  0  0  0  0  0  0
    2.9971   -1.7223    2.0522 C   0  0  0  0  0  0  0  0  0  0  0  0
    1.8506    0.2929   -0.0538 H   0  0  0  0  0  0  0  0  0  0  0  0
    1.8374   -0.0543    2.7831 H   0  0  0  0  0  0  0  0  0  0  0  0
    3.5944   -2.0054    1.1778 H   0  0  0  0  0  0  0  0  0  0  0  0
    3.6443   -1.7961    2.9324 H   0  0  0  0  0  0  0  0  0  0  0  0
    2.1928   -2.4583    2.1576 H   0  0  0  0  0  0  0  0  0  0  0  0
    4.1695    1.0190    2.9109 N   0  0  0  0  0  0  0  0  0  0  0  0
    5.2668    1.9544    2.9941 C   0  0  0  0  0  0  0  0  0  0  0  0
    3.8257    0.6135    3.7764 H   0  0  0  0  0  0  0  0  0  0  0  0
    6.2198    1.4104    2.9167 H   0  0  0  0  0  0  0  0  0  0  0  0
    5.1919    2.6814    2.1719 H   0  0  0  0  0  0  0  0  0  0  0  0
    5.2245    2.4844    3.9571 H   0  0  0  0  0  0  0  0  0  0  0  0
  1  3  1  0  0  0  0
  1  7  1  0  0  0  0
  1  2  2  0  0  0  0
 40 41  1  0  0  0  0
 41 49  1  0  0  0  0
 41 42  2  0  0  0  0
  8  9  1  0  0  0  0
  9 17  1  0  0  0  0
  9 10  2  0  0  0  0
 18 19  1  0  0  0  0
 19 39  1  0  0  0  0
 19 20  2  0  0  0  0
 40 43  1  0  0  0  0
  8 11  1  0  0  0  0
 49 50  1  0  0  0  0
 22 23  1  0  0  0  0
 21 22  1  0  0  0  0
 23 24  1  0  0  0  0
 18 21  1  0  0  0  0
 24 25  1  0  0  0  0
 39 40  1  0  0  0  0
  7  8  1  0  0  0  0
 17 18  1  0  0  0  0
  3  4  1  0  0  0  0
  3  5  1  0  0  0  0
  3  6  1  0  0  0  0
 43 46  1  0  0  0  0
 43 47  1  0  0  0  0
 43 48  1  0  0  0  0
 11 14  1  0  0  0  0
 11 15  1  0  0  0  0
 11 16  1  0  0  0  0
 50 52  1  0  0  0  0
 50 53  1  0  0  0  0
 50 54  1  0  0  0  0
 22 30  1  0  0  0  0
 22 31  1  0  0  0  0
 23 32  1  0  0  0  0
 23 33  1  0  0  0  0
 21 28  1  0  0  0  0
 21 29  1  0  0  0  0
 24 34  1  0  0  0  0
 24 35  1  0  0  0  0
 40 45  1  0  0  0  0
  8 13  1  0  0  0  0
 18 27  1  0  0  0  0
 49 51  1  0  0  0  0
  7 12  1  0  0  0  0
 39 44  1  0  0  0  0
 17 26  1  0  0  0  0
 25 36  1  0  0  0  0
 25 37  1  0  0  0  0
 25 38  1  0  0  0  0
M  CHG  1  25   1
M  END
$$$$

  -OEChem-05262214473D

 54 53  0     1  0  0  0  0  0999 V2000
    2.6714    2.8829   -3.0005 C   0  0  0  0  0  0  0  0  0  0  0  0
    3.1741    2.4398   -1.9745 O   0  0  0  0  0  0  0  0  0  0  0  0
    3.5527    3.3077   -4.1279 C   0  0  0  0  0  0  0  0  0  0  0  0
    3.8407    4.3691   -4.0597 H   0  0  0  0  0  0  0  0  0  0  0  0
    4.5024    2.7495   -4.1526 H   0  0  0  0  0  0  0  0  0  0  0  0
    3.1208    3.1887   -5.1345 H   0  0  0  0  0  0  0  0  0  0  0  0
    1.3174    3.0407   -3.2467 N   0  0  0  0  0  0  0  0  0  0  0  0
    0.2944    2.6927   -2.2960 C   0  0  2  0  0  0  0  0  0  0  0  0
    0.2976    1.1783   -2.1349 C   0  0  0  0  0  0  0  0  0  0  0  0
    0.7500    0.4142   -2.9850 O   0  0  0  0  0  0  0  0  0  0  0  0
   -1.0710    3.1886   -2.7460 C   0  0  0  0  0  0  0  0  0  0  0  0
    1.0312    3.4224   -4.1464 H   0  0  0  0  0  0  0  0  0  0  0  0
    0.5725    3.1622   -1.3461 H   0  0  0  0  0  0  0  0  0  0  0  0
   -1.3666    2.7292   -3.6963 H   0  0  0  0  0  0  0  0  0  0  0  0
   -1.8434    2.9482   -2.0082 H   0  0  0  0  0  0  0  0  0  0  0  0
   -1.0632    4.2744   -2.8901 H   0  0  0  0  0  0  0  0  0  0  0  0
   -0.3037    0.7742   -0.9484 N   0  0  0  0  0  0  0  0  0  0  0  0
   -0.4352   -0.6095   -0.5718 C   0  0  2  0  0  0  0  0  0  0  0  0
    0.2978   -0.8325    0.7469 C   0  0  0  0  0  0  0  0  0  0  0  0
   -0.0277   -1.6984    1.5566 O   0  0  0  0  0  0  0  0  0  0  0  0
    0.0377   -1.5536   -1.6835 C   0  0  0  0  0  0  0  0  0  0  0  0
   -0.8534   -1.5459   -2.9326 C   0  0  0  0  0  0  0  0  0  0  0  0
   -0.3356   -2.5272   -3.9868 C   0  0  0  0  0  0  0  0  0  0  0  0
   -1.2073   -2.4990   -5.2335 C   0  0  0  0  0  0  0  0  0  0  0  0
   -0.6556   -3.4444   -6.2336 N   0  3  0  0  0  0  0  0  0  0  0  0
   -0.6336    1.4811   -0.2948 H   0  0  0  0  0  0  0  0  0  0  0  0
   -1.5055   -0.7719   -0.3959 H   0  0  0  0  0  0  0  0  0  0  0  0
    1.0581   -1.2731   -1.9753 H   0  0  0  0  0  0  0  0  0  0  0  0
    0.0922   -2.5776   -1.2937 H   0  0  0  0  0  0  0  0  0  0  0  0
   -1.8802   -1.8179   -2.6617 H   0  0  0  0  0  0  0  0  0  0  0  0
   -0.8867   -0.5383   -3.3631 H   0  0  0  0  0  0  0  0  0  0  0  0
   -0.3187   -3.5411   -3.5679 H   0  0  0  0  0  0  0  0  0  0  0  0
    0.6982   -2.2713   -4.2503 H   0  0  0  0  0  0  0  0  0  0  0  0
   -2.2321   -2.8203   -5.0246 H   0  0  0  0  0  0  0  0  0  0  0  0
   -1.2193   -1.5111   -5.7033 H   0  0  0  0  0  0  0  0  0  0  0  0
   -0.9961   -3.2234   -7.1757 H   0  0  0  0  0  0  0  0  0  0  0  0
   -0.9300   -4.4092   -6.0174 H   0  0  0  0  0  0  0  0  0  0  0  0
    0.3694   -3.4044   -6.2512 H   0  0  0  0  0  0  0  0  0  0  0  0
    1.3777    0.0251    0.9000 N   0  0  0  0  0  0  0  0  0  0  0  0
    2.2311   -0.0127    2.0636 C   0  0  2  0  0  0  0  0  0  0  0  0
    3.0907    1.2445    2.0575 C   0  0  0  0  0  0  0  0  0  0  0  0
    3.3271    1.8904    1.0387 O   0  0  0  0  0  0  0  0  0  0  0  0
    3.0968   -1.2630    2.0745 C   0  0  0  0  0  0  0  0  0  0  0  0
    1.5743    0.7022    0.1689 H   0  0  0  0  0  0  0  0  0  0  0  0
    1.5728   -0.0015    2.9391 H   0  0  0  0  0  0  0  0  0  0  0  0
    3.7632   -1.2919    1.2047 H   0  0  0  0  0  0  0  0  0  0  0  0
    3.7228   -1.3044    2.9719 H   0  0  0  0  0  0  0  0  0  0  0  0
    2.4774   -2.1661    2.0488 H   0  0  0  0  0  0  0  0  0  0  0  0
    3.5981    1.5359    3.3160 N   0  0  0  0  0  0  0  0  0  0  0  0
    4.4531    2.6723    3.5679 C   0  0  0  0  0  0  0  0  0  0  0  0
    3.3345    0.9564    4.1075 H   0  0  0  0  0  0  0  0  0  0  0  0
    5.5059    2.3674    3.4754 H   0  0  0  0  0  0  0  0  0  0  0  0
    4.2352    3.4643    2.8362 H   0  0  0  0  0  0  0  0  0  0  0  0
    4.2692    3.0513    4.5840 H   0  0  0  0  0  0  0  0  0  0  0  0
  1  3  1  0  0  0  0
  1  7  1  0  0  0  0
  1  2  2  0  0  0  0
 40 41  1  0  0  0  0
 41 49  1  0  0  0  0
 41 42  2  0  0  0  0
  8  9  1  0  0  0  0
  9 17  1  0  0  0  0
  9 10  2  0  0  0  0
 18 19  1  0  0  0  0
 19 39  1  0  0  0  0
 19 20  2  0  0  0  0
 40 43  1  0  0  0  0
  8 11  1  0  0  0  0
 49 50  1  0  0  0  0
 22 23  1  0  0  0  0
 21 22  1  0  0  0  0
 23 24  1  0  0  0  0
 18 21  1  0  0  0  0
 24 25  1  0  0  0  0
 39 40  1  0  0  0  0
  7  8  1  0  0  0  0
 17 18  1  0  0  0  0
  3  4  1  0  0  0  0
  3  5  1  0  0  0  0
  3  6  1  0  0  0  0
 43 46  1  0  0  0  0
 43 47  1  0  0  0  0
 43 48  1  0  0  0  0
 11 14  1  0  0  0  0
 11 15  1  0  0  0  0
 11 16  1  0  0  0  0
 50 52  1  0  0  0  0
 50 53  1  0  0  0  0
 50 54  1  0  0  0  0
 22 30  1  0  0  0  0
 22 31  1  0  0  0  0
 23 32  1  0  0  0  0
 23 33  1  0  0  0  0
 21 28  1  0  0  0  0
 21 29  1  0  0  0  0
 24 34  1  0  0  0  0
 24 35  1  0  0  0  0
 40 45  1  0  0  0  0
  8 13  1  0  0  0  0
 18 27  1  0  0  0  0
 49 51  1  0  0  0  0
  7 12  1  0  0  0  0
 39 44  1  0  0  0  0
 17 26  1  0  0  0  0
 25 36  1  0  0  0  0
 25 37  1  0  0  0  0
 25 38  1  0  0  0  0
M  CHG  1  25   1
M  END
$$$$

  -OEChem-05262214473D

 54 53  0     1  0  0  0  0  0999 V2000
    2.6714    2.8829   -3.0005 C   0  0  0  0  0  0  0  0  0  0  0  0
    3.1741    2.4398   -1.9745 O   0  0  0  0  0  0  0  0  0  0  0  0
    3.5527    3.3077   -4.1279 C   0  0  0  0  0  0  0  0  0  0  0  0
    3.8407    4.3691   -4.0597 H   0  0  0  0  0  0  0  0  0  0  0  0
    4.5024    2.7495   -4.1526 H   0  0  0  0  0  0  0  0  0  0  0  0
    3.1208    3.1887   -5.1345 H   0  0  0  0  0  0  0  0  0  0  0  0
    1.3174    3.0407   -3.2467 N   0  0  0  0  0  0  0  0  0  0  0  0
    0.2944    2.6927   -2.2960 C   0  0  2  0  0  0  0  0  0  0  0  0
    0.2976    1.1783   -2.1349 C   0  0  0  0  0  0  0  0  0  0  0  0
    0.7500    0.4142   -2.9850 O   0  0  0  0  0  0  0  0  0  0  0  0
   -1.0710    3.1886   -2.7460 C   0  0  0  0  0  0  0  0  0  0  0  0
    1.0312    3.4224   -4.1464 H   0  0  0  0  0  0  0  0  0  0  0  0
    0.5725    3.1622   -1.3461 H   0  0  0  0  0  0  0  0  0  0  0  0
   -1.3666    2.7292   -3.6963 H   0  0  0  0  0  0  0  0  0  0  0  0
   -1.8434    2.9482   -2.0082 H   0  0  0  0  0  0  0  0  0  0  0  0
   -1.0632    4.2744   -2.8901 H   0  0  0  0  0  0  0  0  0  0  0  0
   -0.3037    0.7742   -0.9484 N   0  0  0  0  0  0  0  0  0  0  0  0
   -0.4352   -0.6095   -0.5718 C   0  0  2  0  0  0  0  0  0  0  0  0
    0.2978   -0.8325    0.7469 C   0  0  0  0  0  0  0  0  0  0  0  0
    0.1575   -1.8458    1.4288 O   0  0  0  0  0  0  0  0  0  0  0  0
    0.0377   -1.5536   -1.6835 C   0  0  0  0  0  0  0  0  0  0  0  0
   -0.8534   -1.5459   -2.9326 C   0  0  0  0  0  0  0  0  0  0  0  0
   -0.3356   -2.5272   -3.9868 C   0  0  0  0  0  0  0  0  0  0  0  0
   -1.2073   -2.4990   -5.2335 C   0  0  0  0  0  0  0  0  0  0  0  0
   -0.6556   -3.4444   -6.2336 N   0  3  0  0  0  0  0  0  0  0  0  0
   -0.6336    1.4811   -0.2948 H   0  0  0  0  0  0  0  0  0  0  0  0
   -1.5055   -0.7719   -0.3959 H   0  0  0  0  0  0  0  0  0  0  0  0
    1.0581   -1.2731   -1.9753 H   0  0  0  0  0  0  0  0  0  0  0  0
    0.0922   -2.5776   -1.2937 H   0  0  0  0  0  0  0  0  0  0  0  0
   -1.8802   -1.8179   -2.6617 H   0  0  0  0  0  0  0  0  0  0  0  0
   -0.8867   -0.5383   -3.3631 H   0  0  0  0  0  0  0  0  0  0  0  0
   -0.3187   -3.5411   -3.5679 H   0  0  0  0  0  0  0  0  0  0  0  0
    0.6982   -2.2713   -4.2503 H   0  0  0  0  0  0  0  0  0  0  0  0
   -2.2321   -2.8203   -5.0246 H   0  0  0  0  0  0  0  0  0  0  0  0
   -1.2193   -1.5111   -5.7033 H   0  0  0  0  0  0  0  0  0  0  0  0
   -0.9961   -3.2234   -7.1757 H   0  0  0  0  0  0  0  0  0  0  0  0
   -0.9300   -4.4092   -6.0174 H   0  0  0  0  0  0  0  0  0  0  0  0
    0.3694   -3.4044   -6.2512 H   0  0  0  0  0  0  0  0  0  0  0  0
    1.1518    0.2159    1.0579 N   0  0  0  0  0  0  0  0  0  0  0  0
    1.9639    0.2185    2.2513 C   0  0  2  0  0  0  0  0  0  0  0  0
    2.5167    1.6248    2.4409 C   0  0  0  0  0  0  0  0  0  0  0  0
    2.6250    2.4327    1.5207 O   0  0  0  0  0  0  0  0  0  0  0  0
    3.0894   -0.7999    2.1569 C   0  0  0  0  0  0  0  0  0  0  0  0
    1.2074    1.0080    0.4246 H   0  0  0  0  0  0  0  0  0  0  0  0
    1.2995   -0.0291    3.0864 H   0  0  0  0  0  0  0  0  0  0  0  0
    3.7654   -0.5683    1.3258 H   0  0  0  0  0  0  0  0  0  0  0  0
    3.6871   -0.8168    3.0742 H   0  0  0  0  0  0  0  0  0  0  0  0
    2.6911   -1.8067    1.9908 H   0  0  0  0  0  0  0  0  0  0  0  0
    2.9151    1.8569    3.7499 N   0  0  0  0  0  0  0  0  0  0  0  0
    3.4847    3.1123    4.1806 C   0  0  0  0  0  0  0  0  0  0  0  0
    2.7707    1.1365    4.4513 H   0  0  0  0  0  0  0  0  0  0  0  0
    4.5811    3.0626    4.1070 H   0  0  0  0  0  0  0  0  0  0  0  0
    3.1107    3.9238    3.5390 H   0  0  0  0  0  0  0  0  0  0  0  0
    3.1958    3.3071    5.2239 H   0  0  0  0  0  0  0  0  0  0  0  0
  1  3  1  0  0  0  0
  1  7  1  0  0  0  0
  1  2  2  0  0  0  0
 40 41  1  0  0  0  0
 41 49  1  0  0  0  0
 41 42  2  0  0  0  0
  8  9  1  0  0  0  0
  9 17  1  0  0  0  0
  9 10  2  0  0  0  0
 18 19  1  0  0  0  0
 19 39  1  0  0  0  0
 19 20  2  0  0  0  0
 40 43  1  0  0  0  0
  8 11  1  0  0  0  0
 49 50  1  0  0  0  0
 22 23  1  0  0  0  0
 21 22  1  0  0  0  0
 23 24  1  0  0  0  0
 18 21  1  0  0  0  0
 24 25  1  0  0  0  0
 39 40  1  0  0  0  0
  7  8  1  0  0  0  0
 17 18  1  0  0  0  0
  3  4  1  0  0  0  0
  3  5  1  0  0  0  0
  3  6  1  0  0  0  0
 43 46  1  0  0  0  0
 43 47  1  0  0  0  0
 43 48  1  0  0  0  0
 11 14  1  0  0  0  0
 11 15  1  0  0  0  0
 11 16  1  0  0  0  0
 50 52  1  0  0  0  0
 50 53  1  0  0  0  0
 50 54  1  0  0  0  0
 22 30  1  0  0  0  0
 22 31  1  0  0  0  0
 23 32  1  0  0  0  0
 23 33  1  0  0  0  0
 21 28  1  0  0  0  0
 21 29  1  0  0  0  0
 24 34  1  0  0  0  0
 24 35  1  0  0  0  0
 40 45  1  0  0  0  0
  8 13  1  0  0  0  0
 18 27  1  0  0  0  0
 49 51  1  0  0  0  0
  7 12  1  0  0  0  0
 39 44  1  0  0  0  0
 17 26  1  0  0  0  0
 25 36  1  0  0  0  0
 25 37  1  0  0  0  0
 25 38  1  0  0  0  0
M  CHG  1  25   1
M  END
$$$$

  -OEChem-05262214473D

 54 53  0     1  0  0  0  0  0999 V2000
    2.6714    2.8829   -3.0005 C   0  0  0  0  0  0  0  0  0  0  0  0
    3.1741    2.4398   -1.9745 O   0  0  0  0  0  0  0  0  0  0  0  0
    3.5527    3.3077   -4.1279 C   0  0  0  0  0  0  0  0  0  0  0  0
    3.8407    4.3691   -4.0597 H   0  0  0  0  0  0  0  0  0  0  0  0
    4.5024    2.7495   -4.1526 H   0  0  0  0  0  0  0  0  0  0  0  0
    3.1208    3.1887   -5.1345 H   0  0  0  0  0  0  0  0  0  0  0  0
    1.3174    3.0407   -3.2467 N   0  0  0  0  0  0  0  0  0  0  0  0
    0.2944    2.6927   -2.2960 C   0  0  2  0  0  0  0  0  0  0  0  0
    0.2976    1.1783   -2.1349 C   0  0  0  0  0  0  0  0  0  0  0  0
    0.7500    0.4142   -2.9850 O   0  0  0  0  0  0  0  0  0  0  0  0
   -1.0710    3.1886   -2.7460 C   0  0  0  0  0  0  0  0  0  0  0  0
    1.0312    3.4224   -4.1464 H   0  0  0  0  0  0  0  0  0  0  0  0
    0.5725    3.1622   -1.3461 H   0  0  0  0  0  0  0  0  0  0  0  0
   -1.3666    2.7292   -3.6963 H   0  0  0  0  0  0  0  0  0  0  0  0
   -1.8434    2.9482   -2.0082 H   0  0  0  0  0  0  0  0  0  0  0  0
   -1.0632    4.2744   -2.8901 H   0  0  0  0  0  0  0  0  0  0  0  0
   -0.3037    0.7742   -0.9484 N   0  0  0  0  0  0  0  0  0  0  0  0
   -0.4352   -0.6095   -0.5718 C   0  0  2  0  0  0  0  0  0  0  0  0
    0.2978   -0.8325    0.7469 C   0  0  0  0  0  0  0  0  0  0  0  0
    0.3742   -1.9309    1.2939 O   0  0  0  0  0  0  0  0  0  0  0  0
    0.0377   -1.5536   -1.6835 C   0  0  0  0  0  0  0  0  0  0  0  0
   -0.8534   -1.5459   -2.9326 C   0  0  0  0  0  0  0  0  0  0  0  0
   -0.3356   -2.5272   -3.9868 C   0  0  0  0  0  0  0  0  0  0  0  0
   -1.2073   -2.4990   -5.2335 C   0  0  0  0  0  0  0  0  0  0  0  0
   -0.6556   -3.4444   -6.2336 N   0  3  0  0  0  0  0  0  0  0  0  0
   -0.6336    1.4811   -0.2948 H   0  0  0  0  0  0  0  0  0  0  0  0
   -1.5055   -0.7719   -0.3959 H   0  0  0  0  0  0  0  0  0  0  0  0
    1.0581   -1.2731   -1.9753 H   0  0  0  0  0  0  0  0  0  0  0  0
    0.0922   -2.5776   -1.2937 H   0  0  0  0  0  0  0  0  0  0  0  0
   -1.8802   -1.8179   -2.6617 H   0  0  0  0  0  0  0  0  0  0  0  0
   -0.8867   -0.5383   -3.3631 H   0  0  0  0  0  0  0  0  0  0  0  0
   -0.3187   -3.5411   -3.5679 H   0  0  0  0  0  0  0  0  0  0  0  0
    0.6982   -2.2713   -4.2503 H   0  0  0  0  0  0  0  0  0  0  0  0
   -2.2321   -2.8203   -5.0246 H   0  0  0  0  0  0  0  0  0  0  0  0
   -1.2193   -1.5111   -5.7033 H   0  0  0  0  0  0  0  0  0  0  0  0
   -0.9961   -3.2234   -7.1757 H   0  0  0  0  0  0  0  0  0  0  0  0
   -0.9300   -4.4092   -6.0174 H   0  0  0  0  0  0  0  0  0  0  0  0
    0.3694   -3.4044   -6.2512 H   0  0  0  0  0  0  0  0  0  0  0  0
    0.8850    0.3299    1.2255 N   0  0  0  0  0  0  0  0  0  0  0  0
    1.6469    0.3586    2.4512 C   0  0  2  0  0  0  0  0  0  0  0  0
    1.8627    1.8161    2.8368 C   0  0  0  0  0  0  0  0  0  0  0  0
    1.8072    2.7395    2.0272 O   0  0  0  0  0  0  0  0  0  0  0  0
    2.9755   -0.3644    2.2939 C   0  0  0  0  0  0  0  0  0  0  0  0
    0.7750    1.1895    0.6957 H   0  0  0  0  0  0  0  0  0  0  0  0
    1.0362   -0.1352    3.2148 H   0  0  0  0  0  0  0  0  0  0  0  0
    3.6011    0.1161    1.5328 H   0  0  0  0  0  0  0  0  0  0  0  0
    3.5396   -0.3665    3.2323 H   0  0  0  0  0  0  0  0  0  0  0  0
    2.8193   -1.4044    1.9875 H   0  0  0  0  0  0  0  0  0  0  0  0
    2.1671    1.9601    4.1832 N   0  0  0  0  0  0  0  0  0  0  0  0
    2.4276    3.2444    4.7905 C   0  0  0  0  0  0  0  0  0  0  0  0
    2.1729    1.1416    4.7845 H   0  0  0  0  0  0  0  0  0  0  0  0
    3.5083    3.4485    4.7686 H   0  0  0  0  0  0  0  0  0  0  0  0
    1.8951    4.0286    4.2324 H   0  0  0  0  0  0  0  0  0  0  0  0
    2.0776    3.2345    5.8333 H   0  0  0  0  0  0  0  0  0  0  0  0
  1  3  1  0  0  0  0
  1  7  1  0  0  0  0
  1  2  2  0  0  0  0
 40 41  1  0  0  0  0
 41 49  1  0  0  0  0
 41 42  2  0  0  0  0
  8  9  1  0  0  0  0
  9 17  1  0  0  0  0
  9 10  2  0  0  0  0
 18 19  1  0  0  0  0
 19 39  1  0  0  0  0
 19 20  2  0  0  0  0
 40 43  1  0  0  0  0
  8 11  1  0  0  0  0
 49 50  1  0  0  0  0
 22 23  1  0  0  0  0
 21 22  1  0  0  0  0
 23 24  1  0  0  0  0
 18 21  1  0  0  0  0
 24 25  1  0  0  0  0
 39 40  1  0  0  0  0
  7  8  1  0  0  0  0
 17 18  1  0  0  0  0
  3  4  1  0  0  0  0
  3  5  1  0  0  0  0
  3  6  1  0  0  0  0
 43 46  1  0  0  0  0
 43 47  1  0  0  0  0
 43 48  1  0  0  0  0
 11 14  1  0  0  0  0
 11 15  1  0  0  0  0
 11 16  1  0  0  0  0
 50 52  1  0  0  0  0
 50 53  1  0  0  0  0
 50 54  1  0  0  0  0
 22 30  1  0  0  0  0
 22 31  1  0  0  0  0
 23 32  1  0  0  0  0
 23 33  1  0  0  0  0
 21 28  1  0  0  0  0
 21 29  1  0  0  0  0
 24 34  1  0  0  0  0
 24 35  1  0  0  0  0
 40 45  1  0  0  0  0
  8 13  1  0  0  0  0
 18 27  1  0  0  0  0
 49 51  1  0  0  0  0
  7 12  1  0  0  0  0
 39 44  1  0  0  0  0
 17 26  1  0  0  0  0
 25 36  1  0  0  0  0
 25 37  1  0  0  0  0
 25 38  1  0  0  0  0
M  CHG  1  25   1
M  END
$$$$

  -OEChem-05262214473D

 54 53  0     1  0  0  0  0  0999 V2000
    2.6714    2.8829   -3.0005 C   0  0  0  0  0  0  0  0  0  0  0  0
    3.1741    2.4398   -1.9745 O   0  0  0  0  0  0  0  0  0  0  0  0
    3.5527    3.3077   -4.1279 C   0  0  0  0  0  0  0  0  0  0  0  0
    3.8407    4.3691   -4.0597 H   0  0  0  0  0  0  0  0  0  0  0  0
    4.5024    2.7495   -4.1526 H   0  0  0  0  0  0  0  0  0  0  0  0
    3.1208    3.1887   -5.1345 H   0  0  0  0  0  0  0  0  0  0  0  0
    1.3174    3.0407   -3.2467 N   0  0  0  0  0  0  0  0  0  0  0  0
    0.2944    2.6927   -2.2960 C   0  0  2  0  0  0  0  0  0  0  0  0
    0.2976    1.1783   -2.1349 C   0  0  0  0  0  0  0  0  0  0  0  0
    0.7500    0.4142   -2.9850 O   0  0  0  0  0  0  0  0  0  0  0  0
   -1.0710    3.1886   -2.7460 C   0  0  0  0  0  0  0  0  0  0  0  0
    1.0312    3.4224   -4.1464 H   0  0  0  0  0  0  0  0  0  0  0  0
    0.5725    3.1622   -1.3461 H   0  0  0  0  0  0  0  0  0  0  0  0
   -1.3666    2.7292   -3.6963 H   0  0  0  0  0  0  0  0  0  0  0  0
   -1.8434    2.9482   -2.0082 H   0  0  0  0  0  0  0  0  0  0  0  0
   -1.0632    4.2744   -2.8901 H   0  0  0  0  0  0  0  0  0  0  0  0
   -0.3037    0.7742   -0.9484 N   0  0  0  0  0  0  0  0  0  0  0  0
   -0.4352   -0.6095   -0.5718 C   0  0  2  0  0  0  0  0  0  0  0  0
    0.2978   -0.8325    0.7469 C   0  0  0  0  0  0  0  0  0  0  0  0
    0.6077   -1.9477    1.1613 O   0  0  0  0  0  0  0  0  0  0  0  0
    0.0377   -1.5536   -1.6835 C   0  0  0  0  0  0  0  0  0  0  0  0
   -0.8534   -1.5459   -2.9326 C   0  0  0  0  0  0  0  0  0  0  0  0
   -0.3356   -2.5272   -3.9868 C   0  0  0  0  0  0  0  0  0  0  0  0
   -1.2073   -2.4990   -5.2335 C   0  0  0  0  0  0  0  0  0  0  0  0
   -0.6556   -3.4444   -6.2336 N   0  3  0  0  0  0  0  0  0  0  0  0
   -0.6336    1.4811   -0.2948 H   0  0  0  0  0  0  0  0  0  0  0  0
   -1.5055   -0.7719   -0.3959 H   0  0  0  0  0  0  0  0  0  0  0  0
    1.0581   -1.2731   -1.9753 H   0  0  0  0  0  0  0  0  0  0  0  0
    0.0922   -2.5776   -1.2937 H   0  0  0  0  0  0  0  0  0  0  0  0
   -1.8802   -1.8179   -2.6617 H   0  0  0  0  0  0  0  0  0  0  0  0
   -0.8867   -0.5383   -3.3631 H   0  0  0  0  0  0  0  0  0  0  0  0
   -0.3187   -3.5411   -3.5679 H   0  0  0  0  0  0  0  0  0  0  0  0
    0.6982   -2.2713   -4.2503 H   0  0  0  0  0  0  0  0  0  0  0  0
   -2.2321   -2.8203   -5.0246 H   0  0  0  0  0  0  0  0  0  0  0  0
   -1.2193   -1.5111   -5.7033 H   0  0  0  0  0  0  0  0  0  0  0  0
   -0.9961   -3.2234   -7.1757 H   0  0  0  0  0  0  0  0  0  0  0  0
   -0.9300   -4.4092   -6.0174 H   0  0  0  0  0  0  0  0  0  0  0  0
    0.3694   -3.4044   -6.2512 H   0  0  0  0  0  0  0  0  0  0  0  0
    0.5953    0.3596    1.3915 N   0  0  0  0  0  0  0  0  0  0  0  0
    1.3018    0.3982    2.6497 C   0  0  2  0  0  0  0  0  0  0  0  0
    1.1731    1.8052    3.2183 C   0  0  0  0  0  0  0  0  0  0  0  0
    0.9294    2.7897    2.5237 O   0  0  0  0  0  0  0  0  0  0  0  0
    2.7628    0.0137    2.4760 C   0  0  0  0  0  0  0  0  0  0  0  0
    0.3063    1.2343    0.9638 H   0  0  0  0  0  0  0  0  0  0  0  0
    0.8007   -0.3127    3.3157 H   0  0  0  0  0  0  0  0  0  0  0  0
    3.2814    0.7146    1.8117 H   0  0  0  0  0  0  0  0  0  0  0  0
    3.2904    0.0158    3.4355 H   0  0  0  0  0  0  0  0  0  0  0  0
    2.8532   -0.9868    2.0393 H   0  0  0  0  0  0  0  0  0  0  0  0
    1.4051    1.8386    4.5862 N   0  0  0  0  0  0  0  0  0  0  0  0
    1.3540    3.0595    5.3561 C   0  0  0  0  0  0  0  0  0  0  0  0
    1.5817    0.9712    5.0844 H   0  0  0  0  0  0  0  0  0  0  0  0
    2.3607    3.4989    5.4151 H   0  0  0  0  0  0  0  0  0  0  0  0
    0.6713    3.7715    4.8693 H   0  0  0  0  0  0  0  0  0  0  0  0
    0.9906    2.8382    6.3705 H   0  0  0  0  0  0  0  0  0  0  0  0
  1  3  1  0  0  0  0
  1  7  1  0  0  0  0
  1  2  2  0  0  0  0
 40 41  1  0  0  0  0
 41 49  1  0  0  0  0
 41 42  2  0  0  0  0
  8  9  1  0  0  0  0
  9 17  1  0  0  0  0
  9 10  2  0  0  0  0
 18 19  1  0  0  0  0
 19 39  1  0  0  0  0
 19 20  2  0  0  0  0
 40 43  1  0  0  0  0
  8 11  1  0  0  0  0
 49 50  1  0  0  0  0
 22 23  1  0  0  0  0
 21 22  1  0  0  0  0
 23 24  1  0  0  0  0
 18 21  1  0  0  0  0
 24 25  1  0  0  0  0
 39 40  1  0  0  0  0
  7  8  1  0  0  0  0
 17 18  1  0  0  0  0
  3  4  1  0  0  0  0
  3  5  1  0  0  0  0
  3  6  1  0  0  0  0
 43 46  1  0  0  0  0
 43 47  1  0  0  0  0
 43 48  1  0  0  0  0
 11 14  1  0  0  0  0
 11 15  1  0  0  0  0
 11 16  1  0  0  0  0
 50 52  1  0  0  0  0
 50 53  1  0  0  0  0
 50 54  1  0  0  0  0
 22 30  1  0  0  0  0
 22 31  1  0  0  0  0
 23 32  1  0  0  0  0
 23 33  1  0  0  0  0
 21 28  1  0  0  0  0
 21 29  1  0  0  0  0
 24 34  1  0  0  0  0
 24 35  1  0  0  0  0
 40 45  1  0  0  0  0
  8 13  1  0  0  0  0
 18 27  1  0  0  0  0
 49 51  1  0  0  0  0
  7 12  1  0  0  0  0
 39 44  1  0  0  0  0
 17 26  1  0  0  0  0
 25 36  1  0  0  0  0
 25 37  1  0  0  0  0
 25 38  1  0  0  0  0
M  CHG  1  25   1
M  END
$$$$

  -OEChem-05262214473D

 54 53  0     1  0  0  0  0  0999 V2000
    2.6714    2.8829   -3.0005 C   0  0  0  0  0  0  0  0  0  0  0  0
    3.1741    2.4398   -1.9745 O   0  0  0  0  0  0  0  0  0  0  0  0
    3.5527    3.3077   -4.1279 C   0  0  0  0  0  0  0  0  0  0  0  0
    3.8407    4.3691   -4.0597 H   0  0  0  0  0  0  0  0  0  0  0  0
    4.5024    2.7495   -4.1526 H   0  0  0  0  0  0  0  0  0  0  0  0
    3.1208    3.1887   -5.1345 H   0  0  0  0  0  0  0  0  0  0  0  0
    1.3174    3.0407   -3.2467 N   0  0  0  0  0  0  0  0  0  0  0  0
    0.2944    2.6927   -2.2960 C   0  0  2  0  0  0  0  0  0  0  0  0
    0.2976    1.1783   -2.1349 C   0  0  0  0  0  0  0  0  0  0  0  0
    0.7500    0.4142   -2.9850 O   0  0  0  0  0  0  0  0  0  0  0  0
   -1.0710    3.1886   -2.7460 C   0  0  0  0  0  0  0  0  0  0  0  0
    1.0312    3.4224   -4.1464 H   0  0  0  0  0  0  0  0  0  0  0  0
    0.5725    3.1622   -1.3461 H   0  0  0  0  0  0  0  0  0  0  0  0
   -1.3666    2.7292   -3.6963 H   0  0  0  0  0  0  0  0  0  0  0  0
   -1.8434    2.9482   -2.0082 H   0  0  0  0  0  0  0  0  0  0  0  0
   -1.0632    4.2744   -2.8901 H   0  0  0  0  0  0  0  0  0  0  0  0
   -0.3037    0.7742   -0.9484 N   0  0  0  0  0  0  0  0  0  0  0  0
   -0.4352   -0.6095   -0.5718 C   0  0  2  0  0  0  0  0  0  0  0  0
    0.2978   -0.8325    0.7469 C   0  0  0  0  0  0  0  0  0  0  0  0
    0.8420   -1.8953    1.0399 O   0  0  0  0  0  0  0  0  0  0  0  0
    0.0377   -1.5536   -1.6835 C   0  0  0  0  0  0  0  0  0  0  0  0
   -0.8534   -1.5459   -2.9326 C   0  0  0  0  0  0  0  0  0  0  0  0
   -0.3356   -2.5272   -3.9868 C   0  0  0  0  0  0  0  0  0  0  0  0
   -1.2073   -2.4990   -5.2335 C   0  0  0  0  0  0  0  0  0  0  0  0
   -0.6556   -3.4444   -6.2336 N   0  3  0  0  0  0  0  0  0  0  0  0
   -0.6336    1.4811   -0.2948 H   0  0  0  0  0  0  0  0  0  0  0  0
   -1.5055   -0.7719   -0.3959 H   0  0  0  0  0  0  0  0  0  0  0  0
    1.0581   -1.2731   -1.9753 H   0  0  0  0  0  0  0  0  0  0  0  0
    0.0922   -2.5776   -1.2937 H   0  0  0  0  0  0  0  0  0  0  0  0
   -1.8802   -1.8179   -2.6617 H   0  0  0  0  0  0  0  0  0  0  0  0
   -0.8867   -0.5383   -3.3631 H   0  0  0  0  0  0  0  0  0  0  0  0
   -0.3187   -3.5411   -3.5679 H   0  0  0  0  0  0  0  0  0  0  0  0
    0.6982   -2.2713   -4.2503 H   0  0  0  0  0  0  0  0  0  0  0  0
   -2.2321   -2.8203   -5.0246 H   0  0  0  0  0  0  0  0  0  0  0  0
   -1.2193   -1.5111   -5.7033 H   0  0  0  0  0  0  0  0  0  0  0  0
   -0.9961   -3.2234   -7.1757 H   0  0  0  0  0  0  0  0  0  0  0  0
   -0.9300   -4.4092   -6.0174 H   0  0  0  0  0  0  0  0  0  0  0  0
    0.3694   -3.4044   -6.2512 H   0  0  0  0  0  0  0  0  0  0  0  0
    0.3026    0.3027    1.5446 N   0  0  0  0  0  0  0  0  0  0  0  0
    0.9521    0.3345    2.8334 C   0  0  2  0  0  0  0  0  0  0  0  0
    0.4951    1.5930    3.5593 C   0  0  0  0  0  0  0  0  0  0  0  0
    0.0515    2.5801    2.9762 O   0  0  0  0  0  0  0  0  0  0  0  0
    2.4659    0.3086    2.6909 C   0  0  0  0  0  0  0  0  0  0  0  0
   -0.1665    1.1393    1.2105 H   0  0  0  0  0  0  0  0  0  0  0  0
    0.6091   -0.5493    3.3822 H   0  0  0  0  0  0  0  0  0  0  0  0
    2.8281    1.1865    2.1435 H   0  0  0  0  0  0  0  0  0  0  0  0
    2.9565    0.3040    3.6699 H   0  0  0  0  0  0  0  0  0  0  0  0
    2.7906   -0.5823    2.1425 H   0  0  0  0  0  0  0  0  0  0  0  0
    0.6811    1.5005    4.9315 N   0  0  0  0  0  0  0  0  0  0  0  0
    0.3369    2.5703    5.8388 C   0  0  0  0  0  0  0  0  0  0  0  0
    1.0374    0.6370    5.3304 H   0  0  0  0  0  0  0  0  0  0  0  0
    1.2164    3.2103    6.0024 H   0  0  0  0  0  0  0  0  0  0  0  0
   -0.4775    3.1700    5.4061 H   0  0  0  0  0  0  0  0  0  0  0  0
    0.0091    2.1454    6.7990 H   0  0  0  0  0  0  0  0  0  0  0  0
  1  3  1  0  0  0  0
  1  7  1  0  0  0  0
  1  2  2  0  0  0  0
 40 41  1  0  0  0  0
 41 49  1  0  0  0  0
 41 42  2  0  0  0  0
  8  9  1  0  0  0  0
  9 17  1  0  0  0  0
  9 10  2  0  0  0  0
 18 19  1  0  0  0  0
 19 39  1  0  0  0  0
 19 20  2  0  0  0  0
 40 43  1  0  0  0  0
  8 11  1  0  0  0  0
 49 50  1  0  0  0  0
 22 23  1  0  0  0  0
 21 22  1  0  0  0  0
 23 24  1  0  0  0  0
 18 21  1  0  0  0  0
 24 25  1  0  0  0  0
 39 40  1  0  0  0  0
  7  8  1  0  0  0  0
 17 18  1  0  0  0  0
  3  4  1  0  0  0  0
  3  5  1  0  0  0  0
  3  6  1  0  0  0  0
 43 46  1  0  0  0  0
 43 47  1  0  0  0  0
 43 48  1  0  0  0  0
 11 14  1  0  0  0  0
 11 15  1  0  0  0  0
 11 16  1  0  0  0  0
 50 52  1  0  0  0  0
 50 53  1  0  0  0  0
 50 54  1  0  0  0  0
 22 30  1  0  0  0  0
 22 31  1  0  0  0  0
 23 32  1  0  0  0  0
 23 33  1  0  0  0  0
 21 28  1  0  0  0  0
 21 29  1  0  0  0  0
 24 34  1  0  0  0  0
 24 35  1  0  0  0  0
 40 45  1  0  0  0  0
  8 13  1  0  0  0  0
 18 27  1  0  0  0  0
 49 51  1  0  0  0  0
  7 12  1  0  0  0  0
 39 44  1  0  0  0  0
 17 26  1  0  0  0  0
 25 36  1  0  0  0  0
 25 37  1  0  0  0  0
 25 38  1  0  0  0  0
M  CHG  1  25   1
M  END
$$$$

  -OEChem-05262214473D

 54 53  0     1  0  0  0  0  0999 V2000
    2.6714    2.8829   -3.0005 C   0  0  0  0  0  0  0  0  0  0  0  0
    3.1741    2.4398   -1.9745 O   0  0  0  0  0  0  0  0  0  0  0  0
    3.5527    3.3077   -4.1279 C   0  0  0  0  0  0  0  0  0  0  0  0
    3.8407    4.3691   -4.0597 H   0  0  0  0  0  0  0  0  0  0  0  0
    4.5024    2.7495   -4.1526 H   0  0  0  0  0  0  0  0  0  0  0  0
    3.1208    3.1887   -5.1345 H   0  0  0  0  0  0  0  0  0  0  0  0
    1.3174    3.0407   -3.2467 N   0  0  0  0  0  0  0  0  0  0  0  0
    0.2944    2.6927   -2.2960 C   0  0  2  0  0  0  0  0  0  0  0  0
    0.2976    1.1783   -2.1349 C   0  0  0  0  0  0  0  0  0  0  0  0
    0.7500    0.4142   -2.9850 O   0  0  0  0  0  0  0  0  0  0  0  0
   -1.0710    3.1886   -2.7460 C   0  0  0  0  0  0  0  0  0  0  0  0
    1.0312    3.4224   -4.1464 H   0  0  0  0  0  0  0  0  0  0  0  0
    0.5725    3.1622   -1.3461 H   0  0  0  0  0  0  0  0  0  0  0  0
   -1.3666    2.7292   -3.6963 H   0  0  0  0  0  0  0  0  0  0  0  0
   -1.8434    2.9482   -2.0082 H   0  0  0  0  0  0  0  0  0  0  0  0
   -1.0632    4.2744   -2.8901 H   0  0  0  0  0  0  0  0  0  0  0  0
   -0.3037    0.7742   -0.9484 N   0  0  0  0  0  0  0  0  0  0  0  0
   -0.4352   -0.6095   -0.5718 C   0  0  2  0  0  0  0  0  0  0  0  0
    0.2978   -0.8325    0.7469 C   0  0  0  0  0  0  0  0  0  0  0  0
    1.0612   -1.7771    0.9380 O   0  0  0  0  0  0  0  0  0  0  0  0
    0.0377   -1.5536   -1.6835 C   0  0  0  0  0  0  0  0  0  0  0  0
   -0.8534   -1.5459   -2.9326 C   0  0  0  0  0  0  0  0  0  0  0  0
   -0.3356   -2.5272   -3.9868 C   0  0  0  0  0  0  0  0  0  0  0  0
   -1.2073   -2.4990   -5.2335 C   0  0  0  0  0  0  0  0  0  0  0  0
   -0.6556   -3.4444   -6.2336 N   0  3  0  0  0  0  0  0  0  0  0  0
   -0.6336    1.4811   -0.2948 H   0  0  0  0  0  0  0  0  0  0  0  0
   -1.5055   -0.7719   -0.3959 H   0  0  0  0  0  0  0  0  0  0  0  0
    1.0581   -1.2731   -1.9753 H   0  0  0  0  0  0  0  0  0  0  0  0
    0.0922   -2.5776   -1.2937 H   0  0  0  0  0  0  0  0  0  0  0  0
   -1.8802   -1.8179   -2.6617 H   0  0  0  0  0  0  0  0  0  0  0  0
   -0.8867   -0.5383   -3.3631 H   0  0  0  0  0  0  0  0  0  0  0  0
   -0.3187   -3.5411   -3.5679 H   0  0  0  0  0  0  0  0  0  0  0  0
    0.6982   -2.2713   -4.2503 H   0  0  0  0  0  0  0  0  0  0  0  0
   -2.2321   -2.8203   -5.0246 H   0  0  0  0  0  0  0  0  0  0  0  0
   -1.2193   -1.5111   -5.7033 H   0  0  0  0  0  0  0  0  0  0  0  0
   -0.9961   -3.2234   -7.1757 H   0  0  0  0  0  0  0  0  0  0  0  0
   -0.9300   -4.4092   -6.0174 H   0  0  0  0  0  0  0  0  0  0  0  0
    0.3694   -3.4044   -6.2512 H   0  0  0  0  0  0  0  0  0  0  0  0
    0.0269    0.1632    1.6743 N   0  0  0  0  0  0  0  0  0  0  0  0
    0.6216    0.1719    2.9896 C   0  0  2  0  0  0  0  0  0  0  0  0
   -0.1253    1.1938    3.8367 C   0  0  0  0  0  0  0  0  0  0  0  0
   -0.7667    2.1248    3.3541 O   0  0  0  0  0  0  0  0  0  0  0  0
    2.1050    0.5003    2.9240 C   0  0  0  0  0  0  0  0  0  0  0  0
   -0.6113    0.9111    1.4192 H   0  0  0  0  0  0  0  0  0  0  0  0
    0.4745   -0.8290    3.4097 H   0  0  0  0  0  0  0  0  0  0  0  0
    2.2721    1.4996    2.5056 H   0  0  0  0  0  0  0  0  0  0  0  0
    2.5606    0.4785    3.9195 H   0  0  0  0  0  0  0  0  0  0  0  0
    2.6356   -0.2184    2.2902 H   0  0  0  0  0  0  0  0  0  0  0  0
    0.0443    0.9690    5.1956 N   0  0  0  0  0  0  0  0  0  0  0  0
   -0.5544    1.8101    6.2057 C   0  0  0  0  0  0  0  0  0  0  0  0
    0.5771    0.1618    5.5059 H   0  0  0  0  0  0  0  0  0  0  0  0
    0.1535    2.6024    6.4905 H   0  0  0  0  0  0  0  0  0  0  0  0
   -1.4728    2.2653    5.8064 H   0  0  0  0  0  0  0  0  0  0  0  0
   -0.8002    1.2032    7.0895 H   0  0  0  0  0  0  0  0  0  0  0  0
  1  3  1  0  0  0  0
  1  7  1  0  0  0  0
  1  2  2  0  0  0  0
 40 41  1  0  0  0  0
 41 49  1  0  0  0  0
 41 42  2  0  0  0  0
  8  9  1  0  0  0  0
  9 17  1  0  0  0  0
  9 10  2  0  0  0  0
 18 19  1  0  0  0  0
 19 39  1  0  0  0  0
 19 20  2  0  0  0  0
 40 43  1  0  0  0  0
  8 11  1  0  0  0  0
 49 50  1  0  0  0  0
 22 23  1  0  0  0  0
 21 22  1  0  0  0  0
 23 24  1  0  0  0  0
 18 21  1  0  0  0  0
 24 25  1  0  0  0  0
 39 40  1  0  0  0  0
  7  8  1  0  0  0  0
 17 18  1  0  0  0  0
  3  4  1  0  0  0  0
  3  5  1  0  0  0  0
  3  6  1  0  0  0  0
 43 46  1  0  0  0  0
 43 47  1  0  0  0  0
 43 48  1  0  0  0  0
 11 14  1  0  0  0  0
 11 15  1  0  0  0  0
 11 16  1  0  0  0  0
 50 52  1  0  0  0  0
 50 53  1  0  0  0  0
 50 54  1  0  0  0  0
 22 30  1  0  0  0  0
 22 31  1  0  0  0  0
 23 32  1  0  0  0  0
 23 33  1  0  0  0  0
 21 28  1  0  0  0  0
 21 29  1  0  0  0  0
 24 34  1  0  0  0  0
 24 35  1  0  0  0  0
 40 45  1  0  0  0  0
  8 13  1  0  0  0  0
 18 27  1  0  0  0  0
 49 51  1  0  0  0  0
  7 12  1  0  0  0  0
 39 44  1  0  0  0  0
 17 26  1  0  0  0  0
 25 36  1  0  0  0  0
 25 37  1  0  0  0  0
 25 38  1  0  0  0  0
M  CHG  1  25   1
M  END
$$$$

  -OEChem-05262214473D

 54 53  0     1  0  0  0  0  0999 V2000
    2.6714    2.8829   -3.0005 C   0  0  0  0  0  0  0  0  0  0  0  0
    3.1741    2.4398   -1.9745 O   0  0  0  0  0  0  0  0  0  0  0  0
    3.5527    3.3077   -4.1279 C   0  0  0  0  0  0  0  0  0  0  0  0
    3.8407    4.3691   -4.0597 H   0  0  0  0  0  0  0  0  0  0  0  0
    4.5024    2.7495   -4.1526 H   0  0  0  0  0  0  0  0  0  0  0  0
    3.1208    3.1887   -5.1345 H   0  0  0  0  0  0  0  0  0  0  0  0
    1.3174    3.0407   -3.2467 N   0  0  0  0  0  0  0  0  0  0  0  0
    0.2944    2.6927   -2.2960 C   0  0  2  0  0  0  0  0  0  0  0  0
    0.2976    1.1783   -2.1349 C   0  0  0  0  0  0  0  0  0  0  0  0
    0.7500    0.4142   -2.9850 O   0  0  0  0  0  0  0  0  0  0  0  0
   -1.0710    3.1886   -2.7460 C   0  0  0  0  0  0  0  0  0  0  0  0
    1.0312    3.4224   -4.1464 H   0  0  0  0  0  0  0  0  0  0  0  0
    0.5725    3.1622   -1.3461 H   0  0  0  0  0  0  0  0  0  0  0  0
   -1.3666    2.7292   -3.6963 H   0  0  0  0  0  0  0  0  0  0  0  0
   -1.8434    2.9482   -2.0082 H   0  0  0  0  0  0  0  0  0  0  0  0
   -1.0632    4.2744   -2.8901 H   0  0  0  0  0  0  0  0  0  0  0  0
   -0.3037    0.7742   -0.9484 N   0  0  0  0  0  0  0  0  0  0  0  0
   -0.4352   -0.6095   -0.5718 C   0  0  2  0  0  0  0  0  0  0  0  0
    0.2978   -0.8325    0.7469 C   0  0  0  0  0  0  0  0  0  0  0  0
    1.2503   -1.6012    0.8626 O   0  0  0  0  0  0  0  0  0  0  0  0
    0.0377   -1.5536   -1.6835 C   0  0  0  0  0  0  0  0  0  0  0  0
   -0.8534   -1.5459   -2.9326 C   0  0  0  0  0  0  0  0  0  0  0  0
   -0.3356   -2.5272   -3.9868 C   0  0  0  0  0  0  0  0  0  0  0  0
   -1.2073   -2.4990   -5.2335 C   0  0  0  0  0  0  0  0  0  0  0  0
   -0.6556   -3.4444   -6.2336 N   0  3  0  0  0  0  0  0  0  0  0  0
   -0.6336    1.4811   -0.2948 H   0  0  0  0  0  0  0  0  0  0  0  0
   -1.5055   -0.7719   -0.3959 H   0  0  0  0  0  0  0  0  0  0  0  0
    1.0581   -1.2731   -1.9753 H   0  0  0  0  0  0  0  0  0  0  0  0
    0.0922   -2.5776   -1.2937 H   0  0  0  0  0  0  0  0  0  0  0  0
   -1.8802   -1.8179   -2.6617 H   0  0  0  0  0  0  0  0  0  0  0  0
   -0.8867   -0.5383   -3.3631 H   0  0  0  0  0  0  0  0  0  0  0  0
   -0.3187   -3.5411   -3.5679 H   0  0  0  0  0  0  0  0  0  0  0  0
    0.6982   -2.2713   -4.2503 H   0  0  0  0  0  0  0  0  0  0  0  0
   -2.2321   -2.8203   -5.0246 H   0  0  0  0  0  0  0  0  0  0  0  0
   -1.2193   -1.5111   -5.7033 H   0  0  0  0  0  0  0  0  0  0  0  0
   -0.9961   -3.2234   -7.1757 H   0  0  0  0  0  0  0  0  0  0  0  0
   -0.9300   -4.4092   -6.0174 H   0  0  0  0  0  0  0  0  0  0  0  0
    0.3694   -3.4044   -6.2512 H   0  0  0  0  0  0  0  0  0  0  0  0
   -0.2132   -0.0493    1.7718 N   0  0  0  0  0  0  0  0  0  0  0  0
    0.3328   -0.0786    3.1077 C   0  0  2  0  0  0  0  0  0  0  0  0
   -0.6457    0.6349    4.0314 C   0  0  0  0  0  0  0  0  0  0  0  0
   -1.4694    1.4550    3.6314 O   0  0  0  0  0  0  0  0  0  0  0  0
    1.7046    0.5758    3.1593 C   0  0  0  0  0  0  0  0  0  0  0  0
   -0.9977    0.5652    1.5755 H   0  0  0  0  0  0  0  0  0  0  0  0
    0.4060   -1.1328    3.3964 H   0  0  0  0  0  0  0  0  0  0  0  0
    1.6513    1.6325    2.8732 H   0  0  0  0  0  0  0  0  0  0  0  0
    2.1297    0.5274    4.1673 H   0  0  0  0  0  0  0  0  0  0  0  0
    2.3989    0.0801    2.4722 H   0  0  0  0  0  0  0  0  0  0  0  0
   -0.4619    0.2802    5.3605 N   0  0  0  0  0  0  0  0  0  0  0  0
   -1.2590    0.8307    6.4318 C   0  0  0  0  0  0  0  0  0  0  0  0
    0.2322   -0.4221    5.5989 H   0  0  0  0  0  0  0  0  0  0  0  0
   -0.7556    1.7167    6.8461 H   0  0  0  0  0  0  0  0  0  0  0  0
   -2.2468    1.1188    6.0429 H   0  0  0  0  0  0  0  0  0  0  0  0
   -1.3821    0.0759    7.2223 H   0  0  0  0  0  0  0  0  0  0  0  0
  1  3  1  0  0  0  0
  1  7  1  0  0  0  0
  1  2  2  0  0  0  0
 40 41  1  0  0  0  0
 41 49  1  0  0  0  0
 41 42  2  0  0  0  0
  8  9  1  0  0  0  0
  9 17  1  0  0  0  0
  9 10  2  0  0  0  0
 18 19  1  0  0  0  0
 19 39  1  0  0  0  0
 19 20  2  0  0  0  0
 40 43  1  0  0  0  0
  8 11  1  0  0  0  0
 49 50  1  0  0  0  0
 22 23  1  0  0  0  0
 21 22  1  0  0  0  0
 23 24  1  0  0  0  0
 18 21  1  0  0  0  0
 24 25  1  0  0  0  0
 39 40  1  0  0  0  0
  7  8  1  0  0  0  0
 17 18  1  0  0  0  0
  3  4  1  0  0  0  0
  3  5  1  0  0  0  0
  3  6  1  0  0  0  0
 43 46  1  0  0  0  0
 43 47  1  0  0  0  0
 43 48  1  0  0  0  0
 11 14  1  0  0  0  0
 11 15  1  0  0  0  0
 11 16  1  0  0  0  0
 50 52  1  0  0  0  0
 50 53  1  0  0  0  0
 50 54  1  0  0  0  0
 22 30  1  0  0  0  0
 22 31  1  0  0  0  0
 23 32  1  0  0  0  0
 23 33  1  0  0  0  0
 21 28  1  0  0  0  0
 21 29  1  0  0  0  0
 24 34  1  0  0  0  0
 24 35  1  0  0  0  0
 40 45  1  0  0  0  0
  8 13  1  0  0  0  0
 18 27  1  0  0  0  0
 49 51  1  0  0  0  0
  7 12  1  0  0  0  0
 39 44  1  0  0  0  0
 17 26  1  0  0  0  0
 25 36  1  0  0  0  0
 25 37  1  0  0  0  0
 25 38  1  0  0  0  0
M  CHG  1  25   1
M  END
$$$$

  -OEChem-05262214473D

 54 53  0     1  0  0  0  0  0999 V2000
    2.6714    2.8829   -3.0005 C   0  0  0  0  0  0  0  0  0  0  0  0
    3.1741    2.4398   -1.9745 O   0  0  0  0  0  0  0  0  0  0  0  0
    3.5527    3.3077   -4.1279 C   0  0  0  0  0  0  0  0  0  0  0  0
    3.8407    4.3691   -4.0597 H   0  0  0  0  0  0  0  0  0  0  0  0
    4.5024    2.7495   -4.1526 H   0  0  0  0  0  0  0  0  0  0  0  0
    3.1208    3.1887   -5.1345 H   0  0  0  0  0  0  0  0  0  0  0  0
    1.3174    3.0407   -3.2467 N   0  0  0  0  0  0  0  0  0  0  0  0
    0.2944    2.6927   -2.2960 C   0  0  2  0  0  0  0  0  0  0  0  0
    0.2976    1.1783   -2.1349 C   0  0  0  0  0  0  0  0  0  0  0  0
    0.7500    0.4142   -2.9850 O   0  0  0  0  0  0  0  0  0  0  0  0
   -1.0710    3.1886   -2.7460 C   0  0  0  0  0  0  0  0  0  0  0  0
    1.0312    3.4224   -4.1464 H   0  0  0  0  0  0  0  0  0  0  0  0
    0.5725    3.1622   -1.3461 H   0  0  0  0  0  0  0  0  0  0  0  0
   -1.3666    2.7292   -3.6963 H   0  0  0  0  0  0  0  0  0  0  0  0
   -1.8434    2.9482   -2.0082 H   0  0  0  0  0  0  0  0  0  0  0  0
   -1.0632    4.2744   -2.8901 H   0  0  0  0  0  0  0  0  0  0  0  0
   -0.3037    0.7742   -0.9484 N   0  0  0  0  0  0  0  0  0  0  0  0
   -0.4352   -0.6095   -0.5718 C   0  0  2  0  0  0  0  0  0  0  0  0
    0.2978   -0.8325    0.7469 C   0  0  0  0  0  0  0  0  0  0  0  0
    1.3965   -1.3796    0.8188 O   0  0  0  0  0  0  0  0  0  0  0  0
    0.0377   -1.5536   -1.6835 C   0  0  0  0  0  0  0  0  0  0  0  0
   -0.8534   -1.5459   -2.9326 C   0  0  0  0  0  0  0  0  0  0  0  0
   -0.3356   -2.5272   -3.9868 C   0  0  0  0  0  0  0  0  0  0  0  0
   -1.2073   -2.4990   -5.2335 C   0  0  0  0  0  0  0  0  0  0  0  0
   -0.6556   -3.4444   -6.2336 N   0  3  0  0  0  0  0  0  0  0  0  0
   -0.6336    1.4811   -0.2948 H   0  0  0  0  0  0  0  0  0  0  0  0
   -1.5055   -0.7719   -0.3959 H   0  0  0  0  0  0  0  0  0  0  0  0
    1.0581   -1.2731   -1.9753 H   0  0  0  0  0  0  0  0  0  0  0  0
    0.0922   -2.5776   -1.2937 H   0  0  0  0  0  0  0  0  0  0  0  0
   -1.8802   -1.8179   -2.6617 H   0  0  0  0  0  0  0  0  0  0  0  0
   -0.8867   -0.5383   -3.3631 H   0  0  0  0  0  0  0  0  0  0  0  0
   -0.3187   -3.5411   -3.5679 H   0  0  0  0  0  0  0  0  0  0  0  0
    0.6982   -2.2713   -4.2503 H   0  0  0  0  0  0  0  0  0  0  0  0
   -2.2321   -2.8203   -5.0246 H   0  0  0  0  0  0  0  0  0  0  0  0
   -1.2193   -1.5111   -5.7033 H   0  0  0  0  0  0  0  0  0  0  0  0
   -0.9961   -3.2234   -7.1757 H   0  0  0  0  0  0  0  0  0  0  0  0
   -0.9300   -4.4092   -6.0174 H   0  0  0  0  0  0  0  0  0  0  0  0
    0.3694   -3.4044   -6.2512 H   0  0  0  0  0  0  0  0  0  0  0  0
   -0.4012   -0.3205    1.8305 N   0  0  0  0  0  0  0  0  0  0  0  0
    0.1055   -0.3998    3.1798 C   0  0  2  0  0  0  0  0  0  0  0  0
   -1.0306   -0.0457    4.1303 C   0  0  0  0  0  0  0  0  0  0  0  0
   -2.0088    0.6162    3.7894 O   0  0  0  0  0  0  0  0  0  0  0  0
    1.2921    0.5298    3.3808 C   0  0  0  0  0  0  0  0  0  0  0  0
   -1.2995    0.1251    1.6689 H   0  0  0  0  0  0  0  0  0  0  0  0
    0.4084   -1.4398    3.3432 H   0  0  0  0  0  0  0  0  0  0  0  0
    1.0079    1.5763    3.2213 H   0  0  0  0  0  0  0  0  0  0  0  0
    1.6931    0.4473    4.3964 H   0  0  0  0  0  0  0  0  0  0  0  0
    2.0966    0.2927    2.6763 H   0  0  0  0  0  0  0  0  0  0  0  0
   -0.8029   -0.5189    5.4150 N   0  0  0  0  0  0  0  0  0  0  0  0
   -1.7290   -0.3011    6.5016 C   0  0  0  0  0  0  0  0  0  0  0  0
    0.0262   -1.0748    5.6031 H   0  0  0  0  0  0  0  0  0  0  0  0
   -1.4490    0.6134    7.0450 H   0  0  0  0  0  0  0  0  0  0  0  0
   -2.7469   -0.1913    6.0993 H   0  0  0  0  0  0  0  0  0  0  0  0
   -1.6968   -1.1598    7.1884 H   0  0  0  0  0  0  0  0  0  0  0  0
  1  3  1  0  0  0  0
  1  7  1  0  0  0  0
  1  2  2  0  0  0  0
 40 41  1  0  0  0  0
 41 49  1  0  0  0  0
 41 42  2  0  0  0  0
  8  9  1  0  0  0  0
  9 17  1  0  0  0  0
  9 10  2  0  0  0  0
 18 19  1  0  0  0  0
 19 39  1  0  0  0  0
 19 20  2  0  0  0  0
 40 43  1  0  0  0  0
  8 11  1  0  0  0  0
 49 50  1  0  0  0  0
 22 23  1  0  0  0  0
 21 22  1  0  0  0  0
 23 24  1  0  0  0  0
 18 21  1  0  0  0  0
 24 25  1  0  0  0  0
 39 40  1  0  0  0  0
  7  8  1  0  0  0  0
 17 18  1  0  0  0  0
  3  4  1  0  0  0  0
  3  5  1  0  0  0  0
  3  6  1  0  0  0  0
 43 46  1  0  0  0  0
 43 47  1  0  0  0  0
 43 48  1  0  0  0  0
 11 14  1  0  0  0  0
 11 15  1  0  0  0  0
 11 16  1  0  0  0  0
 50 52  1  0  0  0  0
 50 53  1  0  0  0  0
 50 54  1  0  0  0  0
 22 30  1  0  0  0  0
 22 31  1  0  0  0  0
 23 32  1  0  0  0  0
 23 33  1  0  0  0  0
 21 28  1  0  0  0  0
 21 29  1  0  0  0  0
 24 34  1  0  0  0  0
 24 35  1  0  0  0  0
 40 45  1  0  0  0  0
  8 13  1  0  0  0  0
 18 27  1  0  0  0  0
 49 51  1  0  0  0  0
  7 12  1  0  0  0  0
 39 44  1  0  0  0  0
 17 26  1  0  0  0  0
 25 36  1  0  0  0  0
 25 37  1  0  0  0  0
 25 38  1  0  0  0  0
M  CHG  1  25   1
M  END
$$$$

  -OEChem-05262214473D

 54 53  0     1  0  0  0  0  0999 V2000
    2.6714    2.8829   -3.0005 C   0  0  0  0  0  0  0  0  0  0  0  0
    3.1741    2.4398   -1.9745 O   0  0  0  0  0  0  0  0  0  0  0  0
    3.5527    3.3077   -4.1279 C   0  0  0  0  0  0  0  0  0  0  0  0
    3.8407    4.3691   -4.0597 H   0  0  0  0  0  0  0  0  0  0  0  0
    4.5024    2.7495   -4.1526 H   0  0  0  0  0  0  0  0  0  0  0  0
    3.1208    3.1887   -5.1345 H   0  0  0  0  0  0  0  0  0  0  0  0
    1.3174    3.0407   -3.2467 N   0  0  0  0  0  0  0  0  0  0  0  0
    0.2944    2.6927   -2.2960 C   0  0  2  0  0  0  0  0  0  0  0  0
    0.2976    1.1783   -2.1349 C   0  0  0  0  0  0  0  0  0  0  0  0
    0.7500    0.4142   -2.9850 O   0  0  0  0  0  0  0  0  0  0  0  0
   -1.0710    3.1886   -2.7460 C   0  0  0  0  0  0  0  0  0  0  0  0
    1.0312    3.4224   -4.1464 H   0  0  0  0  0  0  0  0  0  0  0  0
    0.5725    3.1622   -1.3461 H   0  0  0  0  0  0  0  0  0  0  0  0
   -1.3666    2.7292   -3.6963 H   0  0  0  0  0  0  0  0  0  0  0  0
   -1.8434    2.9482   -2.0082 H   0  0  0  0  0  0  0  0  0  0  0  0
   -1.0632    4.2744   -2.8901 H   0  0  0  0  0  0  0  0  0  0  0  0
   -0.3037    0.7742   -0.9484 N   0  0  0  0  0  0  0  0  0  0  0  0
   -0.4352   -0.6095   -0.5718 C   0  0  2  0  0  0  0  0  0  0  0  0
    0.2978   -0.8325    0.7469 C   0  0  0  0  0  0  0  0  0  0  0  0
    1.4897   -1.1274    0.8097 O   0  0  0  0  0  0  0  0  0  0  0  0
    0.0377   -1.5536   -1.6835 C   0  0  0  0  0  0  0  0  0  0  0  0
   -0.8534   -1.5459   -2.9326 C   0  0  0  0  0  0  0  0  0  0  0  0
   -0.3356   -2.5272   -3.9868 C   0  0  0  0  0  0  0  0  0  0  0  0
   -1.2073   -2.4990   -5.2335 C   0  0  0  0  0  0  0  0  0  0  0  0
   -0.6556   -3.4444   -6.2336 N   0  3  0  0  0  0  0  0  0  0  0  0
   -0.6336    1.4811   -0.2948 H   0  0  0  0  0  0  0  0  0  0  0  0
   -1.5055   -0.7719   -0.3959 H   0  0  0  0  0  0  0  0  0  0  0  0
    1.0581   -1.2731   -1.9753 H   0  0  0  0  0  0  0  0  0  0  0  0
    0.0922   -2.5776   -1.2937 H   0  0  0  0  0  0  0  0  0  0  0  0
   -1.8802   -1.8179   -2.6617 H   0  0  0  0  0  0  0  0  0  0  0  0
   -0.8867   -0.5383   -3.3631 H   0  0  0  0  0  0  0  0  0  0  0  0
   -0.3187   -3.5411   -3.5679 H   0  0  0  0  0  0  0  0  0  0  0  0
    0.6982   -2.2713   -4.2503 H   0  0  0  0  0  0  0  0  0  0  0  0
   -2.2321   -2.8203   -5.0246 H   0  0  0  0  0  0  0  0  0  0  0  0
   -1.2193   -1.5111   -5.7033 H   0  0  0  0  0  0  0  0  0  0  0  0
   -0.9961   -3.2234   -7.1757 H   0  0  0  0  0  0  0  0  0  0  0  0
   -0.9300   -4.4092   -6.0174 H   0  0  0  0  0  0  0  0  0  0  0  0
    0.3694   -3.4044   -6.2512 H   0  0  0  0  0  0  0  0  0  0  0  0
   -0.5244   -0.6318    1.8463 N   0  0  0  0  0  0  0  0  0  0  0  0
   -0.0450   -0.7700    3.2008 C   0  0  2  0  0  0  0  0  0  0  0  0
   -1.2539   -0.8015    4.1266 C   0  0  0  0  0  0  0  0  0  0  0  0
   -2.3480   -0.3344    3.8173 O   0  0  0  0  0  0  0  0  0  0  0  0
    0.8956    0.3654    3.5735 C   0  0  0  0  0  0  0  0  0  0  0  0
   -1.4961   -0.3792    1.6929 H   0  0  0  0  0  0  0  0  0  0  0  0
    0.4814   -1.7292    3.2537 H   0  0  0  0  0  0  0  0  0  0  0  0
    0.3859    1.3347    3.5262 H   0  0  0  0  0  0  0  0  0  0  0  0
    1.2807    0.2438    4.5913 H   0  0  0  0  0  0  0  0  0  0  0  0
    1.7493    0.4051    2.8883 H   0  0  0  0  0  0  0  0  0  0  0  0
   -0.9555   -1.3739    5.3552 N   0  0  0  0  0  0  0  0  0  0  0  0
   -1.9324   -1.5082    6.4106 C   0  0  0  0  0  0  0  0  0  0  0  0
   -0.0269   -1.7519    5.5181 H   0  0  0  0  0  0  0  0  0  0  0  0
   -1.8794   -0.6321    7.0736 H   0  0  0  0  0  0  0  0  0  0  0  0
   -2.9389   -1.5757    5.9719 H   0  0  0  0  0  0  0  0  0  0  0  0
   -1.7231   -2.4196    6.9899 H   0  0  0  0  0  0  0  0  0  0  0  0
  1  3  1  0  0  0  0
  1  7  1  0  0  0  0
  1  2  2  0  0  0  0
 40 41  1  0  0  0  0
 41 49  1  0  0  0  0
 41 42  2  0  0  0  0
  8  9  1  0  0  0  0
  9 17  1  0  0  0  0
  9 10  2  0  0  0  0
 18 19  1  0  0  0  0
 19 39  1  0  0  0  0
 19 20  2  0  0  0  0
 40 43  1  0  0  0  0
  8 11  1  0  0  0  0
 49 50  1  0  0  0  0
 22 23  1  0  0  0  0
 21 22  1  0  0  0  0
 23 24  1  0  0  0  0
 18 21  1  0  0  0  0
 24 25  1  0  0  0  0
 39 40  1  0  0  0  0
  7  8  1  0  0  0  0
 17 18  1  0  0  0  0
  3  4  1  0  0  0  0
  3  5  1  0  0  0  0
  3  6  1  0  0  0  0
 43 46  1  0  0  0  0
 43 47  1  0  0  0  0
 43 48  1  0  0  0  0
 11 14  1  0  0  0  0
 11 15  1  0  0  0  0
 11 16  1  0  0  0  0
 50 52  1  0  0  0  0
 50 53  1  0  0  0  0
 50 54  1  0  0  0  0
 22 30  1  0  0  0  0
 22 31  1  0  0  0  0
 23 32  1  0  0  0  0
 23 33  1  0  0  0  0
 21 28  1  0  0  0  0
 21 29  1  0  0  0  0
 24 34  1  0  0  0  0
 24 35  1  0  0  0  0
 40 45  1  0  0  0  0
  8 13  1  0  0  0  0
 18 27  1  0  0  0  0
 49 51  1  0  0  0  0
  7 12  1  0  0  0  0
 39 44  1  0  0  0  0
 17 26  1  0  0  0  0
 25 36  1  0  0  0  0
 25 37  1  0  0  0  0
 25 38  1  0  0  0  0
M  CHG  1  25   1
M  END
$$$$

  -OEChem-05262214473D

 54 53  0     1  0  0  0  0  0999 V2000
    2.6714    2.8829   -3.0005 C   0  0  0  0  0  0  0  0  0  0  0  0
    3.1741    2.4398   -1.9745 O   0  0  0  0  0  0  0  0  0  0  0  0
    3.5527    3.3077   -4.1279 C   0  0  0  0  0  0  0  0  0  0  0  0
    3.8407    4.3691   -4.0597 H   0  0  0  0  0  0  0  0  0  0  0  0
    4.5024    2.7495   -4.1526 H   0  0  0  0  0  0  0  0  0  0  0  0
    3.1208    3.1887   -5.1345 H   0  0  0  0  0  0  0  0  0  0  0  0
    1.3174    3.0407   -3.2467 N   0  0  0  0  0  0  0  0  0  0  0  0
    0.2944    2.6927   -2.2960 C   0  0  2  0  0  0  0  0  0  0  0  0
    0.2976    1.1783   -2.1349 C   0  0  0  0  0  0  0  0  0  0  0  0
    0.7500    0.4142   -2.9850 O   0  0  0  0  0  0  0  0  0  0  0  0
   -1.0710    3.1886   -2.7460 C   0  0  0  0  0  0  0  0  0  0  0  0
    1.0312    3.4224   -4.1464 H   0  0  0  0  0  0  0  0  0  0  0  0
    0.5725    3.1622   -1.3461 H   0  0  0  0  0  0  0  0  0  0  0  0
   -1.3666    2.7292   -3.6963 H   0  0  0  0  0  0  0  0  0  0  0  0
   -1.8434    2.9482   -2.0082 H   0  0  0  0  0  0  0  0  0  0  0  0
   -1.0632    4.2744   -2.8901 H   0  0  0  0  0  0  0  0  0  0  0  0
   -0.3037    0.7742   -0.9484 N   0  0  0  0  0  0  0  0  0  0  0  0
   -0.4352   -0.6095   -0.5718 C   0  0  2  0  0  0  0  0  0  0  0  0
    0.2978   -0.8325    0.7469 C   0  0  0  0  0  0  0  0  0  0  0  0
    1.5237   -0.8617    0.8357 O   0  0  0  0  0  0  0  0  0  0  0  0
    0.0377   -1.5536   -1.6835 C   0  0  0  0  0  0  0  0  0  0  0  0
   -0.8534   -1.5459   -2.9326 C   0  0  0  0  0  0  0  0  0  0  0  0
   -0.3356   -2.5272   -3.9868 C   0  0  0  0  0  0  0  0  0  0  0  0
   -1.2073   -2.4990   -5.2335 C   0  0  0  0  0  0  0  0  0  0  0  0
   -0.6556   -3.4444   -6.2336 N   0  3  0  0  0  0  0  0  0  0  0  0
   -0.6336    1.4811   -0.2948 H   0  0  0  0  0  0  0  0  0  0  0  0
   -1.5055   -0.7719   -0.3959 H   0  0  0  0  0  0  0  0  0  0  0  0
    1.0581   -1.2731   -1.9753 H   0  0  0  0  0  0  0  0  0  0  0  0
    0.0922   -2.5776   -1.2937 H   0  0  0  0  0  0  0  0  0  0  0  0
   -1.8802   -1.8179   -2.6617 H   0  0  0  0  0  0  0  0  0  0  0  0
   -0.8867   -0.5383   -3.3631 H   0  0  0  0  0  0  0  0  0  0  0  0
   -0.3187   -3.5411   -3.5679 H   0  0  0  0  0  0  0  0  0  0  0  0
    0.6982   -2.2713   -4.2503 H   0  0  0  0  0  0  0  0  0  0  0  0
   -2.2321   -2.8203   -5.0246 H   0  0  0  0  0  0  0  0  0  0  0  0
   -1.2193   -1.5111   -5.7033 H   0  0  0  0  0  0  0  0  0  0  0  0
   -0.9961   -3.2234   -7.1757 H   0  0  0  0  0  0  0  0  0  0  0  0
   -0.9300   -4.4092   -6.0174 H   0  0  0  0  0  0  0  0  0  0  0  0
    0.3694   -3.4044   -6.2512 H   0  0  0  0  0  0  0  0  0  0  0  0
   -0.5742   -0.9620    1.8182 N   0  0  0  0  0  0  0  0  0  0  0  0
   -0.1082   -1.1638    3.1694 C   0  0  2  0  0  0  0  0  0  0  0  0
   -1.3002   -1.5811    4.0206 C   0  0  0  0  0  0  0  0  0  0  0  0
   -2.4640   -1.3320    3.7131 O   0  0  0  0  0  0  0  0  0  0  0  0
    0.5420    0.0940    3.7241 C   0  0  0  0  0  0  0  0  0  0  0  0
   -1.5740   -0.9132    1.6459 H   0  0  0  0  0  0  0  0  0  0  0  0
    0.6200   -1.9814    3.1340 H   0  0  0  0  0  0  0  0  0  0  0  0
   -0.1724    0.9242    3.7671 H   0  0  0  0  0  0  0  0  0  0  0  0
    0.9204   -0.0693    4.7386 H   0  0  0  0  0  0  0  0  0  0  0  0
    1.3806    0.4096    3.0940 H   0  0  0  0  0  0  0  0  0  0  0  0
   -0.9093   -2.2265    5.1854 N   0  0  0  0  0  0  0  0  0  0  0  0
   -1.8552   -2.7084    6.1647 C   0  0  0  0  0  0  0  0  0  0  0  0
    0.0766   -2.4072    5.3497 H   0  0  0  0  0  0  0  0  0  0  0  0
   -2.0175   -1.9351    6.9300 H   0  0  0  0  0  0  0  0  0  0  0  0
   -2.8097   -2.9400    5.6694 H   0  0  0  0  0  0  0  0  0  0  0  0
   -1.4590   -3.6176    6.6406 H   0  0  0  0  0  0  0  0  0  0  0  0
  1  3  1  0  0  0  0
  1  7  1  0  0  0  0
  1  2  2  0  0  0  0
 40 41  1  0  0  0  0
 41 49  1  0  0  0  0
 41 42  2  0  0  0  0
  8  9  1  0  0  0  0
  9 17  1  0  0  0  0
  9 10  2  0  0  0  0
 18 19  1  0  0  0  0
 19 39  1  0  0  0  0
 19 20  2  0  0  0  0
 40 43  1  0  0  0  0
  8 11  1  0  0  0  0
 49 50  1  0  0  0  0
 22 23  1  0  0  0  0
 21 22  1  0  0  0  0
 23 24  1  0  0  0  0
 18 21  1  0  0  0  0
 24 25  1  0  0  0  0
 39 40  1  0  0  0  0
  7  8  1  0  0  0  0
 17 18  1  0  0  0  0
  3  4  1  0  0  0  0
  3  5  1  0  0  0  0
  3  6  1  0  0  0  0
 43 46  1  0  0  0  0
 43 47  1  0  0  0  0
 43 48  1  0  0  0  0
 11 14  1  0  0  0  0
 11 15  1  0  0  0  0
 11 16  1  0  0  0  0
 50 52  1  0  0  0  0
 50 53  1  0  0  0  0
 50 54  1  0  0  0  0
 22 30  1  0  0  0  0
 22 31  1  0  0  0  0
 23 32  1  0  0  0  0
 23 33  1  0  0  0  0
 21 28  1  0  0  0  0
 21 29  1  0  0  0  0
 24 34  1  0  0  0  0
 24 35  1  0  0  0  0
 40 45  1  0  0  0  0
  8 13  1  0  0  0  0
 18 27  1  0  0  0  0
 49 51  1  0  0  0  0
  7 12  1  0  0  0  0
 39 44  1  0  0  0  0
 17 26  1  0  0  0  0
 25 36  1  0  0  0  0
 25 37  1  0  0  0  0
 25 38  1  0  0  0  0
M  CHG  1  25   1
M  END
$$$$

  -OEChem-05262214473D

 54 53  0     1  0  0  0  0  0999 V2000
    2.6714    2.8829   -3.0005 C   0  0  0  0  0  0  0  0  0  0  0  0
    3.1741    2.4398   -1.9745 O   0  0  0  0  0  0  0  0  0  0  0  0
    3.5527    3.3077   -4.1279 C   0  0  0  0  0  0  0  0  0  0  0  0
    3.8407    4.3691   -4.0597 H   0  0  0  0  0  0  0  0  0  0  0  0
    4.5024    2.7495   -4.1526 H   0  0  0  0  0  0  0  0  0  0  0  0
    3.1208    3.1887   -5.1345 H   0  0  0  0  0  0  0  0  0  0  0  0
    1.3174    3.0407   -3.2467 N   0  0  0  0  0  0  0  0  0  0  0  0
    0.2944    2.6927   -2.2960 C   0  0  2  0  0  0  0  0  0  0  0  0
    0.2976    1.1783   -2.1349 C   0  0  0  0  0  0  0  0  0  0  0  0
    0.7500    0.4142   -2.9850 O   0  0  0  0  0  0  0  0  0  0  0  0
   -1.0710    3.1886   -2.7460 C   0  0  0  0  0  0  0  0  0  0  0  0
    1.0312    3.4224   -4.1464 H   0  0  0  0  0  0  0  0  0  0  0  0
    0.5725    3.1622   -1.3461 H   0  0  0  0  0  0  0  0  0  0  0  0
   -1.3666    2.7292   -3.6963 H   0  0  0  0  0  0  0  0  0  0  0  0
   -1.8434    2.9482   -2.0082 H   0  0  0  0  0  0  0  0  0  0  0  0
   -1.0632    4.2744   -2.8901 H   0  0  0  0  0  0  0  0  0  0  0  0
   -0.3037    0.7742   -0.9484 N   0  0  0  0  0  0  0  0  0  0  0  0
   -0.4352   -0.6095   -0.5718 C   0  0  2  0  0  0  0  0  0  0  0  0
    0.2978   -0.8325    0.7469 C   0  0  0  0  0  0  0  0  0  0  0  0
    1.4961   -0.6008    0.8951 O   0  0  0  0  0  0  0  0  0  0  0  0
    0.0377   -1.5536   -1.6835 C   0  0  0  0  0  0  0  0  0  0  0  0
   -0.8534   -1.5459   -2.9326 C   0  0  0  0  0  0  0  0  0  0  0  0
   -0.3356   -2.5272   -3.9868 C   0  0  0  0  0  0  0  0  0  0  0  0
   -1.2073   -2.4990   -5.2335 C   0  0  0  0  0  0  0  0  0  0  0  0
   -0.6556   -3.4444   -6.2336 N   0  3  0  0  0  0  0  0  0  0  0  0
   -0.6336    1.4811   -0.2948 H   0  0  0  0  0  0  0  0  0  0  0  0
   -1.5055   -0.7719   -0.3959 H   0  0  0  0  0  0  0  0  0  0  0  0
    1.0581   -1.2731   -1.9753 H   0  0  0  0  0  0  0  0  0  0  0  0
    0.0922   -2.5776   -1.2937 H   0  0  0  0  0  0  0  0  0  0  0  0
   -1.8802   -1.8179   -2.6617 H   0  0  0  0  0  0  0  0  0  0  0  0
   -0.8867   -0.5383   -3.3631 H   0  0  0  0  0  0  0  0  0  0  0  0
   -0.3187   -3.5411   -3.5679 H   0  0  0  0  0  0  0  0  0  0  0  0
    0.6982   -2.2713   -4.2503 H   0  0  0  0  0  0  0  0  0  0  0  0
   -2.2321   -2.8203   -5.0246 H   0  0  0  0  0  0  0  0  0  0  0  0
   -1.2193   -1.5111   -5.7033 H   0  0  0  0  0  0  0  0  0  0  0  0
   -0.9961   -3.2234   -7.1757 H   0  0  0  0  0  0  0  0  0  0  0  0
   -0.9300   -4.4092   -6.0174 H   0  0  0  0  0  0  0  0  0  0  0  0
    0.3694   -3.4044   -6.2512 H   0  0  0  0  0  0  0  0  0  0  0  0
   -0.5475   -1.2886    1.7481 N   0  0  0  0  0  0  0  0  0  0  0  0
   -0.0800   -1.5545    3.0877 C   0  0  2  0  0  0  0  0  0  0  0  0
   -1.1666   -2.3313    3.8194 C   0  0  0  0  0  0  0  0  0  0  0  0
   -2.3489   -2.3085    3.4840 O   0  0  0  0  0  0  0  0  0  0  0  0
    0.2556   -0.2660    3.8225 C   0  0  0  0  0  0  0  0  0  0  0  0
   -1.5280   -1.4406    1.5311 H   0  0  0  0  0  0  0  0  0  0  0  0
    0.8149   -2.1790    2.9922 H   0  0  0  0  0  0  0  0  0  0  0  0
   -0.6289    0.3728    3.9277 H   0  0  0  0  0  0  0  0  0  0  0  0
    0.6370   -0.4706    4.8283 H   0  0  0  0  0  0  0  0  0  0  0  0
    1.0158    0.3058    3.2793 H   0  0  0  0  0  0  0  0  0  0  0  0
   -0.6675   -3.0185    4.9171 N   0  0  0  0  0  0  0  0  0  0  0  0
   -1.5028   -3.8198    5.7809 C   0  0  0  0  0  0  0  0  0  0  0  0
    0.3296   -2.9961    5.1095 H   0  0  0  0  0  0  0  0  0  0  0  0
   -1.8538   -3.2068    6.6240 H   0  0  0  0  0  0  0  0  0  0  0  0
   -2.3682   -4.1912    5.2124 H   0  0  0  0  0  0  0  0  0  0  0  0
   -0.9226   -4.6722    6.1640 H   0  0  0  0  0  0  0  0  0  0  0  0
  1  3  1  0  0  0  0
  1  7  1  0  0  0  0
  1  2  2  0  0  0  0
 40 41  1  0  0  0  0
 41 49  1  0  0  0  0
 41 42  2  0  0  0  0
  8  9  1  0  0  0  0
  9 17  1  0  0  0  0
  9 10  2  0  0  0  0
 18 19  1  0  0  0  0
 19 39  1  0  0  0  0
 19 20  2  0  0  0  0
 40 43  1  0  0  0  0
  8 11  1  0  0  0  0
 49 50  1  0  0  0  0
 22 23  1  0  0  0  0
 21 22  1  0  0  0  0
 23 24  1  0  0  0  0
 18 21  1  0  0  0  0
 24 25  1  0  0  0  0
 39 40  1  0  0  0  0
  7  8  1  0  0  0  0
 17 18  1  0  0  0  0
  3  4  1  0  0  0  0
  3  5  1  0  0  0  0
  3  6  1  0  0  0  0
 43 46  1  0  0  0  0
 43 47  1  0  0  0  0
 43 48  1  0  0  0  0
 11 14  1  0  0  0  0
 11 15  1  0  0  0  0
 11 16  1  0  0  0  0
 50 52  1  0  0  0  0
 50 53  1  0  0  0  0
 50 54  1  0  0  0  0
 22 30  1  0  0  0  0
 22 31  1  0  0  0  0
 23 32  1  0  0  0  0
 23 33  1  0  0  0  0
 21 28  1  0  0  0  0
 21 29  1  0  0  0  0
 24 34  1  0  0  0  0
 24 35  1  0  0  0  0
 40 45  1  0  0  0  0
  8 13  1  0  0  0  0
 18 27  1  0  0  0  0
 49 51  1  0  0  0  0
  7 12  1  0  0  0  0
 39 44  1  0  0  0  0
 17 26  1  0  0  0  0
 25 36  1  0  0  0  0
 25 37  1  0  0  0  0
 25 38  1  0  0  0  0
M  CHG  1  25   1
M  END
$$$$

  -OEChem-05262214473D

 54 53  0     1  0  0  0  0  0999 V2000
    2.6714    2.8829   -3.0005 C   0  0  0  0  0  0  0  0  0  0  0  0
    3.1741    2.4398   -1.9745 O   0  0  0  0  0  0  0  0  0  0  0  0
    3.5527    3.3077   -4.1279 C   0  0  0  0  0  0  0  0  0  0  0  0
    3.8407    4.3691   -4.0597 H   0  0  0  0  0  0  0  0  0  0  0  0
    4.5024    2.7495   -4.1526 H   0  0  0  0  0  0  0  0  0  0  0  0
    3.1208    3.1887   -5.1345 H   0  0  0  0  0  0  0  0  0  0  0  0
    1.3174    3.0407   -3.2467 N   0  0  0  0  0  0  0  0  0  0  0  0
    0.2944    2.6927   -2.2960 C   0  0  2  0  0  0  0  0  0  0  0  0
    0.2976    1.1783   -2.1349 C   0  0  0  0  0  0  0  0  0  0  0  0
    0.7500    0.4142   -2.9850 O   0  0  0  0  0  0  0  0  0  0  0  0
   -1.0710    3.1886   -2.7460 C   0  0  0  0  0  0  0  0  0  0  0  0
    1.0312    3.4224   -4.1464 H   0  0  0  0  0  0  0  0  0  0  0  0
    0.5725    3.1622   -1.3461 H   0  0  0  0  0  0  0  0  0  0  0  0
   -1.3666    2.7292   -3.6963 H   0  0  0  0  0  0  0  0  0  0  0  0
   -1.8434    2.9482   -2.0082 H   0  0  0  0  0  0  0  0  0  0  0  0
   -1.0632    4.2744   -2.8901 H   0  0  0  0  0  0  0  0  0  0  0  0
   -0.3037    0.7742   -0.9484 N   0  0  0  0  0  0  0  0  0  0  0  0
   -0.4352   -0.6095   -0.5718 C   0  0  2  0  0  0  0  0  0  0  0  0
    0.2978   -0.8325    0.7469 C   0  0  0  0  0  0  0  0  0  0  0  0
    1.4088   -0.3623    0.9840 O   0  0  0  0  0  0  0  0  0  0  0  0
    0.0377   -1.5536   -1.6835 C   0  0  0  0  0  0  0  0  0  0  0  0
   -0.8534   -1.5459   -2.9326 C   0  0  0  0  0  0  0  0  0  0  0  0
   -0.3356   -2.5272   -3.9868 C   0  0  0  0  0  0  0  0  0  0  0  0
   -1.2073   -2.4990   -5.2335 C   0  0  0  0  0  0  0  0  0  0  0  0
   -0.6556   -3.4444   -6.2336 N   0  3  0  0  0  0  0  0  0  0  0  0
   -0.6336    1.4811   -0.2948 H   0  0  0  0  0  0  0  0  0  0  0  0
   -1.5055   -0.7719   -0.3959 H   0  0  0  0  0  0  0  0  0  0  0  0
    1.0581   -1.2731   -1.9753 H   0  0  0  0  0  0  0  0  0  0  0  0
    0.0922   -2.5776   -1.2937 H   0  0  0  0  0  0  0  0  0  0  0  0
   -1.8802   -1.8179   -2.6617 H   0  0  0  0  0  0  0  0  0  0  0  0
   -0.8867   -0.5383   -3.3631 H   0  0  0  0  0  0  0  0  0  0  0  0
   -0.3187   -3.5411   -3.5679 H   0  0  0  0  0  0  0  0  0  0  0  0
    0.6982   -2.2713   -4.2503 H   0  0  0  0  0  0  0  0  0  0  0  0
   -2.2321   -2.8203   -5.0246 H   0  0  0  0  0  0  0  0  0  0  0  0
   -1.2193   -1.5111   -5.7033 H   0  0  0  0  0  0  0  0  0  0  0  0
   -0.9961   -3.2234   -7.1757 H   0  0  0  0  0  0  0  0  0  0  0  0
   -0.9300   -4.4092   -6.0174 H   0  0  0  0  0  0  0  0  0  0  0  0
    0.3694   -3.4044   -6.2512 H   0  0  0  0  0  0  0  0  0  0  0  0
   -0.4458   -1.5894    1.6407 N   0  0  0  0  0  0  0  0  0  0  0  0
    0.0377   -1.9153    2.9612 C   0  0  2  0  0  0  0  0  0  0  0  0
   -0.8620   -3.0010    3.5369 C   0  0  0  0  0  0  0  0  0  0  0  0
   -2.0106   -3.1976    3.1455 O   0  0  0  0  0  0  0  0  0  0  0  0
    0.0557   -0.6901    3.8618 C   0  0  0  0  0  0  0  0  0  0  0  0
   -1.3612   -1.9255    1.3564 H   0  0  0  0  0  0  0  0  0  0  0  0
    1.0527   -2.3086    2.8381 H   0  0  0  0  0  0  0  0  0  0  0  0
   -0.9526   -0.2820    3.9969 H   0  0  0  0  0  0  0  0  0  0  0  0
    0.4496   -0.9329    4.8543 H   0  0  0  0  0  0  0  0  0  0  0  0
    0.6795    0.1008    3.4316 H   0  0  0  0  0  0  0  0  0  0  0  0
   -0.2465   -3.6961    4.5685 N   0  0  0  0  0  0  0  0  0  0  0  0
   -0.8991   -4.7668    5.2852 C   0  0  0  0  0  0  0  0  0  0  0  0
    0.7148   -3.4784    4.8138 H   0  0  0  0  0  0  0  0  0  0  0  0
   -1.3996   -4.3604    6.1765 H   0  0  0  0  0  0  0  0  0  0  0  0
   -1.6444   -5.2442    4.6320 H   0  0  0  0  0  0  0  0  0  0  0  0
   -0.1504   -5.5116    5.5929 H   0  0  0  0  0  0  0  0  0  0  0  0
  1  3  1  0  0  0  0
  1  7  1  0  0  0  0
  1  2  2  0  0  0  0
 40 41  1  0  0  0  0
 41 49  1  0  0  0  0
 41 42  2  0  0  0  0
  8  9  1  0  0  0  0
  9 17  1  0  0  0  0
  9 10  2  0  0  0  0
 18 19  1  0  0  0  0
 19 39  1  0  0  0  0
 19 20  2  0  0  0  0
 40 43  1  0  0  0  0
  8 11  1  0  0  0  0
 49 50  1  0  0  0  0
 22 23  1  0  0  0  0
 21 22  1  0  0  0  0
 23 24  1  0  0  0  0
 18 21  1  0  0  0  0
 24 25  1  0  0  0  0
 39 40  1  0  0  0  0
  7  8  1  0  0  0  0
 17 18  1  0  0  0  0
  3  4  1  0  0  0  0
  3  5  1  0  0  0  0
  3  6  1  0  0  0  0
 43 46  1  0  0  0  0
 43 47  1  0  0  0  0
 43 48  1  0  0  0  0
 11 14  1  0  0  0  0
 11 15  1  0  0  0  0
 11 16  1  0  0  0  0
 50 52  1  0  0  0  0
 50 53  1  0  0  0  0
 50 54  1  0  0  0  0
 22 30  1  0  0  0  0
 22 31  1  0  0  0  0
 23 32  1  0  0  0  0
 23 33  1  0  0  0  0
 21 28  1  0  0  0  0
 21 29  1  0  0  0  0
 24 34  1  0  0  0  0
 24 35  1  0  0  0  0
 40 45  1  0  0  0  0
  8 13  1  0  0  0  0
 18 27  1  0  0  0  0
 49 51  1  0  0  0  0
  7 12  1  0  0  0  0
 39 44  1  0  0  0  0
 17 26  1  0  0  0  0
 25 36  1  0  0  0  0
 25 37  1  0  0  0  0
 25 38  1  0  0  0  0
M  CHG  1  25   1
M  END
$$$$

  -OEChem-05262214473D

 54 53  0     1  0  0  0  0  0999 V2000
    2.6714    2.8829   -3.0005 C   0  0  0  0  0  0  0  0  0  0  0  0
    3.1741    2.4398   -1.9745 O   0  0  0  0  0  0  0  0  0  0  0  0
    3.5527    3.3077   -4.1279 C   0  0  0  0  0  0  0  0  0  0  0  0
    3.8407    4.3691   -4.0597 H   0  0  0  0  0  0  0  0  0  0  0  0
    4.5024    2.7495   -4.1526 H   0  0  0  0  0  0  0  0  0  0  0  0
    3.1208    3.1887   -5.1345 H   0  0  0  0  0  0  0  0  0  0  0  0
    1.3174    3.0407   -3.2467 N   0  0  0  0  0  0  0  0  0  0  0  0
    0.2944    2.6927   -2.2960 C   0  0  2  0  0  0  0  0  0  0  0  0
    0.2976    1.1783   -2.1349 C   0  0  0  0  0  0  0  0  0  0  0  0
    0.7500    0.4142   -2.9850 O   0  0  0  0  0  0  0  0  0  0  0  0
   -1.0710    3.1886   -2.7460 C   0  0  0  0  0  0  0  0  0  0  0  0
    1.0312    3.4224   -4.1464 H   0  0  0  0  0  0  0  0  0  0  0  0
    0.5725    3.1622   -1.3461 H   0  0  0  0  0  0  0  0  0  0  0  0
   -1.3666    2.7292   -3.6963 H   0  0  0  0  0  0  0  0  0  0  0  0
   -1.8434    2.9482   -2.0082 H   0  0  0  0  0  0  0  0  0  0  0  0
   -1.0632    4.2744   -2.8901 H   0  0  0  0  0  0  0  0  0  0  0  0
   -0.3037    0.7742   -0.9484 N   0  0  0  0  0  0  0  0  0  0  0  0
   -0.4352   -0.6095   -0.5718 C   0  0  2  0  0  0  0  0  0  0  0  0
    0.2978   -0.8325    0.7469 C   0  0  0  0  0  0  0  0  0  0  0  0
    1.2677   -0.1626    1.0962 O   0  0  0  0  0  0  0  0  0  0  0  0
    0.0377   -1.5536   -1.6835 C   0  0  0  0  0  0  0  0  0  0  0  0
   -0.8534   -1.5459   -2.9326 C   0  0  0  0  0  0  0  0  0  0  0  0
   -0.3356   -2.5272   -3.9868 C   0  0  0  0  0  0  0  0  0  0  0  0
   -1.2073   -2.4990   -5.2335 C   0  0  0  0  0  0  0  0  0  0  0  0
   -0.6556   -3.4444   -6.2336 N   0  3  0  0  0  0  0  0  0  0  0  0
   -0.6336    1.4811   -0.2948 H   0  0  0  0  0  0  0  0  0  0  0  0
   -1.5055   -0.7719   -0.3959 H   0  0  0  0  0  0  0  0  0  0  0  0
    1.0581   -1.2731   -1.9753 H   0  0  0  0  0  0  0  0  0  0  0  0
    0.0922   -2.5776   -1.2937 H   0  0  0  0  0  0  0  0  0  0  0  0
   -1.8802   -1.8179   -2.6617 H   0  0  0  0  0  0  0  0  0  0  0  0
   -0.8867   -0.5383   -3.3631 H   0  0  0  0  0  0  0  0  0  0  0  0
   -0.3187   -3.5411   -3.5679 H   0  0  0  0  0  0  0  0  0  0  0  0
    0.6982   -2.2713   -4.2503 H   0  0  0  0  0  0  0  0  0  0  0  0
   -2.2321   -2.8203   -5.0246 H   0  0  0  0  0  0  0  0  0  0  0  0
   -1.2193   -1.5111   -5.7033 H   0  0  0  0  0  0  0  0  0  0  0  0
   -0.9961   -3.2234   -7.1757 H   0  0  0  0  0  0  0  0  0  0  0  0
   -0.9300   -4.4092   -6.0174 H   0  0  0  0  0  0  0  0  0  0  0  0
    0.3694   -3.4044   -6.2512 H   0  0  0  0  0  0  0  0  0  0  0  0
   -0.2763   -1.8439    1.5034 N   0  0  0  0  0  0  0  0  0  0  0  0
    0.2370   -2.2218    2.7986 C   0  0  2  0  0  0  0  0  0  0  0  0
   -0.4072   -3.5445    3.1921 C   0  0  0  0  0  0  0  0  0  0  0  0
   -1.4719   -3.9385    2.7208 O   0  0  0  0  0  0  0  0  0  0  0  0
   -0.0439   -1.1494    3.8396 C   0  0  0  0  0  0  0  0  0  0  0  0
   -1.0849   -2.3348    1.1336 H   0  0  0  0  0  0  0  0  0  0  0  0
    1.3173   -2.3614    2.6821 H   0  0  0  0  0  0  0  0  0  0  0  0
   -1.1213   -0.9955    3.9700 H   0  0  0  0  0  0  0  0  0  0  0  0
    0.3711   -1.4247    4.8148 H   0  0  0  0  0  0  0  0  0  0  0  0
    0.3949   -0.1913    3.5404 H   0  0  0  0  0  0  0  0  0  0  0  0
    0.3249   -4.2130    4.1634 N   0  0  0  0  0  0  0  0  0  0  0  0
   -0.0854   -5.4847    4.7114 C   0  0  0  0  0  0  0  0  0  0  0  0
    1.2061   -3.8213    4.4828 H   0  0  0  0  0  0  0  0  0  0  0  0
   -0.6858   -5.3174    5.6178 H   0  0  0  0  0  0  0  0  0  0  0  0
   -0.6876   -6.0271    3.9678 H   0  0  0  0  0  0  0  0  0  0  0  0
    0.8049   -6.0785    4.9660 H   0  0  0  0  0  0  0  0  0  0  0  0
  1  3  1  0  0  0  0
  1  7  1  0  0  0  0
  1  2  2  0  0  0  0
 40 41  1  0  0  0  0
 41 49  1  0  0  0  0
 41 42  2  0  0  0  0
  8  9  1  0  0  0  0
  9 17  1  0  0  0  0
  9 10  2  0  0  0  0
 18 19  1  0  0  0  0
 19 39  1  0  0  0  0
 19 20  2  0  0  0  0
 40 43  1  0  0  0  0
  8 11  1  0  0  0  0
 49 50  1  0  0  0  0
 22 23  1  0  0  0  0
 21 22  1  0  0  0  0
 23 24  1  0  0  0  0
 18 21  1  0  0  0  0
 24 25  1  0  0  0  0
 39 40  1  0  0  0  0
  7  8  1  0  0  0  0
 17 18  1  0  0  0  0
  3  4  1  0  0  0  0
  3  5  1  0  0  0  0
  3  6  1  0  0  0  0
 43 46  1  0  0  0  0
 43 47  1  0  0  0  0
 43 48  1  0  0  0  0
 11 14  1  0  0  0  0
 11 15  1  0  0  0  0
 11 16  1  0  0  0  0
 50 52  1  0  0  0  0
 50 53  1  0  0  0  0
 50 54  1  0  0  0  0
 22 30  1  0  0  0  0
 22 31  1  0  0  0  0
 23 32  1  0  0  0  0
 23 33  1  0  0  0  0
 21 28  1  0  0  0  0
 21 29  1  0  0  0  0
 24 34  1  0  0  0  0
 24 35  1  0  0  0  0
 40 45  1  0  0  0  0
  8 13  1  0  0  0  0
 18 27  1  0  0  0  0
 49 51  1  0  0  0  0
  7 12  1  0  0  0  0
 39 44  1  0  0  0  0
 17 26  1  0  0  0  0
 25 36  1  0  0  0  0
 25 37  1  0  0  0  0
 25 38  1  0  0  0  0
M  CHG  1  25   1
M  END
$$$$

  -OEChem-05262214473D

 54 53  0     1  0  0  0  0  0999 V2000
    2.6714    2.8829   -3.0005 C   0  0  0  0  0  0  0  0  0  0  0  0
    3.1741    2.4398   -1.9745 O   0  0  0  0  0  0  0  0  0  0  0  0
    3.5527    3.3077   -4.1279 C   0  0  0  0  0  0  0  0  0  0  0  0
    3.8407    4.3691   -4.0597 H   0  0  0  0  0  0  0  0  0  0  0  0
    4.5024    2.7495   -4.1526 H   0  0  0  0  0  0  0  0  0  0  0  0
    3.1208    3.1887   -5.1345 H   0  0  0  0  0  0  0  0  0  0  0  0
    1.3174    3.0407   -3.2467 N   0  0  0  0  0  0  0  0  0  0  0  0
    0.2944    2.6927   -2.2960 C   0  0  2  0  0  0  0  0  0  0  0  0
    0.2976    1.1783   -2.1349 C   0  0  0  0  0  0  0  0  0  0  0  0
    0.7500    0.4142   -2.9850 O   0  0  0  0  0  0  0  0  0  0  0  0
   -1.0710    3.1886   -2.7460 C   0  0  0  0  0  0  0  0  0  0  0  0
    1.0312    3.4224   -4.1464 H   0  0  0  0  0  0  0  0  0  0  0  0
    0.5725    3.1622   -1.3461 H   0  0  0  0  0  0  0  0  0  0  0  0
   -1.3666    2.7292   -3.6963 H   0  0  0  0  0  0  0  0  0  0  0  0
   -1.8434    2.9482   -2.0082 H   0  0  0  0  0  0  0  0  0  0  0  0
   -1.0632    4.2744   -2.8901 H   0  0  0  0  0  0  0  0  0  0  0  0
   -0.3037    0.7742   -0.9484 N   0  0  0  0  0  0  0  0  0  0  0  0
   -0.4352   -0.6095   -0.5718 C   0  0  2  0  0  0  0  0  0  0  0  0
    0.2978   -0.8325    0.7469 C   0  0  0  0  0  0  0  0  0  0  0  0
    1.0825   -0.0151    1.2241 O   0  0  0  0  0  0  0  0  0  0  0  0
    0.0377   -1.5536   -1.6835 C   0  0  0  0  0  0  0  0  0  0  0  0
   -0.8534   -1.5459   -2.9326 C   0  0  0  0  0  0  0  0  0  0  0  0
   -0.3356   -2.5272   -3.9868 C   0  0  0  0  0  0  0  0  0  0  0  0
   -1.2073   -2.4990   -5.2335 C   0  0  0  0  0  0  0  0  0  0  0  0
   -0.6556   -3.4444   -6.2336 N   0  3  0  0  0  0  0  0  0  0  0  0
   -0.6336    1.4811   -0.2948 H   0  0  0  0  0  0  0  0  0  0  0  0
   -1.5055   -0.7719   -0.3959 H   0  0  0  0  0  0  0  0  0  0  0  0
    1.0581   -1.2731   -1.9753 H   0  0  0  0  0  0  0  0  0  0  0  0
    0.0922   -2.5776   -1.2937 H   0  0  0  0  0  0  0  0  0  0  0  0
   -1.8802   -1.8179   -2.6617 H   0  0  0  0  0  0  0  0  0  0  0  0
   -0.8867   -0.5383   -3.3631 H   0  0  0  0  0  0  0  0  0  0  0  0
   -0.3187   -3.5411   -3.5679 H   0  0  0  0  0  0  0  0  0  0  0  0
    0.6982   -2.2713   -4.2503 H   0  0  0  0  0  0  0  0  0  0  0  0
   -2.2321   -2.8203   -5.0246 H   0  0  0  0  0  0  0  0  0  0  0  0
   -1.2193   -1.5111   -5.7033 H   0  0  0  0  0  0  0  0  0  0  0  0
   -0.9961   -3.2234   -7.1757 H   0  0  0  0  0  0  0  0  0  0  0  0
   -0.9300   -4.4092   -6.0174 H   0  0  0  0  0  0  0  0  0  0  0  0
    0.3694   -3.4044   -6.2512 H   0  0  0  0  0  0  0  0  0  0  0  0
   -0.0504   -2.0346    1.3456 N   0  0  0  0  0  0  0  0  0  0  0  0
    0.5043   -2.4530    2.6109 C   0  0  2  0  0  0  0  0  0  0  0  0
    0.1668   -3.9249    2.8087 C   0  0  0  0  0  0  0  0  0  0  0  0
   -0.7698   -4.4808    2.2388 O   0  0  0  0  0  0  0  0  0  0  0  0
   -0.0365   -1.6125    3.7571 C   0  0  0  0  0  0  0  0  0  0  0  0
   -0.7180   -2.6406    0.8780 H   0  0  0  0  0  0  0  0  0  0  0  0
    1.5906   -2.3338    2.5349 H   0  0  0  0  0  0  0  0  0  0  0  0
   -1.1236   -1.7190    3.8489 H   0  0  0  0  0  0  0  0  0  0  0  0
    0.4068   -1.9123    4.7125 H   0  0  0  0  0  0  0  0  0  0  0  0
    0.1812   -0.5508    3.5984 H   0  0  0  0  0  0  0  0  0  0  0  0
    1.0079   -4.5340    3.7294 N   0  0  0  0  0  0  0  0  0  0  0  0
    0.8830   -5.9247    4.0987 C   0  0  0  0  0  0  0  0  0  0  0  0
    1.7698   -4.0015    4.1389 H   0  0  0  0  0  0  0  0  0  0  0  0
    0.2390   -6.0125    4.9862 H   0  0  0  0  0  0  0  0  0  0  0  0
    0.4368   -6.4866    3.2650 H   0  0  0  0  0  0  0  0  0  0  0  0
    1.8783   -6.3344    4.3260 H   0  0  0  0  0  0  0  0  0  0  0  0
  1  3  1  0  0  0  0
  1  7  1  0  0  0  0
  1  2  2  0  0  0  0
 40 41  1  0  0  0  0
 41 49  1  0  0  0  0
 41 42  2  0  0  0  0
  8  9  1  0  0  0  0
  9 17  1  0  0  0  0
  9 10  2  0  0  0  0
 18 19  1  0  0  0  0
 19 39  1  0  0  0  0
 19 20  2  0  0  0  0
 40 43  1  0  0  0  0
  8 11  1  0  0  0  0
 49 50  1  0  0  0  0
 22 23  1  0  0  0  0
 21 22  1  0  0  0  0
 23 24  1  0  0  0  0
 18 21  1  0  0  0  0
 24 25  1  0  0  0  0
 39 40  1  0  0  0  0
  7  8  1  0  0  0  0
 17 18  1  0  0  0  0
  3  4  1  0  0  0  0
  3  5  1  0  0  0  0
  3  6  1  0  0  0  0
 43 46  1  0  0  0  0
 43 47  1  0  0  0  0
 43 48  1  0  0  0  0
 11 14  1  0  0  0  0
 11 15  1  0  0  0  0
 11 16  1  0  0  0  0
 50 52  1  0  0  0  0
 50 53  1  0  0  0  0
 50 54  1  0  0  0  0
 22 30  1  0  0  0  0
 22 31  1  0  0  0  0
 23 32  1  0  0  0  0
 23 33  1  0  0  0  0
 21 28  1  0  0  0  0
 21 29  1  0  0  0  0
 24 34  1  0  0  0  0
 24 35  1  0  0  0  0
 40 45  1  0  0  0  0
  8 13  1  0  0  0  0
 18 27  1  0  0  0  0
 49 51  1  0  0  0  0
  7 12  1  0  0  0  0
 39 44  1  0  0  0  0
 17 26  1  0  0  0  0
 25 36  1  0  0  0  0
 25 37  1  0  0  0  0
 25 38  1  0  0  0  0
M  CHG  1  25   1
M  END
$$$$

  -OEChem-05262214473D

 54 53  0     1  0  0  0  0  0999 V2000
    2.6714    2.8829   -3.0005 C   0  0  0  0  0  0  0  0  0  0  0  0
    3.1741    2.4398   -1.9745 O   0  0  0  0  0  0  0  0  0  0  0  0
    3.5527    3.3077   -4.1279 C   0  0  0  0  0  0  0  0  0  0  0  0
    3.8407    4.3691   -4.0597 H   0  0  0  0  0  0  0  0  0  0  0  0
    4.5024    2.7495   -4.1526 H   0  0  0  0  0  0  0  0  0  0  0  0
    3.1208    3.1887   -5.1345 H   0  0  0  0  0  0  0  0  0  0  0  0
    1.3174    3.0407   -3.2467 N   0  0  0  0  0  0  0  0  0  0  0  0
    0.2944    2.6927   -2.2960 C   0  0  2  0  0  0  0  0  0  0  0  0
    0.2976    1.1783   -2.1349 C   0  0  0  0  0  0  0  0  0  0  0  0
    0.7500    0.4142   -2.9850 O   0  0  0  0  0  0  0  0  0  0  0  0
   -1.0710    3.1886   -2.7460 C   0  0  0  0  0  0  0  0  0  0  0  0
    1.0312    3.4224   -4.1464 H   0  0  0  0  0  0  0  0  0  0  0  0
    0.5725    3.1622   -1.3461 H   0  0  0  0  0  0  0  0  0  0  0  0
   -1.3666    2.7292   -3.6963 H   0  0  0  0  0  0  0  0  0  0  0  0
   -1.8434    2.9482   -2.0082 H   0  0  0  0  0  0  0  0  0  0  0  0
   -1.0632    4.2744   -2.8901 H   0  0  0  0  0  0  0  0  0  0  0  0
   -0.3037    0.7742   -0.9484 N   0  0  0  0  0  0  0  0  0  0  0  0
   -0.4352   -0.6095   -0.5718 C   0  0  2  0  0  0  0  0  0  0  0  0
   -0.0415   -0.7602    0.8939 C   0  0  0  0  0  0  0  0  0  0  0  0
    0.2962    0.1892    1.5983 O   0  0  0  0  0  0  0  0  0  0  0  0
    0.3601   -1.5345   -1.5006 C   0  0  0  0  0  0  0  0  0  0  0  0
   -0.1896   -1.6086   -2.9311 C   0  0  0  0  0  0  0  0  0  0  0  0
    0.6372   -2.5666   -3.7919 C   0  0  0  0  0  0  0  0  0  0  0  0
    0.1041   -2.6189   -5.2161 C   0  0  0  0  0  0  0  0  0  0  0  0
    0.9479   -3.5380   -6.0172 N   0  3  0  0  0  0  0  0  0  0  0  0
   -0.6336    1.4811   -0.2948 H   0  0  0  0  0  0  0  0  0  0  0  0
   -1.5027   -0.8445   -0.6615 H   0  0  0  0  0  0  0  0  0  0  0  0
    1.4007   -1.1870   -1.5392 H   0  0  0  0  0  0  0  0  0  0  0  0
    0.3818   -2.5461   -1.0767 H   0  0  0  0  0  0  0  0  0  0  0  0
   -1.2317   -1.9484   -2.9146 H   0  0  0  0  0  0  0  0  0  0  0  0
   -0.1796   -0.6125   -3.3887 H   0  0  0  0  0  0  0  0  0  0  0  0
    0.6146   -3.5704   -3.3495 H   0  0  0  0  0  0  0  0  0  0  0  0
    1.6852   -2.2423   -3.7991 H   0  0  0  0  0  0  0  0  0  0  0  0
   -0.9174   -3.0086   -5.2574 H   0  0  0  0  0  0  0  0  0  0  0  0
    0.1459   -1.6415   -5.7057 H   0  0  0  0  0  0  0  0  0  0  0  0
    0.8396   -3.3558   -7.0209 H   0  0  0  0  0  0  0  0  0  0  0  0
    0.6912   -4.5163   -5.8448 H   0  0  0  0  0  0  0  0  0  0  0  0
    1.9401   -3.4259   -5.7814 H   0  0  0  0  0  0  0  0  0  0  0  0
   -0.1426   -2.0722    1.3335 N   0  0  0  0  0  0  0  0  0  0  0  0
    0.1629   -2.4542    2.6917 C   0  0  2  0  0  0  0  0  0  0  0  0
    0.2605   -3.9732    2.7424 C   0  0  0  0  0  0  0  0  0  0  0  0
   -0.2730   -4.7077    1.9135 O   0  0  0  0  0  0  0  0  0  0  0  0
   -0.8928   -1.9447    3.6605 C   0  0  0  0  0  0  0  0  0  0  0  0
   -0.4416   -2.7880    0.6778 H   0  0  0  0  0  0  0  0  0  0  0  0
    1.1382   -2.0167    2.9314 H   0  0  0  0  0  0  0  0  0  0  0  0
   -1.8769   -2.3722    3.4360 H   0  0  0  0  0  0  0  0  0  0  0  0
   -0.6448   -2.2107    4.6934 H   0  0  0  0  0  0  0  0  0  0  0  0
   -0.9826   -0.8547    3.6012 H   0  0  0  0  0  0  0  0  0  0  0  0
    0.9773   -4.4135    3.8462 N   0  0  0  0  0  0  0  0  0  0  0  0
    1.1990   -5.8134    4.1241 C   0  0  0  0  0  0  0  0  0  0  0  0
    1.4005   -3.7335    4.4709 H   0  0  0  0  0  0  0  0  0  0  0  0
    0.4055   -6.1860    4.7886 H   0  0  0  0  0  0  0  0  0  0  0  0
    1.1845   -6.3809    3.1819 H   0  0  0  0  0  0  0  0  0  0  0  0
    2.1761   -5.9397    4.6132 H   0  0  0  0  0  0  0  0  0  0  0  0
  1  3  1  0  0  0  0
  1  7  1  0  0  0  0
  1  2  2  0  0  0  0
 40 41  1  0  0  0  0
 41 49  1  0  0  0  0
 41 42  2  0  0  0  0
  8  9  1  0  0  0  0
  9 17  1  0  0  0  0
  9 10  2  0  0  0  0
 18 19  1  0  0  0  0
 19 39  1  0  0  0  0
 19 20  2  0  0  0  0
 40 43  1  0  0  0  0
  8 11  1  0  0  0  0
 49 50  1  0  0  0  0
 22 23  1  0  0  0  0
 21 22  1  0  0  0  0
 23 24  1  0  0  0  0
 18 21  1  0  0  0  0
 24 25  1  0  0  0  0
 39 40  1  0  0  0  0
  7  8  1  0  0  0  0
 17 18  1  0  0  0  0
  3  4  1  0  0  0  0
  3  5  1  0  0  0  0
  3  6  1  0  0  0  0
 43 46  1  0  0  0  0
 43 47  1  0  0  0  0
 43 48  1  0  0  0  0
 11 14  1  0  0  0  0
 11 15  1  0  0  0  0
 11 16  1  0  0  0  0
 50 52  1  0  0  0  0
 50 53  1  0  0  0  0
 50 54  1  0  0  0  0
 22 30  1  0  0  0  0
 22 31  1  0  0  0  0
 23 32  1  0  0  0  0
 23 33  1  0  0  0  0
 21 28  1  0  0  0  0
 21 29  1  0  0  0  0
 24 34  1  0  0  0  0
 24 35  1  0  0  0  0
 40 45  1  0  0  0  0
  8 13  1  0  0  0  0
 18 27  1  0  0  0  0
 49 51  1  0  0  0  0
  7 12  1  0  0  0  0
 39 44  1  0  0  0  0
 17 26  1  0  0  0  0
 25 36  1  0  0  0  0
 25 37  1  0  0  0  0
 25 38  1  0  0  0  0
M  CHG  1  25   1
M  END
$$$$

  -OEChem-05262214473D

 54 53  0     1  0  0  0  0  0999 V2000
    2.6714    2.8829   -3.0005 C   0  0  0  0  0  0  0  0  0  0  0  0
    3.1741    2.4398   -1.9745 O   0  0  0  0  0  0  0  0  0  0  0  0
    3.5527    3.3077   -4.1279 C   0  0  0  0  0  0  0  0  0  0  0  0
    3.8407    4.3691   -4.0597 H   0  0  0  0  0  0  0  0  0  0  0  0
    4.5024    2.7495   -4.1526 H   0  0  0  0  0  0  0  0  0  0  0  0
    3.1208    3.1887   -5.1345 H   0  0  0  0  0  0  0  0  0  0  0  0
    1.3174    3.0407   -3.2467 N   0  0  0  0  0  0  0  0  0  0  0  0
    0.2944    2.6927   -2.2960 C   0  0  2  0  0  0  0  0  0  0  0  0
    0.2976    1.1783   -2.1349 C   0  0  0  0  0  0  0  0  0  0  0  0
    0.7500    0.4142   -2.9850 O   0  0  0  0  0  0  0  0  0  0  0  0
   -1.0710    3.1886   -2.7460 C   0  0  0  0  0  0  0  0  0  0  0  0
    1.0312    3.4224   -4.1464 H   0  0  0  0  0  0  0  0  0  0  0  0
    0.5725    3.1622   -1.3461 H   0  0  0  0  0  0  0  0  0  0  0  0
   -1.3666    2.7292   -3.6963 H   0  0  0  0  0  0  0  0  0  0  0  0
   -1.8434    2.9482   -2.0082 H   0  0  0  0  0  0  0  0  0  0  0  0
   -1.0632    4.2744   -2.8901 H   0  0  0  0  0  0  0  0  0  0  0  0
   -0.3037    0.7742   -0.9484 N   0  0  0  0  0  0  0  0  0  0  0  0
   -0.4352   -0.6095   -0.5718 C   0  0  2  0  0  0  0  0  0  0  0  0
   -0.0415   -0.7602    0.8939 C   0  0  0  0  0  0  0  0  0  0  0  0
    0.0364    0.1915    1.6683 O   0  0  0  0  0  0  0  0  0  0  0  0
    0.3601   -1.5345   -1.5006 C   0  0  0  0  0  0  0  0  0  0  0  0
   -0.1896   -1.6086   -2.9311 C   0  0  0  0  0  0  0  0  0  0  0  0
    0.6372   -2.5666   -3.7919 C   0  0  0  0  0  0  0  0  0  0  0  0
    0.1041   -2.6189   -5.2161 C   0  0  0  0  0  0  0  0  0  0  0  0
    0.9479   -3.5380   -6.0172 N   0  3  0  0  0  0  0  0  0  0  0  0
   -0.6336    1.4811   -0.2948 H   0  0  0  0  0  0  0  0  0  0  0  0
   -1.5027   -0.8445   -0.6615 H   0  0  0  0  0  0  0  0  0  0  0  0
    1.4007   -1.1870   -1.5392 H   0  0  0  0  0  0  0  0  0  0  0  0
    0.3818   -2.5461   -1.0767 H   0  0  0  0  0  0  0  0  0  0  0  0
   -1.2317   -1.9484   -2.9146 H   0  0  0  0  0  0  0  0  0  0  0  0
   -0.1796   -0.6125   -3.3887 H   0  0  0  0  0  0  0  0  0  0  0  0
    0.6146   -3.5704   -3.3495 H   0  0  0  0  0  0  0  0  0  0  0  0
    1.6852   -2.2423   -3.7991 H   0  0  0  0  0  0  0  0  0  0  0  0
   -0.9174   -3.0086   -5.2574 H   0  0  0  0  0  0  0  0  0  0  0  0
    0.1459   -1.6415   -5.7057 H   0  0  0  0  0  0  0  0  0  0  0  0
    0.8396   -3.3558   -7.0209 H   0  0  0  0  0  0  0  0  0  0  0  0
    0.6912   -4.5163   -5.8448 H   0  0  0  0  0  0  0  0  0  0  0  0
    1.9401   -3.4259   -5.7814 H   0  0  0  0  0  0  0  0  0  0  0  0
    0.1806   -2.0838    1.2455 N   0  0  0  0  0  0  0  0  0  0  0  0
    0.5484   -2.4723    2.5862 C   0  0  2  0  0  0  0  0  0  0  0  0
    1.0213   -3.9194    2.5436 C   0  0  0  0  0  0  0  0  0  0  0  0
    0.7023   -4.7033    1.6521 O   0  0  0  0  0  0  0  0  0  0  0  0
   -0.6174   -2.3096    3.5490 C   0  0  0  0  0  0  0  0  0  0  0  0
    0.0810   -2.8036    0.5359 H   0  0  0  0  0  0  0  0  0  0  0  0
    1.3794   -1.8246    2.8864 H   0  0  0  0  0  0  0  0  0  0  0  0
   -1.4596   -2.9508    3.2644 H   0  0  0  0  0  0  0  0  0  0  0  0
   -0.3286   -2.5774    4.5707 H   0  0  0  0  0  0  0  0  0  0  0  0
   -0.9755   -1.2744    3.5562 H   0  0  0  0  0  0  0  0  0  0  0  0
    1.8062   -4.2445    3.6410 N   0  0  0  0  0  0  0  0  0  0  0  0
    2.3655   -5.5616    3.8367 C   0  0  0  0  0  0  0  0  0  0  0  0
    2.0355   -3.5263    4.3217 H   0  0  0  0  0  0  0  0  0  0  0  0
    1.6790   -6.1649    4.4488 H   0  0  0  0  0  0  0  0  0  0  0  0
    2.5093   -6.0476    2.8603 H   0  0  0  0  0  0  0  0  0  0  0  0
    3.3347   -5.4758    4.3497 H   0  0  0  0  0  0  0  0  0  0  0  0
  1  3  1  0  0  0  0
  1  7  1  0  0  0  0
  1  2  2  0  0  0  0
 40 41  1  0  0  0  0
 41 49  1  0  0  0  0
 41 42  2  0  0  0  0
  8  9  1  0  0  0  0
  9 17  1  0  0  0  0
  9 10  2  0  0  0  0
 18 19  1  0  0  0  0
 19 39  1  0  0  0  0
 19 20  2  0  0  0  0
 40 43  1  0  0  0  0
  8 11  1  0  0  0  0
 49 50  1  0  0  0  0
 22 23  1  0  0  0  0
 21 22  1  0  0  0  0
 23 24  1  0  0  0  0
 18 21  1  0  0  0  0
 24 25  1  0  0  0  0
 39 40  1  0  0  0  0
  7  8  1  0  0  0  0
 17 18  1  0  0  0  0
  3  4  1  0  0  0  0
  3  5  1  0  0  0  0
  3  6  1  0  0  0  0
 43 46  1  0  0  0  0
 43 47  1  0  0  0  0
 43 48  1  0  0  0  0
 11 14  1  0  0  0  0
 11 15  1  0  0  0  0
 11 16  1  0  0  0  0
 50 52  1  0  0  0  0
 50 53  1  0  0  0  0
 50 54  1  0  0  0  0
 22 30  1  0  0  0  0
 22 31  1  0  0  0  0
 23 32  1  0  0  0  0
 23 33  1  0  0  0  0
 21 28  1  0  0  0  0
 21 29  1  0  0  0  0
 24 34  1  0  0  0  0
 24 35  1  0  0  0  0
 40 45  1  0  0  0  0
  8 13  1  0  0  0  0
 18 27  1  0  0  0  0
 49 51  1  0  0  0  0
  7 12  1  0  0  0  0
 39 44  1  0  0  0  0
 17 26  1  0  0  0  0
 25 36  1  0  0  0  0
 25 37  1  0  0  0  0
 25 38  1  0  0  0  0
M  CHG  1  25   1
M  END
$$$$

  -OEChem-05262214473D

 54 53  0     1  0  0  0  0  0999 V2000
    2.6714    2.8829   -3.0005 C   0  0  0  0  0  0  0  0  0  0  0  0
    3.1741    2.4398   -1.9745 O   0  0  0  0  0  0  0  0  0  0  0  0
    3.5527    3.3077   -4.1279 C   0  0  0  0  0  0  0  0  0  0  0  0
    3.8407    4.3691   -4.0597 H   0  0  0  0  0  0  0  0  0  0  0  0
    4.5024    2.7495   -4.1526 H   0  0  0  0  0  0  0  0  0  0  0  0
    3.1208    3.1887   -5.1345 H   0  0  0  0  0  0  0  0  0  0  0  0
    1.3174    3.0407   -3.2467 N   0  0  0  0  0  0  0  0  0  0  0  0
    0.2944    2.6927   -2.2960 C   0  0  2  0  0  0  0  0  0  0  0  0
    0.2976    1.1783   -2.1349 C   0  0  0  0  0  0  0  0  0  0  0  0
    0.7500    0.4142   -2.9850 O   0  0  0  0  0  0  0  0  0  0  0  0
   -1.0710    3.1886   -2.7460 C   0  0  0  0  0  0  0  0  0  0  0  0
    1.0312    3.4224   -4.1464 H   0  0  0  0  0  0  0  0  0  0  0  0
    0.5725    3.1622   -1.3461 H   0  0  0  0  0  0  0  0  0  0  0  0
   -1.3666    2.7292   -3.6963 H   0  0  0  0  0  0  0  0  0  0  0  0
   -1.8434    2.9482   -2.0082 H   0  0  0  0  0  0  0  0  0  0  0  0
   -1.0632    4.2744   -2.8901 H   0  0  0  0  0  0  0  0  0  0  0  0
   -0.3037    0.7742   -0.9484 N   0  0  0  0  0  0  0  0  0  0  0  0
   -0.4352   -0.6095   -0.5718 C   0  0  2  0  0  0  0  0  0  0  0  0
   -0.0415   -0.7602    0.8939 C   0  0  0  0  0  0  0  0  0  0  0  0
   -0.2169    0.1245    1.7294 O   0  0  0  0  0  0  0  0  0  0  0  0
    0.3601   -1.5345   -1.5006 C   0  0  0  0  0  0  0  0  0  0  0  0
   -0.1896   -1.6086   -2.9311 C   0  0  0  0  0  0  0  0  0  0  0  0
    0.6372   -2.5666   -3.7919 C   0  0  0  0  0  0  0  0  0  0  0  0
    0.1041   -2.6189   -5.2161 C   0  0  0  0  0  0  0  0  0  0  0  0
    0.9479   -3.5380   -6.0172 N   0  3  0  0  0  0  0  0  0  0  0  0
   -0.6336    1.4811   -0.2948 H   0  0  0  0  0  0  0  0  0  0  0  0
   -1.5027   -0.8445   -0.6615 H   0  0  0  0  0  0  0  0  0  0  0  0
    1.4007   -1.1870   -1.5392 H   0  0  0  0  0  0  0  0  0  0  0  0
    0.3818   -2.5461   -1.0767 H   0  0  0  0  0  0  0  0  0  0  0  0
   -1.2317   -1.9484   -2.9146 H   0  0  0  0  0  0  0  0  0  0  0  0
   -0.1796   -0.6125   -3.3887 H   0  0  0  0  0  0  0  0  0  0  0  0
    0.6146   -3.5704   -3.3495 H   0  0  0  0  0  0  0  0  0  0  0  0
    1.6852   -2.2423   -3.7991 H   0  0  0  0  0  0  0  0  0  0  0  0
   -0.9174   -3.0086   -5.2574 H   0  0  0  0  0  0  0  0  0  0  0  0
    0.1459   -1.6415   -5.7057 H   0  0  0  0  0  0  0  0  0  0  0  0
    0.8396   -3.3558   -7.0209 H   0  0  0  0  0  0  0  0  0  0  0  0
    0.6912   -4.5163   -5.8448 H   0  0  0  0  0  0  0  0  0  0  0  0
    1.9401   -3.4259   -5.7814 H   0  0  0  0  0  0  0  0  0  0  0  0
    0.4979   -2.0087    1.1680 N   0  0  0  0  0  0  0  0  0  0  0  0
    0.9280   -2.3868    2.4931 C   0  0  2  0  0  0  0  0  0  0  0  0
    1.7478   -3.6649    2.3746 C   0  0  0  0  0  0  0  0  0  0  0  0
    1.6498   -4.4390    1.4247 O   0  0  0  0  0  0  0  0  0  0  0  0
   -0.2579   -2.5860    3.4240 C   0  0  0  0  0  0  0  0  0  0  0  0
    0.5932   -2.6792    0.4111 H   0  0  0  0  0  0  0  0  0  0  0  0
    1.5658   -1.5761    2.8619 H   0  0  0  0  0  0  0  0  0  0  0  0
   -0.9083   -3.3944    3.0707 H   0  0  0  0  0  0  0  0  0  0  0  0
    0.0711   -2.8448    4.4359 H   0  0  0  0  0  0  0  0  0  0  0  0
   -0.8630   -1.6750    3.4848 H   0  0  0  0  0  0  0  0  0  0  0  0
    2.5701   -3.8614    3.4752 N   0  0  0  0  0  0  0  0  0  0  0  0
    3.4371   -5.0091    3.6057 C   0  0  0  0  0  0  0  0  0  0  0  0
    2.6012   -3.1582    4.2076 H   0  0  0  0  0  0  0  0  0  0  0  0
    2.9124   -5.8051    4.1545 H   0  0  0  0  0  0  0  0  0  0  0  0
    3.7143   -5.3746    2.6059 H   0  0  0  0  0  0  0  0  0  0  0  0
    4.3452   -4.7218    4.1559 H   0  0  0  0  0  0  0  0  0  0  0  0
  1  3  1  0  0  0  0
  1  7  1  0  0  0  0
  1  2  2  0  0  0  0
 40 41  1  0  0  0  0
 41 49  1  0  0  0  0
 41 42  2  0  0  0  0
  8  9  1  0  0  0  0
  9 17  1  0  0  0  0
  9 10  2  0  0  0  0
 18 19  1  0  0  0  0
 19 39  1  0  0  0  0
 19 20  2  0  0  0  0
 40 43  1  0  0  0  0
  8 11  1  0  0  0  0
 49 50  1  0  0  0  0
 22 23  1  0  0  0  0
 21 22  1  0  0  0  0
 23 24  1  0  0  0  0
 18 21  1  0  0  0  0
 24 25  1  0  0  0  0
 39 40  1  0  0  0  0
  7  8  1  0  0  0  0
 17 18  1  0  0  0  0
  3  4  1  0  0  0  0
  3  5  1  0  0  0  0
  3  6  1  0  0  0  0
 43 46  1  0  0  0  0
 43 47  1  0  0  0  0
 43 48  1  0  0  0  0
 11 14  1  0  0  0  0
 11 15  1  0  0  0  0
 11 16  1  0  0  0  0
 50 52  1  0  0  0  0
 50 53  1  0  0  0  0
 50 54  1  0  0  0  0
 22 30  1  0  0  0  0
 22 31  1  0  0  0  0
 23 32  1  0  0  0  0
 23 33  1  0  0  0  0
 21 28  1  0  0  0  0
 21 29  1  0  0  0  0
 24 34  1  0  0  0  0
 24 35  1  0  0  0  0
 40 45  1  0  0  0  0
  8 13  1  0  0  0  0
 18 27  1  0  0  0  0
 49 51  1  0  0  0  0
  7 12  1  0  0  0  0
 39 44  1  0  0  0  0
 17 26  1  0  0  0  0
 25 36  1  0  0  0  0
 25 37  1  0  0  0  0
 25 38  1  0  0  0  0
M  CHG  1  25   1
M  END
$$$$

  -OEChem-05262214473D

 54 53  0     1  0  0  0  0  0999 V2000
    2.6714    2.8829   -3.0005 C   0  0  0  0  0  0  0  0  0  0  0  0
    3.1741    2.4398   -1.9745 O   0  0  0  0  0  0  0  0  0  0  0  0
    3.5527    3.3077   -4.1279 C   0  0  0  0  0  0  0  0  0  0  0  0
    3.8407    4.3691   -4.0597 H   0  0  0  0  0  0  0  0  0  0  0  0
    4.5024    2.7495   -4.1526 H   0  0  0  0  0  0  0  0  0  0  0  0
    3.1208    3.1887   -5.1345 H   0  0  0  0  0  0  0  0  0  0  0  0
    1.3174    3.0407   -3.2467 N   0  0  0  0  0  0  0  0  0  0  0  0
    0.2944    2.6927   -2.2960 C   0  0  2  0  0  0  0  0  0  0  0  0
    0.2976    1.1783   -2.1349 C   0  0  0  0  0  0  0  0  0  0  0  0
    0.7500    0.4142   -2.9850 O   0  0  0  0  0  0  0  0  0  0  0  0
   -1.0710    3.1886   -2.7460 C   0  0  0  0  0  0  0  0  0  0  0  0
    1.0312    3.4224   -4.1464 H   0  0  0  0  0  0  0  0  0  0  0  0
    0.5725    3.1622   -1.3461 H   0  0  0  0  0  0  0  0  0  0  0  0
   -1.3666    2.7292   -3.6963 H   0  0  0  0  0  0  0  0  0  0  0  0
   -1.8434    2.9482   -2.0082 H   0  0  0  0  0  0  0  0  0  0  0  0
   -1.0632    4.2744   -2.8901 H   0  0  0  0  0  0  0  0  0  0  0  0
   -0.3037    0.7742   -0.9484 N   0  0  0  0  0  0  0  0  0  0  0  0
   -0.4352   -0.6095   -0.5718 C   0  0  2  0  0  0  0  0  0  0  0  0
   -0.0415   -0.7602    0.8939 C   0  0  0  0  0  0  0  0  0  0  0  0
   -0.4465   -0.0073    1.7775 O   0  0  0  0  0  0  0  0  0  0  0  0
    0.3601   -1.5345   -1.5006 C   0  0  0  0  0  0  0  0  0  0  0  0
   -0.1896   -1.6086   -2.9311 C   0  0  0  0  0  0  0  0  0  0  0  0
    0.6372   -2.5666   -3.7919 C   0  0  0  0  0  0  0  0  0  0  0  0
    0.1041   -2.6189   -5.2161 C   0  0  0  0  0  0  0  0  0  0  0  0
    0.9479   -3.5380   -6.0172 N   0  3  0  0  0  0  0  0  0  0  0  0
   -0.6336    1.4811   -0.2948 H   0  0  0  0  0  0  0  0  0  0  0  0
   -1.5027   -0.8445   -0.6615 H   0  0  0  0  0  0  0  0  0  0  0  0
    1.4007   -1.1870   -1.5392 H   0  0  0  0  0  0  0  0  0  0  0  0
    0.3818   -2.5461   -1.0767 H   0  0  0  0  0  0  0  0  0  0  0  0
   -1.2317   -1.9484   -2.9146 H   0  0  0  0  0  0  0  0  0  0  0  0
   -0.1796   -0.6125   -3.3887 H   0  0  0  0  0  0  0  0  0  0  0  0
    0.6146   -3.5704   -3.3495 H   0  0  0  0  0  0  0  0  0  0  0  0
    1.6852   -2.2423   -3.7991 H   0  0  0  0  0  0  0  0  0  0  0  0
   -0.9174   -3.0086   -5.2574 H   0  0  0  0  0  0  0  0  0  0  0  0
    0.1459   -1.6415   -5.7057 H   0  0  0  0  0  0  0  0  0  0  0  0
    0.8396   -3.3558   -7.0209 H   0  0  0  0  0  0  0  0  0  0  0  0
    0.6912   -4.5163   -5.8448 H   0  0  0  0  0  0  0  0  0  0  0  0
    1.9401   -3.4259   -5.7814 H   0  0  0  0  0  0  0  0  0  0  0  0
    0.7877   -1.8521    1.1063 N   0  0  0  0  0  0  0  0  0  0  0  0
    1.2758   -2.2036    2.4185 C   0  0  2  0  0  0  0  0  0  0  0  0
    2.3905   -3.2271    2.2470 C   0  0  0  0  0  0  0  0  0  0  0  0
    2.5052   -3.9328    1.2470 O   0  0  0  0  0  0  0  0  0  0  0  0
    0.1614   -2.7552    3.2940 C   0  0  0  0  0  0  0  0  0  0  0  0
    1.0603   -2.4233    0.3119 H   0  0  0  0  0  0  0  0  0  0  0  0
    1.6846   -1.2880    2.8596 H   0  0  0  0  0  0  0  0  0  0  0  0
   -0.2605   -3.6729    2.8681 H   0  0  0  0  0  0  0  0  0  0  0  0
    0.5272   -2.9947    4.2980 H   0  0  0  0  0  0  0  0  0  0  0  0
   -0.6529   -2.0292    3.3919 H   0  0  0  0  0  0  0  0  0  0  0  0
    3.2169   -3.2902    3.3602 N   0  0  0  0  0  0  0  0  0  0  0  0
    4.3406   -4.1935    3.4469 C   0  0  0  0  0  0  0  0  0  0  0  0
    3.0590   -2.6544    4.1364 H   0  0  0  0  0  0  0  0  0  0  0  0
    4.0219   -5.1311    3.9258 H   0  0  0  0  0  0  0  0  0  0  0  0
    4.7173   -4.4079    2.4359 H   0  0  0  0  0  0  0  0  0  0  0  0
    5.1387   -3.7293    4.0448 H   0  0  0  0  0  0  0  0  0  0  0  0
  1  3  1  0  0  0  0
  1  7  1  0  0  0  0
  1  2  2  0  0  0  0
 40 41  1  0  0  0  0
 41 49  1  0  0  0  0
 41 42  2  0  0  0  0
  8  9  1  0  0  0  0
  9 17  1  0  0  0  0
  9 10  2  0  0  0  0
 18 19  1  0  0  0  0
 19 39  1  0  0  0  0
 19 20  2  0  0  0  0
 40 43  1  0  0  0  0
  8 11  1  0  0  0  0
 49 50  1  0  0  0  0
 22 23  1  0  0  0  0
 21 22  1  0  0  0  0
 23 24  1  0  0  0  0
 18 21  1  0  0  0  0
 24 25  1  0  0  0  0
 39 40  1  0  0  0  0
  7  8  1  0  0  0  0
 17 18  1  0  0  0  0
  3  4  1  0  0  0  0
  3  5  1  0  0  0  0
  3  6  1  0  0  0  0
 43 46  1  0  0  0  0
 43 47  1  0  0  0  0
 43 48  1  0  0  0  0
 11 14  1  0  0  0  0
 11 15  1  0  0  0  0
 11 16  1  0  0  0  0
 50 52  1  0  0  0  0
 50 53  1  0  0  0  0
 50 54  1  0  0  0  0
 22 30  1  0  0  0  0
 22 31  1  0  0  0  0
 23 32  1  0  0  0  0
 23 33  1  0  0  0  0
 21 28  1  0  0  0  0
 21 29  1  0  0  0  0
 24 34  1  0  0  0  0
 24 35  1  0  0  0  0
 40 45  1  0  0  0  0
  8 13  1  0  0  0  0
 18 27  1  0  0  0  0
 49 51  1  0  0  0  0
  7 12  1  0  0  0  0
 39 44  1  0  0  0  0
 17 26  1  0  0  0  0
 25 36  1  0  0  0  0
 25 37  1  0  0  0  0
 25 38  1  0  0  0  0
M  CHG  1  25   1
M  END
$$$$

  -OEChem-05262214473D

 54 53  0     1  0  0  0  0  0999 V2000
    2.6714    2.8829   -3.0005 C   0  0  0  0  0  0  0  0  0  0  0  0
    3.1741    2.4398   -1.9745 O   0  0  0  0  0  0  0  0  0  0  0  0
    3.5527    3.3077   -4.1279 C   0  0  0  0  0  0  0  0  0  0  0  0
    3.8407    4.3691   -4.0597 H   0  0  0  0  0  0  0  0  0  0  0  0
    4.5024    2.7495   -4.1526 H   0  0  0  0  0  0  0  0  0  0  0  0
    3.1208    3.1887   -5.1345 H   0  0  0  0  0  0  0  0  0  0  0  0
    1.3174    3.0407   -3.2467 N   0  0  0  0  0  0  0  0  0  0  0  0
    0.2944    2.6927   -2.2960 C   0  0  2  0  0  0  0  0  0  0  0  0
    0.2976    1.1783   -2.1349 C   0  0  0  0  0  0  0  0  0  0  0  0
    0.7500    0.4142   -2.9850 O   0  0  0  0  0  0  0  0  0  0  0  0
   -1.0710    3.1886   -2.7460 C   0  0  0  0  0  0  0  0  0  0  0  0
    1.0312    3.4224   -4.1464 H   0  0  0  0  0  0  0  0  0  0  0  0
    0.5725    3.1622   -1.3461 H   0  0  0  0  0  0  0  0  0  0  0  0
   -1.3666    2.7292   -3.6963 H   0  0  0  0  0  0  0  0  0  0  0  0
   -1.8434    2.9482   -2.0082 H   0  0  0  0  0  0  0  0  0  0  0  0
   -1.0632    4.2744   -2.8901 H   0  0  0  0  0  0  0  0  0  0  0  0
   -0.3037    0.7742   -0.9484 N   0  0  0  0  0  0  0  0  0  0  0  0
   -0.4352   -0.6095   -0.5718 C   0  0  2  0  0  0  0  0  0  0  0  0
   -0.0415   -0.7602    0.8939 C   0  0  0  0  0  0  0  0  0  0  0  0
   -0.6366   -0.1950    1.8093 O   0  0  0  0  0  0  0  0  0  0  0  0
    0.3601   -1.5345   -1.5006 C   0  0  0  0  0  0  0  0  0  0  0  0
   -0.1896   -1.6086   -2.9311 C   0  0  0  0  0  0  0  0  0  0  0  0
    0.6372   -2.5666   -3.7919 C   0  0  0  0  0  0  0  0  0  0  0  0
    0.1041   -2.6189   -5.2161 C   0  0  0  0  0  0  0  0  0  0  0  0
    0.9479   -3.5380   -6.0172 N   0  3  0  0  0  0  0  0  0  0  0  0
   -0.6336    1.4811   -0.2948 H   0  0  0  0  0  0  0  0  0  0  0  0
   -1.5027   -0.8445   -0.6615 H   0  0  0  0  0  0  0  0  0  0  0  0
    1.4007   -1.1870   -1.5392 H   0  0  0  0  0  0  0  0  0  0  0  0
    0.3818   -2.5461   -1.0767 H   0  0  0  0  0  0  0  0  0  0  0  0
   -1.2317   -1.9484   -2.9146 H   0  0  0  0  0  0  0  0  0  0  0  0
   -0.1796   -0.6125   -3.3887 H   0  0  0  0  0  0  0  0  0  0  0  0
    0.6146   -3.5704   -3.3495 H   0  0  0  0  0  0  0  0  0  0  0  0
    1.6852   -2.2423   -3.7991 H   0  0  0  0  0  0  0  0  0  0  0  0
   -0.9174   -3.0086   -5.2574 H   0  0  0  0  0  0  0  0  0  0  0  0
    0.1459   -1.6415   -5.7057 H   0  0  0  0  0  0  0  0  0  0  0  0
    0.8396   -3.3558   -7.0209 H   0  0  0  0  0  0  0  0  0  0  0  0
    0.6912   -4.5163   -5.8448 H   0  0  0  0  0  0  0  0  0  0  0  0
    1.9401   -3.4259   -5.7814 H   0  0  0  0  0  0  0  0  0  0  0  0
    1.0302   -1.6246    1.0646 N   0  0  0  0  0  0  0  0  0  0  0  0
    1.5681   -1.9352    2.3676 C   0  0  2  0  0  0  0  0  0  0  0  0
    2.9058   -2.6358    2.1694 C   0  0  0  0  0  0  0  0  0  0  0  0
    3.2101   -3.2192    1.1311 O   0  0  0  0  0  0  0  0  0  0  0  0
    0.6119   -2.8057    3.1678 C   0  0  0  0  0  0  0  0  0  0  0  0
    1.4503   -2.0533    0.2452 H   0  0  0  0  0  0  0  0  0  0  0  0
    1.7278   -0.9800    2.8797 H   0  0  0  0  0  0  0  0  0  0  0  0
    0.4396   -3.7671    2.6704 H   0  0  0  0  0  0  0  0  0  0  0  0
    1.0086   -3.0167    4.1664 H   0  0  0  0  0  0  0  0  0  0  0  0
   -0.3595   -2.3129    3.2839 H   0  0  0  0  0  0  0  0  0  0  0  0
    3.7026   -2.5699    3.3038 N   0  0  0  0  0  0  0  0  0  0  0  0
    5.0144   -3.1703    3.3711 C   0  0  0  0  0  0  0  0  0  0  0  0
    3.3776   -2.0491    4.1131 H   0  0  0  0  0  0  0  0  0  0  0  0
    4.9317   -4.1888    3.7783 H   0  0  0  0  0  0  0  0  0  0  0  0
    5.4500   -3.2133    2.3619 H   0  0  0  0  0  0  0  0  0  0  0  0
    5.6611   -2.5658    4.0241 H   0  0  0  0  0  0  0  0  0  0  0  0
  1  3  1  0  0  0  0
  1  7  1  0  0  0  0
  1  2  2  0  0  0  0
 40 41  1  0  0  0  0
 41 49  1  0  0  0  0
 41 42  2  0  0  0  0
  8  9  1  0  0  0  0
  9 17  1  0  0  0  0
  9 10  2  0  0  0  0
 18 19  1  0  0  0  0
 19 39  1  0  0  0  0
 19 20  2  0  0  0  0
 40 43  1  0  0  0  0
  8 11  1  0  0  0  0
 49 50  1  0  0  0  0
 22 23  1  0  0  0  0
 21 22  1  0  0  0  0
 23 24  1  0  0  0  0
 18 21  1  0  0  0  0
 24 25  1  0  0  0  0
 39 40  1  0  0  0  0
  7  8  1  0  0  0  0
 17 18  1  0  0  0  0
  3  4  1  0  0  0  0
  3  5  1  0  0  0  0
  3  6  1  0  0  0  0
 43 46  1  0  0  0  0
 43 47  1  0  0  0  0
 43 48  1  0  0  0  0
 11 14  1  0  0  0  0
 11 15  1  0  0  0  0
 11 16  1  0  0  0  0
 50 52  1  0  0  0  0
 50 53  1  0  0  0  0
 50 54  1  0  0  0  0
 22 30  1  0  0  0  0
 22 31  1  0  0  0  0
 23 32  1  0  0  0  0
 23 33  1  0  0  0  0
 21 28  1  0  0  0  0
 21 29  1  0  0  0  0
 24 34  1  0  0  0  0
 24 35  1  0  0  0  0
 40 45  1  0  0  0  0
  8 13  1  0  0  0  0
 18 27  1  0  0  0  0
 49 51  1  0  0  0  0
  7 12  1  0  0  0  0
 39 44  1  0  0  0  0
 17 26  1  0  0  0  0
 25 36  1  0  0  0  0
 25 37  1  0  0  0  0
 25 38  1  0  0  0  0
M  CHG  1  25   1
M  END
$$$$

  -OEChem-05262214473D

 54 53  0     1  0  0  0  0  0999 V2000
    2.6714    2.8829   -3.0005 C   0  0  0  0  0  0  0  0  0  0  0  0
    3.1741    2.4398   -1.9745 O   0  0  0  0  0  0  0  0  0  0  0  0
    3.5527    3.3077   -4.1279 C   0  0  0  0  0  0  0  0  0  0  0  0
    3.8407    4.3691   -4.0597 H   0  0  0  0  0  0  0  0  0  0  0  0
    4.5024    2.7495   -4.1526 H   0  0  0  0  0  0  0  0  0  0  0  0
    3.1208    3.1887   -5.1345 H   0  0  0  0  0  0  0  0  0  0  0  0
    1.3174    3.0407   -3.2467 N   0  0  0  0  0  0  0  0  0  0  0  0
    0.2944    2.6927   -2.2960 C   0  0  2  0  0  0  0  0  0  0  0  0
    0.2976    1.1783   -2.1349 C   0  0  0  0  0  0  0  0  0  0  0  0
    0.7500    0.4142   -2.9850 O   0  0  0  0  0  0  0  0  0  0  0  0
   -1.0710    3.1886   -2.7460 C   0  0  0  0  0  0  0  0  0  0  0  0
    1.0312    3.4224   -4.1464 H   0  0  0  0  0  0  0  0  0  0  0  0
    0.5725    3.1622   -1.3461 H   0  0  0  0  0  0  0  0  0  0  0  0
   -1.3666    2.7292   -3.6963 H   0  0  0  0  0  0  0  0  0  0  0  0
   -1.8434    2.9482   -2.0082 H   0  0  0  0  0  0  0  0  0  0  0  0
   -1.0632    4.2744   -2.8901 H   0  0  0  0  0  0  0  0  0  0  0  0
   -0.3037    0.7742   -0.9484 N   0  0  0  0  0  0  0  0  0  0  0  0
   -0.4352   -0.6095   -0.5718 C   0  0  2  0  0  0  0  0  0  0  0  0
   -0.0415   -0.7602    0.8939 C   0  0  0  0  0  0  0  0  0  0  0  0
   -0.7745   -0.4257    1.8226 O   0  0  0  0  0  0  0  0  0  0  0  0
    0.3601   -1.5345   -1.5006 C   0  0  0  0  0  0  0  0  0  0  0  0
   -0.1896   -1.6086   -2.9311 C   0  0  0  0  0  0  0  0  0  0  0  0
    0.6372   -2.5666   -3.7919 C   0  0  0  0  0  0  0  0  0  0  0  0
    0.1041   -2.6189   -5.2161 C   0  0  0  0  0  0  0  0  0  0  0  0
    0.9479   -3.5380   -6.0172 N   0  3  0  0  0  0  0  0  0  0  0  0
   -0.6336    1.4811   -0.2948 H   0  0  0  0  0  0  0  0  0  0  0  0
   -1.5027   -0.8445   -0.6615 H   0  0  0  0  0  0  0  0  0  0  0  0
    1.4007   -1.1870   -1.5392 H   0  0  0  0  0  0  0  0  0  0  0  0
    0.3818   -2.5461   -1.0767 H   0  0  0  0  0  0  0  0  0  0  0  0
   -1.2317   -1.9484   -2.9146 H   0  0  0  0  0  0  0  0  0  0  0  0
   -0.1796   -0.6125   -3.3887 H   0  0  0  0  0  0  0  0  0  0  0  0
    0.6146   -3.5704   -3.3495 H   0  0  0  0  0  0  0  0  0  0  0  0
    1.6852   -2.2423   -3.7991 H   0  0  0  0  0  0  0  0  0  0  0  0
   -0.9174   -3.0086   -5.2574 H   0  0  0  0  0  0  0  0  0  0  0  0
    0.1459   -1.6415   -5.7057 H   0  0  0  0  0  0  0  0  0  0  0  0
    0.8396   -3.3558   -7.0209 H   0  0  0  0  0  0  0  0  0  0  0  0
    0.6912   -4.5163   -5.8448 H   0  0  0  0  0  0  0  0  0  0  0  0
    1.9401   -3.4259   -5.7814 H   0  0  0  0  0  0  0  0  0  0  0  0
    1.2090   -1.3418    1.0456 N   0  0  0  0  0  0  0  0  0  0  0  0
    1.7850   -1.5998    2.3438 C   0  0  2  0  0  0  0  0  0  0  0  0
    3.2584   -1.9313    2.1471 C   0  0  0  0  0  0  0  0  0  0  0  0
    3.7164   -2.3469    1.0848 O   0  0  0  0  0  0  0  0  0  0  0  0
    1.0627   -2.7340    3.0541 C   0  0  0  0  0  0  0  0  0  0  0  0
    1.7368   -1.5944    0.2155 H   0  0  0  0  0  0  0  0  0  0  0  0
    1.6924   -0.6731    2.9207 H   0  0  0  0  0  0  0  0  0  0  0  0
    1.1445   -3.6709    2.4909 H   0  0  0  0  0  0  0  0  0  0  0  0
    1.4824   -2.9095    4.0502 H   0  0  0  0  0  0  0  0  0  0  0  0
   -0.0027   -2.5067    3.1682 H   0  0  0  0  0  0  0  0  0  0  0  0
    3.9939   -1.7496    3.3099 N   0  0  0  0  0  0  0  0  0  0  0  0
    5.4128   -2.0093    3.3835 C   0  0  0  0  0  0  0  0  0  0  0  0
    3.5355   -1.3836    4.1391 H   0  0  0  0  0  0  0  0  0  0  0  0
    5.5799   -3.0424    3.7221 H   0  0  0  0  0  0  0  0  0  0  0  0
    5.8625   -1.8721    2.3890 H   0  0  0  0  0  0  0  0  0  0  0  0
    5.8768   -1.3107    4.0952 H   0  0  0  0  0  0  0  0  0  0  0  0
  1  3  1  0  0  0  0
  1  7  1  0  0  0  0
  1  2  2  0  0  0  0
 40 41  1  0  0  0  0
 41 49  1  0  0  0  0
 41 42  2  0  0  0  0
  8  9  1  0  0  0  0
  9 17  1  0  0  0  0
  9 10  2  0  0  0  0
 18 19  1  0  0  0  0
 19 39  1  0  0  0  0
 19 20  2  0  0  0  0
 40 43  1  0  0  0  0
  8 11  1  0  0  0  0
 49 50  1  0  0  0  0
 22 23  1  0  0  0  0
 21 22  1  0  0  0  0
 23 24  1  0  0  0  0
 18 21  1  0  0  0  0
 24 25  1  0  0  0  0
 39 40  1  0  0  0  0
  7  8  1  0  0  0  0
 17 18  1  0  0  0  0
  3  4  1  0  0  0  0
  3  5  1  0  0  0  0
  3  6  1  0  0  0  0
 43 46  1  0  0  0  0
 43 47  1  0  0  0  0
 43 48  1  0  0  0  0
 11 14  1  0  0  0  0
 11 15  1  0  0  0  0
 11 16  1  0  0  0  0
 50 52  1  0  0  0  0
 50 53  1  0  0  0  0
 50 54  1  0  0  0  0
 22 30  1  0  0  0  0
 22 31  1  0  0  0  0
 23 32  1  0  0  0  0
 23 33  1  0  0  0  0
 21 28  1  0  0  0  0
 21 29  1  0  0  0  0
 24 34  1  0  0  0  0
 24 35  1  0  0  0  0
 40 45  1  0  0  0  0
  8 13  1  0  0  0  0
 18 27  1  0  0  0  0
 49 51  1  0  0  0  0
  7 12  1  0  0  0  0
 39 44  1  0  0  0  0
 17 26  1  0  0  0  0
 25 36  1  0  0  0  0
 25 37  1  0  0  0  0
 25 38  1  0  0  0  0
M  CHG  1  25   1
M  END
$$$$

  -OEChem-05262214473D

 54 53  0     1  0  0  0  0  0999 V2000
    2.6714    2.8829   -3.0005 C   0  0  0  0  0  0  0  0  0  0  0  0
    3.1741    2.4398   -1.9745 O   0  0  0  0  0  0  0  0  0  0  0  0
    3.5527    3.3077   -4.1279 C   0  0  0  0  0  0  0  0  0  0  0  0
    3.8407    4.3691   -4.0597 H   0  0  0  0  0  0  0  0  0  0  0  0
    4.5024    2.7495   -4.1526 H   0  0  0  0  0  0  0  0  0  0  0  0
    3.1208    3.1887   -5.1345 H   0  0  0  0  0  0  0  0  0  0  0  0
    1.3174    3.0407   -3.2467 N   0  0  0  0  0  0  0  0  0  0  0  0
    0.2944    2.6927   -2.2960 C   0  0  2  0  0  0  0  0  0  0  0  0
    0.2976    1.1783   -2.1349 C   0  0  0  0  0  0  0  0  0  0  0  0
    0.7500    0.4142   -2.9850 O   0  0  0  0  0  0  0  0  0  0  0  0
   -1.0710    3.1886   -2.7460 C   0  0  0  0  0  0  0  0  0  0  0  0
    1.0312    3.4224   -4.1464 H   0  0  0  0  0  0  0  0  0  0  0  0
    0.5725    3.1622   -1.3461 H   0  0  0  0  0  0  0  0  0  0  0  0
   -1.3666    2.7292   -3.6963 H   0  0  0  0  0  0  0  0  0  0  0  0
   -1.8434    2.9482   -2.0082 H   0  0  0  0  0  0  0  0  0  0  0  0
   -1.0632    4.2744   -2.8901 H   0  0  0  0  0  0  0  0  0  0  0  0
   -0.3037    0.7742   -0.9484 N   0  0  0  0  0  0  0  0  0  0  0  0
   -0.4352   -0.6095   -0.5718 C   0  0  2  0  0  0  0  0  0  0  0  0
   -0.0415   -0.7602    0.8939 C   0  0  0  0  0  0  0  0  0  0  0  0
   -0.8505   -0.6837    1.8165 O   0  0  0  0  0  0  0  0  0  0  0  0
    0.3601   -1.5345   -1.5006 C   0  0  0  0  0  0  0  0  0  0  0  0
   -0.1896   -1.6086   -2.9311 C   0  0  0  0  0  0  0  0  0  0  0  0
    0.6372   -2.5666   -3.7919 C   0  0  0  0  0  0  0  0  0  0  0  0
    0.1041   -2.6189   -5.2161 C   0  0  0  0  0  0  0  0  0  0  0  0
    0.9479   -3.5380   -6.0172 N   0  3  0  0  0  0  0  0  0  0  0  0
   -0.6336    1.4811   -0.2948 H   0  0  0  0  0  0  0  0  0  0  0  0
   -1.5027   -0.8445   -0.6615 H   0  0  0  0  0  0  0  0  0  0  0  0
    1.4007   -1.1870   -1.5392 H   0  0  0  0  0  0  0  0  0  0  0  0
    0.3818   -2.5461   -1.0767 H   0  0  0  0  0  0  0  0  0  0  0  0
   -1.2317   -1.9484   -2.9146 H   0  0  0  0  0  0  0  0  0  0  0  0
   -0.1796   -0.6125   -3.3887 H   0  0  0  0  0  0  0  0  0  0  0  0
    0.6146   -3.5704   -3.3495 H   0  0  0  0  0  0  0  0  0  0  0  0
    1.6852   -2.2423   -3.7991 H   0  0  0  0  0  0  0  0  0  0  0  0
   -0.9174   -3.0086   -5.2574 H   0  0  0  0  0  0  0  0  0  0  0  0
    0.1459   -1.6415   -5.7057 H   0  0  0  0  0  0  0  0  0  0  0  0
    0.8396   -3.3558   -7.0209 H   0  0  0  0  0  0  0  0  0  0  0  0
    0.6912   -4.5163   -5.8448 H   0  0  0  0  0  0  0  0  0  0  0  0
    1.9401   -3.4259   -5.7814 H   0  0  0  0  0  0  0  0  0  0  0  0
    1.3118   -1.0228    1.0508 N   0  0  0  0  0  0  0  0  0  0  0  0
    1.9116   -1.2203    2.3488 C   0  0  2  0  0  0  0  0  0  0  0  0
    3.4243   -1.1616    2.1817 C   0  0  0  0  0  0  0  0  0  0  0  0
    3.9896   -1.3753    1.1113 O   0  0  0  0  0  0  0  0  0  0  0  0
    1.4833   -2.5450    2.9606 C   0  0  0  0  0  0  0  0  0  0  0  0
    1.9000   -1.0780    0.2247 H   0  0  0  0  0  0  0  0  0  0  0  0
    1.5808   -0.3883    2.9800 H   0  0  0  0  0  0  0  0  0  0  0  0
    1.8059   -3.3905    2.3421 H   0  0  0  0  0  0  0  0  0  0  0  0
    1.9164   -2.6803    3.9572 H   0  0  0  0  0  0  0  0  0  0  0  0
    0.3931   -2.5975    3.0525 H   0  0  0  0  0  0  0  0  0  0  0  0
    4.0712   -0.8852    3.3780 N   0  0  0  0  0  0  0  0  0  0  0  0
    5.5085   -0.7895    3.4832 C   0  0  0  0  0  0  0  0  0  0  0  0
    3.5218   -0.7032    4.2128 H   0  0  0  0  0  0  0  0  0  0  0  0
    5.9224   -1.7701    3.7609 H   0  0  0  0  0  0  0  0  0  0  0  0
    5.9267   -0.4759    2.5153 H   0  0  0  0  0  0  0  0  0  0  0  0
    5.7712   -0.0493    4.2533 H   0  0  0  0  0  0  0  0  0  0  0  0
  1  3  1  0  0  0  0
  1  7  1  0  0  0  0
  1  2  2  0  0  0  0
 40 41  1  0  0  0  0
 41 49  1  0  0  0  0
 41 42  2  0  0  0  0
  8  9  1  0  0  0  0
  9 17  1  0  0  0  0
  9 10  2  0  0  0  0
 18 19  1  0  0  0  0
 19 39  1  0  0  0  0
 19 20  2  0  0  0  0
 40 43  1  0  0  0  0
  8 11  1  0  0  0  0
 49 50  1  0  0  0  0
 22 23  1  0  0  0  0
 21 22  1  0  0  0  0
 23 24  1  0  0  0  0
 18 21  1  0  0  0  0
 24 25  1  0  0  0  0
 39 40  1  0  0  0  0
  7  8  1  0  0  0  0
 17 18  1  0  0  0  0
  3  4  1  0  0  0  0
  3  5  1  0  0  0  0
  3  6  1  0  0  0  0
 43 46  1  0  0  0  0
 43 47  1  0  0  0  0
 43 48  1  0  0  0  0
 11 14  1  0  0  0  0
 11 15  1  0  0  0  0
 11 16  1  0  0  0  0
 50 52  1  0  0  0  0
 50 53  1  0  0  0  0
 50 54  1  0  0  0  0
 22 30  1  0  0  0  0
 22 31  1  0  0  0  0
 23 32  1  0  0  0  0
 23 33  1  0  0  0  0
 21 28  1  0  0  0  0
 21 29  1  0  0  0  0
 24 34  1  0  0  0  0
 24 35  1  0  0  0  0
 40 45  1  0  0  0  0
  8 13  1  0  0  0  0
 18 27  1  0  0  0  0
 49 51  1  0  0  0  0
  7 12  1  0  0  0  0
 39 44  1  0  0  0  0
 17 26  1  0  0  0  0
 25 36  1  0  0  0  0
 25 37  1  0  0  0  0
 25 38  1  0  0  0  0
M  CHG  1  25   1
M  END
$$$$

  -OEChem-05262214473D

 54 53  0     1  0  0  0  0  0999 V2000
    2.6714    2.8829   -3.0005 C   0  0  0  0  0  0  0  0  0  0  0  0
    3.1741    2.4398   -1.9745 O   0  0  0  0  0  0  0  0  0  0  0  0
    3.5527    3.3077   -4.1279 C   0  0  0  0  0  0  0  0  0  0  0  0
    3.8407    4.3691   -4.0597 H   0  0  0  0  0  0  0  0  0  0  0  0
    4.5024    2.7495   -4.1526 H   0  0  0  0  0  0  0  0  0  0  0  0
    3.1208    3.1887   -5.1345 H   0  0  0  0  0  0  0  0  0  0  0  0
    1.3174    3.0407   -3.2467 N   0  0  0  0  0  0  0  0  0  0  0  0
    0.2944    2.6927   -2.2960 C   0  0  2  0  0  0  0  0  0  0  0  0
    0.2976    1.1783   -2.1349 C   0  0  0  0  0  0  0  0  0  0  0  0
    0.7500    0.4142   -2.9850 O   0  0  0  0  0  0  0  0  0  0  0  0
   -1.0710    3.1886   -2.7460 C   0  0  0  0  0  0  0  0  0  0  0  0
    1.0312    3.4224   -4.1464 H   0  0  0  0  0  0  0  0  0  0  0  0
    0.5725    3.1622   -1.3461 H   0  0  0  0  0  0  0  0  0  0  0  0
   -1.3666    2.7292   -3.6963 H   0  0  0  0  0  0  0  0  0  0  0  0
   -1.8434    2.9482   -2.0082 H   0  0  0  0  0  0  0  0  0  0  0  0
   -1.0632    4.2744   -2.8901 H   0  0  0  0  0  0  0  0  0  0  0  0
   -0.3037    0.7742   -0.9484 N   0  0  0  0  0  0  0  0  0  0  0  0
   -0.4352   -0.6095   -0.5718 C   0  0  2  0  0  0  0  0  0  0  0  0
   -0.0415   -0.7602    0.8939 C   0  0  0  0  0  0  0  0  0  0  0  0
   -0.8597   -0.9514    1.7914 O   0  0  0  0  0  0  0  0  0  0  0  0
    0.3601   -1.5345   -1.5006 C   0  0  0  0  0  0  0  0  0  0  0  0
   -0.1896   -1.6086   -2.9311 C   0  0  0  0  0  0  0  0  0  0  0  0
    0.6372   -2.5666   -3.7919 C   0  0  0  0  0  0  0  0  0  0  0  0
    0.1041   -2.6189   -5.2161 C   0  0  0  0  0  0  0  0  0  0  0  0
    0.9479   -3.5380   -6.0172 N   0  3  0  0  0  0  0  0  0  0  0  0
   -0.6336    1.4811   -0.2948 H   0  0  0  0  0  0  0  0  0  0  0  0
   -1.5027   -0.8445   -0.6615 H   0  0  0  0  0  0  0  0  0  0  0  0
    1.4007   -1.1870   -1.5392 H   0  0  0  0  0  0  0  0  0  0  0  0
    0.3818   -2.5461   -1.0767 H   0  0  0  0  0  0  0  0  0  0  0  0
   -1.2317   -1.9484   -2.9146 H   0  0  0  0  0  0  0  0  0  0  0  0
   -0.1796   -0.6125   -3.3887 H   0  0  0  0  0  0  0  0  0  0  0  0
    0.6146   -3.5704   -3.3495 H   0  0  0  0  0  0  0  0  0  0  0  0
    1.6852   -2.2423   -3.7991 H   0  0  0  0  0  0  0  0  0  0  0  0
   -0.9174   -3.0086   -5.2574 H   0  0  0  0  0  0  0  0  0  0  0  0
    0.1459   -1.6415   -5.7057 H   0  0  0  0  0  0  0  0  0  0  0  0
    0.8396   -3.3558   -7.0209 H   0  0  0  0  0  0  0  0  0  0  0  0
    0.6912   -4.5163   -5.8448 H   0  0  0  0  0  0  0  0  0  0  0  0
    1.9401   -3.4259   -5.7814 H   0  0  0  0  0  0  0  0  0  0  0  0
    1.3316   -0.6895    1.0798 N   0  0  0  0  0  0  0  0  0  0  0  0
    1.9394   -0.8225    2.3823 C   0  0  2  0  0  0  0  0  0  0  0  0
    3.3922   -0.3792    2.2708 C   0  0  0  0  0  0  0  0  0  0  0  0
    4.0112   -0.3705    1.2088 O   0  0  0  0  0  0  0  0  0  0  0  0
    1.8449   -2.2516    2.8936 C   0  0  0  0  0  0  0  0  0  0  0  0
    1.9291   -0.5391    0.2723 H   0  0  0  0  0  0  0  0  0  0  0  0
    1.4007   -0.1448    3.0534 H   0  0  0  0  0  0  0  0  0  0  0  0
    2.3789   -2.9453    2.2340 H   0  0  0  0  0  0  0  0  0  0  0  0
    2.2809   -2.3448    3.8938 H   0  0  0  0  0  0  0  0  0  0  0  0
    0.8009   -2.5790    2.9449 H   0  0  0  0  0  0  0  0  0  0  0  0
    3.9290   -0.0356    3.5036 N   0  0  0  0  0  0  0  0  0  0  0  0
    5.2949    0.4058    3.6634 C   0  0  0  0  0  0  0  0  0  0  0  0
    3.3374   -0.0544    4.3290 H   0  0  0  0  0  0  0  0  0  0  0  0
    5.9357   -0.4586    3.8922 H   0  0  0  0  0  0  0  0  0  0  0  0
    5.6382    0.8802    2.7323 H   0  0  0  0  0  0  0  0  0  0  0  0
    5.3514    1.1322    4.4875 H   0  0  0  0  0  0  0  0  0  0  0  0
  1  3  1  0  0  0  0
  1  7  1  0  0  0  0
  1  2  2  0  0  0  0
 40 41  1  0  0  0  0
 41 49  1  0  0  0  0
 41 42  2  0  0  0  0
  8  9  1  0  0  0  0
  9 17  1  0  0  0  0
  9 10  2  0  0  0  0
 18 19  1  0  0  0  0
 19 39  1  0  0  0  0
 19 20  2  0  0  0  0
 40 43  1  0  0  0  0
  8 11  1  0  0  0  0
 49 50  1  0  0  0  0
 22 23  1  0  0  0  0
 21 22  1  0  0  0  0
 23 24  1  0  0  0  0
 18 21  1  0  0  0  0
 24 25  1  0  0  0  0
 39 40  1  0  0  0  0
  7  8  1  0  0  0  0
 17 18  1  0  0  0  0
  3  4  1  0  0  0  0
  3  5  1  0  0  0  0
  3  6  1  0  0  0  0
 43 46  1  0  0  0  0
 43 47  1  0  0  0  0
 43 48  1  0  0  0  0
 11 14  1  0  0  0  0
 11 15  1  0  0  0  0
 11 16  1  0  0  0  0
 50 52  1  0  0  0  0
 50 53  1  0  0  0  0
 50 54  1  0  0  0  0
 22 30  1  0  0  0  0
 22 31  1  0  0  0  0
 23 32  1  0  0  0  0
 23 33  1  0  0  0  0
 21 28  1  0  0  0  0
 21 29  1  0  0  0  0
 24 34  1  0  0  0  0
 24 35  1  0  0  0  0
 40 45  1  0  0  0  0
  8 13  1  0  0  0  0
 18 27  1  0  0  0  0
 49 51  1  0  0  0  0
  7 12  1  0  0  0  0
 39 44  1  0  0  0  0
 17 26  1  0  0  0  0
 25 36  1  0  0  0  0
 25 37  1  0  0  0  0
 25 38  1  0  0  0  0
M  CHG  1  25   1
M  END
$$$$

  -OEChem-05262214473D

 54 53  0     1  0  0  0  0  0999 V2000
    2.6714    2.8829   -3.0005 C   0  0  0  0  0  0  0  0  0  0  0  0
    3.1741    2.4398   -1.9745 O   0  0  0  0  0  0  0  0  0  0  0  0
    3.5527    3.3077   -4.1279 C   0  0  0  0  0  0  0  0  0  0  0  0
    3.8407    4.3691   -4.0597 H   0  0  0  0  0  0  0  0  0  0  0  0
    4.5024    2.7495   -4.1526 H   0  0  0  0  0  0  0  0  0  0  0  0
    3.1208    3.1887   -5.1345 H   0  0  0  0  0  0  0  0  0  0  0  0
    1.3174    3.0407   -3.2467 N   0  0  0  0  0  0  0  0  0  0  0  0
    0.2944    2.6927   -2.2960 C   0  0  2  0  0  0  0  0  0  0  0  0
    0.2976    1.1783   -2.1349 C   0  0  0  0  0  0  0  0  0  0  0  0
    0.7500    0.4142   -2.9850 O   0  0  0  0  0  0  0  0  0  0  0  0
   -1.0710    3.1886   -2.7460 C   0  0  0  0  0  0  0  0  0  0  0  0
    1.0312    3.4224   -4.1464 H   0  0  0  0  0  0  0  0  0  0  0  0
    0.5725    3.1622   -1.3461 H   0  0  0  0  0  0  0  0  0  0  0  0
   -1.3666    2.7292   -3.6963 H   0  0  0  0  0  0  0  0  0  0  0  0
   -1.8434    2.9482   -2.0082 H   0  0  0  0  0  0  0  0  0  0  0  0
   -1.0632    4.2744   -2.8901 H   0  0  0  0  0  0  0  0  0  0  0  0
   -0.3037    0.7742   -0.9484 N   0  0  0  0  0  0  0  0  0  0  0  0
   -0.4352   -0.6095   -0.5718 C   0  0  2  0  0  0  0  0  0  0  0  0
   -0.0415   -0.7602    0.8939 C   0  0  0  0  0  0  0  0  0  0  0  0
   -0.8013   -1.2106    1.7491 O   0  0  0  0  0  0  0  0  0  0  0  0
    0.3601   -1.5345   -1.5006 C   0  0  0  0  0  0  0  0  0  0  0  0
   -0.1896   -1.6086   -2.9311 C   0  0  0  0  0  0  0  0  0  0  0  0
    0.6372   -2.5666   -3.7919 C   0  0  0  0  0  0  0  0  0  0  0  0
    0.1041   -2.6189   -5.2161 C   0  0  0  0  0  0  0  0  0  0  0  0
    0.9479   -3.5380   -6.0172 N   0  3  0  0  0  0  0  0  0  0  0  0
   -0.6336    1.4811   -0.2948 H   0  0  0  0  0  0  0  0  0  0  0  0
   -1.5027   -0.8445   -0.6615 H   0  0  0  0  0  0  0  0  0  0  0  0
    1.4007   -1.1870   -1.5392 H   0  0  0  0  0  0  0  0  0  0  0  0
    0.3818   -2.5461   -1.0767 H   0  0  0  0  0  0  0  0  0  0  0  0
   -1.2317   -1.9484   -2.9146 H   0  0  0  0  0  0  0  0  0  0  0  0
   -0.1796   -0.6125   -3.3887 H   0  0  0  0  0  0  0  0  0  0  0  0
    0.6146   -3.5704   -3.3495 H   0  0  0  0  0  0  0  0  0  0  0  0
    1.6852   -2.2423   -3.7991 H   0  0  0  0  0  0  0  0  0  0  0  0
   -0.9174   -3.0086   -5.2574 H   0  0  0  0  0  0  0  0  0  0  0  0
    0.1459   -1.6415   -5.7057 H   0  0  0  0  0  0  0  0  0  0  0  0
    0.8396   -3.3558   -7.0209 H   0  0  0  0  0  0  0  0  0  0  0  0
    0.6912   -4.5163   -5.8448 H   0  0  0  0  0  0  0  0  0  0  0  0
    1.9401   -3.4259   -5.7814 H   0  0  0  0  0  0  0  0  0  0  0  0
    1.2671   -0.3646    1.1305 N   0  0  0  0  0  0  0  0  0  0  0  0
    1.8665   -0.4337    2.4418 C   0  0  2  0  0  0  0  0  0  0  0  0
    3.1643    0.3626    2.4082 C   0  0  0  0  0  0  0  0  0  0  0  0
    3.7797    0.5988    1.3707 O   0  0  0  0  0  0  0  0  0  0  0  0
    2.1229   -1.8738    2.8578 C   0  0  0  0  0  0  0  0  0  0  0  0
    1.8219   -0.0146    0.3550 H   0  0  0  0  0  0  0  0  0  0  0  0
    1.1642    0.0406    3.1360 H   0  0  0  0  0  0  0  0  0  0  0  0
    2.8244   -2.3655    2.1739 H   0  0  0  0  0  0  0  0  0  0  0  0
    2.5512   -1.9258    3.8642 H   0  0  0  0  0  0  0  0  0  0  0  0
    1.1929   -2.4524    2.8526 H   0  0  0  0  0  0  0  0  0  0  0  0
    3.5772    0.7414    3.6780 N   0  0  0  0  0  0  0  0  0  0  0  0
    4.7868    1.4952    3.9119 C   0  0  0  0  0  0  0  0  0  0  0  0
    2.9949    0.5187    4.4799 H   0  0  0  0  0  0  0  0  0  0  0  0
    5.6190    0.8028    4.1069 H   0  0  0  0  0  0  0  0  0  0  0  0
    5.0166    2.1039    3.0251 H   0  0  0  0  0  0  0  0  0  0  0  0
    4.6460    2.1533    4.7820 H   0  0  0  0  0  0  0  0  0  0  0  0
  1  3  1  0  0  0  0
  1  7  1  0  0  0  0
  1  2  2  0  0  0  0
 40 41  1  0  0  0  0
 41 49  1  0  0  0  0
 41 42  2  0  0  0  0
  8  9  1  0  0  0  0
  9 17  1  0  0  0  0
  9 10  2  0  0  0  0
 18 19  1  0  0  0  0
 19 39  1  0  0  0  0
 19 20  2  0  0  0  0
 40 43  1  0  0  0  0
  8 11  1  0  0  0  0
 49 50  1  0  0  0  0
 22 23  1  0  0  0  0
 21 22  1  0  0  0  0
 23 24  1  0  0  0  0
 18 21  1  0  0  0  0
 24 25  1  0  0  0  0
 39 40  1  0  0  0  0
  7  8  1  0  0  0  0
 17 18  1  0  0  0  0
  3  4  1  0  0  0  0
  3  5  1  0  0  0  0
  3  6  1  0  0  0  0
 43 46  1  0  0  0  0
 43 47  1  0  0  0  0
 43 48  1  0  0  0  0
 11 14  1  0  0  0  0
 11 15  1  0  0  0  0
 11 16  1  0  0  0  0
 50 52  1  0  0  0  0
 50 53  1  0  0  0  0
 50 54  1  0  0  0  0
 22 30  1  0  0  0  0
 22 31  1  0  0  0  0
 23 32  1  0  0  0  0
 23 33  1  0  0  0  0
 21 28  1  0  0  0  0
 21 29  1  0  0  0  0
 24 34  1  0  0  0  0
 24 35  1  0  0  0  0
 40 45  1  0  0  0  0
  8 13  1  0  0  0  0
 18 27  1  0  0  0  0
 49 51  1  0  0  0  0
  7 12  1  0  0  0  0
 39 44  1  0  0  0  0
 17 26  1  0  0  0  0
 25 36  1  0  0  0  0
 25 37  1  0  0  0  0
 25 38  1  0  0  0  0
M  CHG  1  25   1
M  END
$$$$

  -OEChem-05262214473D

 54 53  0     1  0  0  0  0  0999 V2000
    2.6714    2.8829   -3.0005 C   0  0  0  0  0  0  0  0  0  0  0  0
    3.1741    2.4398   -1.9745 O   0  0  0  0  0  0  0  0  0  0  0  0
    3.5527    3.3077   -4.1279 C   0  0  0  0  0  0  0  0  0  0  0  0
    3.8407    4.3691   -4.0597 H   0  0  0  0  0  0  0  0  0  0  0  0
    4.5024    2.7495   -4.1526 H   0  0  0  0  0  0  0  0  0  0  0  0
    3.1208    3.1887   -5.1345 H   0  0  0  0  0  0  0  0  0  0  0  0
    1.3174    3.0407   -3.2467 N   0  0  0  0  0  0  0  0  0  0  0  0
    0.2944    2.6927   -2.2960 C   0  0  2  0  0  0  0  0  0  0  0  0
    0.2976    1.1783   -2.1349 C   0  0  0  0  0  0  0  0  0  0  0  0
    0.7500    0.4142   -2.9850 O   0  0  0  0  0  0  0  0  0  0  0  0
   -1.0710    3.1886   -2.7460 C   0  0  0  0  0  0  0  0  0  0  0  0
    1.0312    3.4224   -4.1464 H   0  0  0  0  0  0  0  0  0  0  0  0
    0.5725    3.1622   -1.3461 H   0  0  0  0  0  0  0  0  0  0  0  0
   -1.3666    2.7292   -3.6963 H   0  0  0  0  0  0  0  0  0  0  0  0
   -1.8434    2.9482   -2.0082 H   0  0  0  0  0  0  0  0  0  0  0  0
   -1.0632    4.2744   -2.8901 H   0  0  0  0  0  0  0  0  0  0  0  0
   -0.3037    0.7742   -0.9484 N   0  0  0  0  0  0  0  0  0  0  0  0
   -0.4352   -0.6095   -0.5718 C   0  0  2  0  0  0  0  0  0  0  0  0
   -0.0415   -0.7602    0.8939 C   0  0  0  0  0  0  0  0  0  0  0  0
   -0.6794   -1.4437    1.6924 O   0  0  0  0  0  0  0  0  0  0  0  0
    0.3601   -1.5345   -1.5006 C   0  0  0  0  0  0  0  0  0  0  0  0
   -0.1896   -1.6086   -2.9311 C   0  0  0  0  0  0  0  0  0  0  0  0
    0.6372   -2.5666   -3.7919 C   0  0  0  0  0  0  0  0  0  0  0  0
    0.1041   -2.6189   -5.2161 C   0  0  0  0  0  0  0  0  0  0  0  0
    0.9479   -3.5380   -6.0172 N   0  3  0  0  0  0  0  0  0  0  0  0
   -0.6336    1.4811   -0.2948 H   0  0  0  0  0  0  0  0  0  0  0  0
   -1.5027   -0.8445   -0.6615 H   0  0  0  0  0  0  0  0  0  0  0  0
    1.4007   -1.1870   -1.5392 H   0  0  0  0  0  0  0  0  0  0  0  0
    0.3818   -2.5461   -1.0767 H   0  0  0  0  0  0  0  0  0  0  0  0
   -1.2317   -1.9484   -2.9146 H   0  0  0  0  0  0  0  0  0  0  0  0
   -0.1796   -0.6125   -3.3887 H   0  0  0  0  0  0  0  0  0  0  0  0
    0.6146   -3.5704   -3.3495 H   0  0  0  0  0  0  0  0  0  0  0  0
    1.6852   -2.2423   -3.7991 H   0  0  0  0  0  0  0  0  0  0  0  0
   -0.9174   -3.0086   -5.2574 H   0  0  0  0  0  0  0  0  0  0  0  0
    0.1459   -1.6415   -5.7057 H   0  0  0  0  0  0  0  0  0  0  0  0
    0.8396   -3.3558   -7.0209 H   0  0  0  0  0  0  0  0  0  0  0  0
    0.6912   -4.5163   -5.8448 H   0  0  0  0  0  0  0  0  0  0  0  0
    1.9401   -3.4259   -5.7814 H   0  0  0  0  0  0  0  0  0  0  0  0
    1.1227   -0.0701    1.1996 N   0  0  0  0  0  0  0  0  0  0  0  0
    1.6978   -0.0802    2.5235 C   0  0  2  0  0  0  0  0  0  0  0  0
    2.7562    1.0132    2.5848 C   0  0  0  0  0  0  0  0  0  0  0  0
    3.3108    1.4667    1.5858 O   0  0  0  0  0  0  0  0  0  0  0  0
    2.2984   -1.4373    2.8556 C   0  0  0  0  0  0  0  0  0  0  0  0
    1.5857    0.4599    0.4673 H   0  0  0  0  0  0  0  0  0  0  0  0
    0.8876    0.1554    3.2221 H   0  0  0  0  0  0  0  0  0  0  0  0
    3.1120   -1.6906    2.1661 H   0  0  0  0  0  0  0  0  0  0  0  0
    2.7088   -1.4519    3.8706 H   0  0  0  0  0  0  0  0  0  0  0  0
    1.5425   -2.2266    2.7819 H   0  0  0  0  0  0  0  0  0  0  0  0
    3.0396    1.3927    3.8893 N   0  0  0  0  0  0  0  0  0  0  0  0
    4.0186    2.4044    4.2118 C   0  0  0  0  0  0  0  0  0  0  0  0
    2.5177    0.9770    4.6552 H   0  0  0  0  0  0  0  0  0  0  0  0
    4.9938    1.9280    4.3906 H   0  0  0  0  0  0  0  0  0  0  0  0
    4.1043    3.1118    3.3737 H   0  0  0  0  0  0  0  0  0  0  0  0
    3.7031    2.9446    5.1166 H   0  0  0  0  0  0  0  0  0  0  0  0
  1  3  1  0  0  0  0
  1  7  1  0  0  0  0
  1  2  2  0  0  0  0
 40 41  1  0  0  0  0
 41 49  1  0  0  0  0
 41 42  2  0  0  0  0
  8  9  1  0  0  0  0
  9 17  1  0  0  0  0
  9 10  2  0  0  0  0
 18 19  1  0  0  0  0
 19 39  1  0  0  0  0
 19 20  2  0  0  0  0
 40 43  1  0  0  0  0
  8 11  1  0  0  0  0
 49 50  1  0  0  0  0
 22 23  1  0  0  0  0
 21 22  1  0  0  0  0
 23 24  1  0  0  0  0
 18 21  1  0  0  0  0
 24 25  1  0  0  0  0
 39 40  1  0  0  0  0
  7  8  1  0  0  0  0
 17 18  1  0  0  0  0
  3  4  1  0  0  0  0
  3  5  1  0  0  0  0
  3  6  1  0  0  0  0
 43 46  1  0  0  0  0
 43 47  1  0  0  0  0
 43 48  1  0  0  0  0
 11 14  1  0  0  0  0
 11 15  1  0  0  0  0
 11 16  1  0  0  0  0
 50 52  1  0  0  0  0
 50 53  1  0  0  0  0
 50 54  1  0  0  0  0
 22 30  1  0  0  0  0
 22 31  1  0  0  0  0
 23 32  1  0  0  0  0
 23 33  1  0  0  0  0
 21 28  1  0  0  0  0
 21 29  1  0  0  0  0
 24 34  1  0  0  0  0
 24 35  1  0  0  0  0
 40 45  1  0  0  0  0
  8 13  1  0  0  0  0
 18 27  1  0  0  0  0
 49 51  1  0  0  0  0
  7 12  1  0  0  0  0
 39 44  1  0  0  0  0
 17 26  1  0  0  0  0
 25 36  1  0  0  0  0
 25 37  1  0  0  0  0
 25 38  1  0  0  0  0
M  CHG  1  25   1
M  END
$$$$

  -OEChem-05262214473D

 54 53  0     1  0  0  0  0  0999 V2000
    2.6714    2.8829   -3.0005 C   0  0  0  0  0  0  0  0  0  0  0  0
    3.1741    2.4398   -1.9745 O   0  0  0  0  0  0  0  0  0  0  0  0
    3.5527    3.3077   -4.1279 C   0  0  0  0  0  0  0  0  0  0  0  0
    3.8407    4.3691   -4.0597 H   0  0  0  0  0  0  0  0  0  0  0  0
    4.5024    2.7495   -4.1526 H   0  0  0  0  0  0  0  0  0  0  0  0
    3.1208    3.1887   -5.1345 H   0  0  0  0  0  0  0  0  0  0  0  0
    1.3174    3.0407   -3.2467 N   0  0  0  0  0  0  0  0  0  0  0  0
    0.2944    2.6927   -2.2960 C   0  0  2  0  0  0  0  0  0  0  0  0
    0.2976    1.1783   -2.1349 C   0  0  0  0  0  0  0  0  0  0  0  0
    0.7500    0.4142   -2.9850 O   0  0  0  0  0  0  0  0  0  0  0  0
   -1.0710    3.1886   -2.7460 C   0  0  0  0  0  0  0  0  0  0  0  0
    1.0312    3.4224   -4.1464 H   0  0  0  0  0  0  0  0  0  0  0  0
    0.5725    3.1622   -1.3461 H   0  0  0  0  0  0  0  0  0  0  0  0
   -1.3666    2.7292   -3.6963 H   0  0  0  0  0  0  0  0  0  0  0  0
   -1.8434    2.9482   -2.0082 H   0  0  0  0  0  0  0  0  0  0  0  0
   -1.0632    4.2744   -2.8901 H   0  0  0  0  0  0  0  0  0  0  0  0
   -0.3037    0.7742   -0.9484 N   0  0  0  0  0  0  0  0  0  0  0  0
   -0.4352   -0.6095   -0.5718 C   0  0  2  0  0  0  0  0  0  0  0  0
   -0.0415   -0.7602    0.8939 C   0  0  0  0  0  0  0  0  0  0  0  0
   -0.5022   -1.6346    1.6252 O   0  0  0  0  0  0  0  0  0  0  0  0
    0.3601   -1.5345   -1.5006 C   0  0  0  0  0  0  0  0  0  0  0  0
   -0.1896   -1.6086   -2.9311 C   0  0  0  0  0  0  0  0  0  0  0  0
    0.6372   -2.5666   -3.7919 C   0  0  0  0  0  0  0  0  0  0  0  0
    0.1041   -2.6189   -5.2161 C   0  0  0  0  0  0  0  0  0  0  0  0
    0.9479   -3.5380   -6.0172 N   0  3  0  0  0  0  0  0  0  0  0  0
   -0.6336    1.4811   -0.2948 H   0  0  0  0  0  0  0  0  0  0  0  0
   -1.5027   -0.8445   -0.6615 H   0  0  0  0  0  0  0  0  0  0  0  0
    1.4007   -1.1870   -1.5392 H   0  0  0  0  0  0  0  0  0  0  0  0
    0.3818   -2.5461   -1.0767 H   0  0  0  0  0  0  0  0  0  0  0  0
   -1.2317   -1.9484   -2.9146 H   0  0  0  0  0  0  0  0  0  0  0  0
   -0.1796   -0.6125   -3.3887 H   0  0  0  0  0  0  0  0  0  0  0  0
    0.6146   -3.5704   -3.3495 H   0  0  0  0  0  0  0  0  0  0  0  0
    1.6852   -2.2423   -3.7991 H   0  0  0  0  0  0  0  0  0  0  0  0
   -0.9174   -3.0086   -5.2574 H   0  0  0  0  0  0  0  0  0  0  0  0
    0.1459   -1.6415   -5.7057 H   0  0  0  0  0  0  0  0  0  0  0  0
    0.8396   -3.3558   -7.0209 H   0  0  0  0  0  0  0  0  0  0  0  0
    0.6912   -4.5163   -5.8448 H   0  0  0  0  0  0  0  0  0  0  0  0
    1.9401   -3.4259   -5.7814 H   0  0  0  0  0  0  0  0  0  0  0  0
    0.9081    0.1738    1.2823 N   0  0  0  0  0  0  0  0  0  0  0  0
    1.4449    0.2139    2.6217 C   0  0  2  0  0  0  0  0  0  0  0  0
    2.1956    1.5284    2.7883 C   0  0  0  0  0  0  0  0  0  0  0  0
    2.6365    2.1740    1.8397 O   0  0  0  0  0  0  0  0  0  0  0  0
    2.3594   -0.9718    2.8870 C   0  0  0  0  0  0  0  0  0  0  0  0
    1.2367    0.8519    0.6013 H   0  0  0  0  0  0  0  0  0  0  0  0
    0.5896    0.1918    3.3059 H   0  0  0  0  0  0  0  0  0  0  0  0
    3.2222   -0.9667    2.2109 H   0  0  0  0  0  0  0  0  0  0  0  0
    2.7430   -0.9553    3.9125 H   0  0  0  0  0  0  0  0  0  0  0  0
    1.8258   -1.9167    2.7377 H   0  0  0  0  0  0  0  0  0  0  0  0
    2.3530    1.8739    4.1232 N   0  0  0  0  0  0  0  0  0  0  0  0
    3.0427    3.0716    4.5425 C   0  0  0  0  0  0  0  0  0  0  0  0
    1.9383    1.2893    4.8429 H   0  0  0  0  0  0  0  0  0  0  0  0
    4.1028    2.8405    4.7237 H   0  0  0  0  0  0  0  0  0  0  0  0
    2.9636    3.8351    3.7545 H   0  0  0  0  0  0  0  0  0  0  0  0
    2.5870    3.4519    5.4686 H   0  0  0  0  0  0  0  0  0  0  0  0
  1  3  1  0  0  0  0
  1  7  1  0  0  0  0
  1  2  2  0  0  0  0
 40 41  1  0  0  0  0
 41 49  1  0  0  0  0
 41 42  2  0  0  0  0
  8  9  1  0  0  0  0
  9 17  1  0  0  0  0
  9 10  2  0  0  0  0
 18 19  1  0  0  0  0
 19 39  1  0  0  0  0
 19 20  2  0  0  0  0
 40 43  1  0  0  0  0
  8 11  1  0  0  0  0
 49 50  1  0  0  0  0
 22 23  1  0  0  0  0
 21 22  1  0  0  0  0
 23 24  1  0  0  0  0
 18 21  1  0  0  0  0
 24 25  1  0  0  0  0
 39 40  1  0  0  0  0
  7  8  1  0  0  0  0
 17 18  1  0  0  0  0
  3  4  1  0  0  0  0
  3  5  1  0  0  0  0
  3  6  1  0  0  0  0
 43 46  1  0  0  0  0
 43 47  1  0  0  0  0
 43 48  1  0  0  0  0
 11 14  1  0  0  0  0
 11 15  1  0  0  0  0
 11 16  1  0  0  0  0
 50 52  1  0  0  0  0
 50 53  1  0  0  0  0
 50 54  1  0  0  0  0
 22 30  1  0  0  0  0
 22 31  1  0  0  0  0
 23 32  1  0  0  0  0
 23 33  1  0  0  0  0
 21 28  1  0  0  0  0
 21 29  1  0  0  0  0
 24 34  1  0  0  0  0
 24 35  1  0  0  0  0
 40 45  1  0  0  0  0
  8 13  1  0  0  0  0
 18 27  1  0  0  0  0
 49 51  1  0  0  0  0
  7 12  1  0  0  0  0
 39 44  1  0  0  0  0
 17 26  1  0  0  0  0
 25 36  1  0  0  0  0
 25 37  1  0  0  0  0
 25 38  1  0  0  0  0
M  CHG  1  25   1
M  END
$$$$

  -OEChem-05262214473D

 54 53  0     1  0  0  0  0  0999 V2000
    2.6714    2.8829   -3.0005 C   0  0  0  0  0  0  0  0  0  0  0  0
    3.1741    2.4398   -1.9745 O   0  0  0  0  0  0  0  0  0  0  0  0
    3.5527    3.3077   -4.1279 C   0  0  0  0  0  0  0  0  0  0  0  0
    3.8407    4.3691   -4.0597 H   0  0  0  0  0  0  0  0  0  0  0  0
    4.5024    2.7495   -4.1526 H   0  0  0  0  0  0  0  0  0  0  0  0
    3.1208    3.1887   -5.1345 H   0  0  0  0  0  0  0  0  0  0  0  0
    1.3174    3.0407   -3.2467 N   0  0  0  0  0  0  0  0  0  0  0  0
    0.2944    2.6927   -2.2960 C   0  0  2  0  0  0  0  0  0  0  0  0
    0.2976    1.1783   -2.1349 C   0  0  0  0  0  0  0  0  0  0  0  0
    0.7500    0.4142   -2.9850 O   0  0  0  0  0  0  0  0  0  0  0  0
   -1.0710    3.1886   -2.7460 C   0  0  0  0  0  0  0  0  0  0  0  0
    1.0312    3.4224   -4.1464 H   0  0  0  0  0  0  0  0  0  0  0  0
    0.5725    3.1622   -1.3461 H   0  0  0  0  0  0  0  0  0  0  0  0
   -1.3666    2.7292   -3.6963 H   0  0  0  0  0  0  0  0  0  0  0  0
   -1.8434    2.9482   -2.0082 H   0  0  0  0  0  0  0  0  0  0  0  0
   -1.0632    4.2744   -2.8901 H   0  0  0  0  0  0  0  0  0  0  0  0
   -0.3037    0.7742   -0.9484 N   0  0  0  0  0  0  0  0  0  0  0  0
   -0.4352   -0.6095   -0.5718 C   0  0  2  0  0  0  0  0  0  0  0  0
   -0.0415   -0.7602    0.8939 C   0  0  0  0  0  0  0  0  0  0  0  0
   -0.2818   -1.7705    1.5520 O   0  0  0  0  0  0  0  0  0  0  0  0
    0.3601   -1.5345   -1.5006 C   0  0  0  0  0  0  0  0  0  0  0  0
   -0.1896   -1.6086   -2.9311 C   0  0  0  0  0  0  0  0  0  0  0  0
    0.6372   -2.5666   -3.7919 C   0  0  0  0  0  0  0  0  0  0  0  0
    0.1041   -2.6189   -5.2161 C   0  0  0  0  0  0  0  0  0  0  0  0
    0.9479   -3.5380   -6.0172 N   0  3  0  0  0  0  0  0  0  0  0  0
   -0.6336    1.4811   -0.2948 H   0  0  0  0  0  0  0  0  0  0  0  0
   -1.5027   -0.8445   -0.6615 H   0  0  0  0  0  0  0  0  0  0  0  0
    1.4007   -1.1870   -1.5392 H   0  0  0  0  0  0  0  0  0  0  0  0
    0.3818   -2.5461   -1.0767 H   0  0  0  0  0  0  0  0  0  0  0  0
   -1.2317   -1.9484   -2.9146 H   0  0  0  0  0  0  0  0  0  0  0  0
   -0.1796   -0.6125   -3.3887 H   0  0  0  0  0  0  0  0  0  0  0  0
    0.6146   -3.5704   -3.3495 H   0  0  0  0  0  0  0  0  0  0  0  0
    1.6852   -2.2423   -3.7991 H   0  0  0  0  0  0  0  0  0  0  0  0
   -0.9174   -3.0086   -5.2574 H   0  0  0  0  0  0  0  0  0  0  0  0
    0.1459   -1.6415   -5.7057 H   0  0  0  0  0  0  0  0  0  0  0  0
    0.8396   -3.3558   -7.0209 H   0  0  0  0  0  0  0  0  0  0  0  0
    0.6912   -4.5163   -5.8448 H   0  0  0  0  0  0  0  0  0  0  0  0
    1.9401   -3.4259   -5.7814 H   0  0  0  0  0  0  0  0  0  0  0  0
    0.6382    0.3504    1.3729 N   0  0  0  0  0  0  0  0  0  0  0  0
    1.1249    0.4284    2.7297 C   0  0  2  0  0  0  0  0  0  0  0  0
    1.5208    1.8730    3.0050 C   0  0  0  0  0  0  0  0  0  0  0  0
    1.8027    2.6726    2.1149 O   0  0  0  0  0  0  0  0  0  0  0  0
    2.3018   -0.5092    2.9501 C   0  0  0  0  0  0  0  0  0  0  0  0
    0.7987    1.1349    0.7480 H   0  0  0  0  0  0  0  0  0  0  0  0
    0.2906    0.1472    3.3816 H   0  0  0  0  0  0  0  0  0  0  0  0
    3.1474   -0.2430    2.3054 H   0  0  0  0  0  0  0  0  0  0  0  0
    2.6515   -0.4699    3.9870 H   0  0  0  0  0  0  0  0  0  0  0  0
    2.0235   -1.5440    2.7229 H   0  0  0  0  0  0  0  0  0  0  0  0
    1.5641    2.1524    4.3638 N   0  0  0  0  0  0  0  0  0  0  0  0
    1.9257    3.4513    4.8815 C   0  0  0  0  0  0  0  0  0  0  0  0
    1.2962    1.4343    5.0303 H   0  0  0  0  0  0  0  0  0  0  0  0
    3.0067    3.4780    5.0837 H   0  0  0  0  0  0  0  0  0  0  0  0
    1.6720    4.2245    4.1414 H   0  0  0  0  0  0  0  0  0  0  0  0
    1.3737    3.6409    5.8139 H   0  0  0  0  0  0  0  0  0  0  0  0
  1  3  1  0  0  0  0
  1  7  1  0  0  0  0
  1  2  2  0  0  0  0
 40 41  1  0  0  0  0
 41 49  1  0  0  0  0
 41 42  2  0  0  0  0
  8  9  1  0  0  0  0
  9 17  1  0  0  0  0
  9 10  2  0  0  0  0
 18 19  1  0  0  0  0
 19 39  1  0  0  0  0
 19 20  2  0  0  0  0
 40 43  1  0  0  0  0
  8 11  1  0  0  0  0
 49 50  1  0  0  0  0
 22 23  1  0  0  0  0
 21 22  1  0  0  0  0
 23 24  1  0  0  0  0
 18 21  1  0  0  0  0
 24 25  1  0  0  0  0
 39 40  1  0  0  0  0
  7  8  1  0  0  0  0
 17 18  1  0  0  0  0
  3  4  1  0  0  0  0
  3  5  1  0  0  0  0
  3  6  1  0  0  0  0
 43 46  1  0  0  0  0
 43 47  1  0  0  0  0
 43 48  1  0  0  0  0
 11 14  1  0  0  0  0
 11 15  1  0  0  0  0
 11 16  1  0  0  0  0
 50 52  1  0  0  0  0
 50 53  1  0  0  0  0
 50 54  1  0  0  0  0
 22 30  1  0  0  0  0
 22 31  1  0  0  0  0
 23 32  1  0  0  0  0
 23 33  1  0  0  0  0
 21 28  1  0  0  0  0
 21 29  1  0  0  0  0
 24 34  1  0  0  0  0
 24 35  1  0  0  0  0
 40 45  1  0  0  0  0
  8 13  1  0  0  0  0
 18 27  1  0  0  0  0
 49 51  1  0  0  0  0
  7 12  1  0  0  0  0
 39 44  1  0  0  0  0
 17 26  1  0  0  0  0
 25 36  1  0  0  0  0
 25 37  1  0  0  0  0
 25 38  1  0  0  0  0
M  CHG  1  25   1
M  END
$$$$

  -OEChem-05262214473D

 54 53  0     1  0  0  0  0  0999 V2000
    2.6714    2.8829   -3.0005 C   0  0  0  0  0  0  0  0  0  0  0  0
    3.1741    2.4398   -1.9745 O   0  0  0  0  0  0  0  0  0  0  0  0
    3.5527    3.3077   -4.1279 C   0  0  0  0  0  0  0  0  0  0  0  0
    3.8407    4.3691   -4.0597 H   0  0  0  0  0  0  0  0  0  0  0  0
    4.5024    2.7495   -4.1526 H   0  0  0  0  0  0  0  0  0  0  0  0
    3.1208    3.1887   -5.1345 H   0  0  0  0  0  0  0  0  0  0  0  0
    1.3174    3.0407   -3.2467 N   0  0  0  0  0  0  0  0  0  0  0  0
    0.2944    2.6927   -2.2960 C   0  0  2  0  0  0  0  0  0  0  0  0
    0.2976    1.1783   -2.1349 C   0  0  0  0  0  0  0  0  0  0  0  0
    0.7500    0.4142   -2.9850 O   0  0  0  0  0  0  0  0  0  0  0  0
   -1.0710    3.1886   -2.7460 C   0  0  0  0  0  0  0  0  0  0  0  0
    1.0312    3.4224   -4.1464 H   0  0  0  0  0  0  0  0  0  0  0  0
    0.5725    3.1622   -1.3461 H   0  0  0  0  0  0  0  0  0  0  0  0
   -1.3666    2.7292   -3.6963 H   0  0  0  0  0  0  0  0  0  0  0  0
   -1.8434    2.9482   -2.0082 H   0  0  0  0  0  0  0  0  0  0  0  0
   -1.0632    4.2744   -2.8901 H   0  0  0  0  0  0  0  0  0  0  0  0
   -0.3037    0.7742   -0.9484 N   0  0  0  0  0  0  0  0  0  0  0  0
   -0.4352   -0.6095   -0.5718 C   0  0  2  0  0  0  0  0  0  0  0  0
   -0.0415   -0.7602    0.8939 C   0  0  0  0  0  0  0  0  0  0  0  0
   -0.0332   -1.8421    1.4779 O   0  0  0  0  0  0  0  0  0  0  0  0
    0.3601   -1.5345   -1.5006 C   0  0  0  0  0  0  0  0  0  0  0  0
   -0.1896   -1.6086   -2.9311 C   0  0  0  0  0  0  0  0  0  0  0  0
    0.6372   -2.5666   -3.7919 C   0  0  0  0  0  0  0  0  0  0  0  0
    0.1041   -2.6189   -5.2161 C   0  0  0  0  0  0  0  0  0  0  0  0
    0.9479   -3.5380   -6.0172 N   0  3  0  0  0  0  0  0  0  0  0  0
   -0.6336    1.4811   -0.2948 H   0  0  0  0  0  0  0  0  0  0  0  0
   -1.5027   -0.8445   -0.6615 H   0  0  0  0  0  0  0  0  0  0  0  0
    1.4007   -1.1870   -1.5392 H   0  0  0  0  0  0  0  0  0  0  0  0
    0.3818   -2.5461   -1.0767 H   0  0  0  0  0  0  0  0  0  0  0  0
   -1.2317   -1.9484   -2.9146 H   0  0  0  0  0  0  0  0  0  0  0  0
   -0.1796   -0.6125   -3.3887 H   0  0  0  0  0  0  0  0  0  0  0  0
    0.6146   -3.5704   -3.3495 H   0  0  0  0  0  0  0  0  0  0  0  0
    1.6852   -2.2423   -3.7991 H   0  0  0  0  0  0  0  0  0  0  0  0
   -0.9174   -3.0086   -5.2574 H   0  0  0  0  0  0  0  0  0  0  0  0
    0.1459   -1.6415   -5.7057 H   0  0  0  0  0  0  0  0  0  0  0  0
    0.8396   -3.3558   -7.0209 H   0  0  0  0  0  0  0  0  0  0  0  0
    0.6912   -4.5163   -5.8448 H   0  0  0  0  0  0  0  0  0  0  0  0
    1.9401   -3.4259   -5.7814 H   0  0  0  0  0  0  0  0  0  0  0  0
    0.3311    0.4479    1.4654 N   0  0  0  0  0  0  0  0  0  0  0  0
    0.7597    0.5488    2.8401 C   0  0  2  0  0  0  0  0  0  0  0  0
    0.7777    2.0236    3.2201 C   0  0  0  0  0  0  0  0  0  0  0  0
    0.8663    2.9284    2.3927 O   0  0  0  0  0  0  0  0  0  0  0  0
    2.1294   -0.0808    3.0404 C   0  0  0  0  0  0  0  0  0  0  0  0
    0.3014    1.2894    0.8975 H   0  0  0  0  0  0  0  0  0  0  0  0
    0.0110    0.0246    3.4441 H   0  0  0  0  0  0  0  0  0  0  0  0
    2.8927    0.4311    2.4432 H   0  0  0  0  0  0  0  0  0  0  0  0
    2.4404   -0.0289    4.0890 H   0  0  0  0  0  0  0  0  0  0  0  0
    2.1222   -1.1338    2.7386 H   0  0  0  0  0  0  0  0  0  0  0  0
    0.7266    2.2090    4.5945 N   0  0  0  0  0  0  0  0  0  0  0  0
    0.7437    3.5175    5.2058 C   0  0  0  0  0  0  0  0  0  0  0  0
    0.6350    1.4021    5.2046 H   0  0  0  0  0  0  0  0  0  0  0  0
    1.7801    3.7971    5.4459 H   0  0  0  0  0  0  0  0  0  0  0  0
    0.3177    4.2536    4.5082 H   0  0  0  0  0  0  0  0  0  0  0  0
    0.1459    3.4986    6.1290 H   0  0  0  0  0  0  0  0  0  0  0  0
  1  3  1  0  0  0  0
  1  7  1  0  0  0  0
  1  2  2  0  0  0  0
 40 41  1  0  0  0  0
 41 49  1  0  0  0  0
 41 42  2  0  0  0  0
  8  9  1  0  0  0  0
  9 17  1  0  0  0  0
  9 10  2  0  0  0  0
 18 19  1  0  0  0  0
 19 39  1  0  0  0  0
 19 20  2  0  0  0  0
 40 43  1  0  0  0  0
  8 11  1  0  0  0  0
 49 50  1  0  0  0  0
 22 23  1  0  0  0  0
 21 22  1  0  0  0  0
 23 24  1  0  0  0  0
 18 21  1  0  0  0  0
 24 25  1  0  0  0  0
 39 40  1  0  0  0  0
  7  8  1  0  0  0  0
 17 18  1  0  0  0  0
  3  4  1  0  0  0  0
  3  5  1  0  0  0  0
  3  6  1  0  0  0  0
 43 46  1  0  0  0  0
 43 47  1  0  0  0  0
 43 48  1  0  0  0  0
 11 14  1  0  0  0  0
 11 15  1  0  0  0  0
 11 16  1  0  0  0  0
 50 52  1  0  0  0  0
 50 53  1  0  0  0  0
 50 54  1  0  0  0  0
 22 30  1  0  0  0  0
 22 31  1  0  0  0  0
 23 32  1  0  0  0  0
 23 33  1  0  0  0  0
 21 28  1  0  0  0  0
 21 29  1  0  0  0  0
 24 34  1  0  0  0  0
 24 35  1  0  0  0  0
 40 45  1  0  0  0  0
  8 13  1  0  0  0  0
 18 27  1  0  0  0  0
 49 51  1  0  0  0  0
  7 12  1  0  0  0  0
 39 44  1  0  0  0  0
 17 26  1  0  0  0  0
 25 36  1  0  0  0  0
 25 37  1  0  0  0  0
 25 38  1  0  0  0  0
M  CHG  1  25   1
M  END
$$$$

  -OEChem-05262214473D

 54 53  0     1  0  0  0  0  0999 V2000
    2.6714    2.8829   -3.0005 C   0  0  0  0  0  0  0  0  0  0  0  0
    3.1741    2.4398   -1.9745 O   0  0  0  0  0  0  0  0  0  0  0  0
    3.5527    3.3077   -4.1279 C   0  0  0  0  0  0  0  0  0  0  0  0
    3.8407    4.3691   -4.0597 H   0  0  0  0  0  0  0  0  0  0  0  0
    4.5024    2.7495   -4.1526 H   0  0  0  0  0  0  0  0  0  0  0  0
    3.1208    3.1887   -5.1345 H   0  0  0  0  0  0  0  0  0  0  0  0
    1.3174    3.0407   -3.2467 N   0  0  0  0  0  0  0  0  0  0  0  0
    0.2944    2.6927   -2.2960 C   0  0  2  0  0  0  0  0  0  0  0  0
    0.2976    1.1783   -2.1349 C   0  0  0  0  0  0  0  0  0  0  0  0
    0.7500    0.4142   -2.9850 O   0  0  0  0  0  0  0  0  0  0  0  0
   -1.0710    3.1886   -2.7460 C   0  0  0  0  0  0  0  0  0  0  0  0
    1.0312    3.4224   -4.1464 H   0  0  0  0  0  0  0  0  0  0  0  0
    0.5725    3.1622   -1.3461 H   0  0  0  0  0  0  0  0  0  0  0  0
   -1.3666    2.7292   -3.6963 H   0  0  0  0  0  0  0  0  0  0  0  0
   -1.8434    2.9482   -2.0082 H   0  0  0  0  0  0  0  0  0  0  0  0
   -1.0632    4.2744   -2.8901 H   0  0  0  0  0  0  0  0  0  0  0  0
   -0.3037    0.7742   -0.9484 N   0  0  0  0  0  0  0  0  0  0  0  0
   -0.4352   -0.6095   -0.5718 C   0  0  2  0  0  0  0  0  0  0  0  0
   -0.0415   -0.7602    0.8939 C   0  0  0  0  0  0  0  0  0  0  0  0
    0.2266   -1.8444    1.4079 O   0  0  0  0  0  0  0  0  0  0  0  0
    0.3601   -1.5345   -1.5006 C   0  0  0  0  0  0  0  0  0  0  0  0
   -0.1896   -1.6086   -2.9311 C   0  0  0  0  0  0  0  0  0  0  0  0
    0.6372   -2.5666   -3.7919 C   0  0  0  0  0  0  0  0  0  0  0  0
    0.1041   -2.6189   -5.2161 C   0  0  0  0  0  0  0  0  0  0  0  0
    0.9479   -3.5380   -6.0172 N   0  3  0  0  0  0  0  0  0  0  0  0
   -0.6336    1.4811   -0.2948 H   0  0  0  0  0  0  0  0  0  0  0  0
   -1.5027   -0.8445   -0.6615 H   0  0  0  0  0  0  0  0  0  0  0  0
    1.4007   -1.1870   -1.5392 H   0  0  0  0  0  0  0  0  0  0  0  0
    0.3818   -2.5461   -1.0767 H   0  0  0  0  0  0  0  0  0  0  0  0
   -1.2317   -1.9484   -2.9146 H   0  0  0  0  0  0  0  0  0  0  0  0
   -0.1796   -0.6125   -3.3887 H   0  0  0  0  0  0  0  0  0  0  0  0
    0.6146   -3.5704   -3.3495 H   0  0  0  0  0  0  0  0  0  0  0  0
    1.6852   -2.2423   -3.7991 H   0  0  0  0  0  0  0  0  0  0  0  0
   -0.9174   -3.0086   -5.2574 H   0  0  0  0  0  0  0  0  0  0  0  0
    0.1459   -1.6415   -5.7057 H   0  0  0  0  0  0  0  0  0  0  0  0
    0.8396   -3.3558   -7.0209 H   0  0  0  0  0  0  0  0  0  0  0  0
    0.6912   -4.5163   -5.8448 H   0  0  0  0  0  0  0  0  0  0  0  0
    1.9401   -3.4259   -5.7814 H   0  0  0  0  0  0  0  0  0  0  0  0
    0.0080    0.4595    1.5534 N   0  0  0  0  0  0  0  0  0  0  0  0
    0.3741    0.5669    2.9456 C   0  0  2  0  0  0  0  0  0  0  0  0
    0.0169    1.9697    3.4189 C   0  0  0  0  0  0  0  0  0  0  0  0
   -0.1089    2.9239    2.6542 O   0  0  0  0  0  0  0  0  0  0  0  0
    1.8540    0.2840    3.1519 C   0  0  0  0  0  0  0  0  0  0  0  0
   -0.2211    1.3050    1.0395 H   0  0  0  0  0  0  0  0  0  0  0  0
   -0.2302   -0.1675    3.4891 H   0  0  0  0  0  0  0  0  0  0  0  0
    2.4755    1.0097    2.6147 H   0  0  0  0  0  0  0  0  0  0  0  0
    2.1243    0.3378    4.2117 H   0  0  0  0  0  0  0  0  0  0  0  0
    2.1150   -0.7141    2.7837 H   0  0  0  0  0  0  0  0  0  0  0  0
   -0.1024    2.0400    4.7998 N   0  0  0  0  0  0  0  0  0  0  0  0
   -0.4229    3.2658    5.4933 C   0  0  0  0  0  0  0  0  0  0  0  0
   -0.0000    1.1949    5.3539 H   0  0  0  0  0  0  0  0  0  0  0  0
    0.5067    3.7760    5.7858 H   0  0  0  0  0  0  0  0  0  0  0  0
   -1.0071    3.9203    4.8297 H   0  0  0  0  0  0  0  0  0  0  0  0
   -1.0127    3.0347    6.3925 H   0  0  0  0  0  0  0  0  0  0  0  0
  1  3  1  0  0  0  0
  1  7  1  0  0  0  0
  1  2  2  0  0  0  0
 40 41  1  0  0  0  0
 41 49  1  0  0  0  0
 41 42  2  0  0  0  0
  8  9  1  0  0  0  0
  9 17  1  0  0  0  0
  9 10  2  0  0  0  0
 18 19  1  0  0  0  0
 19 39  1  0  0  0  0
 19 20  2  0  0  0  0
 40 43  1  0  0  0  0
  8 11  1  0  0  0  0
 49 50  1  0  0  0  0
 22 23  1  0  0  0  0
 21 22  1  0  0  0  0
 23 24  1  0  0  0  0
 18 21  1  0  0  0  0
 24 25  1  0  0  0  0
 39 40  1  0  0  0  0
  7  8  1  0  0  0  0
 17 18  1  0  0  0  0
  3  4  1  0  0  0  0
  3  5  1  0  0  0  0
  3  6  1  0  0  0  0
 43 46  1  0  0  0  0
 43 47  1  0  0  0  0
 43 48  1  0  0  0  0
 11 14  1  0  0  0  0
 11 15  1  0  0  0  0
 11 16  1  0  0  0  0
 50 52  1  0  0  0  0
 50 53  1  0  0  0  0
 50 54  1  0  0  0  0
 22 30  1  0  0  0  0
 22 31  1  0  0  0  0
 23 32  1  0  0  0  0
 23 33  1  0  0  0  0
 21 28  1  0  0  0  0
 21 29  1  0  0  0  0
 24 34  1  0  0  0  0
 24 35  1  0  0  0  0
 40 45  1  0  0  0  0
  8 13  1  0  0  0  0
 18 27  1  0  0  0  0
 49 51  1  0  0  0  0
  7 12  1  0  0  0  0
 39 44  1  0  0  0  0
 17 26  1  0  0  0  0
 25 36  1  0  0  0  0
 25 37  1  0  0  0  0
 25 38  1  0  0  0  0
M  CHG  1  25   1
M  END
$$$$

  -OEChem-05262214473D

 54 53  0     1  0  0  0  0  0999 V2000
    2.6714    2.8829   -3.0005 C   0  0  0  0  0  0  0  0  0  0  0  0
    3.1741    2.4398   -1.9745 O   0  0  0  0  0  0  0  0  0  0  0  0
    3.5527    3.3077   -4.1279 C   0  0  0  0  0  0  0  0  0  0  0  0
    3.8407    4.3691   -4.0597 H   0  0  0  0  0  0  0  0  0  0  0  0
    4.5024    2.7495   -4.1526 H   0  0  0  0  0  0  0  0  0  0  0  0
    3.1208    3.1887   -5.1345 H   0  0  0  0  0  0  0  0  0  0  0  0
    1.3174    3.0407   -3.2467 N   0  0  0  0  0  0  0  0  0  0  0  0
    0.2944    2.6927   -2.2960 C   0  0  2  0  0  0  0  0  0  0  0  0
    0.2976    1.1783   -2.1349 C   0  0  0  0  0  0  0  0  0  0  0  0
    0.7500    0.4142   -2.9850 O   0  0  0  0  0  0  0  0  0  0  0  0
   -1.0710    3.1886   -2.7460 C   0  0  0  0  0  0  0  0  0  0  0  0
    1.0312    3.4224   -4.1464 H   0  0  0  0  0  0  0  0  0  0  0  0
    0.5725    3.1622   -1.3461 H   0  0  0  0  0  0  0  0  0  0  0  0
   -1.3666    2.7292   -3.6963 H   0  0  0  0  0  0  0  0  0  0  0  0
   -1.8434    2.9482   -2.0082 H   0  0  0  0  0  0  0  0  0  0  0  0
   -1.0632    4.2744   -2.8901 H   0  0  0  0  0  0  0  0  0  0  0  0
   -0.3037    0.7742   -0.9484 N   0  0  0  0  0  0  0  0  0  0  0  0
   -0.4352   -0.6095   -0.5718 C   0  0  2  0  0  0  0  0  0  0  0  0
   -0.0415   -0.7602    0.8939 C   0  0  0  0  0  0  0  0  0  0  0  0
    0.4799   -1.7774    1.3467 O   0  0  0  0  0  0  0  0  0  0  0  0
    0.3601   -1.5345   -1.5006 C   0  0  0  0  0  0  0  0  0  0  0  0
   -0.1896   -1.6086   -2.9311 C   0  0  0  0  0  0  0  0  0  0  0  0
    0.6372   -2.5666   -3.7919 C   0  0  0  0  0  0  0  0  0  0  0  0
    0.1041   -2.6189   -5.2161 C   0  0  0  0  0  0  0  0  0  0  0  0
    0.9479   -3.5380   -6.0172 N   0  3  0  0  0  0  0  0  0  0  0  0
   -0.6336    1.4811   -0.2948 H   0  0  0  0  0  0  0  0  0  0  0  0
   -1.5027   -0.8445   -0.6615 H   0  0  0  0  0  0  0  0  0  0  0  0
    1.4007   -1.1870   -1.5392 H   0  0  0  0  0  0  0  0  0  0  0  0
    0.3818   -2.5461   -1.0767 H   0  0  0  0  0  0  0  0  0  0  0  0
   -1.2317   -1.9484   -2.9146 H   0  0  0  0  0  0  0  0  0  0  0  0
   -0.1796   -0.6125   -3.3887 H   0  0  0  0  0  0  0  0  0  0  0  0
    0.6146   -3.5704   -3.3495 H   0  0  0  0  0  0  0  0  0  0  0  0
    1.6852   -2.2423   -3.7991 H   0  0  0  0  0  0  0  0  0  0  0  0
   -0.9174   -3.0086   -5.2574 H   0  0  0  0  0  0  0  0  0  0  0  0
    0.1459   -1.6415   -5.7057 H   0  0  0  0  0  0  0  0  0  0  0  0
    0.8396   -3.3558   -7.0209 H   0  0  0  0  0  0  0  0  0  0  0  0
    0.6912   -4.5163   -5.8448 H   0  0  0  0  0  0  0  0  0  0  0  0
    1.9401   -3.4259   -5.7814 H   0  0  0  0  0  0  0  0  0  0  0  0
   -0.3094    0.3844    1.6309 N   0  0  0  0  0  0  0  0  0  0  0  0
   -0.0055    0.4815    3.0387 C   0  0  2  0  0  0  0  0  0  0  0  0
   -0.7096    1.7153    3.5878 C   0  0  0  0  0  0  0  0  0  0  0  0
   -1.0565    2.6596    2.8815 O   0  0  0  0  0  0  0  0  0  0  0  0
    1.4944    0.5604    3.2769 C   0  0  0  0  0  0  0  0  0  0  0  0
   -0.7334    1.1806    1.1643 H   0  0  0  0  0  0  0  0  0  0  0  0
   -0.4166   -0.4160    3.5136 H   0  0  0  0  0  0  0  0  0  0  0  0
    1.9242    1.4533    2.8084 H   0  0  0  0  0  0  0  0  0  0  0  0
    1.7245    0.6052    4.3465 H   0  0  0  0  0  0  0  0  0  0  0  0
    2.0026   -0.3134    2.8551 H   0  0  0  0  0  0  0  0  0  0  0  0
   -0.8663    1.6569    4.9656 N   0  0  0  0  0  0  0  0  0  0  0  0
   -1.4944    2.7132    5.7243 C   0  0  0  0  0  0  0  0  0  0  0  0
   -0.5657    0.8268    5.4679 H   0  0  0  0  0  0  0  0  0  0  0  0
   -0.7268    3.4162    6.0801 H   0  0  0  0  0  0  0  0  0  0  0  0
   -2.2120    3.2474    5.0842 H   0  0  0  0  0  0  0  0  0  0  0  0
   -2.0232    2.2807    6.5864 H   0  0  0  0  0  0  0  0  0  0  0  0
  1  3  1  0  0  0  0
  1  7  1  0  0  0  0
  1  2  2  0  0  0  0
 40 41  1  0  0  0  0
 41 49  1  0  0  0  0
 41 42  2  0  0  0  0
  8  9  1  0  0  0  0
  9 17  1  0  0  0  0
  9 10  2  0  0  0  0
 18 19  1  0  0  0  0
 19 39  1  0  0  0  0
 19 20  2  0  0  0  0
 40 43  1  0  0  0  0
  8 11  1  0  0  0  0
 49 50  1  0  0  0  0
 22 23  1  0  0  0  0
 21 22  1  0  0  0  0
 23 24  1  0  0  0  0
 18 21  1  0  0  0  0
 24 25  1  0  0  0  0
 39 40  1  0  0  0  0
  7  8  1  0  0  0  0
 17 18  1  0  0  0  0
  3  4  1  0  0  0  0
  3  5  1  0  0  0  0
  3  6  1  0  0  0  0
 43 46  1  0  0  0  0
 43 47  1  0  0  0  0
 43 48  1  0  0  0  0
 11 14  1  0  0  0  0
 11 15  1  0  0  0  0
 11 16  1  0  0  0  0
 50 52  1  0  0  0  0
 50 53  1  0  0  0  0
 50 54  1  0  0  0  0
 22 30  1  0  0  0  0
 22 31  1  0  0  0  0
 23 32  1  0  0  0  0
 23 33  1  0  0  0  0
 21 28  1  0  0  0  0
 21 29  1  0  0  0  0
 24 34  1  0  0  0  0
 24 35  1  0  0  0  0
 40 45  1  0  0  0  0
  8 13  1  0  0  0  0
 18 27  1  0  0  0  0
 49 51  1  0  0  0  0
  7 12  1  0  0  0  0
 39 44  1  0  0  0  0
 17 26  1  0  0  0  0
 25 36  1  0  0  0  0
 25 37  1  0  0  0  0
 25 38  1  0  0  0  0
M  CHG  1  25   1
M  END
$$$$

  -OEChem-05262214473D

 54 53  0     1  0  0  0  0  0999 V2000
    2.6714    2.8829   -3.0005 C   0  0  0  0  0  0  0  0  0  0  0  0
    3.1741    2.4398   -1.9745 O   0  0  0  0  0  0  0  0  0  0  0  0
    3.5527    3.3077   -4.1279 C   0  0  0  0  0  0  0  0  0  0  0  0
    3.8407    4.3691   -4.0597 H   0  0  0  0  0  0  0  0  0  0  0  0
    4.5024    2.7495   -4.1526 H   0  0  0  0  0  0  0  0  0  0  0  0
    3.1208    3.1887   -5.1345 H   0  0  0  0  0  0  0  0  0  0  0  0
    1.3174    3.0407   -3.2467 N   0  0  0  0  0  0  0  0  0  0  0  0
    0.2944    2.6927   -2.2960 C   0  0  2  0  0  0  0  0  0  0  0  0
    0.2976    1.1783   -2.1349 C   0  0  0  0  0  0  0  0  0  0  0  0
    0.7500    0.4142   -2.9850 O   0  0  0  0  0  0  0  0  0  0  0  0
   -1.0710    3.1886   -2.7460 C   0  0  0  0  0  0  0  0  0  0  0  0
    1.0312    3.4224   -4.1464 H   0  0  0  0  0  0  0  0  0  0  0  0
    0.5725    3.1622   -1.3461 H   0  0  0  0  0  0  0  0  0  0  0  0
   -1.3666    2.7292   -3.6963 H   0  0  0  0  0  0  0  0  0  0  0  0
   -1.8434    2.9482   -2.0082 H   0  0  0  0  0  0  0  0  0  0  0  0
   -1.0632    4.2744   -2.8901 H   0  0  0  0  0  0  0  0  0  0  0  0
   -0.3037    0.7742   -0.9484 N   0  0  0  0  0  0  0  0  0  0  0  0
   -0.4352   -0.6095   -0.5718 C   0  0  2  0  0  0  0  0  0  0  0  0
   -0.0415   -0.7602    0.8939 C   0  0  0  0  0  0  0  0  0  0  0  0
    0.7094   -1.6455    1.2986 O   0  0  0  0  0  0  0  0  0  0  0  0
    0.3601   -1.5345   -1.5006 C   0  0  0  0  0  0  0  0  0  0  0  0
   -0.1896   -1.6086   -2.9311 C   0  0  0  0  0  0  0  0  0  0  0  0
    0.6372   -2.5666   -3.7919 C   0  0  0  0  0  0  0  0  0  0  0  0
    0.1041   -2.6189   -5.2161 C   0  0  0  0  0  0  0  0  0  0  0  0
    0.9479   -3.5380   -6.0172 N   0  3  0  0  0  0  0  0  0  0  0  0
   -0.6336    1.4811   -0.2948 H   0  0  0  0  0  0  0  0  0  0  0  0
   -1.5027   -0.8445   -0.6615 H   0  0  0  0  0  0  0  0  0  0  0  0
    1.4007   -1.1870   -1.5392 H   0  0  0  0  0  0  0  0  0  0  0  0
    0.3818   -2.5461   -1.0767 H   0  0  0  0  0  0  0  0  0  0  0  0
   -1.2317   -1.9484   -2.9146 H   0  0  0  0  0  0  0  0  0  0  0  0
   -0.1796   -0.6125   -3.3887 H   0  0  0  0  0  0  0  0  0  0  0  0
    0.6146   -3.5704   -3.3495 H   0  0  0  0  0  0  0  0  0  0  0  0
    1.6852   -2.2423   -3.7991 H   0  0  0  0  0  0  0  0  0  0  0  0
   -0.9174   -3.0086   -5.2574 H   0  0  0  0  0  0  0  0  0  0  0  0
    0.1459   -1.6415   -5.7057 H   0  0  0  0  0  0  0  0  0  0  0  0
    0.8396   -3.3558   -7.0209 H   0  0  0  0  0  0  0  0  0  0  0  0
    0.6912   -4.5163   -5.8448 H   0  0  0  0  0  0  0  0  0  0  0  0
    1.9401   -3.4259   -5.7814 H   0  0  0  0  0  0  0  0  0  0  0  0
   -0.5991    0.2278    1.6927 N   0  0  0  0  0  0  0  0  0  0  0  0
   -0.3533    0.2983    3.1133 C   0  0  2  0  0  0  0  0  0  0  0  0
   -1.3523    1.2775    3.7155 C   0  0  0  0  0  0  0  0  0  0  0  0
   -1.9119    2.1535    3.0592 O   0  0  0  0  0  0  0  0  0  0  0  0
    1.0751    0.7297    3.4069 C   0  0  0  0  0  0  0  0  0  0  0  0
   -1.2005    0.9247    1.2634 H   0  0  0  0  0  0  0  0  0  0  0  0
   -0.5355   -0.7041    3.5159 H   0  0  0  0  0  0  0  0  0  0  0  0
    1.2764    1.7318    3.0110 H   0  0  0  0  0  0  0  0  0  0  0  0
    1.2684    0.7551    4.4845 H   0  0  0  0  0  0  0  0  0  0  0  0
    1.7925    0.0408    2.9480 H   0  0  0  0  0  0  0  0  0  0  0  0
   -1.5131    1.0857    5.0806 N   0  0  0  0  0  0  0  0  0  0  0  0
   -2.3979    1.8976    5.8831 C   0  0  0  0  0  0  0  0  0  0  0  0
   -1.0235    0.3230    5.5391 H   0  0  0  0  0  0  0  0  0  0  0  0
   -1.8362    2.7422    6.3088 H   0  0  0  0  0  0  0  0  0  0  0  0
   -3.2151    2.2806    5.2542 H   0  0  0  0  0  0  0  0  0  0  0  0
   -2.8167    1.2882    6.6975 H   0  0  0  0  0  0  0  0  0  0  0  0
  1  3  1  0  0  0  0
  1  7  1  0  0  0  0
  1  2  2  0  0  0  0
 40 41  1  0  0  0  0
 41 49  1  0  0  0  0
 41 42  2  0  0  0  0
  8  9  1  0  0  0  0
  9 17  1  0  0  0  0
  9 10  2  0  0  0  0
 18 19  1  0  0  0  0
 19 39  1  0  0  0  0
 19 20  2  0  0  0  0
 40 43  1  0  0  0  0
  8 11  1  0  0  0  0
 49 50  1  0  0  0  0
 22 23  1  0  0  0  0
 21 22  1  0  0  0  0
 23 24  1  0  0  0  0
 18 21  1  0  0  0  0
 24 25  1  0  0  0  0
 39 40  1  0  0  0  0
  7  8  1  0  0  0  0
 17 18  1  0  0  0  0
  3  4  1  0  0  0  0
  3  5  1  0  0  0  0
  3  6  1  0  0  0  0
 43 46  1  0  0  0  0
 43 47  1  0  0  0  0
 43 48  1  0  0  0  0
 11 14  1  0  0  0  0
 11 15  1  0  0  0  0
 11 16  1  0  0  0  0
 50 52  1  0  0  0  0
 50 53  1  0  0  0  0
 50 54  1  0  0  0  0
 22 30  1  0  0  0  0
 22 31  1  0  0  0  0
 23 32  1  0  0  0  0
 23 33  1  0  0  0  0
 21 28  1  0  0  0  0
 21 29  1  0  0  0  0
 24 34  1  0  0  0  0
 24 35  1  0  0  0  0
 40 45  1  0  0  0  0
  8 13  1  0  0  0  0
 18 27  1  0  0  0  0
 49 51  1  0  0  0  0
  7 12  1  0  0  0  0
 39 44  1  0  0  0  0
 17 26  1  0  0  0  0
 25 36  1  0  0  0  0
 25 37  1  0  0  0  0
 25 38  1  0  0  0  0
M  CHG  1  25   1
M  END
$$$$

  -OEChem-05262214473D

 54 53  0     1  0  0  0  0  0999 V2000
    2.6714    2.8829   -3.0005 C   0  0  0  0  0  0  0  0  0  0  0  0
    3.1741    2.4398   -1.9745 O   0  0  0  0  0  0  0  0  0  0  0  0
    3.5527    3.3077   -4.1279 C   0  0  0  0  0  0  0  0  0  0  0  0
    3.8407    4.3691   -4.0597 H   0  0  0  0  0  0  0  0  0  0  0  0
    4.5024    2.7495   -4.1526 H   0  0  0  0  0  0  0  0  0  0  0  0
    3.1208    3.1887   -5.1345 H   0  0  0  0  0  0  0  0  0  0  0  0
    1.3174    3.0407   -3.2467 N   0  0  0  0  0  0  0  0  0  0  0  0
    0.2944    2.6927   -2.2960 C   0  0  2  0  0  0  0  0  0  0  0  0
    0.2976    1.1783   -2.1349 C   0  0  0  0  0  0  0  0  0  0  0  0
    0.7500    0.4142   -2.9850 O   0  0  0  0  0  0  0  0  0  0  0  0
   -1.0710    3.1886   -2.7460 C   0  0  0  0  0  0  0  0  0  0  0  0
    1.0312    3.4224   -4.1464 H   0  0  0  0  0  0  0  0  0  0  0  0
    0.5725    3.1622   -1.3461 H   0  0  0  0  0  0  0  0  0  0  0  0
   -1.3666    2.7292   -3.6963 H   0  0  0  0  0  0  0  0  0  0  0  0
   -1.8434    2.9482   -2.0082 H   0  0  0  0  0  0  0  0  0  0  0  0
   -1.0632    4.2744   -2.8901 H   0  0  0  0  0  0  0  0  0  0  0  0
   -0.3037    0.7742   -0.9484 N   0  0  0  0  0  0  0  0  0  0  0  0
   -0.4352   -0.6095   -0.5718 C   0  0  2  0  0  0  0  0  0  0  0  0
   -0.0415   -0.7602    0.8939 C   0  0  0  0  0  0  0  0  0  0  0  0
    0.8996   -1.4579    1.2668 O   0  0  0  0  0  0  0  0  0  0  0  0
    0.3601   -1.5345   -1.5006 C   0  0  0  0  0  0  0  0  0  0  0  0
   -0.1896   -1.6086   -2.9311 C   0  0  0  0  0  0  0  0  0  0  0  0
    0.6372   -2.5666   -3.7919 C   0  0  0  0  0  0  0  0  0  0  0  0
    0.1041   -2.6189   -5.2161 C   0  0  0  0  0  0  0  0  0  0  0  0
    0.9479   -3.5380   -6.0172 N   0  3  0  0  0  0  0  0  0  0  0  0
   -0.6336    1.4811   -0.2948 H   0  0  0  0  0  0  0  0  0  0  0  0
   -1.5027   -0.8445   -0.6615 H   0  0  0  0  0  0  0  0  0  0  0  0
    1.4007   -1.1870   -1.5392 H   0  0  0  0  0  0  0  0  0  0  0  0
    0.3818   -2.5461   -1.0767 H   0  0  0  0  0  0  0  0  0  0  0  0
   -1.2317   -1.9484   -2.9146 H   0  0  0  0  0  0  0  0  0  0  0  0
   -0.1796   -0.6125   -3.3887 H   0  0  0  0  0  0  0  0  0  0  0  0
    0.6146   -3.5704   -3.3495 H   0  0  0  0  0  0  0  0  0  0  0  0
    1.6852   -2.2423   -3.7991 H   0  0  0  0  0  0  0  0  0  0  0  0
   -0.9174   -3.0086   -5.2574 H   0  0  0  0  0  0  0  0  0  0  0  0
    0.1459   -1.6415   -5.7057 H   0  0  0  0  0  0  0  0  0  0  0  0
    0.8396   -3.3558   -7.0209 H   0  0  0  0  0  0  0  0  0  0  0  0
    0.6912   -4.5163   -5.8448 H   0  0  0  0  0  0  0  0  0  0  0  0
    1.9401   -3.4259   -5.7814 H   0  0  0  0  0  0  0  0  0  0  0  0
   -0.8417    0.0003    1.7344 N   0  0  0  0  0  0  0  0  0  0  0  0
   -0.6456    0.0298    3.1642 C   0  0  2  0  0  0  0  0  0  0  0  0
   -1.8676    0.6862    3.7931 C   0  0  0  0  0  0  0  0  0  0  0  0
   -2.6167    1.4399    3.1752 O   0  0  0  0  0  0  0  0  0  0  0  0
    0.6247    0.7802    3.5331 C   0  0  0  0  0  0  0  0  0  0  0  0
   -1.5905    0.5547    1.3301 H   0  0  0  0  0  0  0  0  0  0  0  0
   -0.5787   -1.0121    3.4959 H   0  0  0  0  0  0  0  0  0  0  0  0
    0.5762    1.8261    3.2088 H   0  0  0  0  0  0  0  0  0  0  0  0
    0.7870    0.7771    4.6160 H   0  0  0  0  0  0  0  0  0  0  0  0
    1.4990    0.3245    3.0559 H   0  0  0  0  0  0  0  0  0  0  0  0
   -1.9987    0.3654    5.1370 N   0  0  0  0  0  0  0  0  0  0  0  0
   -3.0718    0.8744    5.9589 C   0  0  0  0  0  0  0  0  0  0  0  0
   -1.3421   -0.2823    5.5624 H   0  0  0  0  0  0  0  0  0  0  0  0
   -2.7461    1.7999    6.4563 H   0  0  0  0  0  0  0  0  0  0  0  0
   -3.9478    1.0860    5.3282 H   0  0  0  0  0  0  0  0  0  0  0  0
   -3.3391    0.1247    6.7181 H   0  0  0  0  0  0  0  0  0  0  0  0
  1  3  1  0  0  0  0
  1  7  1  0  0  0  0
  1  2  2  0  0  0  0
 40 41  1  0  0  0  0
 41 49  1  0  0  0  0
 41 42  2  0  0  0  0
  8  9  1  0  0  0  0
  9 17  1  0  0  0  0
  9 10  2  0  0  0  0
 18 19  1  0  0  0  0
 19 39  1  0  0  0  0
 19 20  2  0  0  0  0
 40 43  1  0  0  0  0
  8 11  1  0  0  0  0
 49 50  1  0  0  0  0
 22 23  1  0  0  0  0
 21 22  1  0  0  0  0
 23 24  1  0  0  0  0
 18 21  1  0  0  0  0
 24 25  1  0  0  0  0
 39 40  1  0  0  0  0
  7  8  1  0  0  0  0
 17 18  1  0  0  0  0
  3  4  1  0  0  0  0
  3  5  1  0  0  0  0
  3  6  1  0  0  0  0
 43 46  1  0  0  0  0
 43 47  1  0  0  0  0
 43 48  1  0  0  0  0
 11 14  1  0  0  0  0
 11 15  1  0  0  0  0
 11 16  1  0  0  0  0
 50 52  1  0  0  0  0
 50 53  1  0  0  0  0
 50 54  1  0  0  0  0
 22 30  1  0  0  0  0
 22 31  1  0  0  0  0
 23 32  1  0  0  0  0
 23 33  1  0  0  0  0
 21 28  1  0  0  0  0
 21 29  1  0  0  0  0
 24 34  1  0  0  0  0
 24 35  1  0  0  0  0
 40 45  1  0  0  0  0
  8 13  1  0  0  0  0
 18 27  1  0  0  0  0
 49 51  1  0  0  0  0
  7 12  1  0  0  0  0
 39 44  1  0  0  0  0
 17 26  1  0  0  0  0
 25 36  1  0  0  0  0
 25 37  1  0  0  0  0
 25 38  1  0  0  0  0
M  CHG  1  25   1
M  END
$$$$

  -OEChem-05262214473D

 54 53  0     1  0  0  0  0  0999 V2000
    2.6714    2.8829   -3.0005 C   0  0  0  0  0  0  0  0  0  0  0  0
    3.1741    2.4398   -1.9745 O   0  0  0  0  0  0  0  0  0  0  0  0
    3.5527    3.3077   -4.1279 C   0  0  0  0  0  0  0  0  0  0  0  0
    3.8407    4.3691   -4.0597 H   0  0  0  0  0  0  0  0  0  0  0  0
    4.5024    2.7495   -4.1526 H   0  0  0  0  0  0  0  0  0  0  0  0
    3.1208    3.1887   -5.1345 H   0  0  0  0  0  0  0  0  0  0  0  0
    1.3174    3.0407   -3.2467 N   0  0  0  0  0  0  0  0  0  0  0  0
    0.2944    2.6927   -2.2960 C   0  0  2  0  0  0  0  0  0  0  0  0
    0.2976    1.1783   -2.1349 C   0  0  0  0  0  0  0  0  0  0  0  0
    0.7500    0.4142   -2.9850 O   0  0  0  0  0  0  0  0  0  0  0  0
   -1.0710    3.1886   -2.7460 C   0  0  0  0  0  0  0  0  0  0  0  0
    1.0312    3.4224   -4.1464 H   0  0  0  0  0  0  0  0  0  0  0  0
    0.5725    3.1622   -1.3461 H   0  0  0  0  0  0  0  0  0  0  0  0
   -1.3666    2.7292   -3.6963 H   0  0  0  0  0  0  0  0  0  0  0  0
   -1.8434    2.9482   -2.0082 H   0  0  0  0  0  0  0  0  0  0  0  0
   -1.0632    4.2744   -2.8901 H   0  0  0  0  0  0  0  0  0  0  0  0
   -0.3037    0.7742   -0.9484 N   0  0  0  0  0  0  0  0  0  0  0  0
   -0.4352   -0.6095   -0.5718 C   0  0  2  0  0  0  0  0  0  0  0  0
   -0.0415   -0.7602    0.8939 C   0  0  0  0  0  0  0  0  0  0  0  0
    1.0374   -1.2272    1.2535 O   0  0  0  0  0  0  0  0  0  0  0  0
    0.3601   -1.5345   -1.5006 C   0  0  0  0  0  0  0  0  0  0  0  0
   -0.1896   -1.6086   -2.9311 C   0  0  0  0  0  0  0  0  0  0  0  0
    0.6372   -2.5666   -3.7919 C   0  0  0  0  0  0  0  0  0  0  0  0
    0.1041   -2.6189   -5.2161 C   0  0  0  0  0  0  0  0  0  0  0  0
    0.9479   -3.5380   -6.0172 N   0  3  0  0  0  0  0  0  0  0  0  0
   -0.6336    1.4811   -0.2948 H   0  0  0  0  0  0  0  0  0  0  0  0
   -1.5027   -0.8445   -0.6615 H   0  0  0  0  0  0  0  0  0  0  0  0
    1.4007   -1.1870   -1.5392 H   0  0  0  0  0  0  0  0  0  0  0  0
    0.3818   -2.5461   -1.0767 H   0  0  0  0  0  0  0  0  0  0  0  0
   -1.2317   -1.9484   -2.9146 H   0  0  0  0  0  0  0  0  0  0  0  0
   -0.1796   -0.6125   -3.3887 H   0  0  0  0  0  0  0  0  0  0  0  0
    0.6146   -3.5704   -3.3495 H   0  0  0  0  0  0  0  0  0  0  0  0
    1.6852   -2.2423   -3.7991 H   0  0  0  0  0  0  0  0  0  0  0  0
   -0.9174   -3.0086   -5.2574 H   0  0  0  0  0  0  0  0  0  0  0  0
    0.1459   -1.6415   -5.7057 H   0  0  0  0  0  0  0  0  0  0  0  0
    0.8396   -3.3558   -7.0209 H   0  0  0  0  0  0  0  0  0  0  0  0
    0.6912   -4.5163   -5.8448 H   0  0  0  0  0  0  0  0  0  0  0  0
    1.9401   -3.4259   -5.7814 H   0  0  0  0  0  0  0  0  0  0  0  0
   -1.0204   -0.2826    1.7533 N   0  0  0  0  0  0  0  0  0  0  0  0
   -0.8624   -0.3056    3.1880 C   0  0  2  0  0  0  0  0  0  0  0  0
   -2.2202   -0.0183    3.8153 C   0  0  0  0  0  0  0  0  0  0  0  0
   -3.1230    0.5676    3.2215 O   0  0  0  0  0  0  0  0  0  0  0  0
    0.1738    0.7085    3.6468 C   0  0  0  0  0  0  0  0  0  0  0  0
   -1.8769    0.0959    1.3599 H   0  0  0  0  0  0  0  0  0  0  0  0
   -0.5433   -1.3190    3.4548 H   0  0  0  0  0  0  0  0  0  0  0  0
   -0.1287    1.7298    3.3882 H   0  0  0  0  0  0  0  0  0  0  0  0
    0.3132    0.6699    4.7322 H   0  0  0  0  0  0  0  0  0  0  0  0
    1.1423    0.5183    3.1717 H   0  0  0  0  0  0  0  0  0  0  0  0
   -2.2901   -0.4549    5.1309 N   0  0  0  0  0  0  0  0  0  0  0  0
   -3.4701   -0.2866    5.9465 C   0  0  0  0  0  0  0  0  0  0  0  0
   -1.5000   -0.9479    5.5364 H   0  0  0  0  0  0  0  0  0  0  0  0
   -3.3943    0.6535    6.5125 H   0  0  0  0  0  0  0  0  0  0  0  0
   -4.3603   -0.2551    5.3011 H   0  0  0  0  0  0  0  0  0  0  0  0
   -3.5548   -1.1305    6.6470 H   0  0  0  0  0  0  0  0  0  0  0  0
  1  3  1  0  0  0  0
  1  7  1  0  0  0  0
  1  2  2  0  0  0  0
 40 41  1  0  0  0  0
 41 49  1  0  0  0  0
 41 42  2  0  0  0  0
  8  9  1  0  0  0  0
  9 17  1  0  0  0  0
  9 10  2  0  0  0  0
 18 19  1  0  0  0  0
 19 39  1  0  0  0  0
 19 20  2  0  0  0  0
 40 43  1  0  0  0  0
  8 11  1  0  0  0  0
 49 50  1  0  0  0  0
 22 23  1  0  0  0  0
 21 22  1  0  0  0  0
 23 24  1  0  0  0  0
 18 21  1  0  0  0  0
 24 25  1  0  0  0  0
 39 40  1  0  0  0  0
  7  8  1  0  0  0  0
 17 18  1  0  0  0  0
  3  4  1  0  0  0  0
  3  5  1  0  0  0  0
  3  6  1  0  0  0  0
 43 46  1  0  0  0  0
 43 47  1  0  0  0  0
 43 48  1  0  0  0  0
 11 14  1  0  0  0  0
 11 15  1  0  0  0  0
 11 16  1  0  0  0  0
 50 52  1  0  0  0  0
 50 53  1  0  0  0  0
 50 54  1  0  0  0  0
 22 30  1  0  0  0  0
 22 31  1  0  0  0  0
 23 32  1  0  0  0  0
 23 33  1  0  0  0  0
 21 28  1  0  0  0  0
 21 29  1  0  0  0  0
 24 34  1  0  0  0  0
 24 35  1  0  0  0  0
 40 45  1  0  0  0  0
  8 13  1  0  0  0  0
 18 27  1  0  0  0  0
 49 51  1  0  0  0  0
  7 12  1  0  0  0  0
 39 44  1  0  0  0  0
 17 26  1  0  0  0  0
 25 36  1  0  0  0  0
 25 37  1  0  0  0  0
 25 38  1  0  0  0  0
M  CHG  1  25   1
M  END
$$$$

  -OEChem-05262214473D

 54 53  0     1  0  0  0  0  0999 V2000
    2.6714    2.8829   -3.0005 C   0  0  0  0  0  0  0  0  0  0  0  0
    3.1741    2.4398   -1.9745 O   0  0  0  0  0  0  0  0  0  0  0  0
    3.5527    3.3077   -4.1279 C   0  0  0  0  0  0  0  0  0  0  0  0
    3.8407    4.3691   -4.0597 H   0  0  0  0  0  0  0  0  0  0  0  0
    4.5024    2.7495   -4.1526 H   0  0  0  0  0  0  0  0  0  0  0  0
    3.1208    3.1887   -5.1345 H   0  0  0  0  0  0  0  0  0  0  0  0
    1.3174    3.0407   -3.2467 N   0  0  0  0  0  0  0  0  0  0  0  0
    0.2944    2.6927   -2.2960 C   0  0  2  0  0  0  0  0  0  0  0  0
    0.2976    1.1783   -2.1349 C   0  0  0  0  0  0  0  0  0  0  0  0
    0.7500    0.4142   -2.9850 O   0  0  0  0  0  0  0  0  0  0  0  0
   -1.0710    3.1886   -2.7460 C   0  0  0  0  0  0  0  0  0  0  0  0
    1.0312    3.4224   -4.1464 H   0  0  0  0  0  0  0  0  0  0  0  0
    0.5725    3.1622   -1.3461 H   0  0  0  0  0  0  0  0  0  0  0  0
   -1.3666    2.7292   -3.6963 H   0  0  0  0  0  0  0  0  0  0  0  0
   -1.8434    2.9482   -2.0082 H   0  0  0  0  0  0  0  0  0  0  0  0
   -1.0632    4.2744   -2.8901 H   0  0  0  0  0  0  0  0  0  0  0  0
   -0.3037    0.7742   -0.9484 N   0  0  0  0  0  0  0  0  0  0  0  0
   -0.4352   -0.6095   -0.5718 C   0  0  2  0  0  0  0  0  0  0  0  0
   -0.0415   -0.7602    0.8939 C   0  0  0  0  0  0  0  0  0  0  0  0
    1.1135   -0.9692    1.2596 O   0  0  0  0  0  0  0  0  0  0  0  0
    0.3601   -1.5345   -1.5006 C   0  0  0  0  0  0  0  0  0  0  0  0
   -0.1896   -1.6086   -2.9311 C   0  0  0  0  0  0  0  0  0  0  0  0
    0.6372   -2.5666   -3.7919 C   0  0  0  0  0  0  0  0  0  0  0  0
    0.1041   -2.6189   -5.2161 C   0  0  0  0  0  0  0  0  0  0  0  0
    0.9479   -3.5380   -6.0172 N   0  3  0  0  0  0  0  0  0  0  0  0
   -0.6336    1.4811   -0.2948 H   0  0  0  0  0  0  0  0  0  0  0  0
   -1.5027   -0.8445   -0.6615 H   0  0  0  0  0  0  0  0  0  0  0  0
    1.4007   -1.1870   -1.5392 H   0  0  0  0  0  0  0  0  0  0  0  0
    0.3818   -2.5461   -1.0767 H   0  0  0  0  0  0  0  0  0  0  0  0
   -1.2317   -1.9484   -2.9146 H   0  0  0  0  0  0  0  0  0  0  0  0
   -0.1796   -0.6125   -3.3887 H   0  0  0  0  0  0  0  0  0  0  0  0
    0.6146   -3.5704   -3.3495 H   0  0  0  0  0  0  0  0  0  0  0  0
    1.6852   -2.2423   -3.7991 H   0  0  0  0  0  0  0  0  0  0  0  0
   -0.9174   -3.0086   -5.2574 H   0  0  0  0  0  0  0  0  0  0  0  0
    0.1459   -1.6415   -5.7057 H   0  0  0  0  0  0  0  0  0  0  0  0
    0.8396   -3.3558   -7.0209 H   0  0  0  0  0  0  0  0  0  0  0  0
    0.6912   -4.5163   -5.8448 H   0  0  0  0  0  0  0  0  0  0  0  0
    1.9401   -3.4259   -5.7814 H   0  0  0  0  0  0  0  0  0  0  0  0
   -1.1232   -0.6015    1.7481 N   0  0  0  0  0  0  0  0  0  0  0  0
   -0.9891   -0.6851    3.1830 C   0  0  2  0  0  0  0  0  0  0  0  0
   -2.3861   -0.7880    3.7807 C   0  0  0  0  0  0  0  0  0  0  0  0
   -3.3963   -0.4041    3.1950 O   0  0  0  0  0  0  0  0  0  0  0  0
   -0.2467    0.5195    3.7404 C   0  0  0  0  0  0  0  0  0  0  0  0
   -2.0402   -0.4206    1.3506 H   0  0  0  0  0  0  0  0  0  0  0  0
   -0.4317   -1.6038    3.3955 H   0  0  0  0  0  0  0  0  0  0  0  0
   -0.7901    1.4495    3.5370 H   0  0  0  0  0  0  0  0  0  0  0  0
   -0.1208    0.4407    4.8252 H   0  0  0  0  0  0  0  0  0  0  0  0
    0.7465    0.6090    3.2873 H   0  0  0  0  0  0  0  0  0  0  0  0
   -2.3673   -1.3193    5.0627 N   0  0  0  0  0  0  0  0  0  0  0  0
   -3.5658   -1.5064    5.8467 C   0  0  0  0  0  0  0  0  0  0  0  0
   -1.4863   -1.6282    5.4628 H   0  0  0  0  0  0  0  0  0  0  0  0
   -3.7367   -0.6188    6.4736 H   0  0  0  0  0  0  0  0  0  0  0  0
   -4.4245   -1.6514    5.1747 H   0  0  0  0  0  0  0  0  0  0  0  0
   -3.4492   -2.3918    6.4890 H   0  0  0  0  0  0  0  0  0  0  0  0
  1  3  1  0  0  0  0
  1  7  1  0  0  0  0
  1  2  2  0  0  0  0
 40 41  1  0  0  0  0
 41 49  1  0  0  0  0
 41 42  2  0  0  0  0
  8  9  1  0  0  0  0
  9 17  1  0  0  0  0
  9 10  2  0  0  0  0
 18 19  1  0  0  0  0
 19 39  1  0  0  0  0
 19 20  2  0  0  0  0
 40 43  1  0  0  0  0
  8 11  1  0  0  0  0
 49 50  1  0  0  0  0
 22 23  1  0  0  0  0
 21 22  1  0  0  0  0
 23 24  1  0  0  0  0
 18 21  1  0  0  0  0
 24 25  1  0  0  0  0
 39 40  1  0  0  0  0
  7  8  1  0  0  0  0
 17 18  1  0  0  0  0
  3  4  1  0  0  0  0
  3  5  1  0  0  0  0
  3  6  1  0  0  0  0
 43 46  1  0  0  0  0
 43 47  1  0  0  0  0
 43 48  1  0  0  0  0
 11 14  1  0  0  0  0
 11 15  1  0  0  0  0
 11 16  1  0  0  0  0
 50 52  1  0  0  0  0
 50 53  1  0  0  0  0
 50 54  1  0  0  0  0
 22 30  1  0  0  0  0
 22 31  1  0  0  0  0
 23 32  1  0  0  0  0
 23 33  1  0  0  0  0
 21 28  1  0  0  0  0
 21 29  1  0  0  0  0
 24 34  1  0  0  0  0
 24 35  1  0  0  0  0
 40 45  1  0  0  0  0
  8 13  1  0  0  0  0
 18 27  1  0  0  0  0
 49 51  1  0  0  0  0
  7 12  1  0  0  0  0
 39 44  1  0  0  0  0
 17 26  1  0  0  0  0
 25 36  1  0  0  0  0
 25 37  1  0  0  0  0
 25 38  1  0  0  0  0
M  CHG  1  25   1
M  END
$$$$

  -OEChem-05262214473D

 54 53  0     1  0  0  0  0  0999 V2000
    2.6714    2.8829   -3.0005 C   0  0  0  0  0  0  0  0  0  0  0  0
    3.1741    2.4398   -1.9745 O   0  0  0  0  0  0  0  0  0  0  0  0
    3.5527    3.3077   -4.1279 C   0  0  0  0  0  0  0  0  0  0  0  0
    3.8407    4.3691   -4.0597 H   0  0  0  0  0  0  0  0  0  0  0  0
    4.5024    2.7495   -4.1526 H   0  0  0  0  0  0  0  0  0  0  0  0
    3.1208    3.1887   -5.1345 H   0  0  0  0  0  0  0  0  0  0  0  0
    1.3174    3.0407   -3.2467 N   0  0  0  0  0  0  0  0  0  0  0  0
    0.2944    2.6927   -2.2960 C   0  0  2  0  0  0  0  0  0  0  0  0
    0.2976    1.1783   -2.1349 C   0  0  0  0  0  0  0  0  0  0  0  0
    0.7500    0.4142   -2.9850 O   0  0  0  0  0  0  0  0  0  0  0  0
   -1.0710    3.1886   -2.7460 C   0  0  0  0  0  0  0  0  0  0  0  0
    1.0312    3.4224   -4.1464 H   0  0  0  0  0  0  0  0  0  0  0  0
    0.5725    3.1622   -1.3461 H   0  0  0  0  0  0  0  0  0  0  0  0
   -1.3666    2.7292   -3.6963 H   0  0  0  0  0  0  0  0  0  0  0  0
   -1.8434    2.9482   -2.0082 H   0  0  0  0  0  0  0  0  0  0  0  0
   -1.0632    4.2744   -2.8901 H   0  0  0  0  0  0  0  0  0  0  0  0
   -0.3037    0.7742   -0.9484 N   0  0  0  0  0  0  0  0  0  0  0  0
   -0.4352   -0.6095   -0.5718 C   0  0  2  0  0  0  0  0  0  0  0  0
   -0.0415   -0.7602    0.8939 C   0  0  0  0  0  0  0  0  0  0  0  0
    1.1227   -0.7014    1.2847 O   0  0  0  0  0  0  0  0  0  0  0  0
    0.3601   -1.5345   -1.5006 C   0  0  0  0  0  0  0  0  0  0  0  0
   -0.1896   -1.6086   -2.9311 C   0  0  0  0  0  0  0  0  0  0  0  0
    0.6372   -2.5666   -3.7919 C   0  0  0  0  0  0  0  0  0  0  0  0
    0.1041   -2.6189   -5.2161 C   0  0  0  0  0  0  0  0  0  0  0  0
    0.9479   -3.5380   -6.0172 N   0  3  0  0  0  0  0  0  0  0  0  0
   -0.6336    1.4811   -0.2948 H   0  0  0  0  0  0  0  0  0  0  0  0
   -1.5027   -0.8445   -0.6615 H   0  0  0  0  0  0  0  0  0  0  0  0
    1.4007   -1.1870   -1.5392 H   0  0  0  0  0  0  0  0  0  0  0  0
    0.3818   -2.5461   -1.0767 H   0  0  0  0  0  0  0  0  0  0  0  0
   -1.2317   -1.9484   -2.9146 H   0  0  0  0  0  0  0  0  0  0  0  0
   -0.1796   -0.6125   -3.3887 H   0  0  0  0  0  0  0  0  0  0  0  0
    0.6146   -3.5704   -3.3495 H   0  0  0  0  0  0  0  0  0  0  0  0
    1.6852   -2.2423   -3.7991 H   0  0  0  0  0  0  0  0  0  0  0  0
   -0.9174   -3.0086   -5.2574 H   0  0  0  0  0  0  0  0  0  0  0  0
    0.1459   -1.6415   -5.7057 H   0  0  0  0  0  0  0  0  0  0  0  0
    0.8396   -3.3558   -7.0209 H   0  0  0  0  0  0  0  0  0  0  0  0
    0.6912   -4.5163   -5.8448 H   0  0  0  0  0  0  0  0  0  0  0  0
    1.9401   -3.4259   -5.7814 H   0  0  0  0  0  0  0  0  0  0  0  0
   -1.1431   -0.9349    1.7192 N   0  0  0  0  0  0  0  0  0  0  0  0
   -1.0169   -1.0828    3.1495 C   0  0  2  0  0  0  0  0  0  0  0  0
   -2.3540   -1.5704    3.6917 C   0  0  0  0  0  0  0  0  0  0  0  0
   -3.4179   -1.4088    3.0974 O   0  0  0  0  0  0  0  0  0  0  0  0
   -0.6084    0.2260    3.8073 C   0  0  0  0  0  0  0  0  0  0  0  0
   -2.0692   -0.9594    1.3030 H   0  0  0  0  0  0  0  0  0  0  0  0
   -0.2515   -1.8473    3.3221 H   0  0  0  0  0  0  0  0  0  0  0  0
   -1.3631    1.0042    3.6452 H   0  0  0  0  0  0  0  0  0  0  0  0
   -0.4853    0.1052    4.8887 H   0  0  0  0  0  0  0  0  0  0  0  0
    0.3387    0.5905    3.3949 H   0  0  0  0  0  0  0  0  0  0  0  0
   -2.2252   -2.1689    4.9372 N   0  0  0  0  0  0  0  0  0  0  0  0
   -3.3523   -2.7016    5.6665 C   0  0  0  0  0  0  0  0  0  0  0  0
   -1.3019   -2.2770    5.3465 H   0  0  0  0  0  0  0  0  0  0  0  0
   -3.7501   -1.9303    6.3424 H   0  0  0  0  0  0  0  0  0  0  0  0
   -4.1360   -3.0075    4.9578 H   0  0  0  0  0  0  0  0  0  0  0  0
   -3.0294   -3.5733    6.2547 H   0  0  0  0  0  0  0  0  0  0  0  0
  1  3  1  0  0  0  0
  1  7  1  0  0  0  0
  1  2  2  0  0  0  0
 40 41  1  0  0  0  0
 41 49  1  0  0  0  0
 41 42  2  0  0  0  0
  8  9  1  0  0  0  0
  9 17  1  0  0  0  0
  9 10  2  0  0  0  0
 18 19  1  0  0  0  0
 19 39  1  0  0  0  0
 19 20  2  0  0  0  0
 40 43  1  0  0  0  0
  8 11  1  0  0  0  0
 49 50  1  0  0  0  0
 22 23  1  0  0  0  0
 21 22  1  0  0  0  0
 23 24  1  0  0  0  0
 18 21  1  0  0  0  0
 24 25  1  0  0  0  0
 39 40  1  0  0  0  0
  7  8  1  0  0  0  0
 17 18  1  0  0  0  0
  3  4  1  0  0  0  0
  3  5  1  0  0  0  0
  3  6  1  0  0  0  0
 43 46  1  0  0  0  0
 43 47  1  0  0  0  0
 43 48  1  0  0  0  0
 11 14  1  0  0  0  0
 11 15  1  0  0  0  0
 11 16  1  0  0  0  0
 50 52  1  0  0  0  0
 50 53  1  0  0  0  0
 50 54  1  0  0  0  0
 22 30  1  0  0  0  0
 22 31  1  0  0  0  0
 23 32  1  0  0  0  0
 23 33  1  0  0  0  0
 21 28  1  0  0  0  0
 21 29  1  0  0  0  0
 24 34  1  0  0  0  0
 24 35  1  0  0  0  0
 40 45  1  0  0  0  0
  8 13  1  0  0  0  0
 18 27  1  0  0  0  0
 49 51  1  0  0  0  0
  7 12  1  0  0  0  0
 39 44  1  0  0  0  0
 17 26  1  0  0  0  0
 25 36  1  0  0  0  0
 25 37  1  0  0  0  0
 25 38  1  0  0  0  0
M  CHG  1  25   1
M  END
$$$$

  -OEChem-05262214473D

 54 53  0     1  0  0  0  0  0999 V2000
    2.6714    2.8829   -3.0005 C   0  0  0  0  0  0  0  0  0  0  0  0
    3.1741    2.4398   -1.9745 O   0  0  0  0  0  0  0  0  0  0  0  0
    3.5527    3.3077   -4.1279 C   0  0  0  0  0  0  0  0  0  0  0  0
    3.8407    4.3691   -4.0597 H   0  0  0  0  0  0  0  0  0  0  0  0
    4.5024    2.7495   -4.1526 H   0  0  0  0  0  0  0  0  0  0  0  0
    3.1208    3.1887   -5.1345 H   0  0  0  0  0  0  0  0  0  0  0  0
    1.3174    3.0407   -3.2467 N   0  0  0  0  0  0  0  0  0  0  0  0
    0.2944    2.6927   -2.2960 C   0  0  2  0  0  0  0  0  0  0  0  0
    0.2976    1.1783   -2.1349 C   0  0  0  0  0  0  0  0  0  0  0  0
    0.7500    0.4142   -2.9850 O   0  0  0  0  0  0  0  0  0  0  0  0
   -1.0710    3.1886   -2.7460 C   0  0  0  0  0  0  0  0  0  0  0  0
    1.0312    3.4224   -4.1464 H   0  0  0  0  0  0  0  0  0  0  0  0
    0.5725    3.1622   -1.3461 H   0  0  0  0  0  0  0  0  0  0  0  0
   -1.3666    2.7292   -3.6963 H   0  0  0  0  0  0  0  0  0  0  0  0
   -1.8434    2.9482   -2.0082 H   0  0  0  0  0  0  0  0  0  0  0  0
   -1.0632    4.2744   -2.8901 H   0  0  0  0  0  0  0  0  0  0  0  0
   -0.3037    0.7742   -0.9484 N   0  0  0  0  0  0  0  0  0  0  0  0
   -0.4352   -0.6095   -0.5718 C   0  0  2  0  0  0  0  0  0  0  0  0
   -0.0415   -0.7602    0.8939 C   0  0  0  0  0  0  0  0  0  0  0  0
    1.0643   -0.4422    1.3270 O   0  0  0  0  0  0  0  0  0  0  0  0
    0.3601   -1.5345   -1.5006 C   0  0  0  0  0  0  0  0  0  0  0  0
   -0.1896   -1.6086   -2.9311 C   0  0  0  0  0  0  0  0  0  0  0  0
    0.6372   -2.5666   -3.7919 C   0  0  0  0  0  0  0  0  0  0  0  0
    0.1041   -2.6189   -5.2161 C   0  0  0  0  0  0  0  0  0  0  0  0
    0.9479   -3.5380   -6.0172 N   0  3  0  0  0  0  0  0  0  0  0  0
   -0.6336    1.4811   -0.2948 H   0  0  0  0  0  0  0  0  0  0  0  0
   -1.5027   -0.8445   -0.6615 H   0  0  0  0  0  0  0  0  0  0  0  0
    1.4007   -1.1870   -1.5392 H   0  0  0  0  0  0  0  0  0  0  0  0
    0.3818   -2.5461   -1.0767 H   0  0  0  0  0  0  0  0  0  0  0  0
   -1.2317   -1.9484   -2.9146 H   0  0  0  0  0  0  0  0  0  0  0  0
   -0.1796   -0.6125   -3.3887 H   0  0  0  0  0  0  0  0  0  0  0  0
    0.6146   -3.5704   -3.3495 H   0  0  0  0  0  0  0  0  0  0  0  0
    1.6852   -2.2423   -3.7991 H   0  0  0  0  0  0  0  0  0  0  0  0
   -0.9174   -3.0086   -5.2574 H   0  0  0  0  0  0  0  0  0  0  0  0
    0.1459   -1.6415   -5.7057 H   0  0  0  0  0  0  0  0  0  0  0  0
    0.8396   -3.3558   -7.0209 H   0  0  0  0  0  0  0  0  0  0  0  0
    0.6912   -4.5163   -5.8448 H   0  0  0  0  0  0  0  0  0  0  0  0
    1.9401   -3.4259   -5.7814 H   0  0  0  0  0  0  0  0  0  0  0  0
   -1.0786   -1.2598    1.6685 N   0  0  0  0  0  0  0  0  0  0  0  0
   -0.9440   -1.4717    3.0900 C   0  0  2  0  0  0  0  0  0  0  0  0
   -2.1261   -2.3122    3.5542 C   0  0  0  0  0  0  0  0  0  0  0  0
   -3.1863   -2.3781    2.9356 O   0  0  0  0  0  0  0  0  0  0  0  0
   -0.8864   -0.1518    3.8431 C   0  0  0  0  0  0  0  0  0  0  0  0
   -1.9620   -1.4839    1.2203 H   0  0  0  0  0  0  0  0  0  0  0  0
   -0.0151   -2.0328    3.2395 H   0  0  0  0  0  0  0  0  0  0  0  0
   -1.8086    0.4244    3.7052 H   0  0  0  0  0  0  0  0  0  0  0  0
   -0.7556   -0.3138    4.9182 H   0  0  0  0  0  0  0  0  0  0  0  0
   -0.0534    0.4640    3.4872 H   0  0  0  0  0  0  0  0  0  0  0  0
   -1.8734   -2.9458    4.7628 N   0  0  0  0  0  0  0  0  0  0  0  0
   -2.8441   -3.7911    5.4180 C   0  0  0  0  0  0  0  0  0  0  0  0
   -0.9594   -2.8501    5.1956 H   0  0  0  0  0  0  0  0  0  0  0  0
   -3.4333   -3.1917    6.1276 H   0  0  0  0  0  0  0  0  0  0  0  0
   -3.5144   -4.2312    4.6650 H   0  0  0  0  0  0  0  0  0  0  0  0
   -2.3240   -4.5944    5.9603 H   0  0  0  0  0  0  0  0  0  0  0  0
  1  3  1  0  0  0  0
  1  7  1  0  0  0  0
  1  2  2  0  0  0  0
 40 41  1  0  0  0  0
 41 49  1  0  0  0  0
 41 42  2  0  0  0  0
  8  9  1  0  0  0  0
  9 17  1  0  0  0  0
  9 10  2  0  0  0  0
 18 19  1  0  0  0  0
 19 39  1  0  0  0  0
 19 20  2  0  0  0  0
 40 43  1  0  0  0  0
  8 11  1  0  0  0  0
 49 50  1  0  0  0  0
 22 23  1  0  0  0  0
 21 22  1  0  0  0  0
 23 24  1  0  0  0  0
 18 21  1  0  0  0  0
 24 25  1  0  0  0  0
 39 40  1  0  0  0  0
  7  8  1  0  0  0  0
 17 18  1  0  0  0  0
  3  4  1  0  0  0  0
  3  5  1  0  0  0  0
  3  6  1  0  0  0  0
 43 46  1  0  0  0  0
 43 47  1  0  0  0  0
 43 48  1  0  0  0  0
 11 14  1  0  0  0  0
 11 15  1  0  0  0  0
 11 16  1  0  0  0  0
 50 52  1  0  0  0  0
 50 53  1  0  0  0  0
 50 54  1  0  0  0  0
 22 30  1  0  0  0  0
 22 31  1  0  0  0  0
 23 32  1  0  0  0  0
 23 33  1  0  0  0  0
 21 28  1  0  0  0  0
 21 29  1  0  0  0  0
 24 34  1  0  0  0  0
 24 35  1  0  0  0  0
 40 45  1  0  0  0  0
  8 13  1  0  0  0  0
 18 27  1  0  0  0  0
 49 51  1  0  0  0  0
  7 12  1  0  0  0  0
 39 44  1  0  0  0  0
 17 26  1  0  0  0  0
 25 36  1  0  0  0  0
 25 37  1  0  0  0  0
 25 38  1  0  0  0  0
M  CHG  1  25   1
M  END
$$$$

  -OEChem-05262214473D

 54 53  0     1  0  0  0  0  0999 V2000
    2.6714    2.8829   -3.0005 C   0  0  0  0  0  0  0  0  0  0  0  0
    3.1741    2.4398   -1.9745 O   0  0  0  0  0  0  0  0  0  0  0  0
    3.5527    3.3077   -4.1279 C   0  0  0  0  0  0  0  0  0  0  0  0
    3.8407    4.3691   -4.0597 H   0  0  0  0  0  0  0  0  0  0  0  0
    4.5024    2.7495   -4.1526 H   0  0  0  0  0  0  0  0  0  0  0  0
    3.1208    3.1887   -5.1345 H   0  0  0  0  0  0  0  0  0  0  0  0
    1.3174    3.0407   -3.2467 N   0  0  0  0  0  0  0  0  0  0  0  0
    0.2944    2.6927   -2.2960 C   0  0  2  0  0  0  0  0  0  0  0  0
    0.2976    1.1783   -2.1349 C   0  0  0  0  0  0  0  0  0  0  0  0
    0.7500    0.4142   -2.9850 O   0  0  0  0  0  0  0  0  0  0  0  0
   -1.0710    3.1886   -2.7460 C   0  0  0  0  0  0  0  0  0  0  0  0
    1.0312    3.4224   -4.1464 H   0  0  0  0  0  0  0  0  0  0  0  0
    0.5725    3.1622   -1.3461 H   0  0  0  0  0  0  0  0  0  0  0  0
   -1.3666    2.7292   -3.6963 H   0  0  0  0  0  0  0  0  0  0  0  0
   -1.8434    2.9482   -2.0082 H   0  0  0  0  0  0  0  0  0  0  0  0
   -1.0632    4.2744   -2.8901 H   0  0  0  0  0  0  0  0  0  0  0  0
   -0.3037    0.7742   -0.9484 N   0  0  0  0  0  0  0  0  0  0  0  0
   -0.4352   -0.6095   -0.5718 C   0  0  2  0  0  0  0  0  0  0  0  0
   -0.0415   -0.7602    0.8939 C   0  0  0  0  0  0  0  0  0  0  0  0
    0.9423   -0.2092    1.3838 O   0  0  0  0  0  0  0  0  0  0  0  0
    0.3601   -1.5345   -1.5006 C   0  0  0  0  0  0  0  0  0  0  0  0
   -0.1896   -1.6086   -2.9311 C   0  0  0  0  0  0  0  0  0  0  0  0
    0.6372   -2.5666   -3.7919 C   0  0  0  0  0  0  0  0  0  0  0  0
    0.1041   -2.6189   -5.2161 C   0  0  0  0  0  0  0  0  0  0  0  0
    0.9479   -3.5380   -6.0172 N   0  3  0  0  0  0  0  0  0  0  0  0
   -0.6336    1.4811   -0.2948 H   0  0  0  0  0  0  0  0  0  0  0  0
   -1.5027   -0.8445   -0.6615 H   0  0  0  0  0  0  0  0  0  0  0  0
    1.4007   -1.1870   -1.5392 H   0  0  0  0  0  0  0  0  0  0  0  0
    0.3818   -2.5461   -1.0767 H   0  0  0  0  0  0  0  0  0  0  0  0
   -1.2317   -1.9484   -2.9146 H   0  0  0  0  0  0  0  0  0  0  0  0
   -0.1796   -0.6125   -3.3887 H   0  0  0  0  0  0  0  0  0  0  0  0
    0.6146   -3.5704   -3.3495 H   0  0  0  0  0  0  0  0  0  0  0  0
    1.6852   -2.2423   -3.7991 H   0  0  0  0  0  0  0  0  0  0  0  0
   -0.9174   -3.0086   -5.2574 H   0  0  0  0  0  0  0  0  0  0  0  0
    0.1459   -1.6415   -5.7057 H   0  0  0  0  0  0  0  0  0  0  0  0
    0.8396   -3.3558   -7.0209 H   0  0  0  0  0  0  0  0  0  0  0  0
    0.6912   -4.5163   -5.8448 H   0  0  0  0  0  0  0  0  0  0  0  0
    1.9401   -3.4259   -5.7814 H   0  0  0  0  0  0  0  0  0  0  0  0
   -0.9341   -1.5542    1.5994 N   0  0  0  0  0  0  0  0  0  0  0  0
   -0.7753   -1.8252    3.0083 C   0  0  2  0  0  0  0  0  0  0  0  0
   -1.7180   -2.9629    3.3777 C   0  0  0  0  0  0  0  0  0  0  0  0
   -2.7174   -3.2461    2.7204 O   0  0  0  0  0  0  0  0  0  0  0  0
   -1.0619   -0.5883    3.8454 C   0  0  0  0  0  0  0  0  0  0  0  0
   -1.7259   -1.9584    1.1081 H   0  0  0  0  0  0  0  0  0  0  0  0
    0.2616   -2.1476    3.1534 H   0  0  0  0  0  0  0  0  0  0  0  0
   -2.0962   -0.2505    3.7131 H   0  0  0  0  0  0  0  0  0  0  0  0
   -0.9132   -0.7877    4.9118 H   0  0  0  0  0  0  0  0  0  0  0  0
   -0.4030    0.2381    3.5579 H   0  0  0  0  0  0  0  0  0  0  0  0
   -1.3358   -3.5971    4.5515 N   0  0  0  0  0  0  0  0  0  0  0  0
   -2.0759   -4.7003    5.1182 C   0  0  0  0  0  0  0  0  0  0  0  0
   -0.4822   -3.3084    5.0203 H   0  0  0  0  0  0  0  0  0  0  0  0
   -2.8082   -4.3169    5.8440 H   0  0  0  0  0  0  0  0  0  0  0  0
   -2.6021   -5.2391    4.3164 H   0  0  0  0  0  0  0  0  0  0  0  0
   -1.3811   -5.3857    5.6256 H   0  0  0  0  0  0  0  0  0  0  0  0
  1  3  1  0  0  0  0
  1  7  1  0  0  0  0
  1  2  2  0  0  0  0
 40 41  1  0  0  0  0
 41 49  1  0  0  0  0
 41 42  2  0  0  0  0
  8  9  1  0  0  0  0
  9 17  1  0  0  0  0
  9 10  2  0  0  0  0
 18 19  1  0  0  0  0
 19 39  1  0  0  0  0
 19 20  2  0  0  0  0
 40 43  1  0  0  0  0
  8 11  1  0  0  0  0
 49 50  1  0  0  0  0
 22 23  1  0  0  0  0
 21 22  1  0  0  0  0
 23 24  1  0  0  0  0
 18 21  1  0  0  0  0
 24 25  1  0  0  0  0
 39 40  1  0  0  0  0
  7  8  1  0  0  0  0
 17 18  1  0  0  0  0
  3  4  1  0  0  0  0
  3  5  1  0  0  0  0
  3  6  1  0  0  0  0
 43 46  1  0  0  0  0
 43 47  1  0  0  0  0
 43 48  1  0  0  0  0
 11 14  1  0  0  0  0
 11 15  1  0  0  0  0
 11 16  1  0  0  0  0
 50 52  1  0  0  0  0
 50 53  1  0  0  0  0
 50 54  1  0  0  0  0
 22 30  1  0  0  0  0
 22 31  1  0  0  0  0
 23 32  1  0  0  0  0
 23 33  1  0  0  0  0
 21 28  1  0  0  0  0
 21 29  1  0  0  0  0
 24 34  1  0  0  0  0
 24 35  1  0  0  0  0
 40 45  1  0  0  0  0
  8 13  1  0  0  0  0
 18 27  1  0  0  0  0
 49 51  1  0  0  0  0
  7 12  1  0  0  0  0
 39 44  1  0  0  0  0
 17 26  1  0  0  0  0
 25 36  1  0  0  0  0
 25 37  1  0  0  0  0
 25 38  1  0  0  0  0
M  CHG  1  25   1
M  END
$$$$

  -OEChem-05262214473D

 54 53  0     1  0  0  0  0  0999 V2000
    2.6714    2.8829   -3.0005 C   0  0  0  0  0  0  0  0  0  0  0  0
    3.1741    2.4398   -1.9745 O   0  0  0  0  0  0  0  0  0  0  0  0
    3.5527    3.3077   -4.1279 C   0  0  0  0  0  0  0  0  0  0  0  0
    3.8407    4.3691   -4.0597 H   0  0  0  0  0  0  0  0  0  0  0  0
    4.5024    2.7495   -4.1526 H   0  0  0  0  0  0  0  0  0  0  0  0
    3.1208    3.1887   -5.1345 H   0  0  0  0  0  0  0  0  0  0  0  0
    1.3174    3.0407   -3.2467 N   0  0  0  0  0  0  0  0  0  0  0  0
    0.2944    2.6927   -2.2960 C   0  0  2  0  0  0  0  0  0  0  0  0
    0.2976    1.1783   -2.1349 C   0  0  0  0  0  0  0  0  0  0  0  0
    0.7500    0.4142   -2.9850 O   0  0  0  0  0  0  0  0  0  0  0  0
   -1.0710    3.1886   -2.7460 C   0  0  0  0  0  0  0  0  0  0  0  0
    1.0312    3.4224   -4.1464 H   0  0  0  0  0  0  0  0  0  0  0  0
    0.5725    3.1622   -1.3461 H   0  0  0  0  0  0  0  0  0  0  0  0
   -1.3666    2.7292   -3.6963 H   0  0  0  0  0  0  0  0  0  0  0  0
   -1.8434    2.9482   -2.0082 H   0  0  0  0  0  0  0  0  0  0  0  0
   -1.0632    4.2744   -2.8901 H   0  0  0  0  0  0  0  0  0  0  0  0
   -0.3037    0.7742   -0.9484 N   0  0  0  0  0  0  0  0  0  0  0  0
   -0.4352   -0.6095   -0.5718 C   0  0  2  0  0  0  0  0  0  0  0  0
   -0.0415   -0.7602    0.8939 C   0  0  0  0  0  0  0  0  0  0  0  0
    0.7651   -0.0182    1.4510 O   0  0  0  0  0  0  0  0  0  0  0  0
    0.3601   -1.5345   -1.5006 C   0  0  0  0  0  0  0  0  0  0  0  0
   -0.1896   -1.6086   -2.9311 C   0  0  0  0  0  0  0  0  0  0  0  0
    0.6372   -2.5666   -3.7919 C   0  0  0  0  0  0  0  0  0  0  0  0
    0.1041   -2.6189   -5.2161 C   0  0  0  0  0  0  0  0  0  0  0  0
    0.9479   -3.5380   -6.0172 N   0  3  0  0  0  0  0  0  0  0  0  0
   -0.6336    1.4811   -0.2948 H   0  0  0  0  0  0  0  0  0  0  0  0
   -1.5027   -0.8445   -0.6615 H   0  0  0  0  0  0  0  0  0  0  0  0
    1.4007   -1.1870   -1.5392 H   0  0  0  0  0  0  0  0  0  0  0  0
    0.3818   -2.5461   -1.0767 H   0  0  0  0  0  0  0  0  0  0  0  0
   -1.2317   -1.9484   -2.9146 H   0  0  0  0  0  0  0  0  0  0  0  0
   -0.1796   -0.6125   -3.3887 H   0  0  0  0  0  0  0  0  0  0  0  0
    0.6146   -3.5704   -3.3495 H   0  0  0  0  0  0  0  0  0  0  0  0
    1.6852   -2.2423   -3.7991 H   0  0  0  0  0  0  0  0  0  0  0  0
   -0.9174   -3.0086   -5.2574 H   0  0  0  0  0  0  0  0  0  0  0  0
    0.1459   -1.6415   -5.7057 H   0  0  0  0  0  0  0  0  0  0  0  0
    0.8396   -3.3558   -7.0209 H   0  0  0  0  0  0  0  0  0  0  0  0
    0.6912   -4.5163   -5.8448 H   0  0  0  0  0  0  0  0  0  0  0  0
    1.9401   -3.4259   -5.7814 H   0  0  0  0  0  0  0  0  0  0  0  0
   -0.7196   -1.7981    1.5167 N   0  0  0  0  0  0  0  0  0  0  0  0
   -0.5223   -2.1192    2.9101 C   0  0  2  0  0  0  0  0  0  0  0  0
   -1.1574   -3.4781    3.1741 C   0  0  0  0  0  0  0  0  0  0  0  0
   -2.0431   -3.9534    2.4665 O   0  0  0  0  0  0  0  0  0  0  0  0
   -1.1229   -1.0538    3.8139 C   0  0  0  0  0  0  0  0  0  0  0  0
   -1.3769   -2.3505    0.9740 H   0  0  0  0  0  0  0  0  0  0  0  0
    0.5595   -2.1839    3.0697 H   0  0  0  0  0  0  0  0  0  0  0  0
   -2.2064   -0.9744    3.6682 H   0  0  0  0  0  0  0  0  0  0  0  0
   -0.9474   -1.2843    4.8699 H   0  0  0  0  0  0  0  0  0  0  0  0
   -0.6863   -0.0718    3.6021 H   0  0  0  0  0  0  0  0  0  0  0  0
   -0.6491   -4.0784    4.3175 N   0  0  0  0  0  0  0  0  0  0  0  0
   -1.1001   -5.3675    4.7875 C   0  0  0  0  0  0  0  0  0  0  0  0
    0.0972   -3.6207    4.8326 H   0  0  0  0  0  0  0  0  0  0  0  0
   -1.9172   -5.2294    5.5108 H   0  0  0  0  0  0  0  0  0  0  0  0
   -1.4613   -5.9623    3.9356 H   0  0  0  0  0  0  0  0  0  0  0  0
   -0.2650   -5.8931    5.2737 H   0  0  0  0  0  0  0  0  0  0  0  0
  1  3  1  0  0  0  0
  1  7  1  0  0  0  0
  1  2  2  0  0  0  0
 40 41  1  0  0  0  0
 41 49  1  0  0  0  0
 41 42  2  0  0  0  0
  8  9  1  0  0  0  0
  9 17  1  0  0  0  0
  9 10  2  0  0  0  0
 18 19  1  0  0  0  0
 19 39  1  0  0  0  0
 19 20  2  0  0  0  0
 40 43  1  0  0  0  0
  8 11  1  0  0  0  0
 49 50  1  0  0  0  0
 22 23  1  0  0  0  0
 21 22  1  0  0  0  0
 23 24  1  0  0  0  0
 18 21  1  0  0  0  0
 24 25  1  0  0  0  0
 39 40  1  0  0  0  0
  7  8  1  0  0  0  0
 17 18  1  0  0  0  0
  3  4  1  0  0  0  0
  3  5  1  0  0  0  0
  3  6  1  0  0  0  0
 43 46  1  0  0  0  0
 43 47  1  0  0  0  0
 43 48  1  0  0  0  0
 11 14  1  0  0  0  0
 11 15  1  0  0  0  0
 11 16  1  0  0  0  0
 50 52  1  0  0  0  0
 50 53  1  0  0  0  0
 50 54  1  0  0  0  0
 22 30  1  0  0  0  0
 22 31  1  0  0  0  0
 23 32  1  0  0  0  0
 23 33  1  0  0  0  0
 21 28  1  0  0  0  0
 21 29  1  0  0  0  0
 24 34  1  0  0  0  0
 24 35  1  0  0  0  0
 40 45  1  0  0  0  0
  8 13  1  0  0  0  0
 18 27  1  0  0  0  0
 49 51  1  0  0  0  0
  7 12  1  0  0  0  0
 39 44  1  0  0  0  0
 17 26  1  0  0  0  0
 25 36  1  0  0  0  0
 25 37  1  0  0  0  0
 25 38  1  0  0  0  0
M  CHG  1  25   1
M  END
$$$$

  -OEChem-05262214473D

 54 53  0     1  0  0  0  0  0999 V2000
    2.6714    2.8829   -3.0005 C   0  0  0  0  0  0  0  0  0  0  0  0
    3.1741    2.4398   -1.9745 O   0  0  0  0  0  0  0  0  0  0  0  0
    3.5527    3.3077   -4.1279 C   0  0  0  0  0  0  0  0  0  0  0  0
    3.8407    4.3691   -4.0597 H   0  0  0  0  0  0  0  0  0  0  0  0
    4.5024    2.7495   -4.1526 H   0  0  0  0  0  0  0  0  0  0  0  0
    3.1208    3.1887   -5.1345 H   0  0  0  0  0  0  0  0  0  0  0  0
    1.3174    3.0407   -3.2467 N   0  0  0  0  0  0  0  0  0  0  0  0
    0.2944    2.6927   -2.2960 C   0  0  2  0  0  0  0  0  0  0  0  0
    0.2976    1.1783   -2.1349 C   0  0  0  0  0  0  0  0  0  0  0  0
    0.7500    0.4142   -2.9850 O   0  0  0  0  0  0  0  0  0  0  0  0
   -1.0710    3.1886   -2.7460 C   0  0  0  0  0  0  0  0  0  0  0  0
    1.0312    3.4224   -4.1464 H   0  0  0  0  0  0  0  0  0  0  0  0
    0.5725    3.1622   -1.3461 H   0  0  0  0  0  0  0  0  0  0  0  0
   -1.3666    2.7292   -3.6963 H   0  0  0  0  0  0  0  0  0  0  0  0
   -1.8434    2.9482   -2.0082 H   0  0  0  0  0  0  0  0  0  0  0  0
   -1.0632    4.2744   -2.8901 H   0  0  0  0  0  0  0  0  0  0  0  0
   -0.3037    0.7742   -0.9484 N   0  0  0  0  0  0  0  0  0  0  0  0
   -0.4352   -0.6095   -0.5718 C   0  0  2  0  0  0  0  0  0  0  0  0
   -0.0415   -0.7602    0.8939 C   0  0  0  0  0  0  0  0  0  0  0  0
    0.5447    0.1177    1.5242 O   0  0  0  0  0  0  0  0  0  0  0  0
    0.3601   -1.5345   -1.5006 C   0  0  0  0  0  0  0  0  0  0  0  0
   -0.1896   -1.6086   -2.9311 C   0  0  0  0  0  0  0  0  0  0  0  0
    0.6372   -2.5666   -3.7919 C   0  0  0  0  0  0  0  0  0  0  0  0
    0.1041   -2.6189   -5.2161 C   0  0  0  0  0  0  0  0  0  0  0  0
    0.9479   -3.5380   -6.0172 N   0  3  0  0  0  0  0  0  0  0  0  0
   -0.6336    1.4811   -0.2948 H   0  0  0  0  0  0  0  0  0  0  0  0
   -1.5027   -0.8445   -0.6615 H   0  0  0  0  0  0  0  0  0  0  0  0
    1.4007   -1.1870   -1.5392 H   0  0  0  0  0  0  0  0  0  0  0  0
    0.3818   -2.5461   -1.0767 H   0  0  0  0  0  0  0  0  0  0  0  0
   -1.2317   -1.9484   -2.9146 H   0  0  0  0  0  0  0  0  0  0  0  0
   -0.1796   -0.6125   -3.3887 H   0  0  0  0  0  0  0  0  0  0  0  0
    0.6146   -3.5704   -3.3495 H   0  0  0  0  0  0  0  0  0  0  0  0
    1.6852   -2.2423   -3.7991 H   0  0  0  0  0  0  0  0  0  0  0  0
   -0.9174   -3.0086   -5.2574 H   0  0  0  0  0  0  0  0  0  0  0  0
    0.1459   -1.6415   -5.7057 H   0  0  0  0  0  0  0  0  0  0  0  0
    0.8396   -3.3558   -7.0209 H   0  0  0  0  0  0  0  0  0  0  0  0
    0.6912   -4.5163   -5.8448 H   0  0  0  0  0  0  0  0  0  0  0  0
    1.9401   -3.4259   -5.7814 H   0  0  0  0  0  0  0  0  0  0  0  0
   -0.4497   -1.9748    1.4260 N   0  0  0  0  0  0  0  0  0  0  0  0
   -0.2023   -2.3338    2.8021 C   0  0  2  0  0  0  0  0  0  0  0  0
   -0.4826   -3.8227    2.9574 C   0  0  0  0  0  0  0  0  0  0  0  0
   -1.2094   -4.4519    2.1913 O   0  0  0  0  0  0  0  0  0  0  0  0
   -1.0652   -1.5164    3.7509 C   0  0  0  0  0  0  0  0  0  0  0  0
   -0.9388   -2.6334    0.8273 H   0  0  0  0  0  0  0  0  0  0  0  0
    0.8585   -2.1393    2.9939 H   0  0  0  0  0  0  0  0  0  0  0  0
   -2.1315   -1.6981    3.5737 H   0  0  0  0  0  0  0  0  0  0  0  0
   -0.8559   -1.7696    4.7954 H   0  0  0  0  0  0  0  0  0  0  0  0
   -0.8840   -0.4445    3.6169 H   0  0  0  0  0  0  0  0  0  0  0  0
    0.1398   -4.3569    4.0770 N   0  0  0  0  0  0  0  0  0  0  0  0
    0.0169   -5.7472    4.4484 C   0  0  0  0  0  0  0  0  0  0  0  0
    0.7393   -3.7657    4.6452 H   0  0  0  0  0  0  0  0  0  0  0  0
   -0.8210   -5.8669    5.1509 H   0  0  0  0  0  0  0  0  0  0  0  0
   -0.1698   -6.3518    3.5486 H   0  0  0  0  0  0  0  0  0  0  0  0
    0.9483   -6.0820    4.9284 H   0  0  0  0  0  0  0  0  0  0  0  0
  1  3  1  0  0  0  0
  1  7  1  0  0  0  0
  1  2  2  0  0  0  0
 40 41  1  0  0  0  0
 41 49  1  0  0  0  0
 41 42  2  0  0  0  0
  8  9  1  0  0  0  0
  9 17  1  0  0  0  0
  9 10  2  0  0  0  0
 18 19  1  0  0  0  0
 19 39  1  0  0  0  0
 19 20  2  0  0  0  0
 40 43  1  0  0  0  0
  8 11  1  0  0  0  0
 49 50  1  0  0  0  0
 22 23  1  0  0  0  0
 21 22  1  0  0  0  0
 23 24  1  0  0  0  0
 18 21  1  0  0  0  0
 24 25  1  0  0  0  0
 39 40  1  0  0  0  0
  7  8  1  0  0  0  0
 17 18  1  0  0  0  0
  3  4  1  0  0  0  0
  3  5  1  0  0  0  0
  3  6  1  0  0  0  0
 43 46  1  0  0  0  0
 43 47  1  0  0  0  0
 43 48  1  0  0  0  0
 11 14  1  0  0  0  0
 11 15  1  0  0  0  0
 11 16  1  0  0  0  0
 50 52  1  0  0  0  0
 50 53  1  0  0  0  0
 50 54  1  0  0  0  0
 22 30  1  0  0  0  0
 22 31  1  0  0  0  0
 23 32  1  0  0  0  0
 23 33  1  0  0  0  0
 21 28  1  0  0  0  0
 21 29  1  0  0  0  0
 24 34  1  0  0  0  0
 24 35  1  0  0  0  0
 40 45  1  0  0  0  0
  8 13  1  0  0  0  0
 18 27  1  0  0  0  0
 49 51  1  0  0  0  0
  7 12  1  0  0  0  0
 39 44  1  0  0  0  0
 17 26  1  0  0  0  0
 25 36  1  0  0  0  0
 25 37  1  0  0  0  0
 25 38  1  0  0  0  0
M  CHG  1  25   1
M  END
$$$$

  -OEChem-05262214473D

 54 53  0     1  0  0  0  0  0999 V2000
    2.6714    2.8829   -3.0005 C   0  0  0  0  0  0  0  0  0  0  0  0
    3.1741    2.4398   -1.9745 O   0  0  0  0  0  0  0  0  0  0  0  0
    3.5527    3.3077   -4.1279 C   0  0  0  0  0  0  0  0  0  0  0  0
    3.8407    4.3691   -4.0597 H   0  0  0  0  0  0  0  0  0  0  0  0
    4.5024    2.7495   -4.1526 H   0  0  0  0  0  0  0  0  0  0  0  0
    3.1208    3.1887   -5.1345 H   0  0  0  0  0  0  0  0  0  0  0  0
    1.3174    3.0407   -3.2467 N   0  0  0  0  0  0  0  0  0  0  0  0
    0.2944    2.6927   -2.2960 C   0  0  2  0  0  0  0  0  0  0  0  0
    0.2976    1.1783   -2.1349 C   0  0  0  0  0  0  0  0  0  0  0  0
    0.7500    0.4142   -2.9850 O   0  0  0  0  0  0  0  0  0  0  0  0
   -1.0710    3.1886   -2.7460 C   0  0  0  0  0  0  0  0  0  0  0  0
    1.0312    3.4224   -4.1464 H   0  0  0  0  0  0  0  0  0  0  0  0
    0.5725    3.1622   -1.3461 H   0  0  0  0  0  0  0  0  0  0  0  0
   -1.3666    2.7292   -3.6963 H   0  0  0  0  0  0  0  0  0  0  0  0
   -1.8434    2.9482   -2.0082 H   0  0  0  0  0  0  0  0  0  0  0  0
   -1.0632    4.2744   -2.8901 H   0  0  0  0  0  0  0  0  0  0  0  0
   -0.3037    0.7742   -0.9484 N   0  0  0  0  0  0  0  0  0  0  0  0
   -0.4352   -0.6095   -0.5718 C   0  0  2  0  0  0  0  0  0  0  0  0
   -0.4108   -0.7099    0.9498 C   0  0  0  0  0  0  0  0  0  0  0  0
   -0.3217    0.2715    1.6850 O   0  0  0  0  0  0  0  0  0  0  0  0
    0.6248   -1.4899   -1.2442 C   0  0  0  0  0  0  0  0  0  0  0  0
    0.4553   -1.6243   -2.7632 C   0  0  0  0  0  0  0  0  0  0  0  0
    1.5309   -2.5343   -3.3608 C   0  0  0  0  0  0  0  0  0  0  0  0
    1.3746   -2.6456   -4.8702 C   0  0  0  0  0  0  0  0  0  0  0  0
    2.4492   -3.5147   -5.4072 N   0  3  0  0  0  0  0  0  0  0  0  0
   -0.6336    1.4811   -0.2948 H   0  0  0  0  0  0  0  0  0  0  0  0
   -1.4291   -0.9207   -0.9157 H   0  0  0  0  0  0  0  0  0  0  0  0
    1.6174   -1.0704   -1.0348 H   0  0  0  0  0  0  0  0  0  0  0  0
    0.6054   -2.4909   -0.7957 H   0  0  0  0  0  0  0  0  0  0  0  0
   -0.5337   -2.0365   -2.9945 H   0  0  0  0  0  0  0  0  0  0  0  0
    0.5148   -0.6369   -3.2358 H   0  0  0  0  0  0  0  0  0  0  0  0
    1.4637   -3.5304   -2.9057 H   0  0  0  0  0  0  0  0  0  0  0  0
    2.5244   -2.1369   -3.1184 H   0  0  0  0  0  0  0  0  0  0  0  0
    0.4232   -3.1071   -5.1509 H   0  0  0  0  0  0  0  0  0  0  0  0
    1.4739   -1.6752   -5.3655 H   0  0  0  0  0  0  0  0  0  0  0  0
    2.5833   -3.3558   -6.4118 H   0  0  0  0  0  0  0  0  0  0  0  0
    2.2215   -4.5061   -5.2724 H   0  0  0  0  0  0  0  0  0  0  0  0
    3.3418   -3.3292   -4.9365 H   0  0  0  0  0  0  0  0  0  0  0  0
   -0.5333   -2.0190    1.3927 N   0  0  0  0  0  0  0  0  0  0  0  0
   -0.5523   -2.3579    2.7957 C   0  0  2  0  0  0  0  0  0  0  0  0
   -0.3723   -3.8652    2.9180 C   0  0  0  0  0  0  0  0  0  0  0  0
   -0.6335   -4.6480    2.0068 O   0  0  0  0  0  0  0  0  0  0  0  0
   -1.8470   -1.9097    3.4557 C   0  0  0  0  0  0  0  0  0  0  0  0
   -0.6123   -2.7639    0.7067 H   0  0  0  0  0  0  0  0  0  0  0  0
    0.3019   -1.8490    3.2556 H   0  0  0  0  0  0  0  0  0  0  0  0
   -2.7141   -2.4090    3.0082 H   0  0  0  0  0  0  0  0  0  0  0  0
   -1.8479   -2.1419    4.5258 H   0  0  0  0  0  0  0  0  0  0  0  0
   -1.9895   -0.8298    3.3410 H   0  0  0  0  0  0  0  0  0  0  0  0
    0.0733   -4.2371    4.1786 N   0  0  0  0  0  0  0  0  0  0  0  0
    0.3087   -5.6135    4.5477 C   0  0  0  0  0  0  0  0  0  0  0  0
    0.2823   -3.5196    4.8665 H   0  0  0  0  0  0  0  0  0  0  0  0
   -0.5996   -6.0311    5.0065 H   0  0  0  0  0  0  0  0  0  0  0  0
    0.5665   -6.1947    3.6501 H   0  0  0  0  0  0  0  0  0  0  0  0
    1.1389   -5.6630    5.2676 H   0  0  0  0  0  0  0  0  0  0  0  0
  1  3  1  0  0  0  0
  1  7  1  0  0  0  0
  1  2  2  0  0  0  0
 40 41  1  0  0  0  0
 41 49  1  0  0  0  0
 41 42  2  0  0  0  0
  8  9  1  0  0  0  0
  9 17  1  0  0  0  0
  9 10  2  0  0  0  0
 18 19  1  0  0  0  0
 19 39  1  0  0  0  0
 19 20  2  0  0  0  0
 40 43  1  0  0  0  0
  8 11  1  0  0  0  0
 49 50  1  0  0  0  0
 22 23  1  0  0  0  0
 21 22  1  0  0  0  0
 23 24  1  0  0  0  0
 18 21  1  0  0  0  0
 24 25  1  0  0  0  0
 39 40  1  0  0  0  0
  7  8  1  0  0  0  0
 17 18  1  0  0  0  0
  3  4  1  0  0  0  0
  3  5  1  0  0  0  0
  3  6  1  0  0  0  0
 43 46  1  0  0  0  0
 43 47  1  0  0  0  0
 43 48  1  0  0  0  0
 11 14  1  0  0  0  0
 11 15  1  0  0  0  0
 11 16  1  0  0  0  0
 50 52  1  0  0  0  0
 50 53  1  0  0  0  0
 50 54  1  0  0  0  0
 22 30  1  0  0  0  0
 22 31  1  0  0  0  0
 23 32  1  0  0  0  0
 23 33  1  0  0  0  0
 21 28  1  0  0  0  0
 21 29  1  0  0  0  0
 24 34  1  0  0  0  0
 24 35  1  0  0  0  0
 40 45  1  0  0  0  0
  8 13  1  0  0  0  0
 18 27  1  0  0  0  0
 49 51  1  0  0  0  0
  7 12  1  0  0  0  0
 39 44  1  0  0  0  0
 17 26  1  0  0  0  0
 25 36  1  0  0  0  0
 25 37  1  0  0  0  0
 25 38  1  0  0  0  0
M  CHG  1  25   1
M  END
$$$$

  -OEChem-05262214473D

 54 53  0     1  0  0  0  0  0999 V2000
    2.6714    2.8829   -3.0005 C   0  0  0  0  0  0  0  0  0  0  0  0
    3.1741    2.4398   -1.9745 O   0  0  0  0  0  0  0  0  0  0  0  0
    3.5527    3.3077   -4.1279 C   0  0  0  0  0  0  0  0  0  0  0  0
    3.8407    4.3691   -4.0597 H   0  0  0  0  0  0  0  0  0  0  0  0
    4.5024    2.7495   -4.1526 H   0  0  0  0  0  0  0  0  0  0  0  0
    3.1208    3.1887   -5.1345 H   0  0  0  0  0  0  0  0  0  0  0  0
    1.3174    3.0407   -3.2467 N   0  0  0  0  0  0  0  0  0  0  0  0
    0.2944    2.6927   -2.2960 C   0  0  2  0  0  0  0  0  0  0  0  0
    0.2976    1.1783   -2.1349 C   0  0  0  0  0  0  0  0  0  0  0  0
    0.7500    0.4142   -2.9850 O   0  0  0  0  0  0  0  0  0  0  0  0
   -1.0710    3.1886   -2.7460 C   0  0  0  0  0  0  0  0  0  0  0  0
    1.0312    3.4224   -4.1464 H   0  0  0  0  0  0  0  0  0  0  0  0
    0.5725    3.1622   -1.3461 H   0  0  0  0  0  0  0  0  0  0  0  0
   -1.3666    2.7292   -3.6963 H   0  0  0  0  0  0  0  0  0  0  0  0
   -1.8434    2.9482   -2.0082 H   0  0  0  0  0  0  0  0  0  0  0  0
   -1.0632    4.2744   -2.8901 H   0  0  0  0  0  0  0  0  0  0  0  0
   -0.3037    0.7742   -0.9484 N   0  0  0  0  0  0  0  0  0  0  0  0
   -0.4352   -0.6095   -0.5718 C   0  0  2  0  0  0  0  0  0  0  0  0
   -0.4108   -0.7099    0.9498 C   0  0  0  0  0  0  0  0  0  0  0  0
   -0.5903    0.2566    1.6883 O   0  0  0  0  0  0  0  0  0  0  0  0
    0.6248   -1.4899   -1.2442 C   0  0  0  0  0  0  0  0  0  0  0  0
    0.4553   -1.6243   -2.7632 C   0  0  0  0  0  0  0  0  0  0  0  0
    1.5309   -2.5343   -3.3608 C   0  0  0  0  0  0  0  0  0  0  0  0
    1.3746   -2.6456   -4.8702 C   0  0  0  0  0  0  0  0  0  0  0  0
    2.4492   -3.5147   -5.4072 N   0  3  0  0  0  0  0  0  0  0  0  0
   -0.6336    1.4811   -0.2948 H   0  0  0  0  0  0  0  0  0  0  0  0
   -1.4291   -0.9207   -0.9157 H   0  0  0  0  0  0  0  0  0  0  0  0
    1.6174   -1.0704   -1.0348 H   0  0  0  0  0  0  0  0  0  0  0  0
    0.6054   -2.4909   -0.7957 H   0  0  0  0  0  0  0  0  0  0  0  0
   -0.5337   -2.0365   -2.9945 H   0  0  0  0  0  0  0  0  0  0  0  0
    0.5148   -0.6369   -3.2358 H   0  0  0  0  0  0  0  0  0  0  0  0
    1.4637   -3.5304   -2.9057 H   0  0  0  0  0  0  0  0  0  0  0  0
    2.5244   -2.1369   -3.1184 H   0  0  0  0  0  0  0  0  0  0  0  0
    0.4232   -3.1071   -5.1509 H   0  0  0  0  0  0  0  0  0  0  0  0
    1.4739   -1.6752   -5.3655 H   0  0  0  0  0  0  0  0  0  0  0  0
    2.5833   -3.3558   -6.4118 H   0  0  0  0  0  0  0  0  0  0  0  0
    2.2215   -4.5061   -5.2724 H   0  0  0  0  0  0  0  0  0  0  0  0
    3.3418   -3.3292   -4.9365 H   0  0  0  0  0  0  0  0  0  0  0  0
   -0.1983   -2.0090    1.3880 N   0  0  0  0  0  0  0  0  0  0  0  0
   -0.1523   -2.3503    2.7898 C   0  0  2  0  0  0  0  0  0  0  0  0
    0.4088   -3.7608    2.9123 C   0  0  0  0  0  0  0  0  0  0  0  0
    0.3738   -4.5787    1.9953 O   0  0  0  0  0  0  0  0  0  0  0  0
   -1.5295   -2.2558    3.4278 C   0  0  0  0  0  0  0  0  0  0  0  0
   -0.0709   -2.7446    0.6993 H   0  0  0  0  0  0  0  0  0  0  0  0
    0.5338   -1.6411    3.2656 H   0  0  0  0  0  0  0  0  0  0  0  0
   -2.2308   -2.9592    2.9641 H   0  0  0  0  0  0  0  0  0  0  0  0
   -1.4881   -2.4872    4.4973 H   0  0  0  0  0  0  0  0  0  0  0  0
   -1.9442   -1.2486    3.3126 H   0  0  0  0  0  0  0  0  0  0  0  0
    0.9145   -4.0131    4.1799 N   0  0  0  0  0  0  0  0  0  0  0  0
    1.4913   -5.2843    4.5505 C   0  0  0  0  0  0  0  0  0  0  0  0
    0.9197   -3.2703    4.8727 H   0  0  0  0  0  0  0  0  0  0  0  0
    0.7142   -5.9253    4.9924 H   0  0  0  0  0  0  0  0  0  0  0  0
    1.9052   -5.7735    3.6564 H   0  0  0  0  0  0  0  0  0  0  0  0
    2.2942   -5.1224    5.2847 H   0  0  0  0  0  0  0  0  0  0  0  0
  1  3  1  0  0  0  0
  1  7  1  0  0  0  0
  1  2  2  0  0  0  0
 40 41  1  0  0  0  0
 41 49  1  0  0  0  0
 41 42  2  0  0  0  0
  8  9  1  0  0  0  0
  9 17  1  0  0  0  0
  9 10  2  0  0  0  0
 18 19  1  0  0  0  0
 19 39  1  0  0  0  0
 19 20  2  0  0  0  0
 40 43  1  0  0  0  0
  8 11  1  0  0  0  0
 49 50  1  0  0  0  0
 22 23  1  0  0  0  0
 21 22  1  0  0  0  0
 23 24  1  0  0  0  0
 18 21  1  0  0  0  0
 24 25  1  0  0  0  0
 39 40  1  0  0  0  0
  7  8  1  0  0  0  0
 17 18  1  0  0  0  0
  3  4  1  0  0  0  0
  3  5  1  0  0  0  0
  3  6  1  0  0  0  0
 43 46  1  0  0  0  0
 43 47  1  0  0  0  0
 43 48  1  0  0  0  0
 11 14  1  0  0  0  0
 11 15  1  0  0  0  0
 11 16  1  0  0  0  0
 50 52  1  0  0  0  0
 50 53  1  0  0  0  0
 50 54  1  0  0  0  0
 22 30  1  0  0  0  0
 22 31  1  0  0  0  0
 23 32  1  0  0  0  0
 23 33  1  0  0  0  0
 21 28  1  0  0  0  0
 21 29  1  0  0  0  0
 24 34  1  0  0  0  0
 24 35  1  0  0  0  0
 40 45  1  0  0  0  0
  8 13  1  0  0  0  0
 18 27  1  0  0  0  0
 49 51  1  0  0  0  0
  7 12  1  0  0  0  0
 39 44  1  0  0  0  0
 17 26  1  0  0  0  0
 25 36  1  0  0  0  0
 25 37  1  0  0  0  0
 25 38  1  0  0  0  0
M  CHG  1  25   1
M  END
$$$$

  -OEChem-05262214473D

 54 53  0     1  0  0  0  0  0999 V2000
    2.6714    2.8829   -3.0005 C   0  0  0  0  0  0  0  0  0  0  0  0
    3.1741    2.4398   -1.9745 O   0  0  0  0  0  0  0  0  0  0  0  0
    3.5527    3.3077   -4.1279 C   0  0  0  0  0  0  0  0  0  0  0  0
    3.8407    4.3691   -4.0597 H   0  0  0  0  0  0  0  0  0  0  0  0
    4.5024    2.7495   -4.1526 H   0  0  0  0  0  0  0  0  0  0  0  0
    3.1208    3.1887   -5.1345 H   0  0  0  0  0  0  0  0  0  0  0  0
    1.3174    3.0407   -3.2467 N   0  0  0  0  0  0  0  0  0  0  0  0
    0.2944    2.6927   -2.2960 C   0  0  2  0  0  0  0  0  0  0  0  0
    0.2976    1.1783   -2.1349 C   0  0  0  0  0  0  0  0  0  0  0  0
    0.7500    0.4142   -2.9850 O   0  0  0  0  0  0  0  0  0  0  0  0
   -1.0710    3.1886   -2.7460 C   0  0  0  0  0  0  0  0  0  0  0  0
    1.0312    3.4224   -4.1464 H   0  0  0  0  0  0  0  0  0  0  0  0
    0.5725    3.1622   -1.3461 H   0  0  0  0  0  0  0  0  0  0  0  0
   -1.3666    2.7292   -3.6963 H   0  0  0  0  0  0  0  0  0  0  0  0
   -1.8434    2.9482   -2.0082 H   0  0  0  0  0  0  0  0  0  0  0  0
   -1.0632    4.2744   -2.8901 H   0  0  0  0  0  0  0  0  0  0  0  0
   -0.3037    0.7742   -0.9484 N   0  0  0  0  0  0  0  0  0  0  0  0
   -0.4352   -0.6095   -0.5718 C   0  0  2  0  0  0  0  0  0  0  0  0
   -0.4108   -0.7099    0.9498 C   0  0  0  0  0  0  0  0  0  0  0  0
   -0.8459    0.1727    1.6868 O   0  0  0  0  0  0  0  0  0  0  0  0
    0.6248   -1.4899   -1.2442 C   0  0  0  0  0  0  0  0  0  0  0  0
    0.4553   -1.6243   -2.7632 C   0  0  0  0  0  0  0  0  0  0  0  0
    1.5309   -2.5343   -3.3608 C   0  0  0  0  0  0  0  0  0  0  0  0
    1.3746   -2.6456   -4.8702 C   0  0  0  0  0  0  0  0  0  0  0  0
    2.4492   -3.5147   -5.4072 N   0  3  0  0  0  0  0  0  0  0  0  0
   -0.6336    1.4811   -0.2948 H   0  0  0  0  0  0  0  0  0  0  0  0
   -1.4291   -0.9207   -0.9157 H   0  0  0  0  0  0  0  0  0  0  0  0
    1.6174   -1.0704   -1.0348 H   0  0  0  0  0  0  0  0  0  0  0  0
    0.6054   -2.4909   -0.7957 H   0  0  0  0  0  0  0  0  0  0  0  0
   -0.5337   -2.0365   -2.9945 H   0  0  0  0  0  0  0  0  0  0  0  0
    0.5148   -0.6369   -3.2358 H   0  0  0  0  0  0  0  0  0  0  0  0
    1.4637   -3.5304   -2.9057 H   0  0  0  0  0  0  0  0  0  0  0  0
    2.5244   -2.1369   -3.1184 H   0  0  0  0  0  0  0  0  0  0  0  0
    0.4232   -3.1071   -5.1509 H   0  0  0  0  0  0  0  0  0  0  0  0
    1.4739   -1.6752   -5.3655 H   0  0  0  0  0  0  0  0  0  0  0  0
    2.5833   -3.3558   -6.4118 H   0  0  0  0  0  0  0  0  0  0  0  0
    2.2215   -4.5061   -5.2724 H   0  0  0  0  0  0  0  0  0  0  0  0
    3.3418   -3.3292   -4.9365 H   0  0  0  0  0  0  0  0  0  0  0  0
    0.1227   -1.9129    1.3892 N   0  0  0  0  0  0  0  0  0  0  0  0
    0.2322   -2.2396    2.7909 C   0  0  2  0  0  0  0  0  0  0  0  0
    1.1365   -3.4582    2.9206 C   0  0  0  0  0  0  0  0  0  0  0  0
    1.3289   -4.2515    2.0015 O   0  0  0  0  0  0  0  0  0  0  0  0
   -1.1330   -2.5080    3.4048 C   0  0  0  0  0  0  0  0  0  0  0  0
    0.4471   -2.5863    0.7014 H   0  0  0  0  0  0  0  0  0  0  0  0
    0.7039   -1.3804    3.2800 H   0  0  0  0  0  0  0  0  0  0  0  0
   -1.6211   -3.3656    2.9275 H   0  0  0  0  0  0  0  0  0  0  0  0
   -1.0509   -2.7277    4.4744 H   0  0  0  0  0  0  0  0  0  0  0  0
   -1.7918   -1.6413    3.2843 H   0  0  0  0  0  0  0  0  0  0  0  0
    1.6691   -3.5794    4.1964 N   0  0  0  0  0  0  0  0  0  0  0  0
    2.5485   -4.6610    4.5746 C   0  0  0  0  0  0  0  0  0  0  0  0
    1.4710   -2.8649    4.8906 H   0  0  0  0  0  0  0  0  0  0  0  0
    1.9561   -5.4837    5.0016 H   0  0  0  0  0  0  0  0  0  0  0  0
    3.0894   -5.0210    3.6871 H   0  0  0  0  0  0  0  0  0  0  0  0
    3.2701   -4.3020    5.3232 H   0  0  0  0  0  0  0  0  0  0  0  0
  1  3  1  0  0  0  0
  1  7  1  0  0  0  0
  1  2  2  0  0  0  0
 40 41  1  0  0  0  0
 41 49  1  0  0  0  0
 41 42  2  0  0  0  0
  8  9  1  0  0  0  0
  9 17  1  0  0  0  0
  9 10  2  0  0  0  0
 18 19  1  0  0  0  0
 19 39  1  0  0  0  0
 19 20  2  0  0  0  0
 40 43  1  0  0  0  0
  8 11  1  0  0  0  0
 49 50  1  0  0  0  0
 22 23  1  0  0  0  0
 21 22  1  0  0  0  0
 23 24  1  0  0  0  0
 18 21  1  0  0  0  0
 24 25  1  0  0  0  0
 39 40  1  0  0  0  0
  7  8  1  0  0  0  0
 17 18  1  0  0  0  0
  3  4  1  0  0  0  0
  3  5  1  0  0  0  0
  3  6  1  0  0  0  0
 43 46  1  0  0  0  0
 43 47  1  0  0  0  0
 43 48  1  0  0  0  0
 11 14  1  0  0  0  0
 11 15  1  0  0  0  0
 11 16  1  0  0  0  0
 50 52  1  0  0  0  0
 50 53  1  0  0  0  0
 50 54  1  0  0  0  0
 22 30  1  0  0  0  0
 22 31  1  0  0  0  0
 23 32  1  0  0  0  0
 23 33  1  0  0  0  0
 21 28  1  0  0  0  0
 21 29  1  0  0  0  0
 24 34  1  0  0  0  0
 24 35  1  0  0  0  0
 40 45  1  0  0  0  0
  8 13  1  0  0  0  0
 18 27  1  0  0  0  0
 49 51  1  0  0  0  0
  7 12  1  0  0  0  0
 39 44  1  0  0  0  0
 17 26  1  0  0  0  0
 25 36  1  0  0  0  0
 25 37  1  0  0  0  0
 25 38  1  0  0  0  0
M  CHG  1  25   1
M  END
$$$$

  -OEChem-05262214473D

 54 53  0     1  0  0  0  0  0999 V2000
    2.6714    2.8829   -3.0005 C   0  0  0  0  0  0  0  0  0  0  0  0
    3.1741    2.4398   -1.9745 O   0  0  0  0  0  0  0  0  0  0  0  0
    3.5527    3.3077   -4.1279 C   0  0  0  0  0  0  0  0  0  0  0  0
    3.8407    4.3691   -4.0597 H   0  0  0  0  0  0  0  0  0  0  0  0
    4.5024    2.7495   -4.1526 H   0  0  0  0  0  0  0  0  0  0  0  0
    3.1208    3.1887   -5.1345 H   0  0  0  0  0  0  0  0  0  0  0  0
    1.3174    3.0407   -3.2467 N   0  0  0  0  0  0  0  0  0  0  0  0
    0.2944    2.6927   -2.2960 C   0  0  2  0  0  0  0  0  0  0  0  0
    0.2976    1.1783   -2.1349 C   0  0  0  0  0  0  0  0  0  0  0  0
    0.7500    0.4142   -2.9850 O   0  0  0  0  0  0  0  0  0  0  0  0
   -1.0710    3.1886   -2.7460 C   0  0  0  0  0  0  0  0  0  0  0  0
    1.0312    3.4224   -4.1464 H   0  0  0  0  0  0  0  0  0  0  0  0
    0.5725    3.1622   -1.3461 H   0  0  0  0  0  0  0  0  0  0  0  0
   -1.3666    2.7292   -3.6963 H   0  0  0  0  0  0  0  0  0  0  0  0
   -1.8434    2.9482   -2.0082 H   0  0  0  0  0  0  0  0  0  0  0  0
   -1.0632    4.2744   -2.8901 H   0  0  0  0  0  0  0  0  0  0  0  0
   -0.3037    0.7742   -0.9484 N   0  0  0  0  0  0  0  0  0  0  0  0
   -0.4352   -0.6095   -0.5718 C   0  0  2  0  0  0  0  0  0  0  0  0
   -0.4108   -0.7099    0.9498 C   0  0  0  0  0  0  0  0  0  0  0  0
   -1.0712    0.0257    1.6808 O   0  0  0  0  0  0  0  0  0  0  0  0
    0.6248   -1.4899   -1.2442 C   0  0  0  0  0  0  0  0  0  0  0  0
    0.4553   -1.6243   -2.7632 C   0  0  0  0  0  0  0  0  0  0  0  0
    1.5309   -2.5343   -3.3608 C   0  0  0  0  0  0  0  0  0  0  0  0
    1.3746   -2.6456   -4.8702 C   0  0  0  0  0  0  0  0  0  0  0  0
    2.4492   -3.5147   -5.4072 N   0  3  0  0  0  0  0  0  0  0  0  0
   -0.6336    1.4811   -0.2948 H   0  0  0  0  0  0  0  0  0  0  0  0
   -1.4291   -0.9207   -0.9157 H   0  0  0  0  0  0  0  0  0  0  0  0
    1.6174   -1.0704   -1.0348 H   0  0  0  0  0  0  0  0  0  0  0  0
    0.6054   -2.4909   -0.7957 H   0  0  0  0  0  0  0  0  0  0  0  0
   -0.5337   -2.0365   -2.9945 H   0  0  0  0  0  0  0  0  0  0  0  0
    0.5148   -0.6369   -3.2358 H   0  0  0  0  0  0  0  0  0  0  0  0
    1.4637   -3.5304   -2.9057 H   0  0  0  0  0  0  0  0  0  0  0  0
    2.5244   -2.1369   -3.1184 H   0  0  0  0  0  0  0  0  0  0  0  0
    0.4232   -3.1071   -5.1509 H   0  0  0  0  0  0  0  0  0  0  0  0
    1.4739   -1.6752   -5.3655 H   0  0  0  0  0  0  0  0  0  0  0  0
    2.5833   -3.3558   -6.4118 H   0  0  0  0  0  0  0  0  0  0  0  0
    2.2215   -4.5061   -5.2724 H   0  0  0  0  0  0  0  0  0  0  0  0
    3.3418   -3.3292   -4.9365 H   0  0  0  0  0  0  0  0  0  0  0  0
    0.4080   -1.7371    1.3962 N   0  0  0  0  0  0  0  0  0  0  0  0
    0.5750   -2.0334    2.7990 C   0  0  2  0  0  0  0  0  0  0  0  0
    1.7610   -2.9781    2.9423 C   0  0  0  0  0  0  0  0  0  0  0  0
    2.1670   -3.6889    2.0252 O   0  0  0  0  0  0  0  0  0  0  0  0
   -0.6845   -2.6492    3.3883 C   0  0  0  0  0  0  0  0  0  0  0  0
    0.9066   -2.2995    0.7130 H   0  0  0  0  0  0  0  0  0  0  0  0
    0.8007   -1.0847    3.2980 H   0  0  0  0  0  0  0  0  0  0  0  0
   -0.9266   -3.6006    2.9009 H   0  0  0  0  0  0  0  0  0  0  0  0
   -0.5661   -2.8470    4.4588 H   0  0  0  0  0  0  0  0  0  0  0  0
   -1.5427   -1.9811    3.2579 H   0  0  0  0  0  0  0  0  0  0  0  0
    2.2858   -2.9658    4.2270 N   0  0  0  0  0  0  0  0  0  0  0  0
    3.4083   -3.7860    4.6185 C   0  0  0  0  0  0  0  0  0  0  0  0
    1.8984   -2.3311    4.9190 H   0  0  0  0  0  0  0  0  0  0  0  0
    3.0415   -4.7364    5.0334 H   0  0  0  0  0  0  0  0  0  0  0  0
    4.0384   -3.9885    3.7399 H   0  0  0  0  0  0  0  0  0  0  0  0
    4.0003   -3.2576    5.3804 H   0  0  0  0  0  0  0  0  0  0  0  0
  1  3  1  0  0  0  0
  1  7  1  0  0  0  0
  1  2  2  0  0  0  0
 40 41  1  0  0  0  0
 41 49  1  0  0  0  0
 41 42  2  0  0  0  0
  8  9  1  0  0  0  0
  9 17  1  0  0  0  0
  9 10  2  0  0  0  0
 18 19  1  0  0  0  0
 19 39  1  0  0  0  0
 19 20  2  0  0  0  0
 40 43  1  0  0  0  0
  8 11  1  0  0  0  0
 49 50  1  0  0  0  0
 22 23  1  0  0  0  0
 21 22  1  0  0  0  0
 23 24  1  0  0  0  0
 18 21  1  0  0  0  0
 24 25  1  0  0  0  0
 39 40  1  0  0  0  0
  7  8  1  0  0  0  0
 17 18  1  0  0  0  0
  3  4  1  0  0  0  0
  3  5  1  0  0  0  0
  3  6  1  0  0  0  0
 43 46  1  0  0  0  0
 43 47  1  0  0  0  0
 43 48  1  0  0  0  0
 11 14  1  0  0  0  0
 11 15  1  0  0  0  0
 11 16  1  0  0  0  0
 50 52  1  0  0  0  0
 50 53  1  0  0  0  0
 50 54  1  0  0  0  0
 22 30  1  0  0  0  0
 22 31  1  0  0  0  0
 23 32  1  0  0  0  0
 23 33  1  0  0  0  0
 21 28  1  0  0  0  0
 21 29  1  0  0  0  0
 24 34  1  0  0  0  0
 24 35  1  0  0  0  0
 40 45  1  0  0  0  0
  8 13  1  0  0  0  0
 18 27  1  0  0  0  0
 49 51  1  0  0  0  0
  7 12  1  0  0  0  0
 39 44  1  0  0  0  0
 17 26  1  0  0  0  0
 25 36  1  0  0  0  0
 25 37  1  0  0  0  0
 25 38  1  0  0  0  0
M  CHG  1  25   1
M  END
$$$$

  -OEChem-05262214473D

 54 53  0     1  0  0  0  0  0999 V2000
    2.6714    2.8829   -3.0005 C   0  0  0  0  0  0  0  0  0  0  0  0
    3.1741    2.4398   -1.9745 O   0  0  0  0  0  0  0  0  0  0  0  0
    3.5527    3.3077   -4.1279 C   0  0  0  0  0  0  0  0  0  0  0  0
    3.8407    4.3691   -4.0597 H   0  0  0  0  0  0  0  0  0  0  0  0
    4.5024    2.7495   -4.1526 H   0  0  0  0  0  0  0  0  0  0  0  0
    3.1208    3.1887   -5.1345 H   0  0  0  0  0  0  0  0  0  0  0  0
    1.3174    3.0407   -3.2467 N   0  0  0  0  0  0  0  0  0  0  0  0
    0.2944    2.6927   -2.2960 C   0  0  2  0  0  0  0  0  0  0  0  0
    0.2976    1.1783   -2.1349 C   0  0  0  0  0  0  0  0  0  0  0  0
    0.7500    0.4142   -2.9850 O   0  0  0  0  0  0  0  0  0  0  0  0
   -1.0710    3.1886   -2.7460 C   0  0  0  0  0  0  0  0  0  0  0  0
    1.0312    3.4224   -4.1464 H   0  0  0  0  0  0  0  0  0  0  0  0
    0.5725    3.1622   -1.3461 H   0  0  0  0  0  0  0  0  0  0  0  0
   -1.3666    2.7292   -3.6963 H   0  0  0  0  0  0  0  0  0  0  0  0
   -1.8434    2.9482   -2.0082 H   0  0  0  0  0  0  0  0  0  0  0  0
   -1.0632    4.2744   -2.8901 H   0  0  0  0  0  0  0  0  0  0  0  0
   -0.3037    0.7742   -0.9484 N   0  0  0  0  0  0  0  0  0  0  0  0
   -0.4352   -0.6095   -0.5718 C   0  0  2  0  0  0  0  0  0  0  0  0
   -0.4108   -0.7099    0.9498 C   0  0  0  0  0  0  0  0  0  0  0  0
   -1.2507   -0.1744    1.6704 O   0  0  0  0  0  0  0  0  0  0  0  0
    0.6248   -1.4899   -1.2442 C   0  0  0  0  0  0  0  0  0  0  0  0
    0.4553   -1.6243   -2.7632 C   0  0  0  0  0  0  0  0  0  0  0  0
    1.5309   -2.5343   -3.3608 C   0  0  0  0  0  0  0  0  0  0  0  0
    1.3746   -2.6456   -4.8702 C   0  0  0  0  0  0  0  0  0  0  0  0
    2.4492   -3.5147   -5.4072 N   0  3  0  0  0  0  0  0  0  0  0  0
   -0.6336    1.4811   -0.2948 H   0  0  0  0  0  0  0  0  0  0  0  0
   -1.4291   -0.9207   -0.9157 H   0  0  0  0  0  0  0  0  0  0  0  0
    1.6174   -1.0704   -1.0348 H   0  0  0  0  0  0  0  0  0  0  0  0
    0.6054   -2.4909   -0.7957 H   0  0  0  0  0  0  0  0  0  0  0  0
   -0.5337   -2.0365   -2.9945 H   0  0  0  0  0  0  0  0  0  0  0  0
    0.5148   -0.6369   -3.2358 H   0  0  0  0  0  0  0  0  0  0  0  0
    1.4637   -3.5304   -2.9057 H   0  0  0  0  0  0  0  0  0  0  0  0
    2.5244   -2.1369   -3.1184 H   0  0  0  0  0  0  0  0  0  0  0  0
    0.4232   -3.1071   -5.1509 H   0  0  0  0  0  0  0  0  0  0  0  0
    1.4739   -1.6752   -5.3655 H   0  0  0  0  0  0  0  0  0  0  0  0
    2.5833   -3.3558   -6.4118 H   0  0  0  0  0  0  0  0  0  0  0  0
    2.2215   -4.5061   -5.2724 H   0  0  0  0  0  0  0  0  0  0  0  0
    3.3418   -3.3292   -4.9365 H   0  0  0  0  0  0  0  0  0  0  0  0
    0.6380   -1.4937    1.4086 N   0  0  0  0  0  0  0  0  0  0  0  0
    0.8528   -1.7458    2.8136 C   0  0  2  0  0  0  0  0  0  0  0  0
    2.2400   -2.3531    2.9758 C   0  0  0  0  0  0  0  0  0  0  0  0
    2.8308   -2.9291    2.0647 O   0  0  0  0  0  0  0  0  0  0  0  0
   -0.2145   -2.6696    3.3794 C   0  0  0  0  0  0  0  0  0  0  0  0
    1.2761   -1.9039    0.7332 H   0  0  0  0  0  0  0  0  0  0  0  0
    0.8175   -0.7741    3.3182 H   0  0  0  0  0  0  0  0  0  0  0  0
   -0.1946   -3.6482    2.8860 H   0  0  0  0  0  0  0  0  0  0  0  0
   -0.0667   -2.8369    4.4514 H   0  0  0  0  0  0  0  0  0  0  0  0
   -1.2139   -2.2449    3.2352 H   0  0  0  0  0  0  0  0  0  0  0  0
    2.7225   -2.2139    4.2696 N   0  0  0  0  0  0  0  0  0  0  0  0
    4.0122   -2.7190    4.6792 C   0  0  0  0  0  0  0  0  0  0  0  0
    2.1730   -1.7052    4.9559 H   0  0  0  0  0  0  0  0  0  0  0  0
    3.8965   -3.7345    5.0858 H   0  0  0  0  0  0  0  0  0  0  0  0
    4.6876   -2.7463    3.8115 H   0  0  0  0  0  0  0  0  0  0  0  0
    4.4349   -2.0606    5.4524 H   0  0  0  0  0  0  0  0  0  0  0  0
  1  3  1  0  0  0  0
  1  7  1  0  0  0  0
  1  2  2  0  0  0  0
 40 41  1  0  0  0  0
 41 49  1  0  0  0  0
 41 42  2  0  0  0  0
  8  9  1  0  0  0  0
  9 17  1  0  0  0  0
  9 10  2  0  0  0  0
 18 19  1  0  0  0  0
 19 39  1  0  0  0  0
 19 20  2  0  0  0  0
 40 43  1  0  0  0  0
  8 11  1  0  0  0  0
 49 50  1  0  0  0  0
 22 23  1  0  0  0  0
 21 22  1  0  0  0  0
 23 24  1  0  0  0  0
 18 21  1  0  0  0  0
 24 25  1  0  0  0  0
 39 40  1  0  0  0  0
  7  8  1  0  0  0  0
 17 18  1  0  0  0  0
  3  4  1  0  0  0  0
  3  5  1  0  0  0  0
  3  6  1  0  0  0  0
 43 46  1  0  0  0  0
 43 47  1  0  0  0  0
 43 48  1  0  0  0  0
 11 14  1  0  0  0  0
 11 15  1  0  0  0  0
 11 16  1  0  0  0  0
 50 52  1  0  0  0  0
 50 53  1  0  0  0  0
 50 54  1  0  0  0  0
 22 30  1  0  0  0  0
 22 31  1  0  0  0  0
 23 32  1  0  0  0  0
 23 33  1  0  0  0  0
 21 28  1  0  0  0  0
 21 29  1  0  0  0  0
 24 34  1  0  0  0  0
 24 35  1  0  0  0  0
 40 45  1  0  0  0  0
  8 13  1  0  0  0  0
 18 27  1  0  0  0  0
 49 51  1  0  0  0  0
  7 12  1  0  0  0  0
 39 44  1  0  0  0  0
 17 26  1  0  0  0  0
 25 36  1  0  0  0  0
 25 37  1  0  0  0  0
 25 38  1  0  0  0  0
M  CHG  1  25   1
M  END
$$$$

  -OEChem-05262214473D

 54 53  0     1  0  0  0  0  0999 V2000
    2.6714    2.8829   -3.0005 C   0  0  0  0  0  0  0  0  0  0  0  0
    3.1741    2.4398   -1.9745 O   0  0  0  0  0  0  0  0  0  0  0  0
    3.5527    3.3077   -4.1279 C   0  0  0  0  0  0  0  0  0  0  0  0
    3.8407    4.3691   -4.0597 H   0  0  0  0  0  0  0  0  0  0  0  0
    4.5024    2.7495   -4.1526 H   0  0  0  0  0  0  0  0  0  0  0  0
    3.1208    3.1887   -5.1345 H   0  0  0  0  0  0  0  0  0  0  0  0
    1.3174    3.0407   -3.2467 N   0  0  0  0  0  0  0  0  0  0  0  0
    0.2944    2.6927   -2.2960 C   0  0  2  0  0  0  0  0  0  0  0  0
    0.2976    1.1783   -2.1349 C   0  0  0  0  0  0  0  0  0  0  0  0
    0.7500    0.4142   -2.9850 O   0  0  0  0  0  0  0  0  0  0  0  0
   -1.0710    3.1886   -2.7460 C   0  0  0  0  0  0  0  0  0  0  0  0
    1.0312    3.4224   -4.1464 H   0  0  0  0  0  0  0  0  0  0  0  0
    0.5725    3.1622   -1.3461 H   0  0  0  0  0  0  0  0  0  0  0  0
   -1.3666    2.7292   -3.6963 H   0  0  0  0  0  0  0  0  0  0  0  0
   -1.8434    2.9482   -2.0082 H   0  0  0  0  0  0  0  0  0  0  0  0
   -1.0632    4.2744   -2.8901 H   0  0  0  0  0  0  0  0  0  0  0  0
   -0.3037    0.7742   -0.9484 N   0  0  0  0  0  0  0  0  0  0  0  0
   -0.4352   -0.6095   -0.5718 C   0  0  2  0  0  0  0  0  0  0  0  0
   -0.4108   -0.7099    0.9498 C   0  0  0  0  0  0  0  0  0  0  0  0
   -1.3723   -0.4140    1.6566 O   0  0  0  0  0  0  0  0  0  0  0  0
    0.6248   -1.4899   -1.2442 C   0  0  0  0  0  0  0  0  0  0  0  0
    0.4553   -1.6243   -2.7632 C   0  0  0  0  0  0  0  0  0  0  0  0
    1.5309   -2.5343   -3.3608 C   0  0  0  0  0  0  0  0  0  0  0  0
    1.3746   -2.6456   -4.8702 C   0  0  0  0  0  0  0  0  0  0  0  0
    2.4492   -3.5147   -5.4072 N   0  3  0  0  0  0  0  0  0  0  0  0
   -0.6336    1.4811   -0.2948 H   0  0  0  0  0  0  0  0  0  0  0  0
   -1.4291   -0.9207   -0.9157 H   0  0  0  0  0  0  0  0  0  0  0  0
    1.6174   -1.0704   -1.0348 H   0  0  0  0  0  0  0  0  0  0  0  0
    0.6054   -2.4909   -0.7957 H   0  0  0  0  0  0  0  0  0  0  0  0
   -0.5337   -2.0365   -2.9945 H   0  0  0  0  0  0  0  0  0  0  0  0
    0.5148   -0.6369   -3.2358 H   0  0  0  0  0  0  0  0  0  0  0  0
    1.4637   -3.5304   -2.9057 H   0  0  0  0  0  0  0  0  0  0  0  0
    2.5244   -2.1369   -3.1184 H   0  0  0  0  0  0  0  0  0  0  0  0
    0.4232   -3.1071   -5.1509 H   0  0  0  0  0  0  0  0  0  0  0  0
    1.4739   -1.6752   -5.3655 H   0  0  0  0  0  0  0  0  0  0  0  0
    2.5833   -3.3558   -6.4118 H   0  0  0  0  0  0  0  0  0  0  0  0
    2.2215   -4.5061   -5.2724 H   0  0  0  0  0  0  0  0  0  0  0  0
    3.3418   -3.3292   -4.9365 H   0  0  0  0  0  0  0  0  0  0  0  0
    0.7972   -1.1993    1.4254 N   0  0  0  0  0  0  0  0  0  0  0  0
    1.0465   -1.3963    2.8335 C   0  0  2  0  0  0  0  0  0  0  0  0
    2.5406   -1.6258    3.0190 C   0  0  0  0  0  0  0  0  0  0  0  0
    3.2751   -2.0240    2.1172 O   0  0  0  0  0  0  0  0  0  0  0  0
    0.2448   -2.5679    3.3787 C   0  0  0  0  0  0  0  0  0  0  0  0
    1.5306   -1.4265    0.7606 H   0  0  0  0  0  0  0  0  0  0  0  0
    0.7532   -0.4699    3.3393 H   0  0  0  0  0  0  0  0  0  0  0  0
    0.5249   -3.5050    2.8839 H   0  0  0  0  0  0  0  0  0  0  0  0
    0.4131   -2.6983    4.4529 H   0  0  0  0  0  0  0  0  0  0  0  0
   -0.8278   -2.4148    3.2178 H   0  0  0  0  0  0  0  0  0  0  0  0
    2.9495   -1.3751    4.3213 N   0  0  0  0  0  0  0  0  0  0  0  0
    4.3189   -1.5327    4.7526 C   0  0  0  0  0  0  0  0  0  0  0  0
    2.2760   -1.0299    4.9988 H   0  0  0  0  0  0  0  0  0  0  0  0
    4.4627   -2.5462    5.1551 H   0  0  0  0  0  0  0  0  0  0  0  0
    4.9927   -1.3792    3.8968 H   0  0  0  0  0  0  0  0  0  0  0  0
    4.5444   -0.7924    5.5343 H   0  0  0  0  0  0  0  0  0  0  0  0
  1  3  1  0  0  0  0
  1  7  1  0  0  0  0
  1  2  2  0  0  0  0
 40 41  1  0  0  0  0
 41 49  1  0  0  0  0
 41 42  2  0  0  0  0
  8  9  1  0  0  0  0
  9 17  1  0  0  0  0
  9 10  2  0  0  0  0
 18 19  1  0  0  0  0
 19 39  1  0  0  0  0
 19 20  2  0  0  0  0
 40 43  1  0  0  0  0
  8 11  1  0  0  0  0
 49 50  1  0  0  0  0
 22 23  1  0  0  0  0
 21 22  1  0  0  0  0
 23 24  1  0  0  0  0
 18 21  1  0  0  0  0
 24 25  1  0  0  0  0
 39 40  1  0  0  0  0
  7  8  1  0  0  0  0
 17 18  1  0  0  0  0
  3  4  1  0  0  0  0
  3  5  1  0  0  0  0
  3  6  1  0  0  0  0
 43 46  1  0  0  0  0
 43 47  1  0  0  0  0
 43 48  1  0  0  0  0
 11 14  1  0  0  0  0
 11 15  1  0  0  0  0
 11 16  1  0  0  0  0
 50 52  1  0  0  0  0
 50 53  1  0  0  0  0
 50 54  1  0  0  0  0
 22 30  1  0  0  0  0
 22 31  1  0  0  0  0
 23 32  1  0  0  0  0
 23 33  1  0  0  0  0
 21 28  1  0  0  0  0
 21 29  1  0  0  0  0
 24 34  1  0  0  0  0
 24 35  1  0  0  0  0
 40 45  1  0  0  0  0
  8 13  1  0  0  0  0
 18 27  1  0  0  0  0
 49 51  1  0  0  0  0
  7 12  1  0  0  0  0
 39 44  1  0  0  0  0
 17 26  1  0  0  0  0
 25 36  1  0  0  0  0
 25 37  1  0  0  0  0
 25 38  1  0  0  0  0
M  CHG  1  25   1
M  END
$$$$

  -OEChem-05262214473D

 54 53  0     1  0  0  0  0  0999 V2000
    2.6714    2.8829   -3.0005 C   0  0  0  0  0  0  0  0  0  0  0  0
    3.1741    2.4398   -1.9745 O   0  0  0  0  0  0  0  0  0  0  0  0
    3.5527    3.3077   -4.1279 C   0  0  0  0  0  0  0  0  0  0  0  0
    3.8407    4.3691   -4.0597 H   0  0  0  0  0  0  0  0  0  0  0  0
    4.5024    2.7495   -4.1526 H   0  0  0  0  0  0  0  0  0  0  0  0
    3.1208    3.1887   -5.1345 H   0  0  0  0  0  0  0  0  0  0  0  0
    1.3174    3.0407   -3.2467 N   0  0  0  0  0  0  0  0  0  0  0  0
    0.2944    2.6927   -2.2960 C   0  0  2  0  0  0  0  0  0  0  0  0
    0.2976    1.1783   -2.1349 C   0  0  0  0  0  0  0  0  0  0  0  0
    0.7500    0.4142   -2.9850 O   0  0  0  0  0  0  0  0  0  0  0  0
   -1.0710    3.1886   -2.7460 C   0  0  0  0  0  0  0  0  0  0  0  0
    1.0312    3.4224   -4.1464 H   0  0  0  0  0  0  0  0  0  0  0  0
    0.5725    3.1622   -1.3461 H   0  0  0  0  0  0  0  0  0  0  0  0
   -1.3666    2.7292   -3.6963 H   0  0  0  0  0  0  0  0  0  0  0  0
   -1.8434    2.9482   -2.0082 H   0  0  0  0  0  0  0  0  0  0  0  0
   -1.0632    4.2744   -2.8901 H   0  0  0  0  0  0  0  0  0  0  0  0
   -0.3037    0.7742   -0.9484 N   0  0  0  0  0  0  0  0  0  0  0  0
   -0.4352   -0.6095   -0.5718 C   0  0  2  0  0  0  0  0  0  0  0  0
   -0.4108   -0.7099    0.9498 C   0  0  0  0  0  0  0  0  0  0  0  0
   -1.4276   -0.6768    1.6401 O   0  0  0  0  0  0  0  0  0  0  0  0
    0.6248   -1.4899   -1.2442 C   0  0  0  0  0  0  0  0  0  0  0  0
    0.4553   -1.6243   -2.7632 C   0  0  0  0  0  0  0  0  0  0  0  0
    1.5309   -2.5343   -3.3608 C   0  0  0  0  0  0  0  0  0  0  0  0
    1.3746   -2.6456   -4.8702 C   0  0  0  0  0  0  0  0  0  0  0  0
    2.4492   -3.5147   -5.4072 N   0  3  0  0  0  0  0  0  0  0  0  0
   -0.6336    1.4811   -0.2948 H   0  0  0  0  0  0  0  0  0  0  0  0
   -1.4291   -0.9207   -0.9157 H   0  0  0  0  0  0  0  0  0  0  0  0
    1.6174   -1.0704   -1.0348 H   0  0  0  0  0  0  0  0  0  0  0  0
    0.6054   -2.4909   -0.7957 H   0  0  0  0  0  0  0  0  0  0  0  0
   -0.5337   -2.0365   -2.9945 H   0  0  0  0  0  0  0  0  0  0  0  0
    0.5148   -0.6369   -3.2358 H   0  0  0  0  0  0  0  0  0  0  0  0
    1.4637   -3.5304   -2.9057 H   0  0  0  0  0  0  0  0  0  0  0  0
    2.5244   -2.1369   -3.1184 H   0  0  0  0  0  0  0  0  0  0  0  0
    0.4232   -3.1071   -5.1509 H   0  0  0  0  0  0  0  0  0  0  0  0
    1.4739   -1.6752   -5.3655 H   0  0  0  0  0  0  0  0  0  0  0  0
    2.5833   -3.3558   -6.4118 H   0  0  0  0  0  0  0  0  0  0  0  0
    2.2215   -4.5061   -5.2724 H   0  0  0  0  0  0  0  0  0  0  0  0
    3.3418   -3.3292   -4.9365 H   0  0  0  0  0  0  0  0  0  0  0  0
    0.8746   -0.8738    1.4457 N   0  0  0  0  0  0  0  0  0  0  0  0
    1.1431   -1.0088    2.8575 C   0  0  2  0  0  0  0  0  0  0  0  0
    2.6425   -0.8459    3.0688 C   0  0  0  0  0  0  0  0  0  0  0  0
    3.4697   -1.0352    2.1794 O   0  0  0  0  0  0  0  0  0  0  0  0
    0.6623   -2.3511    3.3864 C   0  0  0  0  0  0  0  0  0  0  0  0
    1.6527   -0.8997    0.7934 H   0  0  0  0  0  0  0  0  0  0  0  0
    0.6122   -0.1928    3.3598 H   0  0  0  0  0  0  0  0  0  0  0  0
    1.1830   -3.1809    2.8947 H   0  0  0  0  0  0  0  0  0  0  0  0
    0.8408   -2.4404    4.4630 H   0  0  0  0  0  0  0  0  0  0  0  0
   -0.4107   -2.4791    3.2068 H   0  0  0  0  0  0  0  0  0  0  0  0
    2.9512   -0.5064    4.3786 N   0  0  0  0  0  0  0  0  0  0  0  0
    4.3075   -0.3079    4.8336 C   0  0  0  0  0  0  0  0  0  0  0  0
    2.2003   -0.3512    5.0448 H   0  0  0  0  0  0  0  0  0  0  0  0
    4.7016   -1.2525    5.2367 H   0  0  0  0  0  0  0  0  0  0  0  0
    4.9328    0.0199    3.9900 H   0  0  0  0  0  0  0  0  0  0  0  0
    4.3213    0.4605    5.6205 H   0  0  0  0  0  0  0  0  0  0  0  0
  1  3  1  0  0  0  0
  1  7  1  0  0  0  0
  1  2  2  0  0  0  0
 40 41  1  0  0  0  0
 41 49  1  0  0  0  0
 41 42  2  0  0  0  0
  8  9  1  0  0  0  0
  9 17  1  0  0  0  0
  9 10  2  0  0  0  0
 18 19  1  0  0  0  0
 19 39  1  0  0  0  0
 19 20  2  0  0  0  0
 40 43  1  0  0  0  0
  8 11  1  0  0  0  0
 49 50  1  0  0  0  0
 22 23  1  0  0  0  0
 21 22  1  0  0  0  0
 23 24  1  0  0  0  0
 18 21  1  0  0  0  0
 24 25  1  0  0  0  0
 39 40  1  0  0  0  0
  7  8  1  0  0  0  0
 17 18  1  0  0  0  0
  3  4  1  0  0  0  0
  3  5  1  0  0  0  0
  3  6  1  0  0  0  0
 43 46  1  0  0  0  0
 43 47  1  0  0  0  0
 43 48  1  0  0  0  0
 11 14  1  0  0  0  0
 11 15  1  0  0  0  0
 11 16  1  0  0  0  0
 50 52  1  0  0  0  0
 50 53  1  0  0  0  0
 50 54  1  0  0  0  0
 22 30  1  0  0  0  0
 22 31  1  0  0  0  0
 23 32  1  0  0  0  0
 23 33  1  0  0  0  0
 21 28  1  0  0  0  0
 21 29  1  0  0  0  0
 24 34  1  0  0  0  0
 24 35  1  0  0  0  0
 40 45  1  0  0  0  0
  8 13  1  0  0  0  0
 18 27  1  0  0  0  0
 49 51  1  0  0  0  0
  7 12  1  0  0  0  0
 39 44  1  0  0  0  0
 17 26  1  0  0  0  0
 25 36  1  0  0  0  0
 25 37  1  0  0  0  0
 25 38  1  0  0  0  0
M  CHG  1  25   1
M  END
$$$$

  -OEChem-05262214473D

 54 53  0     1  0  0  0  0  0999 V2000
    2.6714    2.8829   -3.0005 C   0  0  0  0  0  0  0  0  0  0  0  0
    3.1741    2.4398   -1.9745 O   0  0  0  0  0  0  0  0  0  0  0  0
    3.5527    3.3077   -4.1279 C   0  0  0  0  0  0  0  0  0  0  0  0
    3.8407    4.3691   -4.0597 H   0  0  0  0  0  0  0  0  0  0  0  0
    4.5024    2.7495   -4.1526 H   0  0  0  0  0  0  0  0  0  0  0  0
    3.1208    3.1887   -5.1345 H   0  0  0  0  0  0  0  0  0  0  0  0
    1.3174    3.0407   -3.2467 N   0  0  0  0  0  0  0  0  0  0  0  0
    0.2944    2.6927   -2.2960 C   0  0  2  0  0  0  0  0  0  0  0  0
    0.2976    1.1783   -2.1349 C   0  0  0  0  0  0  0  0  0  0  0  0
    0.7500    0.4142   -2.9850 O   0  0  0  0  0  0  0  0  0  0  0  0
   -1.0710    3.1886   -2.7460 C   0  0  0  0  0  0  0  0  0  0  0  0
    1.0312    3.4224   -4.1464 H   0  0  0  0  0  0  0  0  0  0  0  0
    0.5725    3.1622   -1.3461 H   0  0  0  0  0  0  0  0  0  0  0  0
   -1.3666    2.7292   -3.6963 H   0  0  0  0  0  0  0  0  0  0  0  0
   -1.8434    2.9482   -2.0082 H   0  0  0  0  0  0  0  0  0  0  0  0
   -1.0632    4.2744   -2.8901 H   0  0  0  0  0  0  0  0  0  0  0  0
   -0.3037    0.7742   -0.9484 N   0  0  0  0  0  0  0  0  0  0  0  0
   -0.4352   -0.6095   -0.5718 C   0  0  2  0  0  0  0  0  0  0  0  0
   -0.4108   -0.7099    0.9498 C   0  0  0  0  0  0  0  0  0  0  0  0
   -1.4129   -0.9449    1.6222 O   0  0  0  0  0  0  0  0  0  0  0  0
    0.6248   -1.4899   -1.2442 C   0  0  0  0  0  0  0  0  0  0  0  0
    0.4553   -1.6243   -2.7632 C   0  0  0  0  0  0  0  0  0  0  0  0
    1.5309   -2.5343   -3.3608 C   0  0  0  0  0  0  0  0  0  0  0  0
    1.3746   -2.6456   -4.8702 C   0  0  0  0  0  0  0  0  0  0  0  0
    2.4492   -3.5147   -5.4072 N   0  3  0  0  0  0  0  0  0  0  0  0
   -0.6336    1.4811   -0.2948 H   0  0  0  0  0  0  0  0  0  0  0  0
   -1.4291   -0.9207   -0.9157 H   0  0  0  0  0  0  0  0  0  0  0  0
    1.6174   -1.0704   -1.0348 H   0  0  0  0  0  0  0  0  0  0  0  0
    0.6054   -2.4909   -0.7957 H   0  0  0  0  0  0  0  0  0  0  0  0
   -0.5337   -2.0365   -2.9945 H   0  0  0  0  0  0  0  0  0  0  0  0
    0.5148   -0.6369   -3.2358 H   0  0  0  0  0  0  0  0  0  0  0  0
    1.4637   -3.5304   -2.9057 H   0  0  0  0  0  0  0  0  0  0  0  0
    2.5244   -2.1369   -3.1184 H   0  0  0  0  0  0  0  0  0  0  0  0
    0.4232   -3.1071   -5.1509 H   0  0  0  0  0  0  0  0  0  0  0  0
    1.4739   -1.6752   -5.3655 H   0  0  0  0  0  0  0  0  0  0  0  0
    2.5833   -3.3558   -6.4118 H   0  0  0  0  0  0  0  0  0  0  0  0
    2.2215   -4.5061   -5.2724 H   0  0  0  0  0  0  0  0  0  0  0  0
    3.3418   -3.3292   -4.9365 H   0  0  0  0  0  0  0  0  0  0  0  0
    0.8650   -0.5395    1.4679 N   0  0  0  0  0  0  0  0  0  0  0  0
    1.1359   -0.6096    2.8840 C   0  0  2  0  0  0  0  0  0  0  0  0
    2.5387   -0.0665    3.1219 C   0  0  0  0  0  0  0  0  0  0  0  0
    3.4013   -0.0301    2.2468 O   0  0  0  0  0  0  0  0  0  0  0  0
    1.0094   -2.0339    3.4017 C   0  0  0  0  0  0  0  0  0  0  0  0
    1.6340   -0.3595    0.8293 H   0  0  0  0  0  0  0  0  0  0  0  0
    0.4040    0.0384    3.3784 H   0  0  0  0  0  0  0  0  0  0  0  0
    1.7348   -2.6980    2.9177 H   0  0  0  0  0  0  0  0  0  0  0  0
    1.1872   -2.0810    4.4812 H   0  0  0  0  0  0  0  0  0  0  0  0
    0.0090   -2.4334    3.2031 H   0  0  0  0  0  0  0  0  0  0  0  0
    2.7276    0.3328    4.4375 N   0  0  0  0  0  0  0  0  0  0  0  0
    3.9789    0.8719    4.9167 C   0  0  0  0  0  0  0  0  0  0  0  0
    1.9512    0.2847    5.0907 H   0  0  0  0  0  0  0  0  0  0  0  0
    4.5969    0.0585    5.3248 H   0  0  0  0  0  0  0  0  0  0  0  0
    4.5122    1.3554    4.0849 H   0  0  0  0  0  0  0  0  0  0  0  0
    3.7808    1.6128    5.7052 H   0  0  0  0  0  0  0  0  0  0  0  0
  1  3  1  0  0  0  0
  1  7  1  0  0  0  0
  1  2  2  0  0  0  0
 40 41  1  0  0  0  0
 41 49  1  0  0  0  0
 41 42  2  0  0  0  0
  8  9  1  0  0  0  0
  9 17  1  0  0  0  0
  9 10  2  0  0  0  0
 18 19  1  0  0  0  0
 19 39  1  0  0  0  0
 19 20  2  0  0  0  0
 40 43  1  0  0  0  0
  8 11  1  0  0  0  0
 49 50  1  0  0  0  0
 22 23  1  0  0  0  0
 21 22  1  0  0  0  0
 23 24  1  0  0  0  0
 18 21  1  0  0  0  0
 24 25  1  0  0  0  0
 39 40  1  0  0  0  0
  7  8  1  0  0  0  0
 17 18  1  0  0  0  0
  3  4  1  0  0  0  0
  3  5  1  0  0  0  0
  3  6  1  0  0  0  0
 43 46  1  0  0  0  0
 43 47  1  0  0  0  0
 43 48  1  0  0  0  0
 11 14  1  0  0  0  0
 11 15  1  0  0  0  0
 11 16  1  0  0  0  0
 50 52  1  0  0  0  0
 50 53  1  0  0  0  0
 50 54  1  0  0  0  0
 22 30  1  0  0  0  0
 22 31  1  0  0  0  0
 23 32  1  0  0  0  0
 23 33  1  0  0  0  0
 21 28  1  0  0  0  0
 21 29  1  0  0  0  0
 24 34  1  0  0  0  0
 24 35  1  0  0  0  0
 40 45  1  0  0  0  0
  8 13  1  0  0  0  0
 18 27  1  0  0  0  0
 49 51  1  0  0  0  0
  7 12  1  0  0  0  0
 39 44  1  0  0  0  0
 17 26  1  0  0  0  0
 25 36  1  0  0  0  0
 25 37  1  0  0  0  0
 25 38  1  0  0  0  0
M  CHG  1  25   1
M  END
$$$$

  -OEChem-05262214473D

 54 53  0     1  0  0  0  0  0999 V2000
    2.6714    2.8829   -3.0005 C   0  0  0  0  0  0  0  0  0  0  0  0
    3.1741    2.4398   -1.9745 O   0  0  0  0  0  0  0  0  0  0  0  0
    3.5527    3.3077   -4.1279 C   0  0  0  0  0  0  0  0  0  0  0  0
    3.8407    4.3691   -4.0597 H   0  0  0  0  0  0  0  0  0  0  0  0
    4.5024    2.7495   -4.1526 H   0  0  0  0  0  0  0  0  0  0  0  0
    3.1208    3.1887   -5.1345 H   0  0  0  0  0  0  0  0  0  0  0  0
    1.3174    3.0407   -3.2467 N   0  0  0  0  0  0  0  0  0  0  0  0
    0.2944    2.6927   -2.2960 C   0  0  2  0  0  0  0  0  0  0  0  0
    0.2976    1.1783   -2.1349 C   0  0  0  0  0  0  0  0  0  0  0  0
    0.7500    0.4142   -2.9850 O   0  0  0  0  0  0  0  0  0  0  0  0
   -1.0710    3.1886   -2.7460 C   0  0  0  0  0  0  0  0  0  0  0  0
    1.0312    3.4224   -4.1464 H   0  0  0  0  0  0  0  0  0  0  0  0
    0.5725    3.1622   -1.3461 H   0  0  0  0  0  0  0  0  0  0  0  0
   -1.3666    2.7292   -3.6963 H   0  0  0  0  0  0  0  0  0  0  0  0
   -1.8434    2.9482   -2.0082 H   0  0  0  0  0  0  0  0  0  0  0  0
   -1.0632    4.2744   -2.8901 H   0  0  0  0  0  0  0  0  0  0  0  0
   -0.3037    0.7742   -0.9484 N   0  0  0  0  0  0  0  0  0  0  0  0
   -0.4352   -0.6095   -0.5718 C   0  0  2  0  0  0  0  0  0  0  0  0
   -0.4108   -0.7099    0.9498 C   0  0  0  0  0  0  0  0  0  0  0  0
   -1.3292   -1.1999    1.6040 O   0  0  0  0  0  0  0  0  0  0  0  0
    0.6248   -1.4899   -1.2442 C   0  0  0  0  0  0  0  0  0  0  0  0
    0.4553   -1.6243   -2.7632 C   0  0  0  0  0  0  0  0  0  0  0  0
    1.5309   -2.5343   -3.3608 C   0  0  0  0  0  0  0  0  0  0  0  0
    1.3746   -2.6456   -4.8702 C   0  0  0  0  0  0  0  0  0  0  0  0
    2.4492   -3.5147   -5.4072 N   0  3  0  0  0  0  0  0  0  0  0  0
   -0.6336    1.4811   -0.2948 H   0  0  0  0  0  0  0  0  0  0  0  0
   -1.4291   -0.9207   -0.9157 H   0  0  0  0  0  0  0  0  0  0  0  0
    1.6174   -1.0704   -1.0348 H   0  0  0  0  0  0  0  0  0  0  0  0
    0.6054   -2.4909   -0.7957 H   0  0  0  0  0  0  0  0  0  0  0  0
   -0.5337   -2.0365   -2.9945 H   0  0  0  0  0  0  0  0  0  0  0  0
    0.5148   -0.6369   -3.2358 H   0  0  0  0  0  0  0  0  0  0  0  0
    1.4637   -3.5304   -2.9057 H   0  0  0  0  0  0  0  0  0  0  0  0
    2.5244   -2.1369   -3.1184 H   0  0  0  0  0  0  0  0  0  0  0  0
    0.4232   -3.1071   -5.1509 H   0  0  0  0  0  0  0  0  0  0  0  0
    1.4739   -1.6752   -5.3655 H   0  0  0  0  0  0  0  0  0  0  0  0
    2.5833   -3.3558   -6.4118 H   0  0  0  0  0  0  0  0  0  0  0  0
    2.2215   -4.5061   -5.2724 H   0  0  0  0  0  0  0  0  0  0  0  0
    3.3418   -3.3292   -4.9365 H   0  0  0  0  0  0  0  0  0  0  0  0
    0.7690   -0.2192    1.4905 N   0  0  0  0  0  0  0  0  0  0  0  0
    1.0254   -0.2260    2.9111 C   0  0  2  0  0  0  0  0  0  0  0  0
    2.2363    0.6593    3.1746 C   0  0  0  0  0  0  0  0  0  0  0  0
    3.0744    0.9228    2.3149 O   0  0  0  0  0  0  0  0  0  0  0  0
    1.2626   -1.6380    3.4238 C   0  0  0  0  0  0  0  0  0  0  0  0
    1.4758    0.1573    0.8659 H   0  0  0  0  0  0  0  0  0  0  0  0
    0.1430    0.2079    3.3938 H   0  0  0  0  0  0  0  0  0  0  0  0
    2.1427   -2.0891    2.9513 H   0  0  0  0  0  0  0  0  0  0  0  0
    1.4286   -1.6444    4.5061 H   0  0  0  0  0  0  0  0  0  0  0  0
    0.4027   -2.2809    3.2069 H   0  0  0  0  0  0  0  0  0  0  0  0
    2.2939    1.0855    4.4942 N   0  0  0  0  0  0  0  0  0  0  0  0
    3.3555    1.9263    4.9963 C   0  0  0  0  0  0  0  0  0  0  0  0
    1.5456    0.8344    5.1335 H   0  0  0  0  0  0  0  0  0  0  0  0
    4.1557    1.2975    5.4137 H   0  0  0  0  0  0  0  0  0  0  0  0
    3.7594    2.5364    4.1749 H   0  0  0  0  0  0  0  0  0  0  0  0
    2.9598    2.5859    5.7826 H   0  0  0  0  0  0  0  0  0  0  0  0
  1  3  1  0  0  0  0
  1  7  1  0  0  0  0
  1  2  2  0  0  0  0
 40 41  1  0  0  0  0
 41 49  1  0  0  0  0
 41 42  2  0  0  0  0
  8  9  1  0  0  0  0
  9 17  1  0  0  0  0
  9 10  2  0  0  0  0
 18 19  1  0  0  0  0
 19 39  1  0  0  0  0
 19 20  2  0  0  0  0
 40 43  1  0  0  0  0
  8 11  1  0  0  0  0
 49 50  1  0  0  0  0
 22 23  1  0  0  0  0
 21 22  1  0  0  0  0
 23 24  1  0  0  0  0
 18 21  1  0  0  0  0
 24 25  1  0  0  0  0
 39 40  1  0  0  0  0
  7  8  1  0  0  0  0
 17 18  1  0  0  0  0
  3  4  1  0  0  0  0
  3  5  1  0  0  0  0
  3  6  1  0  0  0  0
 43 46  1  0  0  0  0
 43 47  1  0  0  0  0
 43 48  1  0  0  0  0
 11 14  1  0  0  0  0
 11 15  1  0  0  0  0
 11 16  1  0  0  0  0
 50 52  1  0  0  0  0
 50 53  1  0  0  0  0
 50 54  1  0  0  0  0
 22 30  1  0  0  0  0
 22 31  1  0  0  0  0
 23 32  1  0  0  0  0
 23 33  1  0  0  0  0
 21 28  1  0  0  0  0
 21 29  1  0  0  0  0
 24 34  1  0  0  0  0
 24 35  1  0  0  0  0
 40 45  1  0  0  0  0
  8 13  1  0  0  0  0
 18 27  1  0  0  0  0
 49 51  1  0  0  0  0
  7 12  1  0  0  0  0
 39 44  1  0  0  0  0
 17 26  1  0  0  0  0
 25 36  1  0  0  0  0
 25 37  1  0  0  0  0
 25 38  1  0  0  0  0
M  CHG  1  25   1
M  END
$$$$

  -OEChem-05262214473D

 54 53  0     1  0  0  0  0  0999 V2000
    2.6714    2.8829   -3.0005 C   0  0  0  0  0  0  0  0  0  0  0  0
    3.1741    2.4398   -1.9745 O   0  0  0  0  0  0  0  0  0  0  0  0
    3.5527    3.3077   -4.1279 C   0  0  0  0  0  0  0  0  0  0  0  0
    3.8407    4.3691   -4.0597 H   0  0  0  0  0  0  0  0  0  0  0  0
    4.5024    2.7495   -4.1526 H   0  0  0  0  0  0  0  0  0  0  0  0
    3.1208    3.1887   -5.1345 H   0  0  0  0  0  0  0  0  0  0  0  0
    1.3174    3.0407   -3.2467 N   0  0  0  0  0  0  0  0  0  0  0  0
    0.2944    2.6927   -2.2960 C   0  0  2  0  0  0  0  0  0  0  0  0
    0.2976    1.1783   -2.1349 C   0  0  0  0  0  0  0  0  0  0  0  0
    0.7500    0.4142   -2.9850 O   0  0  0  0  0  0  0  0  0  0  0  0
   -1.0710    3.1886   -2.7460 C   0  0  0  0  0  0  0  0  0  0  0  0
    1.0312    3.4224   -4.1464 H   0  0  0  0  0  0  0  0  0  0  0  0
    0.5725    3.1622   -1.3461 H   0  0  0  0  0  0  0  0  0  0  0  0
   -1.3666    2.7292   -3.6963 H   0  0  0  0  0  0  0  0  0  0  0  0
   -1.8434    2.9482   -2.0082 H   0  0  0  0  0  0  0  0  0  0  0  0
   -1.0632    4.2744   -2.8901 H   0  0  0  0  0  0  0  0  0  0  0  0
   -0.3037    0.7742   -0.9484 N   0  0  0  0  0  0  0  0  0  0  0  0
   -0.4352   -0.6095   -0.5718 C   0  0  2  0  0  0  0  0  0  0  0  0
   -0.4108   -0.7099    0.9498 C   0  0  0  0  0  0  0  0  0  0  0  0
   -1.1821   -1.4246    1.5869 O   0  0  0  0  0  0  0  0  0  0  0  0
    0.6248   -1.4899   -1.2442 C   0  0  0  0  0  0  0  0  0  0  0  0
    0.4553   -1.6243   -2.7632 C   0  0  0  0  0  0  0  0  0  0  0  0
    1.5309   -2.5343   -3.3608 C   0  0  0  0  0  0  0  0  0  0  0  0
    1.3746   -2.6456   -4.8702 C   0  0  0  0  0  0  0  0  0  0  0  0
    2.4492   -3.5147   -5.4072 N   0  3  0  0  0  0  0  0  0  0  0  0
   -0.6336    1.4811   -0.2948 H   0  0  0  0  0  0  0  0  0  0  0  0
   -1.4291   -0.9207   -0.9157 H   0  0  0  0  0  0  0  0  0  0  0  0
    1.6174   -1.0704   -1.0348 H   0  0  0  0  0  0  0  0  0  0  0  0
    0.6054   -2.4909   -0.7957 H   0  0  0  0  0  0  0  0  0  0  0  0
   -0.5337   -2.0365   -2.9945 H   0  0  0  0  0  0  0  0  0  0  0  0
    0.5148   -0.6369   -3.2358 H   0  0  0  0  0  0  0  0  0  0  0  0
    1.4637   -3.5304   -2.9057 H   0  0  0  0  0  0  0  0  0  0  0  0
    2.5244   -2.1369   -3.1184 H   0  0  0  0  0  0  0  0  0  0  0  0
    0.4232   -3.1071   -5.1509 H   0  0  0  0  0  0  0  0  0  0  0  0
    1.4739   -1.6752   -5.3655 H   0  0  0  0  0  0  0  0  0  0  0  0
    2.5833   -3.3558   -6.4118 H   0  0  0  0  0  0  0  0  0  0  0  0
    2.2215   -4.5061   -5.2724 H   0  0  0  0  0  0  0  0  0  0  0  0
    3.3418   -3.3292   -4.9365 H   0  0  0  0  0  0  0  0  0  0  0  0
    0.5931    0.0653    1.5121 N   0  0  0  0  0  0  0  0  0  0  0  0
    0.8192    0.1159    2.9369 C   0  0  2  0  0  0  0  0  0  0  0  0
    1.7558    1.2821    3.2234 C   0  0  0  0  0  0  0  0  0  0  0  0
    2.5116    1.7585    2.3790 O   0  0  0  0  0  0  0  0  0  0  0  0
    1.4044   -1.1902    3.4510 C   0  0  0  0  0  0  0  0  0  0  0  0
    1.1890    0.6156    0.9008 H   0  0  0  0  0  0  0  0  0  0  0  0
   -0.1532    0.3042    3.4049 H   0  0  0  0  0  0  0  0  0  0  0  0
    2.3790   -1.3958    2.9933 H   0  0  0  0  0  0  0  0  0  0  0  0
    1.5487   -1.1605    4.5361 H   0  0  0  0  0  0  0  0  0  0  0  0
    0.7435   -2.0320    3.2178 H   0  0  0  0  0  0  0  0  0  0  0  0
    1.6796    1.7003    4.5446 N   0  0  0  0  0  0  0  0  0  0  0  0
    2.4796    2.7835    5.0669 C   0  0  0  0  0  0  0  0  0  0  0  0
    1.0111    1.2604    5.1702 H   0  0  0  0  0  0  0  0  0  0  0  0
    3.4081    2.3799    5.4971 H   0  0  0  0  0  0  0  0  0  0  0  0
    2.7258    3.4824    4.2539 H   0  0  0  0  0  0  0  0  0  0  0  0
    1.9141    3.3135    5.8474 H   0  0  0  0  0  0  0  0  0  0  0  0
  1  3  1  0  0  0  0
  1  7  1  0  0  0  0
  1  2  2  0  0  0  0
 40 41  1  0  0  0  0
 41 49  1  0  0  0  0
 41 42  2  0  0  0  0
  8  9  1  0  0  0  0
  9 17  1  0  0  0  0
  9 10  2  0  0  0  0
 18 19  1  0  0  0  0
 19 39  1  0  0  0  0
 19 20  2  0  0  0  0
 40 43  1  0  0  0  0
  8 11  1  0  0  0  0
 49 50  1  0  0  0  0
 22 23  1  0  0  0  0
 21 22  1  0  0  0  0
 23 24  1  0  0  0  0
 18 21  1  0  0  0  0
 24 25  1  0  0  0  0
 39 40  1  0  0  0  0
  7  8  1  0  0  0  0
 17 18  1  0  0  0  0
  3  4  1  0  0  0  0
  3  5  1  0  0  0  0
  3  6  1  0  0  0  0
 43 46  1  0  0  0  0
 43 47  1  0  0  0  0
 43 48  1  0  0  0  0
 11 14  1  0  0  0  0
 11 15  1  0  0  0  0
 11 16  1  0  0  0  0
 50 52  1  0  0  0  0
 50 53  1  0  0  0  0
 50 54  1  0  0  0  0
 22 30  1  0  0  0  0
 22 31  1  0  0  0  0
 23 32  1  0  0  0  0
 23 33  1  0  0  0  0
 21 28  1  0  0  0  0
 21 29  1  0  0  0  0
 24 34  1  0  0  0  0
 24 35  1  0  0  0  0
 40 45  1  0  0  0  0
  8 13  1  0  0  0  0
 18 27  1  0  0  0  0
 49 51  1  0  0  0  0
  7 12  1  0  0  0  0
 39 44  1  0  0  0  0
 17 26  1  0  0  0  0
 25 36  1  0  0  0  0
 25 37  1  0  0  0  0
 25 38  1  0  0  0  0
M  CHG  1  25   1
M  END
$$$$

  -OEChem-05262214473D

 54 53  0     1  0  0  0  0  0999 V2000
    2.6714    2.8829   -3.0005 C   0  0  0  0  0  0  0  0  0  0  0  0
    3.1741    2.4398   -1.9745 O   0  0  0  0  0  0  0  0  0  0  0  0
    3.5527    3.3077   -4.1279 C   0  0  0  0  0  0  0  0  0  0  0  0
    3.8407    4.3691   -4.0597 H   0  0  0  0  0  0  0  0  0  0  0  0
    4.5024    2.7495   -4.1526 H   0  0  0  0  0  0  0  0  0  0  0  0
    3.1208    3.1887   -5.1345 H   0  0  0  0  0  0  0  0  0  0  0  0
    1.3174    3.0407   -3.2467 N   0  0  0  0  0  0  0  0  0  0  0  0
    0.2944    2.6927   -2.2960 C   0  0  2  0  0  0  0  0  0  0  0  0
    0.2976    1.1783   -2.1349 C   0  0  0  0  0  0  0  0  0  0  0  0
    0.7500    0.4142   -2.9850 O   0  0  0  0  0  0  0  0  0  0  0  0
   -1.0710    3.1886   -2.7460 C   0  0  0  0  0  0  0  0  0  0  0  0
    1.0312    3.4224   -4.1464 H   0  0  0  0  0  0  0  0  0  0  0  0
    0.5725    3.1622   -1.3461 H   0  0  0  0  0  0  0  0  0  0  0  0
   -1.3666    2.7292   -3.6963 H   0  0  0  0  0  0  0  0  0  0  0  0
   -1.8434    2.9482   -2.0082 H   0  0  0  0  0  0  0  0  0  0  0  0
   -1.0632    4.2744   -2.8901 H   0  0  0  0  0  0  0  0  0  0  0  0
   -0.3037    0.7742   -0.9484 N   0  0  0  0  0  0  0  0  0  0  0  0
   -0.4352   -0.6095   -0.5718 C   0  0  2  0  0  0  0  0  0  0  0  0
   -0.4108   -0.7099    0.9498 C   0  0  0  0  0  0  0  0  0  0  0  0
   -0.9817   -1.6035    1.5718 O   0  0  0  0  0  0  0  0  0  0  0  0
    0.6248   -1.4899   -1.2442 C   0  0  0  0  0  0  0  0  0  0  0  0
    0.4553   -1.6243   -2.7632 C   0  0  0  0  0  0  0  0  0  0  0  0
    1.5309   -2.5343   -3.3608 C   0  0  0  0  0  0  0  0  0  0  0  0
    1.3746   -2.6456   -4.8702 C   0  0  0  0  0  0  0  0  0  0  0  0
    2.4492   -3.5147   -5.4072 N   0  3  0  0  0  0  0  0  0  0  0  0
   -0.6336    1.4811   -0.2948 H   0  0  0  0  0  0  0  0  0  0  0  0
   -1.4291   -0.9207   -0.9157 H   0  0  0  0  0  0  0  0  0  0  0  0
    1.6174   -1.0704   -1.0348 H   0  0  0  0  0  0  0  0  0  0  0  0
    0.6054   -2.4909   -0.7957 H   0  0  0  0  0  0  0  0  0  0  0  0
   -0.5337   -2.0365   -2.9945 H   0  0  0  0  0  0  0  0  0  0  0  0
    0.5148   -0.6369   -3.2358 H   0  0  0  0  0  0  0  0  0  0  0  0
    1.4637   -3.5304   -2.9057 H   0  0  0  0  0  0  0  0  0  0  0  0
    2.5244   -2.1369   -3.1184 H   0  0  0  0  0  0  0  0  0  0  0  0
    0.4232   -3.1071   -5.1509 H   0  0  0  0  0  0  0  0  0  0  0  0
    1.4739   -1.6752   -5.3655 H   0  0  0  0  0  0  0  0  0  0  0  0
    2.5833   -3.3558   -6.4118 H   0  0  0  0  0  0  0  0  0  0  0  0
    2.2215   -4.5061   -5.2724 H   0  0  0  0  0  0  0  0  0  0  0  0
    3.3418   -3.3292   -4.9365 H   0  0  0  0  0  0  0  0  0  0  0  0
    0.3495    0.2946    1.5312 N   0  0  0  0  0  0  0  0  0  0  0  0
    0.5313    0.3927    2.9598 C   0  0  2  0  0  0  0  0  0  0  0  0
    1.1300    1.7594    3.2649 C   0  0  0  0  0  0  0  0  0  0  0  0
    1.7509    2.4202    2.4349 O   0  0  0  0  0  0  0  0  0  0  0  0
    1.4254   -0.7212    3.4816 C   0  0  0  0  0  0  0  0  0  0  0  0
    0.7930    0.9840    0.9314 H   0  0  0  0  0  0  0  0  0  0  0  0
   -0.4644    0.3206    3.4110 H   0  0  0  0  0  0  0  0  0  0  0  0
    2.4274   -0.6653    3.0407 H   0  0  0  0  0  0  0  0  0  0  0  0
    1.5391   -0.6622    4.5691 H   0  0  0  0  0  0  0  0  0  0  0  0
    1.0082   -1.7036    3.2352 H   0  0  0  0  0  0  0  0  0  0  0  0
    0.9267    2.1353    4.5854 N   0  0  0  0  0  0  0  0  0  0  0  0
    1.4111    3.3849    5.1237 C   0  0  0  0  0  0  0  0  0  0  0  0
    0.3843    1.5337    5.1983 H   0  0  0  0  0  0  0  0  0  0  0  0
    2.4050    3.2321    5.5694 H   0  0  0  0  0  0  0  0  0  0  0  0
    1.4818    4.1289    4.3165 H   0  0  0  0  0  0  0  0  0  0  0  0
    0.7150    3.7460    5.8952 H   0  0  0  0  0  0  0  0  0  0  0  0
  1  3  1  0  0  0  0
  1  7  1  0  0  0  0
  1  2  2  0  0  0  0
 40 41  1  0  0  0  0
 41 49  1  0  0  0  0
 41 42  2  0  0  0  0
  8  9  1  0  0  0  0
  9 17  1  0  0  0  0
  9 10  2  0  0  0  0
 18 19  1  0  0  0  0
 19 39  1  0  0  0  0
 19 20  2  0  0  0  0
 40 43  1  0  0  0  0
  8 11  1  0  0  0  0
 49 50  1  0  0  0  0
 22 23  1  0  0  0  0
 21 22  1  0  0  0  0
 23 24  1  0  0  0  0
 18 21  1  0  0  0  0
 24 25  1  0  0  0  0
 39 40  1  0  0  0  0
  7  8  1  0  0  0  0
 17 18  1  0  0  0  0
  3  4  1  0  0  0  0
  3  5  1  0  0  0  0
  3  6  1  0  0  0  0
 43 46  1  0  0  0  0
 43 47  1  0  0  0  0
 43 48  1  0  0  0  0
 11 14  1  0  0  0  0
 11 15  1  0  0  0  0
 11 16  1  0  0  0  0
 50 52  1  0  0  0  0
 50 53  1  0  0  0  0
 50 54  1  0  0  0  0
 22 30  1  0  0  0  0
 22 31  1  0  0  0  0
 23 32  1  0  0  0  0
 23 33  1  0  0  0  0
 21 28  1  0  0  0  0
 21 29  1  0  0  0  0
 24 34  1  0  0  0  0
 24 35  1  0  0  0  0
 40 45  1  0  0  0  0
  8 13  1  0  0  0  0
 18 27  1  0  0  0  0
 49 51  1  0  0  0  0
  7 12  1  0  0  0  0
 39 44  1  0  0  0  0
 17 26  1  0  0  0  0
 25 36  1  0  0  0  0
 25 37  1  0  0  0  0
 25 38  1  0  0  0  0
M  CHG  1  25   1
M  END
$$$$

  -OEChem-05262214473D

 54 53  0     1  0  0  0  0  0999 V2000
    2.6714    2.8829   -3.0005 C   0  0  0  0  0  0  0  0  0  0  0  0
    3.1741    2.4398   -1.9745 O   0  0  0  0  0  0  0  0  0  0  0  0
    3.5527    3.3077   -4.1279 C   0  0  0  0  0  0  0  0  0  0  0  0
    3.8407    4.3691   -4.0597 H   0  0  0  0  0  0  0  0  0  0  0  0
    4.5024    2.7495   -4.1526 H   0  0  0  0  0  0  0  0  0  0  0  0
    3.1208    3.1887   -5.1345 H   0  0  0  0  0  0  0  0  0  0  0  0
    1.3174    3.0407   -3.2467 N   0  0  0  0  0  0  0  0  0  0  0  0
    0.2944    2.6927   -2.2960 C   0  0  2  0  0  0  0  0  0  0  0  0
    0.2976    1.1783   -2.1349 C   0  0  0  0  0  0  0  0  0  0  0  0
    0.7500    0.4142   -2.9850 O   0  0  0  0  0  0  0  0  0  0  0  0
   -1.0710    3.1886   -2.7460 C   0  0  0  0  0  0  0  0  0  0  0  0
    1.0312    3.4224   -4.1464 H   0  0  0  0  0  0  0  0  0  0  0  0
    0.5725    3.1622   -1.3461 H   0  0  0  0  0  0  0  0  0  0  0  0
   -1.3666    2.7292   -3.6963 H   0  0  0  0  0  0  0  0  0  0  0  0
   -1.8434    2.9482   -2.0082 H   0  0  0  0  0  0  0  0  0  0  0  0
   -1.0632    4.2744   -2.8901 H   0  0  0  0  0  0  0  0  0  0  0  0
   -0.3037    0.7742   -0.9484 N   0  0  0  0  0  0  0  0  0  0  0  0
   -0.4352   -0.6095   -0.5718 C   0  0  2  0  0  0  0  0  0  0  0  0
   -0.4108   -0.7099    0.9498 C   0  0  0  0  0  0  0  0  0  0  0  0
   -0.7418   -1.7246    1.5600 O   0  0  0  0  0  0  0  0  0  0  0  0
    0.6248   -1.4899   -1.2442 C   0  0  0  0  0  0  0  0  0  0  0  0
    0.4553   -1.6243   -2.7632 C   0  0  0  0  0  0  0  0  0  0  0  0
    1.5309   -2.5343   -3.3608 C   0  0  0  0  0  0  0  0  0  0  0  0
    1.3746   -2.6456   -4.8702 C   0  0  0  0  0  0  0  0  0  0  0  0
    2.4492   -3.5147   -5.4072 N   0  3  0  0  0  0  0  0  0  0  0  0
   -0.6336    1.4811   -0.2948 H   0  0  0  0  0  0  0  0  0  0  0  0
   -1.4291   -0.9207   -0.9157 H   0  0  0  0  0  0  0  0  0  0  0  0
    1.6174   -1.0704   -1.0348 H   0  0  0  0  0  0  0  0  0  0  0  0
    0.6054   -2.4909   -0.7957 H   0  0  0  0  0  0  0  0  0  0  0  0
   -0.5337   -2.0365   -2.9945 H   0  0  0  0  0  0  0  0  0  0  0  0
    0.5148   -0.6369   -3.2358 H   0  0  0  0  0  0  0  0  0  0  0  0
    1.4637   -3.5304   -2.9057 H   0  0  0  0  0  0  0  0  0  0  0  0
    2.5244   -2.1369   -3.1184 H   0  0  0  0  0  0  0  0  0  0  0  0
    0.4232   -3.1071   -5.1509 H   0  0  0  0  0  0  0  0  0  0  0  0
    1.4739   -1.6752   -5.3655 H   0  0  0  0  0  0  0  0  0  0  0  0
    2.5833   -3.3558   -6.4118 H   0  0  0  0  0  0  0  0  0  0  0  0
    2.2215   -4.5061   -5.2724 H   0  0  0  0  0  0  0  0  0  0  0  0
    3.3418   -3.3292   -4.9365 H   0  0  0  0  0  0  0  0  0  0  0  0
    0.0546    0.4531    1.5464 N   0  0  0  0  0  0  0  0  0  0  0  0
    0.1813    0.5857    2.9782 C   0  0  2  0  0  0  0  0  0  0  0  0
    0.4016    2.0587    3.2964 C   0  0  0  0  0  0  0  0  0  0  0  0
    0.8444    2.8627    2.4786 O   0  0  0  0  0  0  0  0  0  0  0  0
    1.3240   -0.2629    3.5135 C   0  0  0  0  0  0  0  0  0  0  0  0
    0.3148    1.2374    0.9558 H   0  0  0  0  0  0  0  0  0  0  0  0
   -0.7692    0.2561    3.4116 H   0  0  0  0  0  0  0  0  0  0  0  0
    2.2847    0.0526    3.0904 H   0  0  0  0  0  0  0  0  0  0  0  0
    1.4007   -0.1834    4.6029 H   0  0  0  0  0  0  0  0  0  0  0  0
    1.1788   -1.3181    3.2579 H   0  0  0  0  0  0  0  0  0  0  0  0
    0.0864    2.3609    4.6137 N   0  0  0  0  0  0  0  0  0  0  0  0
    0.2226    3.6898    5.1629 C   0  0  0  0  0  0  0  0  0  0  0  0
   -0.2923    1.6358    5.2158 H   0  0  0  0  0  0  0  0  0  0  0  0
    1.2149    3.7959    5.6257 H   0  0  0  0  0  0  0  0  0  0  0  0
    0.1121    4.4319    4.3585 H   0  0  0  0  0  0  0  0  0  0  0  0
   -0.5557    3.8540    5.9227 H   0  0  0  0  0  0  0  0  0  0  0  0
  1  3  1  0  0  0  0
  1  7  1  0  0  0  0
  1  2  2  0  0  0  0
 40 41  1  0  0  0  0
 41 49  1  0  0  0  0
 41 42  2  0  0  0  0
  8  9  1  0  0  0  0
  9 17  1  0  0  0  0
  9 10  2  0  0  0  0
 18 19  1  0  0  0  0
 19 39  1  0  0  0  0
 19 20  2  0  0  0  0
 40 43  1  0  0  0  0
  8 11  1  0  0  0  0
 49 50  1  0  0  0  0
 22 23  1  0  0  0  0
 21 22  1  0  0  0  0
 23 24  1  0  0  0  0
 18 21  1  0  0  0  0
 24 25  1  0  0  0  0
 39 40  1  0  0  0  0
  7  8  1  0  0  0  0
 17 18  1  0  0  0  0
  3  4  1  0  0  0  0
  3  5  1  0  0  0  0
  3  6  1  0  0  0  0
 43 46  1  0  0  0  0
 43 47  1  0  0  0  0
 43 48  1  0  0  0  0
 11 14  1  0  0  0  0
 11 15  1  0  0  0  0
 11 16  1  0  0  0  0
 50 52  1  0  0  0  0
 50 53  1  0  0  0  0
 50 54  1  0  0  0  0
 22 30  1  0  0  0  0
 22 31  1  0  0  0  0
 23 32  1  0  0  0  0
 23 33  1  0  0  0  0
 21 28  1  0  0  0  0
 21 29  1  0  0  0  0
 24 34  1  0  0  0  0
 24 35  1  0  0  0  0
 40 45  1  0  0  0  0
  8 13  1  0  0  0  0
 18 27  1  0  0  0  0
 49 51  1  0  0  0  0
  7 12  1  0  0  0  0
 39 44  1  0  0  0  0
 17 26  1  0  0  0  0
 25 36  1  0  0  0  0
 25 37  1  0  0  0  0
 25 38  1  0  0  0  0
M  CHG  1  25   1
M  END
$$$$

  -OEChem-05262214473D

 54 53  0     1  0  0  0  0  0999 V2000
    2.6714    2.8829   -3.0005 C   0  0  0  0  0  0  0  0  0  0  0  0
    3.1741    2.4398   -1.9745 O   0  0  0  0  0  0  0  0  0  0  0  0
    3.5527    3.3077   -4.1279 C   0  0  0  0  0  0  0  0  0  0  0  0
    3.8407    4.3691   -4.0597 H   0  0  0  0  0  0  0  0  0  0  0  0
    4.5024    2.7495   -4.1526 H   0  0  0  0  0  0  0  0  0  0  0  0
    3.1208    3.1887   -5.1345 H   0  0  0  0  0  0  0  0  0  0  0  0
    1.3174    3.0407   -3.2467 N   0  0  0  0  0  0  0  0  0  0  0  0
    0.2944    2.6927   -2.2960 C   0  0  2  0  0  0  0  0  0  0  0  0
    0.2976    1.1783   -2.1349 C   0  0  0  0  0  0  0  0  0  0  0  0
    0.7500    0.4142   -2.9850 O   0  0  0  0  0  0  0  0  0  0  0  0
   -1.0710    3.1886   -2.7460 C   0  0  0  0  0  0  0  0  0  0  0  0
    1.0312    3.4224   -4.1464 H   0  0  0  0  0  0  0  0  0  0  0  0
    0.5725    3.1622   -1.3461 H   0  0  0  0  0  0  0  0  0  0  0  0
   -1.3666    2.7292   -3.6963 H   0  0  0  0  0  0  0  0  0  0  0  0
   -1.8434    2.9482   -2.0082 H   0  0  0  0  0  0  0  0  0  0  0  0
   -1.0632    4.2744   -2.8901 H   0  0  0  0  0  0  0  0  0  0  0  0
   -0.3037    0.7742   -0.9484 N   0  0  0  0  0  0  0  0  0  0  0  0
   -0.4352   -0.6095   -0.5718 C   0  0  2  0  0  0  0  0  0  0  0  0
   -0.4108   -0.7099    0.9498 C   0  0  0  0  0  0  0  0  0  0  0  0
   -0.4785   -1.7795    1.5522 O   0  0  0  0  0  0  0  0  0  0  0  0
    0.6248   -1.4899   -1.2442 C   0  0  0  0  0  0  0  0  0  0  0  0
    0.4553   -1.6243   -2.7632 C   0  0  0  0  0  0  0  0  0  0  0  0
    1.5309   -2.5343   -3.3608 C   0  0  0  0  0  0  0  0  0  0  0  0
    1.3746   -2.6456   -4.8702 C   0  0  0  0  0  0  0  0  0  0  0  0
    2.4492   -3.5147   -5.4072 N   0  3  0  0  0  0  0  0  0  0  0  0
   -0.6336    1.4811   -0.2948 H   0  0  0  0  0  0  0  0  0  0  0  0
   -1.4291   -0.9207   -0.9157 H   0  0  0  0  0  0  0  0  0  0  0  0
    1.6174   -1.0704   -1.0348 H   0  0  0  0  0  0  0  0  0  0  0  0
    0.6054   -2.4909   -0.7957 H   0  0  0  0  0  0  0  0  0  0  0  0
   -0.5337   -2.0365   -2.9945 H   0  0  0  0  0  0  0  0  0  0  0  0
    0.5148   -0.6369   -3.2358 H   0  0  0  0  0  0  0  0  0  0  0  0
    1.4637   -3.5304   -2.9057 H   0  0  0  0  0  0  0  0  0  0  0  0
    2.5244   -2.1369   -3.1184 H   0  0  0  0  0  0  0  0  0  0  0  0
    0.4232   -3.1071   -5.1509 H   0  0  0  0  0  0  0  0  0  0  0  0
    1.4739   -1.6752   -5.3655 H   0  0  0  0  0  0  0  0  0  0  0  0
    2.5833   -3.3558   -6.4118 H   0  0  0  0  0  0  0  0  0  0  0  0
    2.2215   -4.5061   -5.2724 H   0  0  0  0  0  0  0  0  0  0  0  0
    3.3418   -3.3292   -4.9365 H   0  0  0  0  0  0  0  0  0  0  0  0
   -0.2715    0.5300    1.5567 N   0  0  0  0  0  0  0  0  0  0  0  0
   -0.2070    0.6817    2.9907 C   0  0  2  0  0  0  0  0  0  0  0  0
   -0.3798    2.1596    3.3156 C   0  0  0  0  0  0  0  0  0  0  0  0
   -0.1462    3.0558    2.5073 O   0  0  0  0  0  0  0  0  0  0  0  0
    1.1072    0.1535    3.5445 C   0  0  0  0  0  0  0  0  0  0  0  0
   -0.2129    1.3587    0.9723 H   0  0  0  0  0  0  0  0  0  0  0  0
   -1.0471    0.1151    3.4068 H   0  0  0  0  0  0  0  0  0  0  0  0
    1.9606    0.7091    3.1389 H   0  0  0  0  0  0  0  0  0  0  0  0
    1.1428    0.2431    4.6352 H   0  0  0  0  0  0  0  0  0  0  0  0
    1.2437   -0.9017    3.2843 H   0  0  0  0  0  0  0  0  0  0  0  0
   -0.7840    2.3617    4.6277 N   0  0  0  0  0  0  0  0  0  0  0  0
   -1.0047    3.6772    5.1817 C   0  0  0  0  0  0  0  0  0  0  0  0
   -0.9725    1.5596    5.2217 H   0  0  0  0  0  0  0  0  0  0  0  0
   -0.0813    4.0329    5.6621 H   0  0  0  0  0  0  0  0  0  0  0  0
   -1.2898    4.3707    4.3769 H   0  0  0  0  0  0  0  0  0  0  0  0
   -1.8114    3.6300    5.9280 H   0  0  0  0  0  0  0  0  0  0  0  0
  1  3  1  0  0  0  0
  1  7  1  0  0  0  0
  1  2  2  0  0  0  0
 40 41  1  0  0  0  0
 41 49  1  0  0  0  0
 41 42  2  0  0  0  0
  8  9  1  0  0  0  0
  9 17  1  0  0  0  0
  9 10  2  0  0  0  0
 18 19  1  0  0  0  0
 19 39  1  0  0  0  0
 19 20  2  0  0  0  0
 40 43  1  0  0  0  0
  8 11  1  0  0  0  0
 49 50  1  0  0  0  0
 22 23  1  0  0  0  0
 21 22  1  0  0  0  0
 23 24  1  0  0  0  0
 18 21  1  0  0  0  0
 24 25  1  0  0  0  0
 39 40  1  0  0  0  0
  7  8  1  0  0  0  0
 17 18  1  0  0  0  0
  3  4  1  0  0  0  0
  3  5  1  0  0  0  0
  3  6  1  0  0  0  0
 43 46  1  0  0  0  0
 43 47  1  0  0  0  0
 43 48  1  0  0  0  0
 11 14  1  0  0  0  0
 11 15  1  0  0  0  0
 11 16  1  0  0  0  0
 50 52  1  0  0  0  0
 50 53  1  0  0  0  0
 50 54  1  0  0  0  0
 22 30  1  0  0  0  0
 22 31  1  0  0  0  0
 23 32  1  0  0  0  0
 23 33  1  0  0  0  0
 21 28  1  0  0  0  0
 21 29  1  0  0  0  0
 24 34  1  0  0  0  0
 24 35  1  0  0  0  0
 40 45  1  0  0  0  0
  8 13  1  0  0  0  0
 18 27  1  0  0  0  0
 49 51  1  0  0  0  0
  7 12  1  0  0  0  0
 39 44  1  0  0  0  0
 17 26  1  0  0  0  0
 25 36  1  0  0  0  0
 25 37  1  0  0  0  0
 25 38  1  0  0  0  0
M  CHG  1  25   1
M  END
$$$$

  -OEChem-05262214473D

 54 53  0     1  0  0  0  0  0999 V2000
    2.6714    2.8829   -3.0005 C   0  0  0  0  0  0  0  0  0  0  0  0
    3.1741    2.4398   -1.9745 O   0  0  0  0  0  0  0  0  0  0  0  0
    3.5527    3.3077   -4.1279 C   0  0  0  0  0  0  0  0  0  0  0  0
    3.8407    4.3691   -4.0597 H   0  0  0  0  0  0  0  0  0  0  0  0
    4.5024    2.7495   -4.1526 H   0  0  0  0  0  0  0  0  0  0  0  0
    3.1208    3.1887   -5.1345 H   0  0  0  0  0  0  0  0  0  0  0  0
    1.3174    3.0407   -3.2467 N   0  0  0  0  0  0  0  0  0  0  0  0
    0.2944    2.6927   -2.2960 C   0  0  2  0  0  0  0  0  0  0  0  0
    0.2976    1.1783   -2.1349 C   0  0  0  0  0  0  0  0  0  0  0  0
    0.7500    0.4142   -2.9850 O   0  0  0  0  0  0  0  0  0  0  0  0
   -1.0710    3.1886   -2.7460 C   0  0  0  0  0  0  0  0  0  0  0  0
    1.0312    3.4224   -4.1464 H   0  0  0  0  0  0  0  0  0  0  0  0
    0.5725    3.1622   -1.3461 H   0  0  0  0  0  0  0  0  0  0  0  0
   -1.3666    2.7292   -3.6963 H   0  0  0  0  0  0  0  0  0  0  0  0
   -1.8434    2.9482   -2.0082 H   0  0  0  0  0  0  0  0  0  0  0  0
   -1.0632    4.2744   -2.8901 H   0  0  0  0  0  0  0  0  0  0  0  0
   -0.3037    0.7742   -0.9484 N   0  0  0  0  0  0  0  0  0  0  0  0
   -0.4352   -0.6095   -0.5718 C   0  0  2  0  0  0  0  0  0  0  0  0
   -0.4108   -0.7099    0.9498 C   0  0  0  0  0  0  0  0  0  0  0  0
   -0.2099   -1.7645    1.5488 O   0  0  0  0  0  0  0  0  0  0  0  0
    0.6248   -1.4899   -1.2442 C   0  0  0  0  0  0  0  0  0  0  0  0
    0.4553   -1.6243   -2.7632 C   0  0  0  0  0  0  0  0  0  0  0  0
    1.5309   -2.5343   -3.3608 C   0  0  0  0  0  0  0  0  0  0  0  0
    1.3746   -2.6456   -4.8702 C   0  0  0  0  0  0  0  0  0  0  0  0
    2.4492   -3.5147   -5.4072 N   0  3  0  0  0  0  0  0  0  0  0  0
   -0.6336    1.4811   -0.2948 H   0  0  0  0  0  0  0  0  0  0  0  0
   -1.4291   -0.9207   -0.9157 H   0  0  0  0  0  0  0  0  0  0  0  0
    1.6174   -1.0704   -1.0348 H   0  0  0  0  0  0  0  0  0  0  0  0
    0.6054   -2.4909   -0.7957 H   0  0  0  0  0  0  0  0  0  0  0  0
   -0.5337   -2.0365   -2.9945 H   0  0  0  0  0  0  0  0  0  0  0  0
    0.5148   -0.6369   -3.2358 H   0  0  0  0  0  0  0  0  0  0  0  0
    1.4637   -3.5304   -2.9057 H   0  0  0  0  0  0  0  0  0  0  0  0
    2.5244   -2.1369   -3.1184 H   0  0  0  0  0  0  0  0  0  0  0  0
    0.4232   -3.1071   -5.1509 H   0  0  0  0  0  0  0  0  0  0  0  0
    1.4739   -1.6752   -5.3655 H   0  0  0  0  0  0  0  0  0  0  0  0
    2.5833   -3.3558   -6.4118 H   0  0  0  0  0  0  0  0  0  0  0  0
    2.2215   -4.5061   -5.2724 H   0  0  0  0  0  0  0  0  0  0  0  0
    3.3418   -3.3292   -4.9365 H   0  0  0  0  0  0  0  0  0  0  0  0
   -0.6064    0.5201    1.5614 N   0  0  0  0  0  0  0  0  0  0  0  0
   -0.6070    0.6741    2.9966 C   0  0  2  0  0  0  0  0  0  0  0  0
   -1.1609    2.0551    3.3212 C   0  0  0  0  0  0  0  0  0  0  0  0
   -1.1534    2.9864    2.5189 O   0  0  0  0  0  0  0  0  0  0  0  0
    0.7897    0.4996    3.5724 C   0  0  0  0  0  0  0  0  0  0  0  0
   -0.7542    1.3395    0.9797 H   0  0  0  0  0  0  0  0  0  0  0  0
   -1.2790   -0.0929    3.3968 H   0  0  0  0  0  0  0  0  0  0  0  0
    1.4773    1.2592    3.1829 H   0  0  0  0  0  0  0  0  0  0  0  0
    0.7830    0.5884    4.6638 H   0  0  0  0  0  0  0  0  0  0  0  0
    1.1984   -0.4830    3.3127 H   0  0  0  0  0  0  0  0  0  0  0  0
   -1.6253    2.1377    4.6265 N   0  0  0  0  0  0  0  0  0  0  0  0
   -2.1872    3.3480    5.1790 C   0  0  0  0  0  0  0  0  0  0  0  0
   -1.6099    1.3103    5.2155 H   0  0  0  0  0  0  0  0  0  0  0  0
   -1.3951    3.9270    5.6762 H   0  0  0  0  0  0  0  0  0  0  0  0
   -2.6285    3.9495    4.3706 H   0  0  0  0  0  0  0  0  0  0  0  0
   -2.9666    3.0894    5.9109 H   0  0  0  0  0  0  0  0  0  0  0  0
  1  3  1  0  0  0  0
  1  7  1  0  0  0  0
  1  2  2  0  0  0  0
 40 41  1  0  0  0  0
 41 49  1  0  0  0  0
 41 42  2  0  0  0  0
  8  9  1  0  0  0  0
  9 17  1  0  0  0  0
  9 10  2  0  0  0  0
 18 19  1  0  0  0  0
 19 39  1  0  0  0  0
 19 20  2  0  0  0  0
 40 43  1  0  0  0  0
  8 11  1  0  0  0  0
 49 50  1  0  0  0  0
 22 23  1  0  0  0  0
 21 22  1  0  0  0  0
 23 24  1  0  0  0  0
 18 21  1  0  0  0  0
 24 25  1  0  0  0  0
 39 40  1  0  0  0  0
  7  8  1  0  0  0  0
 17 18  1  0  0  0  0
  3  4  1  0  0  0  0
  3  5  1  0  0  0  0
  3  6  1  0  0  0  0
 43 46  1  0  0  0  0
 43 47  1  0  0  0  0
 43 48  1  0  0  0  0
 11 14  1  0  0  0  0
 11 15  1  0  0  0  0
 11 16  1  0  0  0  0
 50 52  1  0  0  0  0
 50 53  1  0  0  0  0
 50 54  1  0  0  0  0
 22 30  1  0  0  0  0
 22 31  1  0  0  0  0
 23 32  1  0  0  0  0
 23 33  1  0  0  0  0
 21 28  1  0  0  0  0
 21 29  1  0  0  0  0
 24 34  1  0  0  0  0
 24 35  1  0  0  0  0
 40 45  1  0  0  0  0
  8 13  1  0  0  0  0
 18 27  1  0  0  0  0
 49 51  1  0  0  0  0
  7 12  1  0  0  0  0
 39 44  1  0  0  0  0
 17 26  1  0  0  0  0
 25 36  1  0  0  0  0
 25 37  1  0  0  0  0
 25 38  1  0  0  0  0
M  CHG  1  25   1
M  END
$$$$

  -OEChem-05262214473D

 54 53  0     1  0  0  0  0  0999 V2000
    2.6714    2.8829   -3.0005 C   0  0  0  0  0  0  0  0  0  0  0  0
    3.1741    2.4398   -1.9745 O   0  0  0  0  0  0  0  0  0  0  0  0
    3.5527    3.3077   -4.1279 C   0  0  0  0  0  0  0  0  0  0  0  0
    3.8407    4.3691   -4.0597 H   0  0  0  0  0  0  0  0  0  0  0  0
    4.5024    2.7495   -4.1526 H   0  0  0  0  0  0  0  0  0  0  0  0
    3.1208    3.1887   -5.1345 H   0  0  0  0  0  0  0  0  0  0  0  0
    1.3174    3.0407   -3.2467 N   0  0  0  0  0  0  0  0  0  0  0  0
    0.2944    2.6927   -2.2960 C   0  0  2  0  0  0  0  0  0  0  0  0
    0.2976    1.1783   -2.1349 C   0  0  0  0  0  0  0  0  0  0  0  0
    0.7500    0.4142   -2.9850 O   0  0  0  0  0  0  0  0  0  0  0  0
   -1.0710    3.1886   -2.7460 C   0  0  0  0  0  0  0  0  0  0  0  0
    1.0312    3.4224   -4.1464 H   0  0  0  0  0  0  0  0  0  0  0  0
    0.5725    3.1622   -1.3461 H   0  0  0  0  0  0  0  0  0  0  0  0
   -1.3666    2.7292   -3.6963 H   0  0  0  0  0  0  0  0  0  0  0  0
   -1.8434    2.9482   -2.0082 H   0  0  0  0  0  0  0  0  0  0  0  0
   -1.0632    4.2744   -2.8901 H   0  0  0  0  0  0  0  0  0  0  0  0
   -0.3037    0.7742   -0.9484 N   0  0  0  0  0  0  0  0  0  0  0  0
   -0.4352   -0.6095   -0.5718 C   0  0  2  0  0  0  0  0  0  0  0  0
   -0.4108   -0.7099    0.9498 C   0  0  0  0  0  0  0  0  0  0  0  0
    0.0458   -1.6807    1.5503 O   0  0  0  0  0  0  0  0  0  0  0  0
    0.6248   -1.4899   -1.2442 C   0  0  0  0  0  0  0  0  0  0  0  0
    0.4553   -1.6243   -2.7632 C   0  0  0  0  0  0  0  0  0  0  0  0
    1.5309   -2.5343   -3.3608 C   0  0  0  0  0  0  0  0  0  0  0  0
    1.3746   -2.6456   -4.8702 C   0  0  0  0  0  0  0  0  0  0  0  0
    2.4492   -3.5147   -5.4072 N   0  3  0  0  0  0  0  0  0  0  0  0
   -0.6336    1.4811   -0.2948 H   0  0  0  0  0  0  0  0  0  0  0  0
   -1.4291   -0.9207   -0.9157 H   0  0  0  0  0  0  0  0  0  0  0  0
    1.6174   -1.0704   -1.0348 H   0  0  0  0  0  0  0  0  0  0  0  0
    0.6054   -2.4909   -0.7957 H   0  0  0  0  0  0  0  0  0  0  0  0
   -0.5337   -2.0365   -2.9945 H   0  0  0  0  0  0  0  0  0  0  0  0
    0.5148   -0.6369   -3.2358 H   0  0  0  0  0  0  0  0  0  0  0  0
    1.4637   -3.5304   -2.9057 H   0  0  0  0  0  0  0  0  0  0  0  0
    2.5244   -2.1369   -3.1184 H   0  0  0  0  0  0  0  0  0  0  0  0
    0.4232   -3.1071   -5.1509 H   0  0  0  0  0  0  0  0  0  0  0  0
    1.4739   -1.6752   -5.3655 H   0  0  0  0  0  0  0  0  0  0  0  0
    2.5833   -3.3558   -6.4118 H   0  0  0  0  0  0  0  0  0  0  0  0
    2.2215   -4.5061   -5.2724 H   0  0  0  0  0  0  0  0  0  0  0  0
    3.3418   -3.3292   -4.9365 H   0  0  0  0  0  0  0  0  0  0  0  0
   -0.9275    0.4239    1.5602 N   0  0  0  0  0  0  0  0  0  0  0  0
   -0.9915    0.5634    2.9955 C   0  0  2  0  0  0  0  0  0  0  0  0
   -1.8885    1.7525    3.3129 C   0  0  0  0  0  0  0  0  0  0  0  0
   -2.1086    2.6593    2.5126 O   0  0  0  0  0  0  0  0  0  0  0  0
    0.3932    0.7518    3.5954 C   0  0  0  0  0  0  0  0  0  0  0  0
   -1.2723    1.1811    0.9776 H   0  0  0  0  0  0  0  0  0  0  0  0
   -1.4491   -0.3536    3.3823 H   0  0  0  0  0  0  0  0  0  0  0  0
    0.8676    1.6657    3.2195 H   0  0  0  0  0  0  0  0  0  0  0  0
    0.3458    0.8289    4.6866 H   0  0  0  0  0  0  0  0  0  0  0  0
    1.0460   -0.0903    3.3411 H   0  0  0  0  0  0  0  0  0  0  0  0
   -2.3799    1.7040    4.6100 N   0  0  0  0  0  0  0  0  0  0  0  0
   -3.2445    2.7247    5.1548 C   0  0  0  0  0  0  0  0  0  0  0  0
   -2.1612    0.9049    5.1976 H   0  0  0  0  0  0  0  0  0  0  0  0
   -2.6370    3.4854    5.6670 H   0  0  0  0  0  0  0  0  0  0  0  0
   -3.8127    3.1970    4.3400 H   0  0  0  0  0  0  0  0  0  0  0  0
   -3.9425    2.2689    5.8725 H   0  0  0  0  0  0  0  0  0  0  0  0
  1  3  1  0  0  0  0
  1  7  1  0  0  0  0
  1  2  2  0  0  0  0
 40 41  1  0  0  0  0
 41 49  1  0  0  0  0
 41 42  2  0  0  0  0
  8  9  1  0  0  0  0
  9 17  1  0  0  0  0
  9 10  2  0  0  0  0
 18 19  1  0  0  0  0
 19 39  1  0  0  0  0
 19 20  2  0  0  0  0
 40 43  1  0  0  0  0
  8 11  1  0  0  0  0
 49 50  1  0  0  0  0
 22 23  1  0  0  0  0
 21 22  1  0  0  0  0
 23 24  1  0  0  0  0
 18 21  1  0  0  0  0
 24 25  1  0  0  0  0
 39 40  1  0  0  0  0
  7  8  1  0  0  0  0
 17 18  1  0  0  0  0
  3  4  1  0  0  0  0
  3  5  1  0  0  0  0
  3  6  1  0  0  0  0
 43 46  1  0  0  0  0
 43 47  1  0  0  0  0
 43 48  1  0  0  0  0
 11 14  1  0  0  0  0
 11 15  1  0  0  0  0
 11 16  1  0  0  0  0
 50 52  1  0  0  0  0
 50 53  1  0  0  0  0
 50 54  1  0  0  0  0
 22 30  1  0  0  0  0
 22 31  1  0  0  0  0
 23 32  1  0  0  0  0
 23 33  1  0  0  0  0
 21 28  1  0  0  0  0
 21 29  1  0  0  0  0
 24 34  1  0  0  0  0
 24 35  1  0  0  0  0
 40 45  1  0  0  0  0
  8 13  1  0  0  0  0
 18 27  1  0  0  0  0
 49 51  1  0  0  0  0
  7 12  1  0  0  0  0
 39 44  1  0  0  0  0
 17 26  1  0  0  0  0
 25 36  1  0  0  0  0
 25 37  1  0  0  0  0
 25 38  1  0  0  0  0
M  CHG  1  25   1
M  END
$$$$

  -OEChem-05262214473D

 54 53  0     1  0  0  0  0  0999 V2000
    2.6714    2.8829   -3.0005 C   0  0  0  0  0  0  0  0  0  0  0  0
    3.1741    2.4398   -1.9745 O   0  0  0  0  0  0  0  0  0  0  0  0
    3.5527    3.3077   -4.1279 C   0  0  0  0  0  0  0  0  0  0  0  0
    3.8407    4.3691   -4.0597 H   0  0  0  0  0  0  0  0  0  0  0  0
    4.5024    2.7495   -4.1526 H   0  0  0  0  0  0  0  0  0  0  0  0
    3.1208    3.1887   -5.1345 H   0  0  0  0  0  0  0  0  0  0  0  0
    1.3174    3.0407   -3.2467 N   0  0  0  0  0  0  0  0  0  0  0  0
    0.2944    2.6927   -2.2960 C   0  0  2  0  0  0  0  0  0  0  0  0
    0.2976    1.1783   -2.1349 C   0  0  0  0  0  0  0  0  0  0  0  0
    0.7500    0.4142   -2.9850 O   0  0  0  0  0  0  0  0  0  0  0  0
   -1.0710    3.1886   -2.7460 C   0  0  0  0  0  0  0  0  0  0  0  0
    1.0312    3.4224   -4.1464 H   0  0  0  0  0  0  0  0  0  0  0  0
    0.5725    3.1622   -1.3461 H   0  0  0  0  0  0  0  0  0  0  0  0
   -1.3666    2.7292   -3.6963 H   0  0  0  0  0  0  0  0  0  0  0  0
   -1.8434    2.9482   -2.0082 H   0  0  0  0  0  0  0  0  0  0  0  0
   -1.0632    4.2744   -2.8901 H   0  0  0  0  0  0  0  0  0  0  0  0
   -0.3037    0.7742   -0.9484 N   0  0  0  0  0  0  0  0  0  0  0  0
   -0.4352   -0.6095   -0.5718 C   0  0  2  0  0  0  0  0  0  0  0  0
   -0.4108   -0.7099    0.9498 C   0  0  0  0  0  0  0  0  0  0  0  0
    0.2711   -1.5337    1.5563 O   0  0  0  0  0  0  0  0  0  0  0  0
    0.6248   -1.4899   -1.2442 C   0  0  0  0  0  0  0  0  0  0  0  0
    0.4553   -1.6243   -2.7632 C   0  0  0  0  0  0  0  0  0  0  0  0
    1.5309   -2.5343   -3.3608 C   0  0  0  0  0  0  0  0  0  0  0  0
    1.3746   -2.6456   -4.8702 C   0  0  0  0  0  0  0  0  0  0  0  0
    2.4492   -3.5147   -5.4072 N   0  3  0  0  0  0  0  0  0  0  0  0
   -0.6336    1.4811   -0.2948 H   0  0  0  0  0  0  0  0  0  0  0  0
   -1.4291   -0.9207   -0.9157 H   0  0  0  0  0  0  0  0  0  0  0  0
    1.6174   -1.0704   -1.0348 H   0  0  0  0  0  0  0  0  0  0  0  0
    0.6054   -2.4909   -0.7957 H   0  0  0  0  0  0  0  0  0  0  0  0
   -0.5337   -2.0365   -2.9945 H   0  0  0  0  0  0  0  0  0  0  0  0
    0.5148   -0.6369   -3.2358 H   0  0  0  0  0  0  0  0  0  0  0  0
    1.4637   -3.5304   -2.9057 H   0  0  0  0  0  0  0  0  0  0  0  0
    2.5244   -2.1369   -3.1184 H   0  0  0  0  0  0  0  0  0  0  0  0
    0.4232   -3.1071   -5.1509 H   0  0  0  0  0  0  0  0  0  0  0  0
    1.4739   -1.6752   -5.3655 H   0  0  0  0  0  0  0  0  0  0  0  0
    2.5833   -3.3558   -6.4118 H   0  0  0  0  0  0  0  0  0  0  0  0
    2.2215   -4.5061   -5.2724 H   0  0  0  0  0  0  0  0  0  0  0  0
    3.3418   -3.3292   -4.9365 H   0  0  0  0  0  0  0  0  0  0  0  0
   -1.2128    0.2481    1.5532 N   0  0  0  0  0  0  0  0  0  0  0  0
   -1.3343    0.3573    2.9874 C   0  0  2  0  0  0  0  0  0  0  0  0
   -2.5131    1.2724    3.2913 C   0  0  0  0  0  0  0  0  0  0  0  0
   -2.9467    2.0967    2.4889 O   0  0  0  0  0  0  0  0  0  0  0  0
   -0.0553    0.8929    3.6119 C   0  0  0  0  0  0  0  0  0  0  0  0
   -1.7317    0.8943    0.9660 H   0  0  0  0  0  0  0  0  0  0  0  0
   -1.5459   -0.6493    3.3644 H   0  0  0  0  0  0  0  0  0  0  0  0
    0.1731    1.9007    3.2462 H   0  0  0  0  0  0  0  0  0  0  0  0
   -0.1390    0.9482    4.7023 H   0  0  0  0  0  0  0  0  0  0  0  0
    0.7969    0.2496    3.3675 H   0  0  0  0  0  0  0  0  0  0  0  0
   -2.9966    1.0904    4.5794 N   0  0  0  0  0  0  0  0  0  0  0  0
   -4.1043    1.8497    5.1109 C   0  0  0  0  0  0  0  0  0  0  0  0
   -2.5886    0.3711    5.1693 H   0  0  0  0  0  0  0  0  0  0  0  0
   -3.7224    2.7382    5.6351 H   0  0  0  0  0  0  0  0  0  0  0  0
   -4.7617    2.1645    4.2871 H   0  0  0  0  0  0  0  0  0  0  0  0
   -4.6727    1.2246    5.8153 H   0  0  0  0  0  0  0  0  0  0  0  0
  1  3  1  0  0  0  0
  1  7  1  0  0  0  0
  1  2  2  0  0  0  0
 40 41  1  0  0  0  0
 41 49  1  0  0  0  0
 41 42  2  0  0  0  0
  8  9  1  0  0  0  0
  9 17  1  0  0  0  0
  9 10  2  0  0  0  0
 18 19  1  0  0  0  0
 19 39  1  0  0  0  0
 19 20  2  0  0  0  0
 40 43  1  0  0  0  0
  8 11  1  0  0  0  0
 49 50  1  0  0  0  0
 22 23  1  0  0  0  0
 21 22  1  0  0  0  0
 23 24  1  0  0  0  0
 18 21  1  0  0  0  0
 24 25  1  0  0  0  0
 39 40  1  0  0  0  0
  7  8  1  0  0  0  0
 17 18  1  0  0  0  0
  3  4  1  0  0  0  0
  3  5  1  0  0  0  0
  3  6  1  0  0  0  0
 43 46  1  0  0  0  0
 43 47  1  0  0  0  0
 43 48  1  0  0  0  0
 11 14  1  0  0  0  0
 11 15  1  0  0  0  0
 11 16  1  0  0  0  0
 50 52  1  0  0  0  0
 50 53  1  0  0  0  0
 50 54  1  0  0  0  0
 22 30  1  0  0  0  0
 22 31  1  0  0  0  0
 23 32  1  0  0  0  0
 23 33  1  0  0  0  0
 21 28  1  0  0  0  0
 21 29  1  0  0  0  0
 24 34  1  0  0  0  0
 24 35  1  0  0  0  0
 40 45  1  0  0  0  0
  8 13  1  0  0  0  0
 18 27  1  0  0  0  0
 49 51  1  0  0  0  0
  7 12  1  0  0  0  0
 39 44  1  0  0  0  0
 17 26  1  0  0  0  0
 25 36  1  0  0  0  0
 25 37  1  0  0  0  0
 25 38  1  0  0  0  0
M  CHG  1  25   1
M  END
$$$$

  -OEChem-05262214473D

 54 53  0     1  0  0  0  0  0999 V2000
    2.6714    2.8829   -3.0005 C   0  0  0  0  0  0  0  0  0  0  0  0
    3.1741    2.4398   -1.9745 O   0  0  0  0  0  0  0  0  0  0  0  0
    3.5527    3.3077   -4.1279 C   0  0  0  0  0  0  0  0  0  0  0  0
    3.8407    4.3691   -4.0597 H   0  0  0  0  0  0  0  0  0  0  0  0
    4.5024    2.7495   -4.1526 H   0  0  0  0  0  0  0  0  0  0  0  0
    3.1208    3.1887   -5.1345 H   0  0  0  0  0  0  0  0  0  0  0  0
    1.3174    3.0407   -3.2467 N   0  0  0  0  0  0  0  0  0  0  0  0
    0.2944    2.6927   -2.2960 C   0  0  2  0  0  0  0  0  0  0  0  0
    0.2976    1.1783   -2.1349 C   0  0  0  0  0  0  0  0  0  0  0  0
    0.7500    0.4142   -2.9850 O   0  0  0  0  0  0  0  0  0  0  0  0
   -1.0710    3.1886   -2.7460 C   0  0  0  0  0  0  0  0  0  0  0  0
    1.0312    3.4224   -4.1464 H   0  0  0  0  0  0  0  0  0  0  0  0
    0.5725    3.1622   -1.3461 H   0  0  0  0  0  0  0  0  0  0  0  0
   -1.3666    2.7292   -3.6963 H   0  0  0  0  0  0  0  0  0  0  0  0
   -1.8434    2.9482   -2.0082 H   0  0  0  0  0  0  0  0  0  0  0  0
   -1.0632    4.2744   -2.8901 H   0  0  0  0  0  0  0  0  0  0  0  0
   -0.3037    0.7742   -0.9484 N   0  0  0  0  0  0  0  0  0  0  0  0
   -0.4352   -0.6095   -0.5718 C   0  0  2  0  0  0  0  0  0  0  0  0
   -0.4108   -0.7099    0.9498 C   0  0  0  0  0  0  0  0  0  0  0  0
    0.4506   -1.3336    1.5667 O   0  0  0  0  0  0  0  0  0  0  0  0
    0.6248   -1.4899   -1.2442 C   0  0  0  0  0  0  0  0  0  0  0  0
    0.4553   -1.6243   -2.7632 C   0  0  0  0  0  0  0  0  0  0  0  0
    1.5309   -2.5343   -3.3608 C   0  0  0  0  0  0  0  0  0  0  0  0
    1.3746   -2.6456   -4.8702 C   0  0  0  0  0  0  0  0  0  0  0  0
    2.4492   -3.5147   -5.4072 N   0  3  0  0  0  0  0  0  0  0  0  0
   -0.6336    1.4811   -0.2948 H   0  0  0  0  0  0  0  0  0  0  0  0
   -1.4291   -0.9207   -0.9157 H   0  0  0  0  0  0  0  0  0  0  0  0
    1.6174   -1.0704   -1.0348 H   0  0  0  0  0  0  0  0  0  0  0  0
    0.6054   -2.4909   -0.7957 H   0  0  0  0  0  0  0  0  0  0  0  0
   -0.5337   -2.0365   -2.9945 H   0  0  0  0  0  0  0  0  0  0  0  0
    0.5148   -0.6369   -3.2358 H   0  0  0  0  0  0  0  0  0  0  0  0
    1.4637   -3.5304   -2.9057 H   0  0  0  0  0  0  0  0  0  0  0  0
    2.5244   -2.1369   -3.1184 H   0  0  0  0  0  0  0  0  0  0  0  0
    0.4232   -3.1071   -5.1509 H   0  0  0  0  0  0  0  0  0  0  0  0
    1.4739   -1.6752   -5.3655 H   0  0  0  0  0  0  0  0  0  0  0  0
    2.5833   -3.3558   -6.4118 H   0  0  0  0  0  0  0  0  0  0  0  0
    2.2215   -4.5061   -5.2724 H   0  0  0  0  0  0  0  0  0  0  0  0
    3.3418   -3.3292   -4.9365 H   0  0  0  0  0  0  0  0  0  0  0  0
   -1.4428    0.0047    1.5408 N   0  0  0  0  0  0  0  0  0  0  0  0
   -1.6120    0.0696    2.9729 C   0  0  2  0  0  0  0  0  0  0  0  0
   -2.9921    0.6474    3.2577 C   0  0  0  0  0  0  0  0  0  0  0  0
   -3.6105    1.3369    2.4495 O   0  0  0  0  0  0  0  0  0  0  0  0
   -0.5252    0.9133    3.6208 C   0  0  0  0  0  0  0  0  0  0  0  0
   -2.1013    0.4987    0.9459 H   0  0  0  0  0  0  0  0  0  0  0  0
   -1.5627   -0.9598    3.3441 H   0  0  0  0  0  0  0  0  0  0  0  0
   -0.5588    1.9482    3.2610 H   0  0  0  0  0  0  0  0  0  0  0  0
   -0.6384    0.9381    4.7096 H   0  0  0  0  0  0  0  0  0  0  0  0
    0.4681    0.5134    3.3902 H   0  0  0  0  0  0  0  0  0  0  0  0
   -3.4333    0.3385    4.5368 N   0  0  0  0  0  0  0  0  0  0  0  0
   -4.7081    0.7827    5.0502 C   0  0  0  0  0  0  0  0  0  0  0  0
   -2.8632   -0.2548    5.1324 H   0  0  0  0  0  0  0  0  0  0  0  0
   -4.5774    1.7363    5.5827 H   0  0  0  0  0  0  0  0  0  0  0  0
   -5.4109    0.9223    4.2156 H   0  0  0  0  0  0  0  0  0  0  0  0
   -5.1074    0.0276    5.7433 H   0  0  0  0  0  0  0  0  0  0  0  0
  1  3  1  0  0  0  0
  1  7  1  0  0  0  0
  1  2  2  0  0  0  0
 40 41  1  0  0  0  0
 41 49  1  0  0  0  0
 41 42  2  0  0  0  0
  8  9  1  0  0  0  0
  9 17  1  0  0  0  0
  9 10  2  0  0  0  0
 18 19  1  0  0  0  0
 19 39  1  0  0  0  0
 19 20  2  0  0  0  0
 40 43  1  0  0  0  0
  8 11  1  0  0  0  0
 49 50  1  0  0  0  0
 22 23  1  0  0  0  0
 21 22  1  0  0  0  0
 23 24  1  0  0  0  0
 18 21  1  0  0  0  0
 24 25  1  0  0  0  0
 39 40  1  0  0  0  0
  7  8  1  0  0  0  0
 17 18  1  0  0  0  0
  3  4  1  0  0  0  0
  3  5  1  0  0  0  0
  3  6  1  0  0  0  0
 43 46  1  0  0  0  0
 43 47  1  0  0  0  0
 43 48  1  0  0  0  0
 11 14  1  0  0  0  0
 11 15  1  0  0  0  0
 11 16  1  0  0  0  0
 50 52  1  0  0  0  0
 50 53  1  0  0  0  0
 50 54  1  0  0  0  0
 22 30  1  0  0  0  0
 22 31  1  0  0  0  0
 23 32  1  0  0  0  0
 23 33  1  0  0  0  0
 21 28  1  0  0  0  0
 21 29  1  0  0  0  0
 24 34  1  0  0  0  0
 24 35  1  0  0  0  0
 40 45  1  0  0  0  0
  8 13  1  0  0  0  0
 18 27  1  0  0  0  0
 49 51  1  0  0  0  0
  7 12  1  0  0  0  0
 39 44  1  0  0  0  0
 17 26  1  0  0  0  0
 25 36  1  0  0  0  0
 25 37  1  0  0  0  0
 25 38  1  0  0  0  0
M  CHG  1  25   1
M  END
$$$$

  -OEChem-05262214473D

 54 53  0     1  0  0  0  0  0999 V2000
    2.6714    2.8829   -3.0005 C   0  0  0  0  0  0  0  0  0  0  0  0
    3.1741    2.4398   -1.9745 O   0  0  0  0  0  0  0  0  0  0  0  0
    3.5527    3.3077   -4.1279 C   0  0  0  0  0  0  0  0  0  0  0  0
    3.8407    4.3691   -4.0597 H   0  0  0  0  0  0  0  0  0  0  0  0
    4.5024    2.7495   -4.1526 H   0  0  0  0  0  0  0  0  0  0  0  0
    3.1208    3.1887   -5.1345 H   0  0  0  0  0  0  0  0  0  0  0  0
    1.3174    3.0407   -3.2467 N   0  0  0  0  0  0  0  0  0  0  0  0
    0.2944    2.6927   -2.2960 C   0  0  2  0  0  0  0  0  0  0  0  0
    0.2976    1.1783   -2.1349 C   0  0  0  0  0  0  0  0  0  0  0  0
    0.7500    0.4142   -2.9850 O   0  0  0  0  0  0  0  0  0  0  0  0
   -1.0710    3.1886   -2.7460 C   0  0  0  0  0  0  0  0  0  0  0  0
    1.0312    3.4224   -4.1464 H   0  0  0  0  0  0  0  0  0  0  0  0
    0.5725    3.1622   -1.3461 H   0  0  0  0  0  0  0  0  0  0  0  0
   -1.3666    2.7292   -3.6963 H   0  0  0  0  0  0  0  0  0  0  0  0
   -1.8434    2.9482   -2.0082 H   0  0  0  0  0  0  0  0  0  0  0  0
   -1.0632    4.2744   -2.8901 H   0  0  0  0  0  0  0  0  0  0  0  0
   -0.3037    0.7742   -0.9484 N   0  0  0  0  0  0  0  0  0  0  0  0
   -0.4352   -0.6095   -0.5718 C   0  0  2  0  0  0  0  0  0  0  0  0
   -0.4108   -0.7099    0.9498 C   0  0  0  0  0  0  0  0  0  0  0  0
    0.5722   -1.0939    1.5805 O   0  0  0  0  0  0  0  0  0  0  0  0
    0.6248   -1.4899   -1.2442 C   0  0  0  0  0  0  0  0  0  0  0  0
    0.4553   -1.6243   -2.7632 C   0  0  0  0  0  0  0  0  0  0  0  0
    1.5309   -2.5343   -3.3608 C   0  0  0  0  0  0  0  0  0  0  0  0
    1.3746   -2.6456   -4.8702 C   0  0  0  0  0  0  0  0  0  0  0  0
    2.4492   -3.5147   -5.4072 N   0  3  0  0  0  0  0  0  0  0  0  0
   -0.6336    1.4811   -0.2948 H   0  0  0  0  0  0  0  0  0  0  0  0
   -1.4291   -0.9207   -0.9157 H   0  0  0  0  0  0  0  0  0  0  0  0
    1.6174   -1.0704   -1.0348 H   0  0  0  0  0  0  0  0  0  0  0  0
    0.6054   -2.4909   -0.7957 H   0  0  0  0  0  0  0  0  0  0  0  0
   -0.5337   -2.0365   -2.9945 H   0  0  0  0  0  0  0  0  0  0  0  0
    0.5148   -0.6369   -3.2358 H   0  0  0  0  0  0  0  0  0  0  0  0
    1.4637   -3.5304   -2.9057 H   0  0  0  0  0  0  0  0  0  0  0  0
    2.5244   -2.1369   -3.1184 H   0  0  0  0  0  0  0  0  0  0  0  0
    0.4232   -3.1071   -5.1509 H   0  0  0  0  0  0  0  0  0  0  0  0
    1.4739   -1.6752   -5.3655 H   0  0  0  0  0  0  0  0  0  0  0  0
    2.5833   -3.3558   -6.4118 H   0  0  0  0  0  0  0  0  0  0  0  0
    2.2215   -4.5061   -5.2724 H   0  0  0  0  0  0  0  0  0  0  0  0
    3.3418   -3.3292   -4.9365 H   0  0  0  0  0  0  0  0  0  0  0  0
   -1.6020   -0.2897    1.5239 N   0  0  0  0  0  0  0  0  0  0  0  0
   -1.8058   -0.2798    2.9529 C   0  0  2  0  0  0  0  0  0  0  0  0
   -3.2927   -0.0798    3.2146 C   0  0  0  0  0  0  0  0  0  0  0  0
   -4.0548    0.4318    2.3969 O   0  0  0  0  0  0  0  0  0  0  0  0
   -0.9846    0.8117    3.6214 C   0  0  0  0  0  0  0  0  0  0  0  0
   -2.3558    0.0213    0.9185 H   0  0  0  0  0  0  0  0  0  0  0  0
   -1.4984   -1.2640    3.3230 H   0  0  0  0  0  0  0  0  0  0  0  0
   -1.2784    1.8051    3.2632 H   0  0  0  0  0  0  0  0  0  0  0  0
   -1.1182    0.7995    4.7082 H   0  0  0  0  0  0  0  0  0  0  0  0
    0.0820    0.6833    3.4076 H   0  0  0  0  0  0  0  0  0  0  0  0
   -3.6603   -0.5003    4.4851 N   0  0  0  0  0  0  0  0  0  0  0  0
   -5.0148   -0.4036    4.9769 C   0  0  0  0  0  0  0  0  0  0  0  0
   -2.9662   -0.9301    5.0895 H   0  0  0  0  0  0  0  0  0  0  0  0
   -5.1436    0.5480    5.5134 H   0  0  0  0  0  0  0  0  0  0  0  0
   -5.7159   -0.4448    4.1303 H   0  0  0  0  0  0  0  0  0  0  0  0
   -5.2169   -1.2407    5.6614 H   0  0  0  0  0  0  0  0  0  0  0  0
  1  3  1  0  0  0  0
  1  7  1  0  0  0  0
  1  2  2  0  0  0  0
 40 41  1  0  0  0  0
 41 49  1  0  0  0  0
 41 42  2  0  0  0  0
  8  9  1  0  0  0  0
  9 17  1  0  0  0  0
  9 10  2  0  0  0  0
 18 19  1  0  0  0  0
 19 39  1  0  0  0  0
 19 20  2  0  0  0  0
 40 43  1  0  0  0  0
  8 11  1  0  0  0  0
 49 50  1  0  0  0  0
 22 23  1  0  0  0  0
 21 22  1  0  0  0  0
 23 24  1  0  0  0  0
 18 21  1  0  0  0  0
 24 25  1  0  0  0  0
 39 40  1  0  0  0  0
  7  8  1  0  0  0  0
 17 18  1  0  0  0  0
  3  4  1  0  0  0  0
  3  5  1  0  0  0  0
  3  6  1  0  0  0  0
 43 46  1  0  0  0  0
 43 47  1  0  0  0  0
 43 48  1  0  0  0  0
 11 14  1  0  0  0  0
 11 15  1  0  0  0  0
 11 16  1  0  0  0  0
 50 52  1  0  0  0  0
 50 53  1  0  0  0  0
 50 54  1  0  0  0  0
 22 30  1  0  0  0  0
 22 31  1  0  0  0  0
 23 32  1  0  0  0  0
 23 33  1  0  0  0  0
 21 28  1  0  0  0  0
 21 29  1  0  0  0  0
 24 34  1  0  0  0  0
 24 35  1  0  0  0  0
 40 45  1  0  0  0  0
  8 13  1  0  0  0  0
 18 27  1  0  0  0  0
 49 51  1  0  0  0  0
  7 12  1  0  0  0  0
 39 44  1  0  0  0  0
 17 26  1  0  0  0  0
 25 36  1  0  0  0  0
 25 37  1  0  0  0  0
 25 38  1  0  0  0  0
M  CHG  1  25   1
M  END
$$$$

  -OEChem-05262214473D

 54 53  0     1  0  0  0  0  0999 V2000
    2.6714    2.8829   -3.0005 C   0  0  0  0  0  0  0  0  0  0  0  0
    3.1741    2.4398   -1.9745 O   0  0  0  0  0  0  0  0  0  0  0  0
    3.5527    3.3077   -4.1279 C   0  0  0  0  0  0  0  0  0  0  0  0
    3.8407    4.3691   -4.0597 H   0  0  0  0  0  0  0  0  0  0  0  0
    4.5024    2.7495   -4.1526 H   0  0  0  0  0  0  0  0  0  0  0  0
    3.1208    3.1887   -5.1345 H   0  0  0  0  0  0  0  0  0  0  0  0
    1.3174    3.0407   -3.2467 N   0  0  0  0  0  0  0  0  0  0  0  0
    0.2944    2.6927   -2.2960 C   0  0  2  0  0  0  0  0  0  0  0  0
    0.2976    1.1783   -2.1349 C   0  0  0  0  0  0  0  0  0  0  0  0
    0.7500    0.4142   -2.9850 O   0  0  0  0  0  0  0  0  0  0  0  0
   -1.0710    3.1886   -2.7460 C   0  0  0  0  0  0  0  0  0  0  0  0
    1.0312    3.4224   -4.1464 H   0  0  0  0  0  0  0  0  0  0  0  0
    0.5725    3.1622   -1.3461 H   0  0  0  0  0  0  0  0  0  0  0  0
   -1.3666    2.7292   -3.6963 H   0  0  0  0  0  0  0  0  0  0  0  0
   -1.8434    2.9482   -2.0082 H   0  0  0  0  0  0  0  0  0  0  0  0
   -1.0632    4.2744   -2.8901 H   0  0  0  0  0  0  0  0  0  0  0  0
   -0.3037    0.7742   -0.9484 N   0  0  0  0  0  0  0  0  0  0  0  0
   -0.4352   -0.6095   -0.5718 C   0  0  2  0  0  0  0  0  0  0  0  0
   -0.4108   -0.7099    0.9498 C   0  0  0  0  0  0  0  0  0  0  0  0
    0.6275   -0.8312    1.5970 O   0  0  0  0  0  0  0  0  0  0  0  0
    0.6248   -1.4899   -1.2442 C   0  0  0  0  0  0  0  0  0  0  0  0
    0.4553   -1.6243   -2.7632 C   0  0  0  0  0  0  0  0  0  0  0  0
    1.5309   -2.5343   -3.3608 C   0  0  0  0  0  0  0  0  0  0  0  0
    1.3746   -2.6456   -4.8702 C   0  0  0  0  0  0  0  0  0  0  0  0
    2.4492   -3.5147   -5.4072 N   0  3  0  0  0  0  0  0  0  0  0  0
   -0.6336    1.4811   -0.2948 H   0  0  0  0  0  0  0  0  0  0  0  0
   -1.4291   -0.9207   -0.9157 H   0  0  0  0  0  0  0  0  0  0  0  0
    1.6174   -1.0704   -1.0348 H   0  0  0  0  0  0  0  0  0  0  0  0
    0.6054   -2.4909   -0.7957 H   0  0  0  0  0  0  0  0  0  0  0  0
   -0.5337   -2.0365   -2.9945 H   0  0  0  0  0  0  0  0  0  0  0  0
    0.5148   -0.6369   -3.2358 H   0  0  0  0  0  0  0  0  0  0  0  0
    1.4637   -3.5304   -2.9057 H   0  0  0  0  0  0  0  0  0  0  0  0
    2.5244   -2.1369   -3.1184 H   0  0  0  0  0  0  0  0  0  0  0  0
    0.4232   -3.1071   -5.1509 H   0  0  0  0  0  0  0  0  0  0  0  0
    1.4739   -1.6752   -5.3655 H   0  0  0  0  0  0  0  0  0  0  0  0
    2.5833   -3.3558   -6.4118 H   0  0  0  0  0  0  0  0  0  0  0  0
    2.2215   -4.5061   -5.2724 H   0  0  0  0  0  0  0  0  0  0  0  0
    3.3418   -3.3292   -4.9365 H   0  0  0  0  0  0  0  0  0  0  0  0
   -1.6794   -0.6152    1.5037 N   0  0  0  0  0  0  0  0  0  0  0  0
   -1.9023   -0.6674    2.9289 C   0  0  2  0  0  0  0  0  0  0  0  0
   -3.3946   -0.8597    3.1647 C   0  0  0  0  0  0  0  0  0  0  0  0
   -4.2494   -0.5570    2.3348 O   0  0  0  0  0  0  0  0  0  0  0  0
   -1.4021    0.5949    3.6138 C   0  0  0  0  0  0  0  0  0  0  0  0
   -2.4779   -0.5055    0.8857 H   0  0  0  0  0  0  0  0  0  0  0  0
   -1.3574   -1.5412    3.3025 H   0  0  0  0  0  0  0  0  0  0  0  0
   -1.9365    1.4810    3.2523 H   0  0  0  0  0  0  0  0  0  0  0  0
   -1.5459    0.5416    4.6980 H   0  0  0  0  0  0  0  0  0  0  0  0
   -0.3351    0.7476    3.4185 H   0  0  0  0  0  0  0  0  0  0  0  0
   -3.6620   -1.3690    4.4278 N   0  0  0  0  0  0  0  0  0  0  0  0
   -5.0035   -1.6284    4.8959 C   0  0  0  0  0  0  0  0  0  0  0  0
   -2.8905   -1.6088    5.0435 H   0  0  0  0  0  0  0  0  0  0  0  0
   -5.3825   -0.7458    5.4319 H   0  0  0  0  0  0  0  0  0  0  0  0
   -5.6561   -1.8438    4.0370 H   0  0  0  0  0  0  0  0  0  0  0  0
   -4.9938   -2.4936    5.5751 H   0  0  0  0  0  0  0  0  0  0  0  0
  1  3  1  0  0  0  0
  1  7  1  0  0  0  0
  1  2  2  0  0  0  0
 40 41  1  0  0  0  0
 41 49  1  0  0  0  0
 41 42  2  0  0  0  0
  8  9  1  0  0  0  0
  9 17  1  0  0  0  0
  9 10  2  0  0  0  0
 18 19  1  0  0  0  0
 19 39  1  0  0  0  0
 19 20  2  0  0  0  0
 40 43  1  0  0  0  0
  8 11  1  0  0  0  0
 49 50  1  0  0  0  0
 22 23  1  0  0  0  0
 21 22  1  0  0  0  0
 23 24  1  0  0  0  0
 18 21  1  0  0  0  0
 24 25  1  0  0  0  0
 39 40  1  0  0  0  0
  7  8  1  0  0  0  0
 17 18  1  0  0  0  0
  3  4  1  0  0  0  0
  3  5  1  0  0  0  0
  3  6  1  0  0  0  0
 43 46  1  0  0  0  0
 43 47  1  0  0  0  0
 43 48  1  0  0  0  0
 11 14  1  0  0  0  0
 11 15  1  0  0  0  0
 11 16  1  0  0  0  0
 50 52  1  0  0  0  0
 50 53  1  0  0  0  0
 50 54  1  0  0  0  0
 22 30  1  0  0  0  0
 22 31  1  0  0  0  0
 23 32  1  0  0  0  0
 23 33  1  0  0  0  0
 21 28  1  0  0  0  0
 21 29  1  0  0  0  0
 24 34  1  0  0  0  0
 24 35  1  0  0  0  0
 40 45  1  0  0  0  0
  8 13  1  0  0  0  0
 18 27  1  0  0  0  0
 49 51  1  0  0  0  0
  7 12  1  0  0  0  0
 39 44  1  0  0  0  0
 17 26  1  0  0  0  0
 25 36  1  0  0  0  0
 25 37  1  0  0  0  0
 25 38  1  0  0  0  0
M  CHG  1  25   1
M  END
$$$$

  -OEChem-05262214473D

 54 53  0     1  0  0  0  0  0999 V2000
    2.6714    2.8829   -3.0005 C   0  0  0  0  0  0  0  0  0  0  0  0
    3.1741    2.4398   -1.9745 O   0  0  0  0  0  0  0  0  0  0  0  0
    3.5527    3.3077   -4.1279 C   0  0  0  0  0  0  0  0  0  0  0  0
    3.8407    4.3691   -4.0597 H   0  0  0  0  0  0  0  0  0  0  0  0
    4.5024    2.7495   -4.1526 H   0  0  0  0  0  0  0  0  0  0  0  0
    3.1208    3.1887   -5.1345 H   0  0  0  0  0  0  0  0  0  0  0  0
    1.3174    3.0407   -3.2467 N   0  0  0  0  0  0  0  0  0  0  0  0
    0.2944    2.6927   -2.2960 C   0  0  2  0  0  0  0  0  0  0  0  0
    0.2976    1.1783   -2.1349 C   0  0  0  0  0  0  0  0  0  0  0  0
    0.7500    0.4142   -2.9850 O   0  0  0  0  0  0  0  0  0  0  0  0
   -1.0710    3.1886   -2.7460 C   0  0  0  0  0  0  0  0  0  0  0  0
    1.0312    3.4224   -4.1464 H   0  0  0  0  0  0  0  0  0  0  0  0
    0.5725    3.1622   -1.3461 H   0  0  0  0  0  0  0  0  0  0  0  0
   -1.3666    2.7292   -3.6963 H   0  0  0  0  0  0  0  0  0  0  0  0
   -1.8434    2.9482   -2.0082 H   0  0  0  0  0  0  0  0  0  0  0  0
   -1.0632    4.2744   -2.8901 H   0  0  0  0  0  0  0  0  0  0  0  0
   -0.3037    0.7742   -0.9484 N   0  0  0  0  0  0  0  0  0  0  0  0
   -0.4352   -0.6095   -0.5718 C   0  0  2  0  0  0  0  0  0  0  0  0
   -0.4108   -0.7099    0.9498 C   0  0  0  0  0  0  0  0  0  0  0  0
    0.6127   -0.5631    1.6149 O   0  0  0  0  0  0  0  0  0  0  0  0
    0.6248   -1.4899   -1.2442 C   0  0  0  0  0  0  0  0  0  0  0  0
    0.4553   -1.6243   -2.7632 C   0  0  0  0  0  0  0  0  0  0  0  0
    1.5309   -2.5343   -3.3608 C   0  0  0  0  0  0  0  0  0  0  0  0
    1.3746   -2.6456   -4.8702 C   0  0  0  0  0  0  0  0  0  0  0  0
    2.4492   -3.5147   -5.4072 N   0  3  0  0  0  0  0  0  0  0  0  0
   -0.6336    1.4811   -0.2948 H   0  0  0  0  0  0  0  0  0  0  0  0
   -1.4291   -0.9207   -0.9157 H   0  0  0  0  0  0  0  0  0  0  0  0
    1.6174   -1.0704   -1.0348 H   0  0  0  0  0  0  0  0  0  0  0  0
    0.6054   -2.4909   -0.7957 H   0  0  0  0  0  0  0  0  0  0  0  0
   -0.5337   -2.0365   -2.9945 H   0  0  0  0  0  0  0  0  0  0  0  0
    0.5148   -0.6369   -3.2358 H   0  0  0  0  0  0  0  0  0  0  0  0
    1.4637   -3.5304   -2.9057 H   0  0  0  0  0  0  0  0  0  0  0  0
    2.5244   -2.1369   -3.1184 H   0  0  0  0  0  0  0  0  0  0  0  0
    0.4232   -3.1071   -5.1509 H   0  0  0  0  0  0  0  0  0  0  0  0
    1.4739   -1.6752   -5.3655 H   0  0  0  0  0  0  0  0  0  0  0  0
    2.5833   -3.3558   -6.4118 H   0  0  0  0  0  0  0  0  0  0  0  0
    2.2215   -4.5061   -5.2724 H   0  0  0  0  0  0  0  0  0  0  0  0
    3.3418   -3.3292   -4.9365 H   0  0  0  0  0  0  0  0  0  0  0  0
   -1.6697   -0.9495    1.4815 N   0  0  0  0  0  0  0  0  0  0  0  0
   -1.8951   -1.0666    2.9025 C   0  0  2  0  0  0  0  0  0  0  0  0
   -3.2908   -1.6392    3.1117 C   0  0  0  0  0  0  0  0  0  0  0  0
   -4.1809   -1.5621    2.2674 O   0  0  0  0  0  0  0  0  0  0  0  0
   -1.7492    0.2777    3.5985 C   0  0  0  0  0  0  0  0  0  0  0  0
   -2.4592   -1.0457    0.8497 H   0  0  0  0  0  0  0  0  0  0  0  0
   -1.1492   -1.7724    3.2839 H   0  0  0  0  0  0  0  0  0  0  0  0
   -2.4883    0.9980    3.2293 H   0  0  0  0  0  0  0  0  0  0  0  0
   -1.8923    0.1822    4.6799 H   0  0  0  0  0  0  0  0  0  0  0  0
   -0.7548    0.7019    3.4222 H   0  0  0  0  0  0  0  0  0  0  0  0
   -3.4384   -2.2082    4.3688 N   0  0  0  0  0  0  0  0  0  0  0  0
   -4.6749   -2.8082    4.8128 C   0  0  0  0  0  0  0  0  0  0  0  0
   -2.6414   -2.2447    4.9975 H   0  0  0  0  0  0  0  0  0  0  0  0
   -5.2778   -2.0568    5.3437 H   0  0  0  0  0  0  0  0  0  0  0  0
   -5.2355   -3.1794    3.9421 H   0  0  0  0  0  0  0  0  0  0  0  0
   -4.4533   -3.6459    5.4904 H   0  0  0  0  0  0  0  0  0  0  0  0
  1  3  1  0  0  0  0
  1  7  1  0  0  0  0
  1  2  2  0  0  0  0
 40 41  1  0  0  0  0
 41 49  1  0  0  0  0
 41 42  2  0  0  0  0
  8  9  1  0  0  0  0
  9 17  1  0  0  0  0
  9 10  2  0  0  0  0
 18 19  1  0  0  0  0
 19 39  1  0  0  0  0
 19 20  2  0  0  0  0
 40 43  1  0  0  0  0
  8 11  1  0  0  0  0
 49 50  1  0  0  0  0
 22 23  1  0  0  0  0
 21 22  1  0  0  0  0
 23 24  1  0  0  0  0
 18 21  1  0  0  0  0
 24 25  1  0  0  0  0
 39 40  1  0  0  0  0
  7  8  1  0  0  0  0
 17 18  1  0  0  0  0
  3  4  1  0  0  0  0
  3  5  1  0  0  0  0
  3  6  1  0  0  0  0
 43 46  1  0  0  0  0
 43 47  1  0  0  0  0
 43 48  1  0  0  0  0
 11 14  1  0  0  0  0
 11 15  1  0  0  0  0
 11 16  1  0  0  0  0
 50 52  1  0  0  0  0
 50 53  1  0  0  0  0
 50 54  1  0  0  0  0
 22 30  1  0  0  0  0
 22 31  1  0  0  0  0
 23 32  1  0  0  0  0
 23 33  1  0  0  0  0
 21 28  1  0  0  0  0
 21 29  1  0  0  0  0
 24 34  1  0  0  0  0
 24 35  1  0  0  0  0
 40 45  1  0  0  0  0
  8 13  1  0  0  0  0
 18 27  1  0  0  0  0
 49 51  1  0  0  0  0
  7 12  1  0  0  0  0
 39 44  1  0  0  0  0
 17 26  1  0  0  0  0
 25 36  1  0  0  0  0
 25 37  1  0  0  0  0
 25 38  1  0  0  0  0
M  CHG  1  25   1
M  END
$$$$

  -OEChem-05262214473D

 54 53  0     1  0  0  0  0  0999 V2000
    2.6714    2.8829   -3.0005 C   0  0  0  0  0  0  0  0  0  0  0  0
    3.1741    2.4398   -1.9745 O   0  0  0  0  0  0  0  0  0  0  0  0
    3.5527    3.3077   -4.1279 C   0  0  0  0  0  0  0  0  0  0  0  0
    3.8407    4.3691   -4.0597 H   0  0  0  0  0  0  0  0  0  0  0  0
    4.5024    2.7495   -4.1526 H   0  0  0  0  0  0  0  0  0  0  0  0
    3.1208    3.1887   -5.1345 H   0  0  0  0  0  0  0  0  0  0  0  0
    1.3174    3.0407   -3.2467 N   0  0  0  0  0  0  0  0  0  0  0  0
    0.2944    2.6927   -2.2960 C   0  0  2  0  0  0  0  0  0  0  0  0
    0.2976    1.1783   -2.1349 C   0  0  0  0  0  0  0  0  0  0  0  0
    0.7500    0.4142   -2.9850 O   0  0  0  0  0  0  0  0  0  0  0  0
   -1.0710    3.1886   -2.7460 C   0  0  0  0  0  0  0  0  0  0  0  0
    1.0312    3.4224   -4.1464 H   0  0  0  0  0  0  0  0  0  0  0  0
    0.5725    3.1622   -1.3461 H   0  0  0  0  0  0  0  0  0  0  0  0
   -1.3666    2.7292   -3.6963 H   0  0  0  0  0  0  0  0  0  0  0  0
   -1.8434    2.9482   -2.0082 H   0  0  0  0  0  0  0  0  0  0  0  0
   -1.0632    4.2744   -2.8901 H   0  0  0  0  0  0  0  0  0  0  0  0
   -0.3037    0.7742   -0.9484 N   0  0  0  0  0  0  0  0  0  0  0  0
   -0.4352   -0.6095   -0.5718 C   0  0  2  0  0  0  0  0  0  0  0  0
   -0.4108   -0.7099    0.9498 C   0  0  0  0  0  0  0  0  0  0  0  0
    0.5290   -0.3081    1.6331 O   0  0  0  0  0  0  0  0  0  0  0  0
    0.6248   -1.4899   -1.2442 C   0  0  0  0  0  0  0  0  0  0  0  0
    0.4553   -1.6243   -2.7632 C   0  0  0  0  0  0  0  0  0  0  0  0
    1.5309   -2.5343   -3.3608 C   0  0  0  0  0  0  0  0  0  0  0  0
    1.3746   -2.6456   -4.8702 C   0  0  0  0  0  0  0  0  0  0  0  0
    2.4492   -3.5147   -5.4072 N   0  3  0  0  0  0  0  0  0  0  0  0
   -0.6336    1.4811   -0.2948 H   0  0  0  0  0  0  0  0  0  0  0  0
   -1.4291   -0.9207   -0.9157 H   0  0  0  0  0  0  0  0  0  0  0  0
    1.6174   -1.0704   -1.0348 H   0  0  0  0  0  0  0  0  0  0  0  0
    0.6054   -2.4909   -0.7957 H   0  0  0  0  0  0  0  0  0  0  0  0
   -0.5337   -2.0365   -2.9945 H   0  0  0  0  0  0  0  0  0  0  0  0
    0.5148   -0.6369   -3.2358 H   0  0  0  0  0  0  0  0  0  0  0  0
    1.4637   -3.5304   -2.9057 H   0  0  0  0  0  0  0  0  0  0  0  0
    2.5244   -2.1369   -3.1184 H   0  0  0  0  0  0  0  0  0  0  0  0
    0.4232   -3.1071   -5.1509 H   0  0  0  0  0  0  0  0  0  0  0  0
    1.4739   -1.6752   -5.3655 H   0  0  0  0  0  0  0  0  0  0  0  0
    2.5833   -3.3558   -6.4118 H   0  0  0  0  0  0  0  0  0  0  0  0
    2.2215   -4.5061   -5.2724 H   0  0  0  0  0  0  0  0  0  0  0  0
    3.3418   -3.3292   -4.9365 H   0  0  0  0  0  0  0  0  0  0  0  0
   -1.5737   -1.2698    1.4588 N   0  0  0  0  0  0  0  0  0  0  0  0
   -1.7847   -1.4501    2.8754 C   0  0  2  0  0  0  0  0  0  0  0  0
   -2.9883   -2.3650    3.0589 C   0  0  0  0  0  0  0  0  0  0  0  0
   -3.8541   -2.5150    2.1993 O   0  0  0  0  0  0  0  0  0  0  0  0
   -2.0023   -0.1183    3.5764 C   0  0  0  0  0  0  0  0  0  0  0  0
   -2.3010   -1.5625    0.8131 H   0  0  0  0  0  0  0  0  0  0  0  0
   -0.8882   -1.9419    3.2685 H   0  0  0  0  0  0  0  0  0  0  0  0
   -2.8962    0.3892    3.1957 H   0  0  0  0  0  0  0  0  0  0  0  0
   -2.1337   -0.2544    4.6550 H   0  0  0  0  0  0  0  0  0  0  0  0
   -1.1485    0.5494    3.4185 H   0  0  0  0  0  0  0  0  0  0  0  0
   -3.0047   -2.9609    4.3122 N   0  0  0  0  0  0  0  0  0  0  0  0
   -4.0514   -3.8626    4.7332 C   0  0  0  0  0  0  0  0  0  0  0  0
   -2.2358   -2.7943    4.9548 H   0  0  0  0  0  0  0  0  0  0  0  0
   -4.8366   -3.2957    5.2549 H   0  0  0  0  0  0  0  0  0  0  0  0
   -4.4827   -4.3604    3.8522 H   0  0  0  0  0  0  0  0  0  0  0  0
   -3.6322   -4.6189    5.4131 H   0  0  0  0  0  0  0  0  0  0  0  0
  1  3  1  0  0  0  0
  1  7  1  0  0  0  0
  1  2  2  0  0  0  0
 40 41  1  0  0  0  0
 41 49  1  0  0  0  0
 41 42  2  0  0  0  0
  8  9  1  0  0  0  0
  9 17  1  0  0  0  0
  9 10  2  0  0  0  0
 18 19  1  0  0  0  0
 19 39  1  0  0  0  0
 19 20  2  0  0  0  0
 40 43  1  0  0  0  0
  8 11  1  0  0  0  0
 49 50  1  0  0  0  0
 22 23  1  0  0  0  0
 21 22  1  0  0  0  0
 23 24  1  0  0  0  0
 18 21  1  0  0  0  0
 24 25  1  0  0  0  0
 39 40  1  0  0  0  0
  7  8  1  0  0  0  0
 17 18  1  0  0  0  0
  3  4  1  0  0  0  0
  3  5  1  0  0  0  0
  3  6  1  0  0  0  0
 43 46  1  0  0  0  0
 43 47  1  0  0  0  0
 43 48  1  0  0  0  0
 11 14  1  0  0  0  0
 11 15  1  0  0  0  0
 11 16  1  0  0  0  0
 50 52  1  0  0  0  0
 50 53  1  0  0  0  0
 50 54  1  0  0  0  0
 22 30  1  0  0  0  0
 22 31  1  0  0  0  0
 23 32  1  0  0  0  0
 23 33  1  0  0  0  0
 21 28  1  0  0  0  0
 21 29  1  0  0  0  0
 24 34  1  0  0  0  0
 24 35  1  0  0  0  0
 40 45  1  0  0  0  0
  8 13  1  0  0  0  0
 18 27  1  0  0  0  0
 49 51  1  0  0  0  0
  7 12  1  0  0  0  0
 39 44  1  0  0  0  0
 17 26  1  0  0  0  0
 25 36  1  0  0  0  0
 25 37  1  0  0  0  0
 25 38  1  0  0  0  0
M  CHG  1  25   1
M  END
$$$$

  -OEChem-05262214473D

 54 53  0     1  0  0  0  0  0999 V2000
    2.6714    2.8829   -3.0005 C   0  0  0  0  0  0  0  0  0  0  0  0
    3.1741    2.4398   -1.9745 O   0  0  0  0  0  0  0  0  0  0  0  0
    3.5527    3.3077   -4.1279 C   0  0  0  0  0  0  0  0  0  0  0  0
    3.8407    4.3691   -4.0597 H   0  0  0  0  0  0  0  0  0  0  0  0
    4.5024    2.7495   -4.1526 H   0  0  0  0  0  0  0  0  0  0  0  0
    3.1208    3.1887   -5.1345 H   0  0  0  0  0  0  0  0  0  0  0  0
    1.3174    3.0407   -3.2467 N   0  0  0  0  0  0  0  0  0  0  0  0
    0.2944    2.6927   -2.2960 C   0  0  2  0  0  0  0  0  0  0  0  0
    0.2976    1.1783   -2.1349 C   0  0  0  0  0  0  0  0  0  0  0  0
    0.7500    0.4142   -2.9850 O   0  0  0  0  0  0  0  0  0  0  0  0
   -1.0710    3.1886   -2.7460 C   0  0  0  0  0  0  0  0  0  0  0  0
    1.0312    3.4224   -4.1464 H   0  0  0  0  0  0  0  0  0  0  0  0
    0.5725    3.1622   -1.3461 H   0  0  0  0  0  0  0  0  0  0  0  0
   -1.3666    2.7292   -3.6963 H   0  0  0  0  0  0  0  0  0  0  0  0
   -1.8434    2.9482   -2.0082 H   0  0  0  0  0  0  0  0  0  0  0  0
   -1.0632    4.2744   -2.8901 H   0  0  0  0  0  0  0  0  0  0  0  0
   -0.3037    0.7742   -0.9484 N   0  0  0  0  0  0  0  0  0  0  0  0
   -0.4352   -0.6095   -0.5718 C   0  0  2  0  0  0  0  0  0  0  0  0
   -0.4108   -0.7099    0.9498 C   0  0  0  0  0  0  0  0  0  0  0  0
    0.3819   -0.0834    1.6502 O   0  0  0  0  0  0  0  0  0  0  0  0
    0.6248   -1.4899   -1.2442 C   0  0  0  0  0  0  0  0  0  0  0  0
    0.4553   -1.6243   -2.7632 C   0  0  0  0  0  0  0  0  0  0  0  0
    1.5309   -2.5343   -3.3608 C   0  0  0  0  0  0  0  0  0  0  0  0
    1.3746   -2.6456   -4.8702 C   0  0  0  0  0  0  0  0  0  0  0  0
    2.4492   -3.5147   -5.4072 N   0  3  0  0  0  0  0  0  0  0  0  0
   -0.6336    1.4811   -0.2948 H   0  0  0  0  0  0  0  0  0  0  0  0
   -1.4291   -0.9207   -0.9157 H   0  0  0  0  0  0  0  0  0  0  0  0
    1.6174   -1.0704   -1.0348 H   0  0  0  0  0  0  0  0  0  0  0  0
    0.6054   -2.4909   -0.7957 H   0  0  0  0  0  0  0  0  0  0  0  0
   -0.5337   -2.0365   -2.9945 H   0  0  0  0  0  0  0  0  0  0  0  0
    0.5148   -0.6369   -3.2358 H   0  0  0  0  0  0  0  0  0  0  0  0
    1.4637   -3.5304   -2.9057 H   0  0  0  0  0  0  0  0  0  0  0  0
    2.5244   -2.1369   -3.1184 H   0  0  0  0  0  0  0  0  0  0  0  0
    0.4232   -3.1071   -5.1509 H   0  0  0  0  0  0  0  0  0  0  0  0
    1.4739   -1.6752   -5.3655 H   0  0  0  0  0  0  0  0  0  0  0  0
    2.5833   -3.3558   -6.4118 H   0  0  0  0  0  0  0  0  0  0  0  0
    2.2215   -4.5061   -5.2724 H   0  0  0  0  0  0  0  0  0  0  0  0
    3.3418   -3.3292   -4.9365 H   0  0  0  0  0  0  0  0  0  0  0  0
   -1.3979   -1.5543    1.4372 N   0  0  0  0  0  0  0  0  0  0  0  0
   -1.5784   -1.7920    2.8495 C   0  0  2  0  0  0  0  0  0  0  0  0
   -2.5079   -2.9878    3.0101 C   0  0  0  0  0  0  0  0  0  0  0  0
   -3.2912   -3.3508    2.1351 O   0  0  0  0  0  0  0  0  0  0  0  0
   -2.1442   -0.5660    3.5492 C   0  0  0  0  0  0  0  0  0  0  0  0
   -2.0142   -2.0207    0.7783 H   0  0  0  0  0  0  0  0  0  0  0  0
   -0.5920   -2.0381    3.2574 H   0  0  0  0  0  0  0  0  0  0  0  0
   -3.1324   -0.3041    3.1538 H   0  0  0  0  0  0  0  0  0  0  0  0
   -2.2538   -0.7383    4.6250 H   0  0  0  0  0  0  0  0  0  0  0  0
   -1.4893    0.3005    3.4075 H   0  0  0  0  0  0  0  0  0  0  0  0
   -2.3904   -3.5757    4.2618 N   0  0  0  0  0  0  0  0  0  0  0  0
   -3.1756   -4.7198    4.6626 C   0  0  0  0  0  0  0  0  0  0  0  0
   -1.7014   -3.2204    4.9181 H   0  0  0  0  0  0  0  0  0  0  0  0
   -4.0890   -4.3782    5.1715 H   0  0  0  0  0  0  0  0  0  0  0  0
   -3.4491   -5.3063    3.7732 H   0  0  0  0  0  0  0  0  0  0  0  0
   -2.5865   -5.3465    5.3483 H   0  0  0  0  0  0  0  0  0  0  0  0
  1  3  1  0  0  0  0
  1  7  1  0  0  0  0
  1  2  2  0  0  0  0
 40 41  1  0  0  0  0
 41 49  1  0  0  0  0
 41 42  2  0  0  0  0
  8  9  1  0  0  0  0
  9 17  1  0  0  0  0
  9 10  2  0  0  0  0
 18 19  1  0  0  0  0
 19 39  1  0  0  0  0
 19 20  2  0  0  0  0
 40 43  1  0  0  0  0
  8 11  1  0  0  0  0
 49 50  1  0  0  0  0
 22 23  1  0  0  0  0
 21 22  1  0  0  0  0
 23 24  1  0  0  0  0
 18 21  1  0  0  0  0
 24 25  1  0  0  0  0
 39 40  1  0  0  0  0
  7  8  1  0  0  0  0
 17 18  1  0  0  0  0
  3  4  1  0  0  0  0
  3  5  1  0  0  0  0
  3  6  1  0  0  0  0
 43 46  1  0  0  0  0
 43 47  1  0  0  0  0
 43 48  1  0  0  0  0
 11 14  1  0  0  0  0
 11 15  1  0  0  0  0
 11 16  1  0  0  0  0
 50 52  1  0  0  0  0
 50 53  1  0  0  0  0
 50 54  1  0  0  0  0
 22 30  1  0  0  0  0
 22 31  1  0  0  0  0
 23 32  1  0  0  0  0
 23 33  1  0  0  0  0
 21 28  1  0  0  0  0
 21 29  1  0  0  0  0
 24 34  1  0  0  0  0
 24 35  1  0  0  0  0
 40 45  1  0  0  0  0
  8 13  1  0  0  0  0
 18 27  1  0  0  0  0
 49 51  1  0  0  0  0
  7 12  1  0  0  0  0
 39 44  1  0  0  0  0
 17 26  1  0  0  0  0
 25 36  1  0  0  0  0
 25 37  1  0  0  0  0
 25 38  1  0  0  0  0
M  CHG  1  25   1
M  END
$$$$

  -OEChem-05262214473D

 54 53  0     1  0  0  0  0  0999 V2000
    2.6714    2.8829   -3.0005 C   0  0  0  0  0  0  0  0  0  0  0  0
    3.1741    2.4398   -1.9745 O   0  0  0  0  0  0  0  0  0  0  0  0
    3.5527    3.3077   -4.1279 C   0  0  0  0  0  0  0  0  0  0  0  0
    3.8407    4.3691   -4.0597 H   0  0  0  0  0  0  0  0  0  0  0  0
    4.5024    2.7495   -4.1526 H   0  0  0  0  0  0  0  0  0  0  0  0
    3.1208    3.1887   -5.1345 H   0  0  0  0  0  0  0  0  0  0  0  0
    1.3174    3.0407   -3.2467 N   0  0  0  0  0  0  0  0  0  0  0  0
    0.2944    2.6927   -2.2960 C   0  0  2  0  0  0  0  0  0  0  0  0
    0.2976    1.1783   -2.1349 C   0  0  0  0  0  0  0  0  0  0  0  0
    0.7500    0.4142   -2.9850 O   0  0  0  0  0  0  0  0  0  0  0  0
   -1.0710    3.1886   -2.7460 C   0  0  0  0  0  0  0  0  0  0  0  0
    1.0312    3.4224   -4.1464 H   0  0  0  0  0  0  0  0  0  0  0  0
    0.5725    3.1622   -1.3461 H   0  0  0  0  0  0  0  0  0  0  0  0
   -1.3666    2.7292   -3.6963 H   0  0  0  0  0  0  0  0  0  0  0  0
   -1.8434    2.9482   -2.0082 H   0  0  0  0  0  0  0  0  0  0  0  0
   -1.0632    4.2744   -2.8901 H   0  0  0  0  0  0  0  0  0  0  0  0
   -0.3037    0.7742   -0.9484 N   0  0  0  0  0  0  0  0  0  0  0  0
   -0.4352   -0.6095   -0.5718 C   0  0  2  0  0  0  0  0  0  0  0  0
   -0.4108   -0.7099    0.9498 C   0  0  0  0  0  0  0  0  0  0  0  0
    0.1816    0.0956    1.6653 O   0  0  0  0  0  0  0  0  0  0  0  0
    0.6248   -1.4899   -1.2442 C   0  0  0  0  0  0  0  0  0  0  0  0
    0.4553   -1.6243   -2.7632 C   0  0  0  0  0  0  0  0  0  0  0  0
    1.5309   -2.5343   -3.3608 C   0  0  0  0  0  0  0  0  0  0  0  0
    1.3746   -2.6456   -4.8702 C   0  0  0  0  0  0  0  0  0  0  0  0
    2.4492   -3.5147   -5.4072 N   0  3  0  0  0  0  0  0  0  0  0  0
   -0.6336    1.4811   -0.2948 H   0  0  0  0  0  0  0  0  0  0  0  0
   -1.4291   -0.9207   -0.9157 H   0  0  0  0  0  0  0  0  0  0  0  0
    1.6174   -1.0704   -1.0348 H   0  0  0  0  0  0  0  0  0  0  0  0
    0.6054   -2.4909   -0.7957 H   0  0  0  0  0  0  0  0  0  0  0  0
   -0.5337   -2.0365   -2.9945 H   0  0  0  0  0  0  0  0  0  0  0  0
    0.5148   -0.6369   -3.2358 H   0  0  0  0  0  0  0  0  0  0  0  0
    1.4637   -3.5304   -2.9057 H   0  0  0  0  0  0  0  0  0  0  0  0
    2.5244   -2.1369   -3.1184 H   0  0  0  0  0  0  0  0  0  0  0  0
    0.4232   -3.1071   -5.1509 H   0  0  0  0  0  0  0  0  0  0  0  0
    1.4739   -1.6752   -5.3655 H   0  0  0  0  0  0  0  0  0  0  0  0
    2.5833   -3.3558   -6.4118 H   0  0  0  0  0  0  0  0  0  0  0  0
    2.2215   -4.5061   -5.2724 H   0  0  0  0  0  0  0  0  0  0  0  0
    3.3418   -3.3292   -4.9365 H   0  0  0  0  0  0  0  0  0  0  0  0
   -1.1543   -1.7836    1.4182 N   0  0  0  0  0  0  0  0  0  0  0  0
   -1.2905   -2.0689    2.8266 C   0  0  2  0  0  0  0  0  0  0  0  0
   -1.8821   -3.4651    2.9686 C   0  0  0  0  0  0  0  0  0  0  0  0
   -2.5306   -4.0124    2.0792 O   0  0  0  0  0  0  0  0  0  0  0  0
   -2.1652   -1.0350    3.5186 C   0  0  0  0  0  0  0  0  0  0  0  0
   -1.6182   -2.3891    0.7476 H   0  0  0  0  0  0  0  0  0  0  0  0
   -0.2808   -2.0545    3.2514 H   0  0  0  0  0  0  0  0  0  0  0  0
   -3.1808   -1.0347    3.1063 H   0  0  0  0  0  0  0  0  0  0  0  0
   -2.2442   -1.2366    4.5919 H   0  0  0  0  0  0  0  0  0  0  0  0
   -1.7540   -0.0279    3.3901 H   0  0  0  0  0  0  0  0  0  0  0  0
   -1.6375   -4.0107    4.2210 N   0  0  0  0  0  0  0  0  0  0  0  0
   -2.1070   -5.3212    4.6058 C   0  0  0  0  0  0  0  0  0  0  0  0
   -1.0745   -3.4937    4.8900 H   0  0  0  0  0  0  0  0  0  0  0  0
   -3.0859   -5.2303    5.0992 H   0  0  0  0  0  0  0  0  0  0  0  0
   -2.2051   -5.9529    3.7105 H   0  0  0  0  0  0  0  0  0  0  0  0
   -1.3875   -5.7790    5.3005 H   0  0  0  0  0  0  0  0  0  0  0  0
  1  3  1  0  0  0  0
  1  7  1  0  0  0  0
  1  2  2  0  0  0  0
 40 41  1  0  0  0  0
 41 49  1  0  0  0  0
 41 42  2  0  0  0  0
  8  9  1  0  0  0  0
  9 17  1  0  0  0  0
  9 10  2  0  0  0  0
 18 19  1  0  0  0  0
 19 39  1  0  0  0  0
 19 20  2  0  0  0  0
 40 43  1  0  0  0  0
  8 11  1  0  0  0  0
 49 50  1  0  0  0  0
 22 23  1  0  0  0  0
 21 22  1  0  0  0  0
 23 24  1  0  0  0  0
 18 21  1  0  0  0  0
 24 25  1  0  0  0  0
 39 40  1  0  0  0  0
  7  8  1  0  0  0  0
 17 18  1  0  0  0  0
  3  4  1  0  0  0  0
  3  5  1  0  0  0  0
  3  6  1  0  0  0  0
 43 46  1  0  0  0  0
 43 47  1  0  0  0  0
 43 48  1  0  0  0  0
 11 14  1  0  0  0  0
 11 15  1  0  0  0  0
 11 16  1  0  0  0  0
 50 52  1  0  0  0  0
 50 53  1  0  0  0  0
 50 54  1  0  0  0  0
 22 30  1  0  0  0  0
 22 31  1  0  0  0  0
 23 32  1  0  0  0  0
 23 33  1  0  0  0  0
 21 28  1  0  0  0  0
 21 29  1  0  0  0  0
 24 34  1  0  0  0  0
 24 35  1  0  0  0  0
 40 45  1  0  0  0  0
  8 13  1  0  0  0  0
 18 27  1  0  0  0  0
 49 51  1  0  0  0  0
  7 12  1  0  0  0  0
 39 44  1  0  0  0  0
 17 26  1  0  0  0  0
 25 36  1  0  0  0  0
 25 37  1  0  0  0  0
 25 38  1  0  0  0  0
M  CHG  1  25   1
M  END
$$$$

  -OEChem-05262214473D

 54 53  0     1  0  0  0  0  0999 V2000
    2.6714    2.8829   -3.0005 C   0  0  0  0  0  0  0  0  0  0  0  0
    3.1741    2.4398   -1.9745 O   0  0  0  0  0  0  0  0  0  0  0  0
    3.5527    3.3077   -4.1279 C   0  0  0  0  0  0  0  0  0  0  0  0
    3.8407    4.3691   -4.0597 H   0  0  0  0  0  0  0  0  0  0  0  0
    4.5024    2.7495   -4.1526 H   0  0  0  0  0  0  0  0  0  0  0  0
    3.1208    3.1887   -5.1345 H   0  0  0  0  0  0  0  0  0  0  0  0
    1.3174    3.0407   -3.2467 N   0  0  0  0  0  0  0  0  0  0  0  0
    0.2944    2.6927   -2.2960 C   0  0  2  0  0  0  0  0  0  0  0  0
    0.2976    1.1783   -2.1349 C   0  0  0  0  0  0  0  0  0  0  0  0
    0.7500    0.4142   -2.9850 O   0  0  0  0  0  0  0  0  0  0  0  0
   -1.0710    3.1886   -2.7460 C   0  0  0  0  0  0  0  0  0  0  0  0
    1.0312    3.4224   -4.1464 H   0  0  0  0  0  0  0  0  0  0  0  0
    0.5725    3.1622   -1.3461 H   0  0  0  0  0  0  0  0  0  0  0  0
   -1.3666    2.7292   -3.6963 H   0  0  0  0  0  0  0  0  0  0  0  0
   -1.8434    2.9482   -2.0082 H   0  0  0  0  0  0  0  0  0  0  0  0
   -1.0632    4.2744   -2.8901 H   0  0  0  0  0  0  0  0  0  0  0  0
   -0.3037    0.7742   -0.9484 N   0  0  0  0  0  0  0  0  0  0  0  0
   -0.4352   -0.6095   -0.5718 C   0  0  2  0  0  0  0  0  0  0  0  0
   -0.4108   -0.7099    0.9498 C   0  0  0  0  0  0  0  0  0  0  0  0
   -0.0584    0.2166    1.6771 O   0  0  0  0  0  0  0  0  0  0  0  0
    0.6248   -1.4899   -1.2442 C   0  0  0  0  0  0  0  0  0  0  0  0
    0.4553   -1.6243   -2.7632 C   0  0  0  0  0  0  0  0  0  0  0  0
    1.5309   -2.5343   -3.3608 C   0  0  0  0  0  0  0  0  0  0  0  0
    1.3746   -2.6456   -4.8702 C   0  0  0  0  0  0  0  0  0  0  0  0
    2.4492   -3.5147   -5.4072 N   0  3  0  0  0  0  0  0  0  0  0  0
   -0.6336    1.4811   -0.2948 H   0  0  0  0  0  0  0  0  0  0  0  0
   -1.4291   -0.9207   -0.9157 H   0  0  0  0  0  0  0  0  0  0  0  0
    1.6174   -1.0704   -1.0348 H   0  0  0  0  0  0  0  0  0  0  0  0
    0.6054   -2.4909   -0.7957 H   0  0  0  0  0  0  0  0  0  0  0  0
   -0.5337   -2.0365   -2.9945 H   0  0  0  0  0  0  0  0  0  0  0  0
    0.5148   -0.6369   -3.2358 H   0  0  0  0  0  0  0  0  0  0  0  0
    1.4637   -3.5304   -2.9057 H   0  0  0  0  0  0  0  0  0  0  0  0
    2.5244   -2.1369   -3.1184 H   0  0  0  0  0  0  0  0  0  0  0  0
    0.4232   -3.1071   -5.1509 H   0  0  0  0  0  0  0  0  0  0  0  0
    1.4739   -1.6752   -5.3655 H   0  0  0  0  0  0  0  0  0  0  0  0
    2.5833   -3.3558   -6.4118 H   0  0  0  0  0  0  0  0  0  0  0  0
    2.2215   -4.5061   -5.2724 H   0  0  0  0  0  0  0  0  0  0  0  0
    3.3418   -3.3292   -4.9365 H   0  0  0  0  0  0  0  0  0  0  0  0
   -0.8594   -1.9421    1.4030 N   0  0  0  0  0  0  0  0  0  0  0  0
   -0.9405   -2.2619    2.8083 C   0  0  2  0  0  0  0  0  0  0  0  0
   -1.1537   -3.7644    2.9372 C   0  0  0  0  0  0  0  0  0  0  0  0
   -1.6241   -4.4549    2.0355 O   0  0  0  0  0  0  0  0  0  0  0  0
   -2.0638   -1.4934    3.4867 C   0  0  0  0  0  0  0  0  0  0  0  0
   -1.1400   -2.6426    0.7232 H   0  0  0  0  0  0  0  0  0  0  0  0
    0.0241   -1.9901    3.2507 H   0  0  0  0  0  0  0  0  0  0  0  0
   -3.0382   -1.7526    3.0567 H   0  0  0  0  0  0  0  0  0  0  0  0
   -2.1058   -1.7154    4.5581 H   0  0  0  0  0  0  0  0  0  0  0  0
   -1.9246   -0.4134    3.3674 H   0  0  0  0  0  0  0  0  0  0  0  0
   -0.7972   -4.2363    4.1927 N   0  0  0  0  0  0  0  0  0  0  0  0
   -0.9186   -5.6261    4.5666 C   0  0  0  0  0  0  0  0  0  0  0  0
   -0.3979   -3.5958    4.8724 H   0  0  0  0  0  0  0  0  0  0  0  0
   -1.8958   -5.7941    5.0429 H   0  0  0  0  0  0  0  0  0  0  0  0
   -0.8354   -6.2559    3.6686 H   0  0  0  0  0  0  0  0  0  0  0  0
   -0.1168   -5.8870    5.2730 H   0  0  0  0  0  0  0  0  0  0  0  0
  1  3  1  0  0  0  0
  1  7  1  0  0  0  0
  1  2  2  0  0  0  0
 40 41  1  0  0  0  0
 41 49  1  0  0  0  0
 41 42  2  0  0  0  0
  8  9  1  0  0  0  0
  9 17  1  0  0  0  0
  9 10  2  0  0  0  0
 18 19  1  0  0  0  0
 19 39  1  0  0  0  0
 19 20  2  0  0  0  0
 40 43  1  0  0  0  0
  8 11  1  0  0  0  0
 49 50  1  0  0  0  0
 22 23  1  0  0  0  0
 21 22  1  0  0  0  0
 23 24  1  0  0  0  0
 18 21  1  0  0  0  0
 24 25  1  0  0  0  0
 39 40  1  0  0  0  0
  7  8  1  0  0  0  0
 17 18  1  0  0  0  0
  3  4  1  0  0  0  0
  3  5  1  0  0  0  0
  3  6  1  0  0  0  0
 43 46  1  0  0  0  0
 43 47  1  0  0  0  0
 43 48  1  0  0  0  0
 11 14  1  0  0  0  0
 11 15  1  0  0  0  0
 11 16  1  0  0  0  0
 50 52  1  0  0  0  0
 50 53  1  0  0  0  0
 50 54  1  0  0  0  0
 22 30  1  0  0  0  0
 22 31  1  0  0  0  0
 23 32  1  0  0  0  0
 23 33  1  0  0  0  0
 21 28  1  0  0  0  0
 21 29  1  0  0  0  0
 24 34  1  0  0  0  0
 24 35  1  0  0  0  0
 40 45  1  0  0  0  0
  8 13  1  0  0  0  0
 18 27  1  0  0  0  0
 49 51  1  0  0  0  0
  7 12  1  0  0  0  0
 39 44  1  0  0  0  0
 17 26  1  0  0  0  0
 25 36  1  0  0  0  0
 25 37  1  0  0  0  0
 25 38  1  0  0  0  0
M  CHG  1  25   1
M  END
$$$$

  -OEChem-05262214473D

 54 53  0     1  0  0  0  0  0999 V2000
    2.6714    2.8829   -3.0005 C   0  0  0  0  0  0  0  0  0  0  0  0
    3.1741    2.4398   -1.9745 O   0  0  0  0  0  0  0  0  0  0  0  0
    3.5527    3.3077   -4.1279 C   0  0  0  0  0  0  0  0  0  0  0  0
    3.8407    4.3691   -4.0597 H   0  0  0  0  0  0  0  0  0  0  0  0
    4.5024    2.7495   -4.1526 H   0  0  0  0  0  0  0  0  0  0  0  0
    3.1208    3.1887   -5.1345 H   0  0  0  0  0  0  0  0  0  0  0  0
    1.3174    3.0407   -3.2467 N   0  0  0  0  0  0  0  0  0  0  0  0
    0.2944    2.6927   -2.2960 C   0  0  2  0  0  0  0  0  0  0  0  0
    0.2976    1.1783   -2.1349 C   0  0  0  0  0  0  0  0  0  0  0  0
    0.7500    0.4142   -2.9850 O   0  0  0  0  0  0  0  0  0  0  0  0
   -1.0710    3.1886   -2.7460 C   0  0  0  0  0  0  0  0  0  0  0  0
    1.0312    3.4224   -4.1464 H   0  0  0  0  0  0  0  0  0  0  0  0
    0.5725    3.1622   -1.3461 H   0  0  0  0  0  0  0  0  0  0  0  0
   -1.3666    2.7292   -3.6963 H   0  0  0  0  0  0  0  0  0  0  0  0
   -1.8434    2.9482   -2.0082 H   0  0  0  0  0  0  0  0  0  0  0  0
   -1.0632    4.2744   -2.8901 H   0  0  0  0  0  0  0  0  0  0  0  0
   -0.3037    0.7742   -0.9484 N   0  0  0  0  0  0  0  0  0  0  0  0
   -0.4352   -0.6095   -0.5718 C   0  0  2  0  0  0  0  0  0  0  0  0
   -0.7848   -0.6849    0.9108 C   0  0  0  0  0  0  0  0  0  0  0  0
   -0.9456    0.3113    1.6131 O   0  0  0  0  0  0  0  0  0  0  0  0
    0.8137   -1.4228   -0.9317 C   0  0  0  0  0  0  0  0  0  0  0  0
    1.0376   -1.5917   -2.4402 C   0  0  0  0  0  0  0  0  0  0  0  0
    2.2849   -2.4324   -2.7229 C   0  0  0  0  0  0  0  0  0  0  0  0
    2.5177   -2.5773   -4.2196 C   0  0  0  0  0  0  0  0  0  0  0  0
    3.7461   -3.3762   -4.4451 N   0  3  0  0  0  0  0  0  0  0  0  0
   -0.6336    1.4811   -0.2948 H   0  0  0  0  0  0  0  0  0  0  0  0
   -1.2896   -0.9953   -1.1411 H   0  0  0  0  0  0  0  0  0  0  0  0
    1.6934   -0.9311   -0.4965 H   0  0  0  0  0  0  0  0  0  0  0  0
    0.7478   -2.4158   -0.4701 H   0  0  0  0  0  0  0  0  0  0  0  0
    0.1664   -2.0763   -2.8961 H   0  0  0  0  0  0  0  0  0  0  0  0
    1.1491   -0.6099   -2.9149 H   0  0  0  0  0  0  0  0  0  0  0  0
    2.1708   -3.4237   -2.2669 H   0  0  0  0  0  0  0  0  0  0  0  0
    3.1586   -1.9622   -2.2548 H   0  0  0  0  0  0  0  0  0  0  0  0
    1.6983   -3.1090   -4.7124 H   0  0  0  0  0  0  0  0  0  0  0  0
    2.6744   -1.6098   -4.7058 H   0  0  0  0  0  0  0  0  0  0  0  0
    4.1160   -3.2234   -5.3897 H   0  0  0  0  0  0  0  0  0  0  0  0
    3.5566   -4.3790   -4.3391 H   0  0  0  0  0  0  0  0  0  0  0  0
    4.4791   -3.1210   -3.7741 H   0  0  0  0  0  0  0  0  0  0  0  0
   -0.9290   -1.9926    1.3514 N   0  0  0  0  0  0  0  0  0  0  0  0
   -1.2755   -2.3108    2.7161 C   0  0  2  0  0  0  0  0  0  0  0  0
   -1.0346   -3.7996    2.9276 C   0  0  0  0  0  0  0  0  0  0  0  0
   -1.0090   -4.6126    2.0059 O   0  0  0  0  0  0  0  0  0  0  0  0
   -2.7201   -1.9454    3.0198 C   0  0  0  0  0  0  0  0  0  0  0  0
   -0.7860   -2.7515    0.6916 H   0  0  0  0  0  0  0  0  0  0  0  0
   -0.5978   -1.7360    3.3567 H   0  0  0  0  0  0  0  0  0  0  0  0
   -3.4139   -2.5113    2.3876 H   0  0  0  0  0  0  0  0  0  0  0  0
   -2.9729   -2.1608    4.0632 H   0  0  0  0  0  0  0  0  0  0  0  0
   -2.8990   -0.8800    2.8386 H   0  0  0  0  0  0  0  0  0  0  0  0
   -0.8946   -4.1200    4.2707 N   0  0  0  0  0  0  0  0  0  0  0  0
   -0.6701   -5.4706    4.7308 C   0  0  0  0  0  0  0  0  0  0  0  0
   -0.9106   -3.3792    4.9654 H   0  0  0  0  0  0  0  0  0  0  0  0
   -1.6352   -5.9445    4.9632 H   0  0  0  0  0  0  0  0  0  0  0  0
   -0.1595   -6.0456    3.9443 H   0  0  0  0  0  0  0  0  0  0  0  0
   -0.0444   -5.4505    5.6352 H   0  0  0  0  0  0  0  0  0  0  0  0
  1  3  1  0  0  0  0
  1  7  1  0  0  0  0
  1  2  2  0  0  0  0
 40 41  1  0  0  0  0
 41 49  1  0  0  0  0
 41 42  2  0  0  0  0
  8  9  1  0  0  0  0
  9 17  1  0  0  0  0
  9 10  2  0  0  0  0
 18 19  1  0  0  0  0
 19 39  1  0  0  0  0
 19 20  2  0  0  0  0
 40 43  1  0  0  0  0
  8 11  1  0  0  0  0
 49 50  1  0  0  0  0
 22 23  1  0  0  0  0
 21 22  1  0  0  0  0
 23 24  1  0  0  0  0
 18 21  1  0  0  0  0
 24 25  1  0  0  0  0
 39 40  1  0  0  0  0
  7  8  1  0  0  0  0
 17 18  1  0  0  0  0
  3  4  1  0  0  0  0
  3  5  1  0  0  0  0
  3  6  1  0  0  0  0
 43 46  1  0  0  0  0
 43 47  1  0  0  0  0
 43 48  1  0  0  0  0
 11 14  1  0  0  0  0
 11 15  1  0  0  0  0
 11 16  1  0  0  0  0
 50 52  1  0  0  0  0
 50 53  1  0  0  0  0
 50 54  1  0  0  0  0
 22 30  1  0  0  0  0
 22 31  1  0  0  0  0
 23 32  1  0  0  0  0
 23 33  1  0  0  0  0
 21 28  1  0  0  0  0
 21 29  1  0  0  0  0
 24 34  1  0  0  0  0
 24 35  1  0  0  0  0
 40 45  1  0  0  0  0
  8 13  1  0  0  0  0
 18 27  1  0  0  0  0
 49 51  1  0  0  0  0
  7 12  1  0  0  0  0
 39 44  1  0  0  0  0
 17 26  1  0  0  0  0
 25 36  1  0  0  0  0
 25 37  1  0  0  0  0
 25 38  1  0  0  0  0
M  CHG  1  25   1
M  END
$$$$

  -OEChem-05262214473D

 54 53  0     1  0  0  0  0  0999 V2000
    2.6714    2.8829   -3.0005 C   0  0  0  0  0  0  0  0  0  0  0  0
    3.1741    2.4398   -1.9745 O   0  0  0  0  0  0  0  0  0  0  0  0
    3.5527    3.3077   -4.1279 C   0  0  0  0  0  0  0  0  0  0  0  0
    3.8407    4.3691   -4.0597 H   0  0  0  0  0  0  0  0  0  0  0  0
    4.5024    2.7495   -4.1526 H   0  0  0  0  0  0  0  0  0  0  0  0
    3.1208    3.1887   -5.1345 H   0  0  0  0  0  0  0  0  0  0  0  0
    1.3174    3.0407   -3.2467 N   0  0  0  0  0  0  0  0  0  0  0  0
    0.2944    2.6927   -2.2960 C   0  0  2  0  0  0  0  0  0  0  0  0
    0.2976    1.1783   -2.1349 C   0  0  0  0  0  0  0  0  0  0  0  0
    0.7500    0.4142   -2.9850 O   0  0  0  0  0  0  0  0  0  0  0  0
   -1.0710    3.1886   -2.7460 C   0  0  0  0  0  0  0  0  0  0  0  0
    1.0312    3.4224   -4.1464 H   0  0  0  0  0  0  0  0  0  0  0  0
    0.5725    3.1622   -1.3461 H   0  0  0  0  0  0  0  0  0  0  0  0
   -1.3666    2.7292   -3.6963 H   0  0  0  0  0  0  0  0  0  0  0  0
   -1.8434    2.9482   -2.0082 H   0  0  0  0  0  0  0  0  0  0  0  0
   -1.0632    4.2744   -2.8901 H   0  0  0  0  0  0  0  0  0  0  0  0
   -0.3037    0.7742   -0.9484 N   0  0  0  0  0  0  0  0  0  0  0  0
   -0.4352   -0.6095   -0.5718 C   0  0  2  0  0  0  0  0  0  0  0  0
   -0.7848   -0.6849    0.9108 C   0  0  0  0  0  0  0  0  0  0  0  0
   -1.2050    0.2774    1.5502 O   0  0  0  0  0  0  0  0  0  0  0  0
    0.8137   -1.4228   -0.9317 C   0  0  0  0  0  0  0  0  0  0  0  0
    1.0376   -1.5917   -2.4402 C   0  0  0  0  0  0  0  0  0  0  0  0
    2.2849   -2.4324   -2.7229 C   0  0  0  0  0  0  0  0  0  0  0  0
    2.5177   -2.5773   -4.2196 C   0  0  0  0  0  0  0  0  0  0  0  0
    3.7461   -3.3762   -4.4451 N   0  3  0  0  0  0  0  0  0  0  0  0
   -0.6336    1.4811   -0.2948 H   0  0  0  0  0  0  0  0  0  0  0  0
   -1.2896   -0.9953   -1.1411 H   0  0  0  0  0  0  0  0  0  0  0  0
    1.6934   -0.9311   -0.4965 H   0  0  0  0  0  0  0  0  0  0  0  0
    0.7478   -2.4158   -0.4701 H   0  0  0  0  0  0  0  0  0  0  0  0
    0.1664   -2.0763   -2.8961 H   0  0  0  0  0  0  0  0  0  0  0  0
    1.1491   -0.6099   -2.9149 H   0  0  0  0  0  0  0  0  0  0  0  0
    2.1708   -3.4237   -2.2669 H   0  0  0  0  0  0  0  0  0  0  0  0
    3.1586   -1.9622   -2.2548 H   0  0  0  0  0  0  0  0  0  0  0  0
    1.6983   -3.1090   -4.7124 H   0  0  0  0  0  0  0  0  0  0  0  0
    2.6744   -1.6098   -4.7058 H   0  0  0  0  0  0  0  0  0  0  0  0
    4.1160   -3.2234   -5.3897 H   0  0  0  0  0  0  0  0  0  0  0  0
    3.5566   -4.3790   -4.3391 H   0  0  0  0  0  0  0  0  0  0  0  0
    4.4791   -3.1210   -3.7741 H   0  0  0  0  0  0  0  0  0  0  0  0
   -0.6048   -1.9591    1.4296 N   0  0  0  0  0  0  0  0  0  0  0  0
   -0.8880   -2.2750    2.8093 C   0  0  2  0  0  0  0  0  0  0  0  0
   -0.2852   -3.6404    3.1124 C   0  0  0  0  0  0  0  0  0  0  0  0
   -0.0374   -4.4724    2.2421 O   0  0  0  0  0  0  0  0  0  0  0  0
   -2.3840   -2.2685    3.0826 C   0  0  0  0  0  0  0  0  0  0  0  0
   -0.2623   -2.6941    0.8180 H   0  0  0  0  0  0  0  0  0  0  0  0
   -0.3897   -1.5120    3.4172 H   0  0  0  0  0  0  0  0  0  0  0  0
   -2.9004   -3.0266    2.4825 H   0  0  0  0  0  0  0  0  0  0  0  0
   -2.5958   -2.4802    4.1359 H   0  0  0  0  0  0  0  0  0  0  0  0
   -2.8210   -1.2949    2.8359 H   0  0  0  0  0  0  0  0  0  0  0  0
   -0.0966   -3.8371    4.4733 N   0  0  0  0  0  0  0  0  0  0  0  0
    0.4505   -5.0587    5.0159 C   0  0  0  0  0  0  0  0  0  0  0  0
   -0.3124   -3.0854    5.1214 H   0  0  0  0  0  0  0  0  0  0  0  0
   -0.3691   -5.7462    5.2718 H   0  0  0  0  0  0  0  0  0  0  0  0
    1.1052   -5.5308    4.2686 H   0  0  0  0  0  0  0  0  0  0  0  0
    1.0326   -4.8294    5.9207 H   0  0  0  0  0  0  0  0  0  0  0  0
  1  3  1  0  0  0  0
  1  7  1  0  0  0  0
  1  2  2  0  0  0  0
 40 41  1  0  0  0  0
 41 49  1  0  0  0  0
 41 42  2  0  0  0  0
  8  9  1  0  0  0  0
  9 17  1  0  0  0  0
  9 10  2  0  0  0  0
 18 19  1  0  0  0  0
 19 39  1  0  0  0  0
 19 20  2  0  0  0  0
 40 43  1  0  0  0  0
  8 11  1  0  0  0  0
 49 50  1  0  0  0  0
 22 23  1  0  0  0  0
 21 22  1  0  0  0  0
 23 24  1  0  0  0  0
 18 21  1  0  0  0  0
 24 25  1  0  0  0  0
 39 40  1  0  0  0  0
  7  8  1  0  0  0  0
 17 18  1  0  0  0  0
  3  4  1  0  0  0  0
  3  5  1  0  0  0  0
  3  6  1  0  0  0  0
 43 46  1  0  0  0  0
 43 47  1  0  0  0  0
 43 48  1  0  0  0  0
 11 14  1  0  0  0  0
 11 15  1  0  0  0  0
 11 16  1  0  0  0  0
 50 52  1  0  0  0  0
 50 53  1  0  0  0  0
 50 54  1  0  0  0  0
 22 30  1  0  0  0  0
 22 31  1  0  0  0  0
 23 32  1  0  0  0  0
 23 33  1  0  0  0  0
 21 28  1  0  0  0  0
 21 29  1  0  0  0  0
 24 34  1  0  0  0  0
 24 35  1  0  0  0  0
 40 45  1  0  0  0  0
  8 13  1  0  0  0  0
 18 27  1  0  0  0  0
 49 51  1  0  0  0  0
  7 12  1  0  0  0  0
 39 44  1  0  0  0  0
 17 26  1  0  0  0  0
 25 36  1  0  0  0  0
 25 37  1  0  0  0  0
 25 38  1  0  0  0  0
M  CHG  1  25   1
M  END
$$$$

  -OEChem-05262214473D

 54 53  0     1  0  0  0  0  0999 V2000
    2.6714    2.8829   -3.0005 C   0  0  0  0  0  0  0  0  0  0  0  0
    3.1741    2.4398   -1.9745 O   0  0  0  0  0  0  0  0  0  0  0  0
    3.5527    3.3077   -4.1279 C   0  0  0  0  0  0  0  0  0  0  0  0
    3.8407    4.3691   -4.0597 H   0  0  0  0  0  0  0  0  0  0  0  0
    4.5024    2.7495   -4.1526 H   0  0  0  0  0  0  0  0  0  0  0  0
    3.1208    3.1887   -5.1345 H   0  0  0  0  0  0  0  0  0  0  0  0
    1.3174    3.0407   -3.2467 N   0  0  0  0  0  0  0  0  0  0  0  0
    0.2944    2.6927   -2.2960 C   0  0  2  0  0  0  0  0  0  0  0  0
    0.2976    1.1783   -2.1349 C   0  0  0  0  0  0  0  0  0  0  0  0
    0.7500    0.4142   -2.9850 O   0  0  0  0  0  0  0  0  0  0  0  0
   -1.0710    3.1886   -2.7460 C   0  0  0  0  0  0  0  0  0  0  0  0
    1.0312    3.4224   -4.1464 H   0  0  0  0  0  0  0  0  0  0  0  0
    0.5725    3.1622   -1.3461 H   0  0  0  0  0  0  0  0  0  0  0  0
   -1.3666    2.7292   -3.6963 H   0  0  0  0  0  0  0  0  0  0  0  0
   -1.8434    2.9482   -2.0082 H   0  0  0  0  0  0  0  0  0  0  0  0
   -1.0632    4.2744   -2.8901 H   0  0  0  0  0  0  0  0  0  0  0  0
   -0.3037    0.7742   -0.9484 N   0  0  0  0  0  0  0  0  0  0  0  0
   -0.4352   -0.6095   -0.5718 C   0  0  2  0  0  0  0  0  0  0  0  0
   -0.7848   -0.6849    0.9108 C   0  0  0  0  0  0  0  0  0  0  0  0
   -1.4462    0.1757    1.4881 O   0  0  0  0  0  0  0  0  0  0  0  0
    0.8137   -1.4228   -0.9317 C   0  0  0  0  0  0  0  0  0  0  0  0
    1.0376   -1.5917   -2.4402 C   0  0  0  0  0  0  0  0  0  0  0  0
    2.2849   -2.4324   -2.7229 C   0  0  0  0  0  0  0  0  0  0  0  0
    2.5177   -2.5773   -4.2196 C   0  0  0  0  0  0  0  0  0  0  0  0
    3.7461   -3.3762   -4.4451 N   0  3  0  0  0  0  0  0  0  0  0  0
   -0.6336    1.4811   -0.2948 H   0  0  0  0  0  0  0  0  0  0  0  0
   -1.2896   -0.9953   -1.1411 H   0  0  0  0  0  0  0  0  0  0  0  0
    1.6934   -0.9311   -0.4965 H   0  0  0  0  0  0  0  0  0  0  0  0
    0.7478   -2.4158   -0.4701 H   0  0  0  0  0  0  0  0  0  0  0  0
    0.1664   -2.0763   -2.8961 H   0  0  0  0  0  0  0  0  0  0  0  0
    1.1491   -0.6099   -2.9149 H   0  0  0  0  0  0  0  0  0  0  0  0
    2.1708   -3.4237   -2.2669 H   0  0  0  0  0  0  0  0  0  0  0  0
    3.1586   -1.9622   -2.2548 H   0  0  0  0  0  0  0  0  0  0  0  0
    1.6983   -3.1090   -4.7124 H   0  0  0  0  0  0  0  0  0  0  0  0
    2.6744   -1.6098   -4.7058 H   0  0  0  0  0  0  0  0  0  0  0  0
    4.1160   -3.2234   -5.3897 H   0  0  0  0  0  0  0  0  0  0  0  0
    3.5566   -4.3790   -4.3391 H   0  0  0  0  0  0  0  0  0  0  0  0
    4.4791   -3.1210   -3.7741 H   0  0  0  0  0  0  0  0  0  0  0  0
   -0.3011   -1.8405    1.5072 N   0  0  0  0  0  0  0  0  0  0  0  0
   -0.5239   -2.1375    2.9021 C   0  0  2  0  0  0  0  0  0  0  0  0
    0.3962   -3.2870    3.2911 C   0  0  0  0  0  0  0  0  0  0  0  0
    0.8628   -4.0785    2.4744 O   0  0  0  0  0  0  0  0  0  0  0  0
   -1.9788   -2.4924    3.1668 C   0  0  0  0  0  0  0  0  0  0  0  0
    0.2275   -2.4995    0.9434 H   0  0  0  0  0  0  0  0  0  0  0  0
   -0.2458   -1.2398    3.4650 H   0  0  0  0  0  0  0  0  0  0  0  0
   -2.2758   -3.3894    2.6112 H   0  0  0  0  0  0  0  0  0  0  0  0
   -2.1521   -2.6895    4.2298 H   0  0  0  0  0  0  0  0  0  0  0  0
   -2.6413   -1.6763    2.8588 H   0  0  0  0  0  0  0  0  0  0  0  0
    0.6004   -3.3511    4.6623 N   0  0  0  0  0  0  0  0  0  0  0  0
    1.4256   -4.3619    5.2813 C   0  0  0  0  0  0  0  0  0  0  0  0
    0.1895   -2.6419    5.2624 H   0  0  0  0  0  0  0  0  0  0  0  0
    0.8000   -5.2179    5.5744 H   0  0  0  0  0  0  0  0  0  0  0  0
    2.1930   -4.6962    4.5676 H   0  0  0  0  0  0  0  0  0  0  0  0
    1.9129   -3.9416    6.1735 H   0  0  0  0  0  0  0  0  0  0  0  0
  1  3  1  0  0  0  0
  1  7  1  0  0  0  0
  1  2  2  0  0  0  0
 40 41  1  0  0  0  0
 41 49  1  0  0  0  0
 41 42  2  0  0  0  0
  8  9  1  0  0  0  0
  9 17  1  0  0  0  0
  9 10  2  0  0  0  0
 18 19  1  0  0  0  0
 19 39  1  0  0  0  0
 19 20  2  0  0  0  0
 40 43  1  0  0  0  0
  8 11  1  0  0  0  0
 49 50  1  0  0  0  0
 22 23  1  0  0  0  0
 21 22  1  0  0  0  0
 23 24  1  0  0  0  0
 18 21  1  0  0  0  0
 24 25  1  0  0  0  0
 39 40  1  0  0  0  0
  7  8  1  0  0  0  0
 17 18  1  0  0  0  0
  3  4  1  0  0  0  0
  3  5  1  0  0  0  0
  3  6  1  0  0  0  0
 43 46  1  0  0  0  0
 43 47  1  0  0  0  0
 43 48  1  0  0  0  0
 11 14  1  0  0  0  0
 11 15  1  0  0  0  0
 11 16  1  0  0  0  0
 50 52  1  0  0  0  0
 50 53  1  0  0  0  0
 50 54  1  0  0  0  0
 22 30  1  0  0  0  0
 22 31  1  0  0  0  0
 23 32  1  0  0  0  0
 23 33  1  0  0  0  0
 21 28  1  0  0  0  0
 21 29  1  0  0  0  0
 24 34  1  0  0  0  0
 24 35  1  0  0  0  0
 40 45  1  0  0  0  0
  8 13  1  0  0  0  0
 18 27  1  0  0  0  0
 49 51  1  0  0  0  0
  7 12  1  0  0  0  0
 39 44  1  0  0  0  0
 17 26  1  0  0  0  0
 25 36  1  0  0  0  0
 25 37  1  0  0  0  0
 25 38  1  0  0  0  0
M  CHG  1  25   1
M  END
$$$$

  -OEChem-05262214473D

 54 53  0     1  0  0  0  0  0999 V2000
    2.6714    2.8829   -3.0005 C   0  0  0  0  0  0  0  0  0  0  0  0
    3.1741    2.4398   -1.9745 O   0  0  0  0  0  0  0  0  0  0  0  0
    3.5527    3.3077   -4.1279 C   0  0  0  0  0  0  0  0  0  0  0  0
    3.8407    4.3691   -4.0597 H   0  0  0  0  0  0  0  0  0  0  0  0
    4.5024    2.7495   -4.1526 H   0  0  0  0  0  0  0  0  0  0  0  0
    3.1208    3.1887   -5.1345 H   0  0  0  0  0  0  0  0  0  0  0  0
    1.3174    3.0407   -3.2467 N   0  0  0  0  0  0  0  0  0  0  0  0
    0.2944    2.6927   -2.2960 C   0  0  2  0  0  0  0  0  0  0  0  0
    0.2976    1.1783   -2.1349 C   0  0  0  0  0  0  0  0  0  0  0  0
    0.7500    0.4142   -2.9850 O   0  0  0  0  0  0  0  0  0  0  0  0
   -1.0710    3.1886   -2.7460 C   0  0  0  0  0  0  0  0  0  0  0  0
    1.0312    3.4224   -4.1464 H   0  0  0  0  0  0  0  0  0  0  0  0
    0.5725    3.1622   -1.3461 H   0  0  0  0  0  0  0  0  0  0  0  0
   -1.3666    2.7292   -3.6963 H   0  0  0  0  0  0  0  0  0  0  0  0
   -1.8434    2.9482   -2.0082 H   0  0  0  0  0  0  0  0  0  0  0  0
   -1.0632    4.2744   -2.8901 H   0  0  0  0  0  0  0  0  0  0  0  0
   -0.3037    0.7742   -0.9484 N   0  0  0  0  0  0  0  0  0  0  0  0
   -0.4352   -0.6095   -0.5718 C   0  0  2  0  0  0  0  0  0  0  0  0
   -0.7848   -0.6849    0.9108 C   0  0  0  0  0  0  0  0  0  0  0  0
   -1.6529    0.0131    1.4312 O   0  0  0  0  0  0  0  0  0  0  0  0
    0.8137   -1.4228   -0.9317 C   0  0  0  0  0  0  0  0  0  0  0  0
    1.0376   -1.5917   -2.4402 C   0  0  0  0  0  0  0  0  0  0  0  0
    2.2849   -2.4324   -2.7229 C   0  0  0  0  0  0  0  0  0  0  0  0
    2.5177   -2.5773   -4.2196 C   0  0  0  0  0  0  0  0  0  0  0  0
    3.7461   -3.3762   -4.4451 N   0  3  0  0  0  0  0  0  0  0  0  0
   -0.6336    1.4811   -0.2948 H   0  0  0  0  0  0  0  0  0  0  0  0
   -1.2896   -0.9953   -1.1411 H   0  0  0  0  0  0  0  0  0  0  0  0
    1.6934   -0.9311   -0.4965 H   0  0  0  0  0  0  0  0  0  0  0  0
    0.7478   -2.4158   -0.4701 H   0  0  0  0  0  0  0  0  0  0  0  0
    0.1664   -2.0763   -2.8961 H   0  0  0  0  0  0  0  0  0  0  0  0
    1.1491   -0.6099   -2.9149 H   0  0  0  0  0  0  0  0  0  0  0  0
    2.1708   -3.4237   -2.2669 H   0  0  0  0  0  0  0  0  0  0  0  0
    3.1586   -1.9622   -2.2548 H   0  0  0  0  0  0  0  0  0  0  0  0
    1.6983   -3.1090   -4.7124 H   0  0  0  0  0  0  0  0  0  0  0  0
    2.6744   -1.6098   -4.7058 H   0  0  0  0  0  0  0  0  0  0  0  0
    4.1160   -3.2234   -5.3897 H   0  0  0  0  0  0  0  0  0  0  0  0
    3.5566   -4.3790   -4.3391 H   0  0  0  0  0  0  0  0  0  0  0  0
    4.4791   -3.1210   -3.7741 H   0  0  0  0  0  0  0  0  0  0  0  0
   -0.0386   -1.6449    1.5790 N   0  0  0  0  0  0  0  0  0  0  0  0
   -0.2081   -1.9075    2.9883 C   0  0  2  0  0  0  0  0  0  0  0  0
    0.9633   -2.7637    3.4514 C   0  0  0  0  0  0  0  0  0  0  0  0
    1.6303   -3.4578    2.6870 O   0  0  0  0  0  0  0  0  0  0  0  0
   -1.5322   -2.6017    3.2665 C   0  0  0  0  0  0  0  0  0  0  0  0
    0.6500   -2.1809    1.0592 H   0  0  0  0  0  0  0  0  0  0  0  0
   -0.1759   -0.9377    3.4968 H   0  0  0  0  0  0  0  0  0  0  0  0
   -1.5830   -3.5751    2.7652 H   0  0  0  0  0  0  0  0  0  0  0  0
   -1.6721   -2.7745    4.3387 H   0  0  0  0  0  0  0  0  0  0  0  0
   -2.3721   -1.9980    2.9059 H   0  0  0  0  0  0  0  0  0  0  0  0
    1.1490   -2.6950    4.8251 N   0  0  0  0  0  0  0  0  0  0  0  0
    2.1889   -3.4278    5.5088 C   0  0  0  0  0  0  0  0  0  0  0  0
    0.5609   -2.0789    5.3786 H   0  0  0  0  0  0  0  0  0  0  0  0
    1.7924   -4.3954    5.8502 H   0  0  0  0  0  0  0  0  0  0  0  0
    3.0300   -3.5985    4.8208 H   0  0  0  0  0  0  0  0  0  0  0  0
    2.5366   -2.8475    6.3762 H   0  0  0  0  0  0  0  0  0  0  0  0
  1  3  1  0  0  0  0
  1  7  1  0  0  0  0
  1  2  2  0  0  0  0
 40 41  1  0  0  0  0
 41 49  1  0  0  0  0
 41 42  2  0  0  0  0
  8  9  1  0  0  0  0
  9 17  1  0  0  0  0
  9 10  2  0  0  0  0
 18 19  1  0  0  0  0
 19 39  1  0  0  0  0
 19 20  2  0  0  0  0
 40 43  1  0  0  0  0
  8 11  1  0  0  0  0
 49 50  1  0  0  0  0
 22 23  1  0  0  0  0
 21 22  1  0  0  0  0
 23 24  1  0  0  0  0
 18 21  1  0  0  0  0
 24 25  1  0  0  0  0
 39 40  1  0  0  0  0
  7  8  1  0  0  0  0
 17 18  1  0  0  0  0
  3  4  1  0  0  0  0
  3  5  1  0  0  0  0
  3  6  1  0  0  0  0
 43 46  1  0  0  0  0
 43 47  1  0  0  0  0
 43 48  1  0  0  0  0
 11 14  1  0  0  0  0
 11 15  1  0  0  0  0
 11 16  1  0  0  0  0
 50 52  1  0  0  0  0
 50 53  1  0  0  0  0
 50 54  1  0  0  0  0
 22 30  1  0  0  0  0
 22 31  1  0  0  0  0
 23 32  1  0  0  0  0
 23 33  1  0  0  0  0
 21 28  1  0  0  0  0
 21 29  1  0  0  0  0
 24 34  1  0  0  0  0
 24 35  1  0  0  0  0
 40 45  1  0  0  0  0
  8 13  1  0  0  0  0
 18 27  1  0  0  0  0
 49 51  1  0  0  0  0
  7 12  1  0  0  0  0
 39 44  1  0  0  0  0
 17 26  1  0  0  0  0
 25 36  1  0  0  0  0
 25 37  1  0  0  0  0
 25 38  1  0  0  0  0
M  CHG  1  25   1
M  END
$$$$

  -OEChem-05262214473D

 54 53  0     1  0  0  0  0  0999 V2000
    2.6714    2.8829   -3.0005 C   0  0  0  0  0  0  0  0  0  0  0  0
    3.1741    2.4398   -1.9745 O   0  0  0  0  0  0  0  0  0  0  0  0
    3.5527    3.3077   -4.1279 C   0  0  0  0  0  0  0  0  0  0  0  0
    3.8407    4.3691   -4.0597 H   0  0  0  0  0  0  0  0  0  0  0  0
    4.5024    2.7495   -4.1526 H   0  0  0  0  0  0  0  0  0  0  0  0
    3.1208    3.1887   -5.1345 H   0  0  0  0  0  0  0  0  0  0  0  0
    1.3174    3.0407   -3.2467 N   0  0  0  0  0  0  0  0  0  0  0  0
    0.2944    2.6927   -2.2960 C   0  0  2  0  0  0  0  0  0  0  0  0
    0.2976    1.1783   -2.1349 C   0  0  0  0  0  0  0  0  0  0  0  0
    0.7500    0.4142   -2.9850 O   0  0  0  0  0  0  0  0  0  0  0  0
   -1.0710    3.1886   -2.7460 C   0  0  0  0  0  0  0  0  0  0  0  0
    1.0312    3.4224   -4.1464 H   0  0  0  0  0  0  0  0  0  0  0  0
    0.5725    3.1622   -1.3461 H   0  0  0  0  0  0  0  0  0  0  0  0
   -1.3666    2.7292   -3.6963 H   0  0  0  0  0  0  0  0  0  0  0  0
   -1.8434    2.9482   -2.0082 H   0  0  0  0  0  0  0  0  0  0  0  0
   -1.0632    4.2744   -2.8901 H   0  0  0  0  0  0  0  0  0  0  0  0
   -0.3037    0.7742   -0.9484 N   0  0  0  0  0  0  0  0  0  0  0  0
   -0.4352   -0.6095   -0.5718 C   0  0  2  0  0  0  0  0  0  0  0  0
   -0.7848   -0.6849    0.9108 C   0  0  0  0  0  0  0  0  0  0  0  0
   -1.8108   -0.1993    1.3831 O   0  0  0  0  0  0  0  0  0  0  0  0
    0.8137   -1.4228   -0.9317 C   0  0  0  0  0  0  0  0  0  0  0  0
    1.0376   -1.5917   -2.4402 C   0  0  0  0  0  0  0  0  0  0  0  0
    2.2849   -2.4324   -2.7229 C   0  0  0  0  0  0  0  0  0  0  0  0
    2.5177   -2.5773   -4.2196 C   0  0  0  0  0  0  0  0  0  0  0  0
    3.7461   -3.3762   -4.4451 N   0  3  0  0  0  0  0  0  0  0  0  0
   -0.6336    1.4811   -0.2948 H   0  0  0  0  0  0  0  0  0  0  0  0
   -1.2896   -0.9953   -1.1411 H   0  0  0  0  0  0  0  0  0  0  0  0
    1.6934   -0.9311   -0.4965 H   0  0  0  0  0  0  0  0  0  0  0  0
    0.7478   -2.4158   -0.4701 H   0  0  0  0  0  0  0  0  0  0  0  0
    0.1664   -2.0763   -2.8961 H   0  0  0  0  0  0  0  0  0  0  0  0
    1.1491   -0.6099   -2.9149 H   0  0  0  0  0  0  0  0  0  0  0  0
    2.1708   -3.4237   -2.2669 H   0  0  0  0  0  0  0  0  0  0  0  0
    3.1586   -1.9622   -2.2548 H   0  0  0  0  0  0  0  0  0  0  0  0
    1.6983   -3.1090   -4.7124 H   0  0  0  0  0  0  0  0  0  0  0  0
    2.6744   -1.6098   -4.7058 H   0  0  0  0  0  0  0  0  0  0  0  0
    4.1160   -3.2234   -5.3897 H   0  0  0  0  0  0  0  0  0  0  0  0
    3.5566   -4.3790   -4.3391 H   0  0  0  0  0  0  0  0  0  0  0  0
    4.4791   -3.1210   -3.7741 H   0  0  0  0  0  0  0  0  0  0  0  0
    0.1649   -1.3857    1.6402 N   0  0  0  0  0  0  0  0  0  0  0  0
    0.0381   -1.6008    3.0620 C   0  0  2  0  0  0  0  0  0  0  0  0
    1.3772   -2.1060    3.5825 C   0  0  0  0  0  0  0  0  0  0  0  0
    2.2127   -2.6525    2.8653 O   0  0  0  0  0  0  0  0  0  0  0  0
   -1.0746   -2.5890    3.3750 C   0  0  0  0  0  0  0  0  0  0  0  0
    0.9764   -1.7599    1.1576 H   0  0  0  0  0  0  0  0  0  0  0  0
   -0.1848   -0.6265    3.5105 H   0  0  0  0  0  0  0  0  0  0  0  0
   -0.8690   -3.5711    2.9337 H   0  0  0  0  0  0  0  0  0  0  0  0
   -1.1884   -2.7293    4.4550 H   0  0  0  0  0  0  0  0  0  0  0  0
   -2.0317   -2.2383    2.9740 H   0  0  0  0  0  0  0  0  0  0  0  0
    1.5117   -1.9136    4.9503 N   0  0  0  0  0  0  0  0  0  0  0  0
    2.6881   -2.3200    5.6829 C   0  0  0  0  0  0  0  0  0  0  0  0
    0.7765   -1.4347    5.4622 H   0  0  0  0  0  0  0  0  0  0  0  0
    2.5406   -3.3349    6.0806 H   0  0  0  0  0  0  0  0  0  0  0  0
    3.5590   -2.3126    5.0110 H   0  0  0  0  0  0  0  0  0  0  0  0
    2.8611   -1.6218    6.5151 H   0  0  0  0  0  0  0  0  0  0  0  0
  1  3  1  0  0  0  0
  1  7  1  0  0  0  0
  1  2  2  0  0  0  0
 40 41  1  0  0  0  0
 41 49  1  0  0  0  0
 41 42  2  0  0  0  0
  8  9  1  0  0  0  0
  9 17  1  0  0  0  0
  9 10  2  0  0  0  0
 18 19  1  0  0  0  0
 19 39  1  0  0  0  0
 19 20  2  0  0  0  0
 40 43  1  0  0  0  0
  8 11  1  0  0  0  0
 49 50  1  0  0  0  0
 22 23  1  0  0  0  0
 21 22  1  0  0  0  0
 23 24  1  0  0  0  0
 18 21  1  0  0  0  0
 24 25  1  0  0  0  0
 39 40  1  0  0  0  0
  7  8  1  0  0  0  0
 17 18  1  0  0  0  0
  3  4  1  0  0  0  0
  3  5  1  0  0  0  0
  3  6  1  0  0  0  0
 43 46  1  0  0  0  0
 43 47  1  0  0  0  0
 43 48  1  0  0  0  0
 11 14  1  0  0  0  0
 11 15  1  0  0  0  0
 11 16  1  0  0  0  0
 50 52  1  0  0  0  0
 50 53  1  0  0  0  0
 50 54  1  0  0  0  0
 22 30  1  0  0  0  0
 22 31  1  0  0  0  0
 23 32  1  0  0  0  0
 23 33  1  0  0  0  0
 21 28  1  0  0  0  0
 21 29  1  0  0  0  0
 24 34  1  0  0  0  0
 24 35  1  0  0  0  0
 40 45  1  0  0  0  0
  8 13  1  0  0  0  0
 18 27  1  0  0  0  0
 49 51  1  0  0  0  0
  7 12  1  0  0  0  0
 39 44  1  0  0  0  0
 17 26  1  0  0  0  0
 25 36  1  0  0  0  0
 25 37  1  0  0  0  0
 25 38  1  0  0  0  0
M  CHG  1  25   1
M  END
$$$$

  -OEChem-05262214473D

 54 53  0     1  0  0  0  0  0999 V2000
    2.6714    2.8829   -3.0005 C   0  0  0  0  0  0  0  0  0  0  0  0
    3.1741    2.4398   -1.9745 O   0  0  0  0  0  0  0  0  0  0  0  0
    3.5527    3.3077   -4.1279 C   0  0  0  0  0  0  0  0  0  0  0  0
    3.8407    4.3691   -4.0597 H   0  0  0  0  0  0  0  0  0  0  0  0
    4.5024    2.7495   -4.1526 H   0  0  0  0  0  0  0  0  0  0  0  0
    3.1208    3.1887   -5.1345 H   0  0  0  0  0  0  0  0  0  0  0  0
    1.3174    3.0407   -3.2467 N   0  0  0  0  0  0  0  0  0  0  0  0
    0.2944    2.6927   -2.2960 C   0  0  2  0  0  0  0  0  0  0  0  0
    0.2976    1.1783   -2.1349 C   0  0  0  0  0  0  0  0  0  0  0  0
    0.7500    0.4142   -2.9850 O   0  0  0  0  0  0  0  0  0  0  0  0
   -1.0710    3.1886   -2.7460 C   0  0  0  0  0  0  0  0  0  0  0  0
    1.0312    3.4224   -4.1464 H   0  0  0  0  0  0  0  0  0  0  0  0
    0.5725    3.1622   -1.3461 H   0  0  0  0  0  0  0  0  0  0  0  0
   -1.3666    2.7292   -3.6963 H   0  0  0  0  0  0  0  0  0  0  0  0
   -1.8434    2.9482   -2.0082 H   0  0  0  0  0  0  0  0  0  0  0  0
   -1.0632    4.2744   -2.8901 H   0  0  0  0  0  0  0  0  0  0  0  0
   -0.3037    0.7742   -0.9484 N   0  0  0  0  0  0  0  0  0  0  0  0
   -0.4352   -0.6095   -0.5718 C   0  0  2  0  0  0  0  0  0  0  0  0
   -0.7848   -0.6849    0.9108 C   0  0  0  0  0  0  0  0  0  0  0  0
   -1.9093   -0.4471    1.3473 O   0  0  0  0  0  0  0  0  0  0  0  0
    0.8137   -1.4228   -0.9317 C   0  0  0  0  0  0  0  0  0  0  0  0
    1.0376   -1.5917   -2.4402 C   0  0  0  0  0  0  0  0  0  0  0  0
    2.2849   -2.4324   -2.7229 C   0  0  0  0  0  0  0  0  0  0  0  0
    2.5177   -2.5773   -4.2196 C   0  0  0  0  0  0  0  0  0  0  0  0
    3.7461   -3.3762   -4.4451 N   0  3  0  0  0  0  0  0  0  0  0  0
   -0.6336    1.4811   -0.2948 H   0  0  0  0  0  0  0  0  0  0  0  0
   -1.2896   -0.9953   -1.1411 H   0  0  0  0  0  0  0  0  0  0  0  0
    1.6934   -0.9311   -0.4965 H   0  0  0  0  0  0  0  0  0  0  0  0
    0.7478   -2.4158   -0.4701 H   0  0  0  0  0  0  0  0  0  0  0  0
    0.1664   -2.0763   -2.8961 H   0  0  0  0  0  0  0  0  0  0  0  0
    1.1491   -0.6099   -2.9149 H   0  0  0  0  0  0  0  0  0  0  0  0
    2.1708   -3.4237   -2.2669 H   0  0  0  0  0  0  0  0  0  0  0  0
    3.1586   -1.9622   -2.2548 H   0  0  0  0  0  0  0  0  0  0  0  0
    1.6983   -3.1090   -4.7124 H   0  0  0  0  0  0  0  0  0  0  0  0
    2.6744   -1.6098   -4.7058 H   0  0  0  0  0  0  0  0  0  0  0  0
    4.1160   -3.2234   -5.3897 H   0  0  0  0  0  0  0  0  0  0  0  0
    3.5566   -4.3790   -4.3391 H   0  0  0  0  0  0  0  0  0  0  0  0
    4.4791   -3.1210   -3.7741 H   0  0  0  0  0  0  0  0  0  0  0  0
    0.2954   -1.0805    1.6865 N   0  0  0  0  0  0  0  0  0  0  0  0
    0.1977   -1.2382    3.1180 C   0  0  2  0  0  0  0  0  0  0  0  0
    1.6099   -1.3587    3.6754 C   0  0  0  0  0  0  0  0  0  0  0  0
    2.5703   -1.7175    2.9972 O   0  0  0  0  0  0  0  0  0  0  0  0
   -0.6372   -2.4552    3.4850 C   0  0  0  0  0  0  0  0  0  0  0  0
    1.1846   -1.2653    1.2319 H   0  0  0  0  0  0  0  0  0  0  0  0
   -0.2718   -0.3273    3.5052 H   0  0  0  0  0  0  0  0  0  0  0  0
   -0.1825   -3.3775    3.1054 H   0  0  0  0  0  0  0  0  0  0  0  0
   -0.7341   -2.5571    4.5709 H   0  0  0  0  0  0  0  0  0  0  0  0
   -1.6433   -2.3806    3.0583 H   0  0  0  0  0  0  0  0  0  0  0  0
    1.6638   -1.0601    5.0296 N   0  0  0  0  0  0  0  0  0  0  0  0
    2.8894   -1.1140    5.7917 C   0  0  0  0  0  0  0  0  0  0  0  0
    0.8216   -0.7532    5.5075 H   0  0  0  0  0  0  0  0  0  0  0  0
    2.9936   -2.1087    6.2498 H   0  0  0  0  0  0  0  0  0  0  0  0
    3.7441   -0.9262    5.1252 H   0  0  0  0  0  0  0  0  0  0  0  0
    2.8645   -0.3479    6.5807 H   0  0  0  0  0  0  0  0  0  0  0  0
  1  3  1  0  0  0  0
  1  7  1  0  0  0  0
  1  2  2  0  0  0  0
 40 41  1  0  0  0  0
 41 49  1  0  0  0  0
 41 42  2  0  0  0  0
  8  9  1  0  0  0  0
  9 17  1  0  0  0  0
  9 10  2  0  0  0  0
 18 19  1  0  0  0  0
 19 39  1  0  0  0  0
 19 20  2  0  0  0  0
 40 43  1  0  0  0  0
  8 11  1  0  0  0  0
 49 50  1  0  0  0  0
 22 23  1  0  0  0  0
 21 22  1  0  0  0  0
 23 24  1  0  0  0  0
 18 21  1  0  0  0  0
 24 25  1  0  0  0  0
 39 40  1  0  0  0  0
  7  8  1  0  0  0  0
 17 18  1  0  0  0  0
  3  4  1  0  0  0  0
  3  5  1  0  0  0  0
  3  6  1  0  0  0  0
 43 46  1  0  0  0  0
 43 47  1  0  0  0  0
 43 48  1  0  0  0  0
 11 14  1  0  0  0  0
 11 15  1  0  0  0  0
 11 16  1  0  0  0  0
 50 52  1  0  0  0  0
 50 53  1  0  0  0  0
 50 54  1  0  0  0  0
 22 30  1  0  0  0  0
 22 31  1  0  0  0  0
 23 32  1  0  0  0  0
 23 33  1  0  0  0  0
 21 28  1  0  0  0  0
 21 29  1  0  0  0  0
 24 34  1  0  0  0  0
 24 35  1  0  0  0  0
 40 45  1  0  0  0  0
  8 13  1  0  0  0  0
 18 27  1  0  0  0  0
 49 51  1  0  0  0  0
  7 12  1  0  0  0  0
 39 44  1  0  0  0  0
 17 26  1  0  0  0  0
 25 36  1  0  0  0  0
 25 37  1  0  0  0  0
 25 38  1  0  0  0  0
M  CHG  1  25   1
M  END
$$$$

  -OEChem-05262214473D

 54 53  0     1  0  0  0  0  0999 V2000
    2.6714    2.8829   -3.0005 C   0  0  0  0  0  0  0  0  0  0  0  0
    3.1741    2.4398   -1.9745 O   0  0  0  0  0  0  0  0  0  0  0  0
    3.5527    3.3077   -4.1279 C   0  0  0  0  0  0  0  0  0  0  0  0
    3.8407    4.3691   -4.0597 H   0  0  0  0  0  0  0  0  0  0  0  0
    4.5024    2.7495   -4.1526 H   0  0  0  0  0  0  0  0  0  0  0  0
    3.1208    3.1887   -5.1345 H   0  0  0  0  0  0  0  0  0  0  0  0
    1.3174    3.0407   -3.2467 N   0  0  0  0  0  0  0  0  0  0  0  0
    0.2944    2.6927   -2.2960 C   0  0  2  0  0  0  0  0  0  0  0  0
    0.2976    1.1783   -2.1349 C   0  0  0  0  0  0  0  0  0  0  0  0
    0.7500    0.4142   -2.9850 O   0  0  0  0  0  0  0  0  0  0  0  0
   -1.0710    3.1886   -2.7460 C   0  0  0  0  0  0  0  0  0  0  0  0
    1.0312    3.4224   -4.1464 H   0  0  0  0  0  0  0  0  0  0  0  0
    0.5725    3.1622   -1.3461 H   0  0  0  0  0  0  0  0  0  0  0  0
   -1.3666    2.7292   -3.6963 H   0  0  0  0  0  0  0  0  0  0  0  0
   -1.8434    2.9482   -2.0082 H   0  0  0  0  0  0  0  0  0  0  0  0
   -1.0632    4.2744   -2.8901 H   0  0  0  0  0  0  0  0  0  0  0  0
   -0.3037    0.7742   -0.9484 N   0  0  0  0  0  0  0  0  0  0  0  0
   -0.4352   -0.6095   -0.5718 C   0  0  2  0  0  0  0  0  0  0  0  0
   -0.7848   -0.6849    0.9108 C   0  0  0  0  0  0  0  0  0  0  0  0
   -1.9416   -0.7134    1.3261 O   0  0  0  0  0  0  0  0  0  0  0  0
    0.8137   -1.4228   -0.9317 C   0  0  0  0  0  0  0  0  0  0  0  0
    1.0376   -1.5917   -2.4402 C   0  0  0  0  0  0  0  0  0  0  0  0
    2.2849   -2.4324   -2.7229 C   0  0  0  0  0  0  0  0  0  0  0  0
    2.5177   -2.5773   -4.2196 C   0  0  0  0  0  0  0  0  0  0  0  0
    3.7461   -3.3762   -4.4451 N   0  3  0  0  0  0  0  0  0  0  0  0
   -0.6336    1.4811   -0.2948 H   0  0  0  0  0  0  0  0  0  0  0  0
   -1.2896   -0.9953   -1.1411 H   0  0  0  0  0  0  0  0  0  0  0  0
    1.6934   -0.9311   -0.4965 H   0  0  0  0  0  0  0  0  0  0  0  0
    0.7478   -2.4158   -0.4701 H   0  0  0  0  0  0  0  0  0  0  0  0
    0.1664   -2.0763   -2.8961 H   0  0  0  0  0  0  0  0  0  0  0  0
    1.1491   -0.6099   -2.9149 H   0  0  0  0  0  0  0  0  0  0  0  0
    2.1708   -3.4237   -2.2669 H   0  0  0  0  0  0  0  0  0  0  0  0
    3.1586   -1.9622   -2.2548 H   0  0  0  0  0  0  0  0  0  0  0  0
    1.6983   -3.1090   -4.7124 H   0  0  0  0  0  0  0  0  0  0  0  0
    2.6744   -1.6098   -4.7058 H   0  0  0  0  0  0  0  0  0  0  0  0
    4.1160   -3.2234   -5.3897 H   0  0  0  0  0  0  0  0  0  0  0  0
    3.5566   -4.3790   -4.3391 H   0  0  0  0  0  0  0  0  0  0  0  0
    4.4791   -3.1210   -3.7741 H   0  0  0  0  0  0  0  0  0  0  0  0
    0.3441   -0.7501    1.7148 N   0  0  0  0  0  0  0  0  0  0  0  0
    0.2599   -0.8445    3.1528 C   0  0  2  0  0  0  0  0  0  0  0  0
    1.6455   -0.5729    3.7237 C   0  0  0  0  0  0  0  0  0  0  0  0
    2.6789   -0.7166    3.0737 O   0  0  0  0  0  0  0  0  0  0  0  0
   -0.2497   -2.2093    3.5888 C   0  0  0  0  0  0  0  0  0  0  0  0
    1.2603   -0.7308    1.2769 H   0  0  0  0  0  0  0  0  0  0  0  0
   -0.4312   -0.0606    3.4812 H   0  0  0  0  0  0  0  0  0  0  0  0
    0.4297   -3.0076    3.2686 H   0  0  0  0  0  0  0  0  0  0  0  0
   -0.3401   -2.2695    4.6785 H   0  0  0  0  0  0  0  0  0  0  0  0
   -1.2334   -2.4155    3.1532 H   0  0  0  0  0  0  0  0  0  0  0  0
    1.5950   -0.1927    5.0575 N   0  0  0  0  0  0  0  0  0  0  0  0
    2.7791    0.1080    5.8279 C   0  0  0  0  0  0  0  0  0  0  0  0
    0.6932   -0.0809    5.5114 H   0  0  0  0  0  0  0  0  0  0  0  0
    3.1203   -0.8002    6.3463 H   0  0  0  0  0  0  0  0  0  0  0  0
    3.5725    0.4664    5.1556 H   0  0  0  0  0  0  0  0  0  0  0  0
    2.5464    0.8873    6.5686 H   0  0  0  0  0  0  0  0  0  0  0  0
  1  3  1  0  0  0  0
  1  7  1  0  0  0  0
  1  2  2  0  0  0  0
 40 41  1  0  0  0  0
 41 49  1  0  0  0  0
 41 42  2  0  0  0  0
  8  9  1  0  0  0  0
  9 17  1  0  0  0  0
  9 10  2  0  0  0  0
 18 19  1  0  0  0  0
 19 39  1  0  0  0  0
 19 20  2  0  0  0  0
 40 43  1  0  0  0  0
  8 11  1  0  0  0  0
 49 50  1  0  0  0  0
 22 23  1  0  0  0  0
 21 22  1  0  0  0  0
 23 24  1  0  0  0  0
 18 21  1  0  0  0  0
 24 25  1  0  0  0  0
 39 40  1  0  0  0  0
  7  8  1  0  0  0  0
 17 18  1  0  0  0  0
  3  4  1  0  0  0  0
  3  5  1  0  0  0  0
  3  6  1  0  0  0  0
 43 46  1  0  0  0  0
 43 47  1  0  0  0  0
 43 48  1  0  0  0  0
 11 14  1  0  0  0  0
 11 15  1  0  0  0  0
 11 16  1  0  0  0  0
 50 52  1  0  0  0  0
 50 53  1  0  0  0  0
 50 54  1  0  0  0  0
 22 30  1  0  0  0  0
 22 31  1  0  0  0  0
 23 32  1  0  0  0  0
 23 33  1  0  0  0  0
 21 28  1  0  0  0  0
 21 29  1  0  0  0  0
 24 34  1  0  0  0  0
 24 35  1  0  0  0  0
 40 45  1  0  0  0  0
  8 13  1  0  0  0  0
 18 27  1  0  0  0  0
 49 51  1  0  0  0  0
  7 12  1  0  0  0  0
 39 44  1  0  0  0  0
 17 26  1  0  0  0  0
 25 36  1  0  0  0  0
 25 37  1  0  0  0  0
 25 38  1  0  0  0  0
M  CHG  1  25   1
M  END
$$$$

  -OEChem-05262214473D

 54 53  0     1  0  0  0  0  0999 V2000
    2.6714    2.8829   -3.0005 C   0  0  0  0  0  0  0  0  0  0  0  0
    3.1741    2.4398   -1.9745 O   0  0  0  0  0  0  0  0  0  0  0  0
    3.5527    3.3077   -4.1279 C   0  0  0  0  0  0  0  0  0  0  0  0
    3.8407    4.3691   -4.0597 H   0  0  0  0  0  0  0  0  0  0  0  0
    4.5024    2.7495   -4.1526 H   0  0  0  0  0  0  0  0  0  0  0  0
    3.1208    3.1887   -5.1345 H   0  0  0  0  0  0  0  0  0  0  0  0
    1.3174    3.0407   -3.2467 N   0  0  0  0  0  0  0  0  0  0  0  0
    0.2944    2.6927   -2.2960 C   0  0  2  0  0  0  0  0  0  0  0  0
    0.2976    1.1783   -2.1349 C   0  0  0  0  0  0  0  0  0  0  0  0
    0.7500    0.4142   -2.9850 O   0  0  0  0  0  0  0  0  0  0  0  0
   -1.0710    3.1886   -2.7460 C   0  0  0  0  0  0  0  0  0  0  0  0
    1.0312    3.4224   -4.1464 H   0  0  0  0  0  0  0  0  0  0  0  0
    0.5725    3.1622   -1.3461 H   0  0  0  0  0  0  0  0  0  0  0  0
   -1.3666    2.7292   -3.6963 H   0  0  0  0  0  0  0  0  0  0  0  0
   -1.8434    2.9482   -2.0082 H   0  0  0  0  0  0  0  0  0  0  0  0
   -1.0632    4.2744   -2.8901 H   0  0  0  0  0  0  0  0  0  0  0  0
   -0.3037    0.7742   -0.9484 N   0  0  0  0  0  0  0  0  0  0  0  0
   -0.4352   -0.6095   -0.5718 C   0  0  2  0  0  0  0  0  0  0  0  0
   -0.7848   -0.6849    0.9108 C   0  0  0  0  0  0  0  0  0  0  0  0
   -1.9056   -0.9800    1.3210 O   0  0  0  0  0  0  0  0  0  0  0  0
    0.8137   -1.4228   -0.9317 C   0  0  0  0  0  0  0  0  0  0  0  0
    1.0376   -1.5917   -2.4402 C   0  0  0  0  0  0  0  0  0  0  0  0
    2.2849   -2.4324   -2.7229 C   0  0  0  0  0  0  0  0  0  0  0  0
    2.5177   -2.5773   -4.2196 C   0  0  0  0  0  0  0  0  0  0  0  0
    3.7461   -3.3762   -4.4451 N   0  3  0  0  0  0  0  0  0  0  0  0
   -0.6336    1.4811   -0.2948 H   0  0  0  0  0  0  0  0  0  0  0  0
   -1.2896   -0.9953   -1.1411 H   0  0  0  0  0  0  0  0  0  0  0  0
    1.6934   -0.9311   -0.4965 H   0  0  0  0  0  0  0  0  0  0  0  0
    0.7478   -2.4158   -0.4701 H   0  0  0  0  0  0  0  0  0  0  0  0
    0.1664   -2.0763   -2.8961 H   0  0  0  0  0  0  0  0  0  0  0  0
    1.1491   -0.6099   -2.9149 H   0  0  0  0  0  0  0  0  0  0  0  0
    2.1708   -3.4237   -2.2669 H   0  0  0  0  0  0  0  0  0  0  0  0
    3.1586   -1.9622   -2.2548 H   0  0  0  0  0  0  0  0  0  0  0  0
    1.6983   -3.1090   -4.7124 H   0  0  0  0  0  0  0  0  0  0  0  0
    2.6744   -1.6098   -4.7058 H   0  0  0  0  0  0  0  0  0  0  0  0
    4.1160   -3.2234   -5.3897 H   0  0  0  0  0  0  0  0  0  0  0  0
    3.5566   -4.3790   -4.3391 H   0  0  0  0  0  0  0  0  0  0  0  0
    4.4791   -3.1210   -3.7741 H   0  0  0  0  0  0  0  0  0  0  0  0
    0.3076   -0.4171    1.7232 N   0  0  0  0  0  0  0  0  0  0  0  0
    0.2206   -0.4465    3.1637 C   0  0  2  0  0  0  0  0  0  0  0  0
    1.4815    0.1979    3.7243 C   0  0  0  0  0  0  0  0  0  0  0  0
    2.5309    0.2820    3.0896 O   0  0  0  0  0  0  0  0  0  0  0  0
    0.0613   -1.8682    3.6795 C   0  0  0  0  0  0  0  0  0  0  0  0
    1.1983   -0.1928    1.2897 H   0  0  0  0  0  0  0  0  0  0  0  0
   -0.6518    0.1556    3.4402 H   0  0  0  0  0  0  0  0  0  0  0  0
    0.9259   -2.4866    3.4121 H   0  0  0  0  0  0  0  0  0  0  0  0
   -0.0332   -1.8863    4.7703 H   0  0  0  0  0  0  0  0  0  0  0  0
   -0.8299   -2.3403    3.2521 H   0  0  0  0  0  0  0  0  0  0  0  0
    1.3099    0.6294    5.0322 N   0  0  0  0  0  0  0  0  0  0  0  0
    2.3645    1.2627    5.7889 C   0  0  0  0  0  0  0  0  0  0  0  0
    0.3999    0.5364    5.4737 H   0  0  0  0  0  0  0  0  0  0  0  0
    2.9124    0.5013    6.3635 H   0  0  0  0  0  0  0  0  0  0  0  0
    3.0561    1.7701    5.1002 H   0  0  0  0  0  0  0  0  0  0  0  0
    1.9285    1.9996    6.4795 H   0  0  0  0  0  0  0  0  0  0  0  0
  1  3  1  0  0  0  0
  1  7  1  0  0  0  0
  1  2  2  0  0  0  0
 40 41  1  0  0  0  0
 41 49  1  0  0  0  0
 41 42  2  0  0  0  0
  8  9  1  0  0  0  0
  9 17  1  0  0  0  0
  9 10  2  0  0  0  0
 18 19  1  0  0  0  0
 19 39  1  0  0  0  0
 19 20  2  0  0  0  0
 40 43  1  0  0  0  0
  8 11  1  0  0  0  0
 49 50  1  0  0  0  0
 22 23  1  0  0  0  0
 21 22  1  0  0  0  0
 23 24  1  0  0  0  0
 18 21  1  0  0  0  0
 24 25  1  0  0  0  0
 39 40  1  0  0  0  0
  7  8  1  0  0  0  0
 17 18  1  0  0  0  0
  3  4  1  0  0  0  0
  3  5  1  0  0  0  0
  3  6  1  0  0  0  0
 43 46  1  0  0  0  0
 43 47  1  0  0  0  0
 43 48  1  0  0  0  0
 11 14  1  0  0  0  0
 11 15  1  0  0  0  0
 11 16  1  0  0  0  0
 50 52  1  0  0  0  0
 50 53  1  0  0  0  0
 50 54  1  0  0  0  0
 22 30  1  0  0  0  0
 22 31  1  0  0  0  0
 23 32  1  0  0  0  0
 23 33  1  0  0  0  0
 21 28  1  0  0  0  0
 21 29  1  0  0  0  0
 24 34  1  0  0  0  0
 24 35  1  0  0  0  0
 40 45  1  0  0  0  0
  8 13  1  0  0  0  0
 18 27  1  0  0  0  0
 49 51  1  0  0  0  0
  7 12  1  0  0  0  0
 39 44  1  0  0  0  0
 17 26  1  0  0  0  0
 25 36  1  0  0  0  0
 25 37  1  0  0  0  0
 25 38  1  0  0  0  0
M  CHG  1  25   1
M  END
$$$$

  -OEChem-05262214473D

 54 53  0     1  0  0  0  0  0999 V2000
    2.6714    2.8829   -3.0005 C   0  0  0  0  0  0  0  0  0  0  0  0
    3.1741    2.4398   -1.9745 O   0  0  0  0  0  0  0  0  0  0  0  0
    3.5527    3.3077   -4.1279 C   0  0  0  0  0  0  0  0  0  0  0  0
    3.8407    4.3691   -4.0597 H   0  0  0  0  0  0  0  0  0  0  0  0
    4.5024    2.7495   -4.1526 H   0  0  0  0  0  0  0  0  0  0  0  0
    3.1208    3.1887   -5.1345 H   0  0  0  0  0  0  0  0  0  0  0  0
    1.3174    3.0407   -3.2467 N   0  0  0  0  0  0  0  0  0  0  0  0
    0.2944    2.6927   -2.2960 C   0  0  2  0  0  0  0  0  0  0  0  0
    0.2976    1.1783   -2.1349 C   0  0  0  0  0  0  0  0  0  0  0  0
    0.7500    0.4142   -2.9850 O   0  0  0  0  0  0  0  0  0  0  0  0
   -1.0710    3.1886   -2.7460 C   0  0  0  0  0  0  0  0  0  0  0  0
    1.0312    3.4224   -4.1464 H   0  0  0  0  0  0  0  0  0  0  0  0
    0.5725    3.1622   -1.3461 H   0  0  0  0  0  0  0  0  0  0  0  0
   -1.3666    2.7292   -3.6963 H   0  0  0  0  0  0  0  0  0  0  0  0
   -1.8434    2.9482   -2.0082 H   0  0  0  0  0  0  0  0  0  0  0  0
   -1.0632    4.2744   -2.8901 H   0  0  0  0  0  0  0  0  0  0  0  0
   -0.3037    0.7742   -0.9484 N   0  0  0  0  0  0  0  0  0  0  0  0
   -0.4352   -0.6095   -0.5718 C   0  0  2  0  0  0  0  0  0  0  0  0
   -0.7848   -0.6849    0.9108 C   0  0  0  0  0  0  0  0  0  0  0  0
   -1.8037   -1.2287    1.3324 O   0  0  0  0  0  0  0  0  0  0  0  0
    0.8137   -1.4228   -0.9317 C   0  0  0  0  0  0  0  0  0  0  0  0
    1.0376   -1.5917   -2.4402 C   0  0  0  0  0  0  0  0  0  0  0  0
    2.2849   -2.4324   -2.7229 C   0  0  0  0  0  0  0  0  0  0  0  0
    2.5177   -2.5773   -4.2196 C   0  0  0  0  0  0  0  0  0  0  0  0
    3.7461   -3.3762   -4.4451 N   0  3  0  0  0  0  0  0  0  0  0  0
   -0.6336    1.4811   -0.2948 H   0  0  0  0  0  0  0  0  0  0  0  0
   -1.2896   -0.9953   -1.1411 H   0  0  0  0  0  0  0  0  0  0  0  0
    1.6934   -0.9311   -0.4965 H   0  0  0  0  0  0  0  0  0  0  0  0
    0.7478   -2.4158   -0.4701 H   0  0  0  0  0  0  0  0  0  0  0  0
    0.1664   -2.0763   -2.8961 H   0  0  0  0  0  0  0  0  0  0  0  0
    1.1491   -0.6099   -2.9149 H   0  0  0  0  0  0  0  0  0  0  0  0
    2.1708   -3.4237   -2.2669 H   0  0  0  0  0  0  0  0  0  0  0  0
    3.1586   -1.9622   -2.2548 H   0  0  0  0  0  0  0  0  0  0  0  0
    1.6983   -3.1090   -4.7124 H   0  0  0  0  0  0  0  0  0  0  0  0
    2.6744   -1.6098   -4.7058 H   0  0  0  0  0  0  0  0  0  0  0  0
    4.1160   -3.2234   -5.3897 H   0  0  0  0  0  0  0  0  0  0  0  0
    3.5566   -4.3790   -4.3391 H   0  0  0  0  0  0  0  0  0  0  0  0
    4.4791   -3.1210   -3.7741 H   0  0  0  0  0  0  0  0  0  0  0  0
    0.1885   -0.1040    1.7110 N   0  0  0  0  0  0  0  0  0  0  0  0
    0.0823   -0.0713    3.1502 C   0  0  2  0  0  0  0  0  0  0  0  0
    1.1292    0.9013    3.6770 C   0  0  0  0  0  0  0  0  0  0  0  0
    2.1365    1.2103    3.0439 O   0  0  0  0  0  0  0  0  0  0  0  0
    0.2748   -1.4550    3.7509 C   0  0  0  0  0  0  0  0  0  0  0  0
    1.0029    0.3121    1.2693 H   0  0  0  0  0  0  0  0  0  0  0  0
   -0.9189    0.3064    3.3849 H   0  0  0  0  0  0  0  0  0  0  0  0
    1.2723   -1.8499    3.5262 H   0  0  0  0  0  0  0  0  0  0  0  0
    0.1656   -1.4334    4.8402 H   0  0  0  0  0  0  0  0  0  0  0  0
   -0.4603   -2.1603    3.3484 H   0  0  0  0  0  0  0  0  0  0  0  0
    0.8280    1.3503    4.9552 N   0  0  0  0  0  0  0  0  0  0  0  0
    1.6741    2.2715    5.6775 C   0  0  0  0  0  0  0  0  0  0  0  0
   -0.0382    1.0566    5.3969 H   0  0  0  0  0  0  0  0  0  0  0  0
    2.3838    1.7072    6.3002 H   0  0  0  0  0  0  0  0  0  0  0  0
    2.2299    2.8961    4.9627 H   0  0  0  0  0  0  0  0  0  0  0  0
    1.0529    2.9133    6.3195 H   0  0  0  0  0  0  0  0  0  0  0  0
  1  3  1  0  0  0  0
  1  7  1  0  0  0  0
  1  2  2  0  0  0  0
 40 41  1  0  0  0  0
 41 49  1  0  0  0  0
 41 42  2  0  0  0  0
  8  9  1  0  0  0  0
  9 17  1  0  0  0  0
  9 10  2  0  0  0  0
 18 19  1  0  0  0  0
 19 39  1  0  0  0  0
 19 20  2  0  0  0  0
 40 43  1  0  0  0  0
  8 11  1  0  0  0  0
 49 50  1  0  0  0  0
 22 23  1  0  0  0  0
 21 22  1  0  0  0  0
 23 24  1  0  0  0  0
 18 21  1  0  0  0  0
 24 25  1  0  0  0  0
 39 40  1  0  0  0  0
  7  8  1  0  0  0  0
 17 18  1  0  0  0  0
  3  4  1  0  0  0  0
  3  5  1  0  0  0  0
  3  6  1  0  0  0  0
 43 46  1  0  0  0  0
 43 47  1  0  0  0  0
 43 48  1  0  0  0  0
 11 14  1  0  0  0  0
 11 15  1  0  0  0  0
 11 16  1  0  0  0  0
 50 52  1  0  0  0  0
 50 53  1  0  0  0  0
 50 54  1  0  0  0  0
 22 30  1  0  0  0  0
 22 31  1  0  0  0  0
 23 32  1  0  0  0  0
 23 33  1  0  0  0  0
 21 28  1  0  0  0  0
 21 29  1  0  0  0  0
 24 34  1  0  0  0  0
 24 35  1  0  0  0  0
 40 45  1  0  0  0  0
  8 13  1  0  0  0  0
 18 27  1  0  0  0  0
 49 51  1  0  0  0  0
  7 12  1  0  0  0  0
 39 44  1  0  0  0  0
 17 26  1  0  0  0  0
 25 36  1  0  0  0  0
 25 37  1  0  0  0  0
 25 38  1  0  0  0  0
M  CHG  1  25   1
M  END
$$$$

  -OEChem-05262214473D

 54 53  0     1  0  0  0  0  0999 V2000
    2.6714    2.8829   -3.0005 C   0  0  0  0  0  0  0  0  0  0  0  0
    3.1741    2.4398   -1.9745 O   0  0  0  0  0  0  0  0  0  0  0  0
    3.5527    3.3077   -4.1279 C   0  0  0  0  0  0  0  0  0  0  0  0
    3.8407    4.3691   -4.0597 H   0  0  0  0  0  0  0  0  0  0  0  0
    4.5024    2.7495   -4.1526 H   0  0  0  0  0  0  0  0  0  0  0  0
    3.1208    3.1887   -5.1345 H   0  0  0  0  0  0  0  0  0  0  0  0
    1.3174    3.0407   -3.2467 N   0  0  0  0  0  0  0  0  0  0  0  0
    0.2944    2.6927   -2.2960 C   0  0  2  0  0  0  0  0  0  0  0  0
    0.2976    1.1783   -2.1349 C   0  0  0  0  0  0  0  0  0  0  0  0
    0.7500    0.4142   -2.9850 O   0  0  0  0  0  0  0  0  0  0  0  0
   -1.0710    3.1886   -2.7460 C   0  0  0  0  0  0  0  0  0  0  0  0
    1.0312    3.4224   -4.1464 H   0  0  0  0  0  0  0  0  0  0  0  0
    0.5725    3.1622   -1.3461 H   0  0  0  0  0  0  0  0  0  0  0  0
   -1.3666    2.7292   -3.6963 H   0  0  0  0  0  0  0  0  0  0  0  0
   -1.8434    2.9482   -2.0082 H   0  0  0  0  0  0  0  0  0  0  0  0
   -1.0632    4.2744   -2.8901 H   0  0  0  0  0  0  0  0  0  0  0  0
   -0.3037    0.7742   -0.9484 N   0  0  0  0  0  0  0  0  0  0  0  0
   -0.4352   -0.6095   -0.5718 C   0  0  2  0  0  0  0  0  0  0  0  0
   -0.7848   -0.6849    0.9108 C   0  0  0  0  0  0  0  0  0  0  0  0
   -1.6427   -1.4427    1.3595 O   0  0  0  0  0  0  0  0  0  0  0  0
    0.8137   -1.4228   -0.9317 C   0  0  0  0  0  0  0  0  0  0  0  0
    1.0376   -1.5917   -2.4402 C   0  0  0  0  0  0  0  0  0  0  0  0
    2.2849   -2.4324   -2.7229 C   0  0  0  0  0  0  0  0  0  0  0  0
    2.5177   -2.5773   -4.2196 C   0  0  0  0  0  0  0  0  0  0  0  0
    3.7461   -3.3762   -4.4451 N   0  3  0  0  0  0  0  0  0  0  0  0
   -0.6336    1.4811   -0.2948 H   0  0  0  0  0  0  0  0  0  0  0  0
   -1.2896   -0.9953   -1.1411 H   0  0  0  0  0  0  0  0  0  0  0  0
    1.6934   -0.9311   -0.4965 H   0  0  0  0  0  0  0  0  0  0  0  0
    0.7478   -2.4158   -0.4701 H   0  0  0  0  0  0  0  0  0  0  0  0
    0.1664   -2.0763   -2.8961 H   0  0  0  0  0  0  0  0  0  0  0  0
    1.1491   -0.6099   -2.9149 H   0  0  0  0  0  0  0  0  0  0  0  0
    2.1708   -3.4237   -2.2669 H   0  0  0  0  0  0  0  0  0  0  0  0
    3.1586   -1.9622   -2.2548 H   0  0  0  0  0  0  0  0  0  0  0  0
    1.6983   -3.1090   -4.7124 H   0  0  0  0  0  0  0  0  0  0  0  0
    2.6744   -1.6098   -4.7058 H   0  0  0  0  0  0  0  0  0  0  0  0
    4.1160   -3.2234   -5.3897 H   0  0  0  0  0  0  0  0  0  0  0  0
    3.5566   -4.3790   -4.3391 H   0  0  0  0  0  0  0  0  0  0  0  0
    4.4791   -3.1210   -3.7741 H   0  0  0  0  0  0  0  0  0  0  0  0
   -0.0052    0.1676    1.6792 N   0  0  0  0  0  0  0  0  0  0  0  0
   -0.1456    0.2555    3.1131 C   0  0  2  0  0  0  0  0  0  0  0  0
    0.6125    1.4893    3.5851 C   0  0  0  0  0  0  0  0  0  0  0  0
    1.5225    2.0051    2.9396 O   0  0  0  0  0  0  0  0  0  0  0  0
    0.3761   -0.9980    3.7980 C   0  0  0  0  0  0  0  0  0  0  0  0
    0.6874    0.7493    1.2172 H   0  0  0  0  0  0  0  0  0  0  0  0
   -1.2141    0.3817    3.3192 H   0  0  0  0  0  0  0  0  0  0  0  0
    1.4452   -1.1411    3.6030 H   0  0  0  0  0  0  0  0  0  0  0  0
    0.2428   -0.9418    4.8835 H   0  0  0  0  0  0  0  0  0  0  0  0
   -0.1499   -1.8878    3.4355 H   0  0  0  0  0  0  0  0  0  0  0  0
    0.1822    1.9209    4.8320 N   0  0  0  0  0  0  0  0  0  0  0  0
    0.7548    3.0656    5.5011 C   0  0  0  0  0  0  0  0  0  0  0  0
   -0.5913    1.4443    5.2862 H   0  0  0  0  0  0  0  0  0  0  0  0
    1.5706    2.7352    6.1608 H   0  0  0  0  0  0  0  0  0  0  0  0
    1.1503    3.7678    4.7525 H   0  0  0  0  0  0  0  0  0  0  0  0
   -0.0207    3.5661    6.0996 H   0  0  0  0  0  0  0  0  0  0  0  0
  1  3  1  0  0  0  0
  1  7  1  0  0  0  0
  1  2  2  0  0  0  0
 40 41  1  0  0  0  0
 41 49  1  0  0  0  0
 41 42  2  0  0  0  0
  8  9  1  0  0  0  0
  9 17  1  0  0  0  0
  9 10  2  0  0  0  0
 18 19  1  0  0  0  0
 19 39  1  0  0  0  0
 19 20  2  0  0  0  0
 40 43  1  0  0  0  0
  8 11  1  0  0  0  0
 49 50  1  0  0  0  0
 22 23  1  0  0  0  0
 21 22  1  0  0  0  0
 23 24  1  0  0  0  0
 18 21  1  0  0  0  0
 24 25  1  0  0  0  0
 39 40  1  0  0  0  0
  7  8  1  0  0  0  0
 17 18  1  0  0  0  0
  3  4  1  0  0  0  0
  3  5  1  0  0  0  0
  3  6  1  0  0  0  0
 43 46  1  0  0  0  0
 43 47  1  0  0  0  0
 43 48  1  0  0  0  0
 11 14  1  0  0  0  0
 11 15  1  0  0  0  0
 11 16  1  0  0  0  0
 50 52  1  0  0  0  0
 50 53  1  0  0  0  0
 50 54  1  0  0  0  0
 22 30  1  0  0  0  0
 22 31  1  0  0  0  0
 23 32  1  0  0  0  0
 23 33  1  0  0  0  0
 21 28  1  0  0  0  0
 21 29  1  0  0  0  0
 24 34  1  0  0  0  0
 24 35  1  0  0  0  0
 40 45  1  0  0  0  0
  8 13  1  0  0  0  0
 18 27  1  0  0  0  0
 49 51  1  0  0  0  0
  7 12  1  0  0  0  0
 39 44  1  0  0  0  0
 17 26  1  0  0  0  0
 25 36  1  0  0  0  0
 25 37  1  0  0  0  0
 25 38  1  0  0  0  0
M  CHG  1  25   1
M  END
$$$$

  -OEChem-05262214473D

 54 53  0     1  0  0  0  0  0999 V2000
    2.6714    2.8829   -3.0005 C   0  0  0  0  0  0  0  0  0  0  0  0
    3.1741    2.4398   -1.9745 O   0  0  0  0  0  0  0  0  0  0  0  0
    3.5527    3.3077   -4.1279 C   0  0  0  0  0  0  0  0  0  0  0  0
    3.8407    4.3691   -4.0597 H   0  0  0  0  0  0  0  0  0  0  0  0
    4.5024    2.7495   -4.1526 H   0  0  0  0  0  0  0  0  0  0  0  0
    3.1208    3.1887   -5.1345 H   0  0  0  0  0  0  0  0  0  0  0  0
    1.3174    3.0407   -3.2467 N   0  0  0  0  0  0  0  0  0  0  0  0
    0.2944    2.6927   -2.2960 C   0  0  2  0  0  0  0  0  0  0  0  0
    0.2976    1.1783   -2.1349 C   0  0  0  0  0  0  0  0  0  0  0  0
    0.7500    0.4142   -2.9850 O   0  0  0  0  0  0  0  0  0  0  0  0
   -1.0710    3.1886   -2.7460 C   0  0  0  0  0  0  0  0  0  0  0  0
    1.0312    3.4224   -4.1464 H   0  0  0  0  0  0  0  0  0  0  0  0
    0.5725    3.1622   -1.3461 H   0  0  0  0  0  0  0  0  0  0  0  0
   -1.3666    2.7292   -3.6963 H   0  0  0  0  0  0  0  0  0  0  0  0
   -1.8434    2.9482   -2.0082 H   0  0  0  0  0  0  0  0  0  0  0  0
   -1.0632    4.2744   -2.8901 H   0  0  0  0  0  0  0  0  0  0  0  0
   -0.3037    0.7742   -0.9484 N   0  0  0  0  0  0  0  0  0  0  0  0
   -0.4352   -0.6095   -0.5718 C   0  0  2  0  0  0  0  0  0  0  0  0
   -0.7848   -0.6849    0.9108 C   0  0  0  0  0  0  0  0  0  0  0  0
   -1.4338   -1.6072    1.4003 O   0  0  0  0  0  0  0  0  0  0  0  0
    0.8137   -1.4228   -0.9317 C   0  0  0  0  0  0  0  0  0  0  0  0
    1.0376   -1.5917   -2.4402 C   0  0  0  0  0  0  0  0  0  0  0  0
    2.2849   -2.4324   -2.7229 C   0  0  0  0  0  0  0  0  0  0  0  0
    2.5177   -2.5773   -4.2196 C   0  0  0  0  0  0  0  0  0  0  0  0
    3.7461   -3.3762   -4.4451 N   0  3  0  0  0  0  0  0  0  0  0  0
   -0.6336    1.4811   -0.2948 H   0  0  0  0  0  0  0  0  0  0  0  0
   -1.2896   -0.9953   -1.1411 H   0  0  0  0  0  0  0  0  0  0  0  0
    1.6934   -0.9311   -0.4965 H   0  0  0  0  0  0  0  0  0  0  0  0
    0.7478   -2.4158   -0.4701 H   0  0  0  0  0  0  0  0  0  0  0  0
    0.1664   -2.0763   -2.8961 H   0  0  0  0  0  0  0  0  0  0  0  0
    1.1491   -0.6099   -2.9149 H   0  0  0  0  0  0  0  0  0  0  0  0
    2.1708   -3.4237   -2.2669 H   0  0  0  0  0  0  0  0  0  0  0  0
    3.1586   -1.9622   -2.2548 H   0  0  0  0  0  0  0  0  0  0  0  0
    1.6983   -3.1090   -4.7124 H   0  0  0  0  0  0  0  0  0  0  0  0
    2.6744   -1.6098   -4.7058 H   0  0  0  0  0  0  0  0  0  0  0  0
    4.1160   -3.2234   -5.3897 H   0  0  0  0  0  0  0  0  0  0  0  0
    3.5566   -4.3790   -4.3391 H   0  0  0  0  0  0  0  0  0  0  0  0
    4.4791   -3.1210   -3.7741 H   0  0  0  0  0  0  0  0  0  0  0  0
   -0.2602    0.3794    1.6298 N   0  0  0  0  0  0  0  0  0  0  0  0
   -0.4474    0.5117    3.0550 C   0  0  2  0  0  0  0  0  0  0  0  0
   -0.0334    1.9217    3.4548 C   0  0  0  0  0  0  0  0  0  0  0  0
    0.7309    2.6121    2.7838 O   0  0  0  0  0  0  0  0  0  0  0  0
    0.3584   -0.5283    3.8178 C   0  0  0  0  0  0  0  0  0  0  0  0
    0.2734    1.0893    1.1369 H   0  0  0  0  0  0  0  0  0  0  0  0
   -1.5173    0.3762    3.2474 H   0  0  0  0  0  0  0  0  0  0  0  0
    1.4329   -0.4084    3.6374 H   0  0  0  0  0  0  0  0  0  0  0  0
    0.1931   -0.4450    4.8970 H   0  0  0  0  0  0  0  0  0  0  0  0
    0.0803   -1.5413    3.5074 H   0  0  0  0  0  0  0  0  0  0  0  0
   -0.5836    2.3022    4.6708 N   0  0  0  0  0  0  0  0  0  0  0  0
   -0.3308    3.5909    5.2719 C   0  0  0  0  0  0  0  0  0  0  0  0
   -1.2217    1.6731    5.1492 H   0  0  0  0  0  0  0  0  0  0  0  0
    0.5283    3.5154    5.9547 H   0  0  0  0  0  0  0  0  0  0  0  0
   -0.1092    4.3257    4.4839 H   0  0  0  0  0  0  0  0  0  0  0  0
   -1.2191    3.9135    5.8347 H   0  0  0  0  0  0  0  0  0  0  0  0
  1  3  1  0  0  0  0
  1  7  1  0  0  0  0
  1  2  2  0  0  0  0
 40 41  1  0  0  0  0
 41 49  1  0  0  0  0
 41 42  2  0  0  0  0
  8  9  1  0  0  0  0
  9 17  1  0  0  0  0
  9 10  2  0  0  0  0
 18 19  1  0  0  0  0
 19 39  1  0  0  0  0
 19 20  2  0  0  0  0
 40 43  1  0  0  0  0
  8 11  1  0  0  0  0
 49 50  1  0  0  0  0
 22 23  1  0  0  0  0
 21 22  1  0  0  0  0
 23 24  1  0  0  0  0
 18 21  1  0  0  0  0
 24 25  1  0  0  0  0
 39 40  1  0  0  0  0
  7  8  1  0  0  0  0
 17 18  1  0  0  0  0
  3  4  1  0  0  0  0
  3  5  1  0  0  0  0
  3  6  1  0  0  0  0
 43 46  1  0  0  0  0
 43 47  1  0  0  0  0
 43 48  1  0  0  0  0
 11 14  1  0  0  0  0
 11 15  1  0  0  0  0
 11 16  1  0  0  0  0
 50 52  1  0  0  0  0
 50 53  1  0  0  0  0
 50 54  1  0  0  0  0
 22 30  1  0  0  0  0
 22 31  1  0  0  0  0
 23 32  1  0  0  0  0
 23 33  1  0  0  0  0
 21 28  1  0  0  0  0
 21 29  1  0  0  0  0
 24 34  1  0  0  0  0
 24 35  1  0  0  0  0
 40 45  1  0  0  0  0
  8 13  1  0  0  0  0
 18 27  1  0  0  0  0
 49 51  1  0  0  0  0
  7 12  1  0  0  0  0
 39 44  1  0  0  0  0
 17 26  1  0  0  0  0
 25 36  1  0  0  0  0
 25 37  1  0  0  0  0
 25 38  1  0  0  0  0
M  CHG  1  25   1
M  END
$$$$

  -OEChem-05262214473D

 54 53  0     1  0  0  0  0  0999 V2000
    2.6714    2.8829   -3.0005 C   0  0  0  0  0  0  0  0  0  0  0  0
    3.1741    2.4398   -1.9745 O   0  0  0  0  0  0  0  0  0  0  0  0
    3.5527    3.3077   -4.1279 C   0  0  0  0  0  0  0  0  0  0  0  0
    3.8407    4.3691   -4.0597 H   0  0  0  0  0  0  0  0  0  0  0  0
    4.5024    2.7495   -4.1526 H   0  0  0  0  0  0  0  0  0  0  0  0
    3.1208    3.1887   -5.1345 H   0  0  0  0  0  0  0  0  0  0  0  0
    1.3174    3.0407   -3.2467 N   0  0  0  0  0  0  0  0  0  0  0  0
    0.2944    2.6927   -2.2960 C   0  0  2  0  0  0  0  0  0  0  0  0
    0.2976    1.1783   -2.1349 C   0  0  0  0  0  0  0  0  0  0  0  0
    0.7500    0.4142   -2.9850 O   0  0  0  0  0  0  0  0  0  0  0  0
   -1.0710    3.1886   -2.7460 C   0  0  0  0  0  0  0  0  0  0  0  0
    1.0312    3.4224   -4.1464 H   0  0  0  0  0  0  0  0  0  0  0  0
    0.5725    3.1622   -1.3461 H   0  0  0  0  0  0  0  0  0  0  0  0
   -1.3666    2.7292   -3.6963 H   0  0  0  0  0  0  0  0  0  0  0  0
   -1.8434    2.9482   -2.0082 H   0  0  0  0  0  0  0  0  0  0  0  0
   -1.0632    4.2744   -2.8901 H   0  0  0  0  0  0  0  0  0  0  0  0
   -0.3037    0.7742   -0.9484 N   0  0  0  0  0  0  0  0  0  0  0  0
   -0.4352   -0.6095   -0.5718 C   0  0  2  0  0  0  0  0  0  0  0  0
   -0.7848   -0.6849    0.9108 C   0  0  0  0  0  0  0  0  0  0  0  0
   -1.1912   -1.7112    1.4523 O   0  0  0  0  0  0  0  0  0  0  0  0
    0.8137   -1.4228   -0.9317 C   0  0  0  0  0  0  0  0  0  0  0  0
    1.0376   -1.5917   -2.4402 C   0  0  0  0  0  0  0  0  0  0  0  0
    2.2849   -2.4324   -2.7229 C   0  0  0  0  0  0  0  0  0  0  0  0
    2.5177   -2.5773   -4.2196 C   0  0  0  0  0  0  0  0  0  0  0  0
    3.7461   -3.3762   -4.4451 N   0  3  0  0  0  0  0  0  0  0  0  0
   -0.6336    1.4811   -0.2948 H   0  0  0  0  0  0  0  0  0  0  0  0
   -1.2896   -0.9953   -1.1411 H   0  0  0  0  0  0  0  0  0  0  0  0
    1.6934   -0.9311   -0.4965 H   0  0  0  0  0  0  0  0  0  0  0  0
    0.7478   -2.4158   -0.4701 H   0  0  0  0  0  0  0  0  0  0  0  0
    0.1664   -2.0763   -2.8961 H   0  0  0  0  0  0  0  0  0  0  0  0
    1.1491   -0.6099   -2.9149 H   0  0  0  0  0  0  0  0  0  0  0  0
    2.1708   -3.4237   -2.2669 H   0  0  0  0  0  0  0  0  0  0  0  0
    3.1586   -1.9622   -2.2548 H   0  0  0  0  0  0  0  0  0  0  0  0
    1.6983   -3.1090   -4.7124 H   0  0  0  0  0  0  0  0  0  0  0  0
    2.6744   -1.6098   -4.7058 H   0  0  0  0  0  0  0  0  0  0  0  0
    4.1160   -3.2234   -5.3897 H   0  0  0  0  0  0  0  0  0  0  0  0
    3.5566   -4.3790   -4.3391 H   0  0  0  0  0  0  0  0  0  0  0  0
    4.4791   -3.1210   -3.7741 H   0  0  0  0  0  0  0  0  0  0  0  0
   -0.5592    0.5169    1.5663 N   0  0  0  0  0  0  0  0  0  0  0  0
   -0.8026    0.6797    2.9798 C   0  0  2  0  0  0  0  0  0  0  0  0
   -0.7644    2.1692    3.2951 C   0  0  0  0  0  0  0  0  0  0  0  0
   -0.1845    2.9900    2.5872 O   0  0  0  0  0  0  0  0  0  0  0  0
    0.2228   -0.0779    3.8087 C   0  0  0  0  0  0  0  0  0  0  0  0
   -0.2111    1.3086    1.0338 H   0  0  0  0  0  0  0  0  0  0  0  0
   -1.8079    0.2903    3.1745 H   0  0  0  0  0  0  0  0  0  0  0  0
    1.2362    0.2983    3.6270 H   0  0  0  0  0  0  0  0  0  0  0  0
    0.0200    0.0233    4.8800 H   0  0  0  0  0  0  0  0  0  0  0  0
    0.2146   -1.1444    3.5593 H   0  0  0  0  0  0  0  0  0  0  0  0
   -1.4172    2.4682    4.4827 N   0  0  0  0  0  0  0  0  0  0  0  0
   -1.5085    3.8115    5.0054 C   0  0  0  0  0  0  0  0  0  0  0  0
   -1.8865    1.7273    4.9952 H   0  0  0  0  0  0  0  0  0  0  0  0
   -0.6721    3.9944    5.6961 H   0  0  0  0  0  0  0  0  0  0  0  0
   -1.4626    4.5317    4.1753 H   0  0  0  0  0  0  0  0  0  0  0  0
   -2.4607    3.9317    5.5429 H   0  0  0  0  0  0  0  0  0  0  0  0
  1  3  1  0  0  0  0
  1  7  1  0  0  0  0
  1  2  2  0  0  0  0
 40 41  1  0  0  0  0
 41 49  1  0  0  0  0
 41 42  2  0  0  0  0
  8  9  1  0  0  0  0
  9 17  1  0  0  0  0
  9 10  2  0  0  0  0
 18 19  1  0  0  0  0
 19 39  1  0  0  0  0
 19 20  2  0  0  0  0
 40 43  1  0  0  0  0
  8 11  1  0  0  0  0
 49 50  1  0  0  0  0
 22 23  1  0  0  0  0
 21 22  1  0  0  0  0
 23 24  1  0  0  0  0
 18 21  1  0  0  0  0
 24 25  1  0  0  0  0
 39 40  1  0  0  0  0
  7  8  1  0  0  0  0
 17 18  1  0  0  0  0
  3  4  1  0  0  0  0
  3  5  1  0  0  0  0
  3  6  1  0  0  0  0
 43 46  1  0  0  0  0
 43 47  1  0  0  0  0
 43 48  1  0  0  0  0
 11 14  1  0  0  0  0
 11 15  1  0  0  0  0
 11 16  1  0  0  0  0
 50 52  1  0  0  0  0
 50 53  1  0  0  0  0
 50 54  1  0  0  0  0
 22 30  1  0  0  0  0
 22 31  1  0  0  0  0
 23 32  1  0  0  0  0
 23 33  1  0  0  0  0
 21 28  1  0  0  0  0
 21 29  1  0  0  0  0
 24 34  1  0  0  0  0
 24 35  1  0  0  0  0
 40 45  1  0  0  0  0
  8 13  1  0  0  0  0
 18 27  1  0  0  0  0
 49 51  1  0  0  0  0
  7 12  1  0  0  0  0
 39 44  1  0  0  0  0
 17 26  1  0  0  0  0
 25 36  1  0  0  0  0
 25 37  1  0  0  0  0
 25 38  1  0  0  0  0
M  CHG  1  25   1
M  END
$$$$

  -OEChem-05262214473D

 54 53  0     1  0  0  0  0  0999 V2000
    2.6714    2.8829   -3.0005 C   0  0  0  0  0  0  0  0  0  0  0  0
    3.1741    2.4398   -1.9745 O   0  0  0  0  0  0  0  0  0  0  0  0
    3.5527    3.3077   -4.1279 C   0  0  0  0  0  0  0  0  0  0  0  0
    3.8407    4.3691   -4.0597 H   0  0  0  0  0  0  0  0  0  0  0  0
    4.5024    2.7495   -4.1526 H   0  0  0  0  0  0  0  0  0  0  0  0
    3.1208    3.1887   -5.1345 H   0  0  0  0  0  0  0  0  0  0  0  0
    1.3174    3.0407   -3.2467 N   0  0  0  0  0  0  0  0  0  0  0  0
    0.2944    2.6927   -2.2960 C   0  0  2  0  0  0  0  0  0  0  0  0
    0.2976    1.1783   -2.1349 C   0  0  0  0  0  0  0  0  0  0  0  0
    0.7500    0.4142   -2.9850 O   0  0  0  0  0  0  0  0  0  0  0  0
   -1.0710    3.1886   -2.7460 C   0  0  0  0  0  0  0  0  0  0  0  0
    1.0312    3.4224   -4.1464 H   0  0  0  0  0  0  0  0  0  0  0  0
    0.5725    3.1622   -1.3461 H   0  0  0  0  0  0  0  0  0  0  0  0
   -1.3666    2.7292   -3.6963 H   0  0  0  0  0  0  0  0  0  0  0  0
   -1.8434    2.9482   -2.0082 H   0  0  0  0  0  0  0  0  0  0  0  0
   -1.0632    4.2744   -2.8901 H   0  0  0  0  0  0  0  0  0  0  0  0
   -0.3037    0.7742   -0.9484 N   0  0  0  0  0  0  0  0  0  0  0  0
   -0.4352   -0.6095   -0.5718 C   0  0  2  0  0  0  0  0  0  0  0  0
   -0.7848   -0.6849    0.9108 C   0  0  0  0  0  0  0  0  0  0  0  0
   -0.9313   -1.7475    1.5117 O   0  0  0  0  0  0  0  0  0  0  0  0
    0.8137   -1.4228   -0.9317 C   0  0  0  0  0  0  0  0  0  0  0  0
    1.0376   -1.5917   -2.4402 C   0  0  0  0  0  0  0  0  0  0  0  0
    2.2849   -2.4324   -2.7229 C   0  0  0  0  0  0  0  0  0  0  0  0
    2.5177   -2.5773   -4.2196 C   0  0  0  0  0  0  0  0  0  0  0  0
    3.7461   -3.3762   -4.4451 N   0  3  0  0  0  0  0  0  0  0  0  0
   -0.6336    1.4811   -0.2948 H   0  0  0  0  0  0  0  0  0  0  0  0
   -1.2896   -0.9953   -1.1411 H   0  0  0  0  0  0  0  0  0  0  0  0
    1.6934   -0.9311   -0.4965 H   0  0  0  0  0  0  0  0  0  0  0  0
    0.7478   -2.4158   -0.4701 H   0  0  0  0  0  0  0  0  0  0  0  0
    0.1664   -2.0763   -2.8961 H   0  0  0  0  0  0  0  0  0  0  0  0
    1.1491   -0.6099   -2.9149 H   0  0  0  0  0  0  0  0  0  0  0  0
    2.1708   -3.4237   -2.2669 H   0  0  0  0  0  0  0  0  0  0  0  0
    3.1586   -1.9622   -2.2548 H   0  0  0  0  0  0  0  0  0  0  0  0
    1.6983   -3.1090   -4.7124 H   0  0  0  0  0  0  0  0  0  0  0  0
    2.6744   -1.6098   -4.7058 H   0  0  0  0  0  0  0  0  0  0  0  0
    4.1160   -3.2234   -5.3897 H   0  0  0  0  0  0  0  0  0  0  0  0
    3.5566   -4.3790   -4.3391 H   0  0  0  0  0  0  0  0  0  0  0  0
    4.4791   -3.1210   -3.7741 H   0  0  0  0  0  0  0  0  0  0  0  0
   -0.8818    0.5707    1.4930 N   0  0  0  0  0  0  0  0  0  0  0  0
   -1.1871    0.7482    2.8926 C   0  0  2  0  0  0  0  0  0  0  0  0
   -1.5307    2.2149    3.1167 C   0  0  0  0  0  0  0  0  0  0  0  0
   -1.1613    3.1131    2.3631 O   0  0  0  0  0  0  0  0  0  0  0  0
   -0.0213    0.3226    3.7715 C   0  0  0  0  0  0  0  0  0  0  0  0
   -0.7330    1.3925    0.9150 H   0  0  0  0  0  0  0  0  0  0  0  0
   -2.0660    0.1300    3.1055 H   0  0  0  0  0  0  0  0  0  0  0  0
    0.8686    0.9309    3.5725 H   0  0  0  0  0  0  0  0  0  0  0  0
   -0.2649    0.4309    4.8336 H   0  0  0  0  0  0  0  0  0  0  0  0
    0.2437   -0.7242    3.5875 H   0  0  0  0  0  0  0  0  0  0  0  0
   -2.2618    2.4077    4.2805 N   0  0  0  0  0  0  0  0  0  0  0  0
   -2.6983    3.7125    4.7199 C   0  0  0  0  0  0  0  0  0  0  0  0
   -2.5402    1.6033    4.8348 H   0  0  0  0  0  0  0  0  0  0  0  0
   -1.9489    4.1398    5.4024 H   0  0  0  0  0  0  0  0  0  0  0  0
   -2.8178    4.3719    3.8476 H   0  0  0  0  0  0  0  0  0  0  0  0
   -3.6609    3.6197    5.2441 H   0  0  0  0  0  0  0  0  0  0  0  0
  1  3  1  0  0  0  0
  1  7  1  0  0  0  0
  1  2  2  0  0  0  0
 40 41  1  0  0  0  0
 41 49  1  0  0  0  0
 41 42  2  0  0  0  0
  8  9  1  0  0  0  0
  9 17  1  0  0  0  0
  9 10  2  0  0  0  0
 18 19  1  0  0  0  0
 19 39  1  0  0  0  0
 19 20  2  0  0  0  0
 40 43  1  0  0  0  0
  8 11  1  0  0  0  0
 49 50  1  0  0  0  0
 22 23  1  0  0  0  0
 21 22  1  0  0  0  0
 23 24  1  0  0  0  0
 18 21  1  0  0  0  0
 24 25  1  0  0  0  0
 39 40  1  0  0  0  0
  7  8  1  0  0  0  0
 17 18  1  0  0  0  0
  3  4  1  0  0  0  0
  3  5  1  0  0  0  0
  3  6  1  0  0  0  0
 43 46  1  0  0  0  0
 43 47  1  0  0  0  0
 43 48  1  0  0  0  0
 11 14  1  0  0  0  0
 11 15  1  0  0  0  0
 11 16  1  0  0  0  0
 50 52  1  0  0  0  0
 50 53  1  0  0  0  0
 50 54  1  0  0  0  0
 22 30  1  0  0  0  0
 22 31  1  0  0  0  0
 23 32  1  0  0  0  0
 23 33  1  0  0  0  0
 21 28  1  0  0  0  0
 21 29  1  0  0  0  0
 24 34  1  0  0  0  0
 24 35  1  0  0  0  0
 40 45  1  0  0  0  0
  8 13  1  0  0  0  0
 18 27  1  0  0  0  0
 49 51  1  0  0  0  0
  7 12  1  0  0  0  0
 39 44  1  0  0  0  0
 17 26  1  0  0  0  0
 25 36  1  0  0  0  0
 25 37  1  0  0  0  0
 25 38  1  0  0  0  0
M  CHG  1  25   1
M  END
$$$$

  -OEChem-05262214473D

 54 53  0     1  0  0  0  0  0999 V2000
    2.6714    2.8829   -3.0005 C   0  0  0  0  0  0  0  0  0  0  0  0
    3.1741    2.4398   -1.9745 O   0  0  0  0  0  0  0  0  0  0  0  0
    3.5527    3.3077   -4.1279 C   0  0  0  0  0  0  0  0  0  0  0  0
    3.8407    4.3691   -4.0597 H   0  0  0  0  0  0  0  0  0  0  0  0
    4.5024    2.7495   -4.1526 H   0  0  0  0  0  0  0  0  0  0  0  0
    3.1208    3.1887   -5.1345 H   0  0  0  0  0  0  0  0  0  0  0  0
    1.3174    3.0407   -3.2467 N   0  0  0  0  0  0  0  0  0  0  0  0
    0.2944    2.6927   -2.2960 C   0  0  2  0  0  0  0  0  0  0  0  0
    0.2976    1.1783   -2.1349 C   0  0  0  0  0  0  0  0  0  0  0  0
    0.7500    0.4142   -2.9850 O   0  0  0  0  0  0  0  0  0  0  0  0
   -1.0710    3.1886   -2.7460 C   0  0  0  0  0  0  0  0  0  0  0  0
    1.0312    3.4224   -4.1464 H   0  0  0  0  0  0  0  0  0  0  0  0
    0.5725    3.1622   -1.3461 H   0  0  0  0  0  0  0  0  0  0  0  0
   -1.3666    2.7292   -3.6963 H   0  0  0  0  0  0  0  0  0  0  0  0
   -1.8434    2.9482   -2.0082 H   0  0  0  0  0  0  0  0  0  0  0  0
   -1.0632    4.2744   -2.8901 H   0  0  0  0  0  0  0  0  0  0  0  0
   -0.3037    0.7742   -0.9484 N   0  0  0  0  0  0  0  0  0  0  0  0
   -0.4352   -0.6095   -0.5718 C   0  0  2  0  0  0  0  0  0  0  0  0
   -0.7848   -0.6849    0.9108 C   0  0  0  0  0  0  0  0  0  0  0  0
   -0.6719   -1.7136    1.5746 O   0  0  0  0  0  0  0  0  0  0  0  0
    0.8137   -1.4228   -0.9317 C   0  0  0  0  0  0  0  0  0  0  0  0
    1.0376   -1.5917   -2.4402 C   0  0  0  0  0  0  0  0  0  0  0  0
    2.2849   -2.4324   -2.7229 C   0  0  0  0  0  0  0  0  0  0  0  0
    2.5177   -2.5773   -4.2196 C   0  0  0  0  0  0  0  0  0  0  0  0
    3.7461   -3.3762   -4.4451 N   0  3  0  0  0  0  0  0  0  0  0  0
   -0.6336    1.4811   -0.2948 H   0  0  0  0  0  0  0  0  0  0  0  0
   -1.2896   -0.9953   -1.1411 H   0  0  0  0  0  0  0  0  0  0  0  0
    1.6934   -0.9311   -0.4965 H   0  0  0  0  0  0  0  0  0  0  0  0
    0.7478   -2.4158   -0.4701 H   0  0  0  0  0  0  0  0  0  0  0  0
    0.1664   -2.0763   -2.8961 H   0  0  0  0  0  0  0  0  0  0  0  0
    1.1491   -0.6099   -2.9149 H   0  0  0  0  0  0  0  0  0  0  0  0
    2.1708   -3.4237   -2.2669 H   0  0  0  0  0  0  0  0  0  0  0  0
    3.1586   -1.9622   -2.2548 H   0  0  0  0  0  0  0  0  0  0  0  0
    1.6983   -3.1090   -4.7124 H   0  0  0  0  0  0  0  0  0  0  0  0
    2.6744   -1.6098   -4.7058 H   0  0  0  0  0  0  0  0  0  0  0  0
    4.1160   -3.2234   -5.3897 H   0  0  0  0  0  0  0  0  0  0  0  0
    3.5566   -4.3790   -4.3391 H   0  0  0  0  0  0  0  0  0  0  0  0
    4.4791   -3.1210   -3.7741 H   0  0  0  0  0  0  0  0  0  0  0  0
   -1.2060    0.5372    1.4148 N   0  0  0  0  0  0  0  0  0  0  0  0
   -1.5745    0.7124    2.7994 C   0  0  2  0  0  0  0  0  0  0  0  0
   -2.2801    2.0556    2.9319 C   0  0  0  0  0  0  0  0  0  0  0  0
   -2.1329    2.9729    2.1269 O   0  0  0  0  0  0  0  0  0  0  0  0
   -0.3574    0.6458    3.7087 C   0  0  0  0  0  0  0  0  0  0  0  0
   -1.2566    1.3352    0.7886 H   0  0  0  0  0  0  0  0  0  0  0  0
   -2.2741   -0.0940    3.0450 H   0  0  0  0  0  0  0  0  0  0  0  0
    0.3550    1.4461    3.4776 H   0  0  0  0  0  0  0  0  0  0  0  0
   -0.6420    0.7503    4.7609 H   0  0  0  0  0  0  0  0  0  0  0  0
    0.1658   -0.3093    3.5903 H   0  0  0  0  0  0  0  0  0  0  0  0
   -3.0597    2.1248    4.0780 N   0  0  0  0  0  0  0  0  0  0  0  0
   -3.8189    3.3006    4.4347 C   0  0  0  0  0  0  0  0  0  0  0  0
   -3.1384    1.3096    4.6788 H   0  0  0  0  0  0  0  0  0  0  0  0
   -3.2150    3.9416    5.0938 H   0  0  0  0  0  0  0  0  0  0  0  0
   -4.0825    3.8572    3.5232 H   0  0  0  0  0  0  0  0  0  0  0  0
   -4.7378    2.9986    4.9585 H   0  0  0  0  0  0  0  0  0  0  0  0
  1  3  1  0  0  0  0
  1  7  1  0  0  0  0
  1  2  2  0  0  0  0
 40 41  1  0  0  0  0
 41 49  1  0  0  0  0
 41 42  2  0  0  0  0
  8  9  1  0  0  0  0
  9 17  1  0  0  0  0
  9 10  2  0  0  0  0
 18 19  1  0  0  0  0
 19 39  1  0  0  0  0
 19 20  2  0  0  0  0
 40 43  1  0  0  0  0
  8 11  1  0  0  0  0
 49 50  1  0  0  0  0
 22 23  1  0  0  0  0
 21 22  1  0  0  0  0
 23 24  1  0  0  0  0
 18 21  1  0  0  0  0
 24 25  1  0  0  0  0
 39 40  1  0  0  0  0
  7  8  1  0  0  0  0
 17 18  1  0  0  0  0
  3  4  1  0  0  0  0
  3  5  1  0  0  0  0
  3  6  1  0  0  0  0
 43 46  1  0  0  0  0
 43 47  1  0  0  0  0
 43 48  1  0  0  0  0
 11 14  1  0  0  0  0
 11 15  1  0  0  0  0
 11 16  1  0  0  0  0
 50 52  1  0  0  0  0
 50 53  1  0  0  0  0
 50 54  1  0  0  0  0
 22 30  1  0  0  0  0
 22 31  1  0  0  0  0
 23 32  1  0  0  0  0
 23 33  1  0  0  0  0
 21 28  1  0  0  0  0
 21 29  1  0  0  0  0
 24 34  1  0  0  0  0
 24 35  1  0  0  0  0
 40 45  1  0  0  0  0
  8 13  1  0  0  0  0
 18 27  1  0  0  0  0
 49 51  1  0  0  0  0
  7 12  1  0  0  0  0
 39 44  1  0  0  0  0
 17 26  1  0  0  0  0
 25 36  1  0  0  0  0
 25 37  1  0  0  0  0
 25 38  1  0  0  0  0
M  CHG  1  25   1
M  END
$$$$

  -OEChem-05262214473D

 54 53  0     1  0  0  0  0  0999 V2000
    2.6714    2.8829   -3.0005 C   0  0  0  0  0  0  0  0  0  0  0  0
    3.1741    2.4398   -1.9745 O   0  0  0  0  0  0  0  0  0  0  0  0
    3.5527    3.3077   -4.1279 C   0  0  0  0  0  0  0  0  0  0  0  0
    3.8407    4.3691   -4.0597 H   0  0  0  0  0  0  0  0  0  0  0  0
    4.5024    2.7495   -4.1526 H   0  0  0  0  0  0  0  0  0  0  0  0
    3.1208    3.1887   -5.1345 H   0  0  0  0  0  0  0  0  0  0  0  0
    1.3174    3.0407   -3.2467 N   0  0  0  0  0  0  0  0  0  0  0  0
    0.2944    2.6927   -2.2960 C   0  0  2  0  0  0  0  0  0  0  0  0
    0.2976    1.1783   -2.1349 C   0  0  0  0  0  0  0  0  0  0  0  0
    0.7500    0.4142   -2.9850 O   0  0  0  0  0  0  0  0  0  0  0  0
   -1.0710    3.1886   -2.7460 C   0  0  0  0  0  0  0  0  0  0  0  0
    1.0312    3.4224   -4.1464 H   0  0  0  0  0  0  0  0  0  0  0  0
    0.5725    3.1622   -1.3461 H   0  0  0  0  0  0  0  0  0  0  0  0
   -1.3666    2.7292   -3.6963 H   0  0  0  0  0  0  0  0  0  0  0  0
   -1.8434    2.9482   -2.0082 H   0  0  0  0  0  0  0  0  0  0  0  0
   -1.0632    4.2744   -2.8901 H   0  0  0  0  0  0  0  0  0  0  0  0
   -0.3037    0.7742   -0.9484 N   0  0  0  0  0  0  0  0  0  0  0  0
   -0.4352   -0.6095   -0.5718 C   0  0  2  0  0  0  0  0  0  0  0  0
   -0.7848   -0.6849    0.9108 C   0  0  0  0  0  0  0  0  0  0  0  0
   -0.4307   -1.6119    1.6366 O   0  0  0  0  0  0  0  0  0  0  0  0
    0.8137   -1.4228   -0.9317 C   0  0  0  0  0  0  0  0  0  0  0  0
    1.0376   -1.5917   -2.4402 C   0  0  0  0  0  0  0  0  0  0  0  0
    2.2849   -2.4324   -2.7229 C   0  0  0  0  0  0  0  0  0  0  0  0
    2.5177   -2.5773   -4.2196 C   0  0  0  0  0  0  0  0  0  0  0  0
    3.7461   -3.3762   -4.4451 N   0  3  0  0  0  0  0  0  0  0  0  0
   -0.6336    1.4811   -0.2948 H   0  0  0  0  0  0  0  0  0  0  0  0
   -1.2896   -0.9953   -1.1411 H   0  0  0  0  0  0  0  0  0  0  0  0
    1.6934   -0.9311   -0.4965 H   0  0  0  0  0  0  0  0  0  0  0  0
    0.7478   -2.4158   -0.4701 H   0  0  0  0  0  0  0  0  0  0  0  0
    0.1664   -2.0763   -2.8961 H   0  0  0  0  0  0  0  0  0  0  0  0
    1.1491   -0.6099   -2.9149 H   0  0  0  0  0  0  0  0  0  0  0  0
    2.1708   -3.4237   -2.2669 H   0  0  0  0  0  0  0  0  0  0  0  0
    3.1586   -1.9622   -2.2548 H   0  0  0  0  0  0  0  0  0  0  0  0
    1.6983   -3.1090   -4.7124 H   0  0  0  0  0  0  0  0  0  0  0  0
    2.6744   -1.6098   -4.7058 H   0  0  0  0  0  0  0  0  0  0  0  0
    4.1160   -3.2234   -5.3897 H   0  0  0  0  0  0  0  0  0  0  0  0
    3.5566   -4.3790   -4.3391 H   0  0  0  0  0  0  0  0  0  0  0  0
    4.4791   -3.1210   -3.7741 H   0  0  0  0  0  0  0  0  0  0  0  0
   -1.5097    0.4186    1.3372 N   0  0  0  0  0  0  0  0  0  0  0  0
   -1.9386    0.5749    2.7066 C   0  0  2  0  0  0  0  0  0  0  0  0
   -2.9615    1.7023    2.7533 C   0  0  0  0  0  0  0  0  0  0  0  0
   -3.0331    2.5790    1.8946 O   0  0  0  0  0  0  0  0  0  0  0  0
   -0.7626    0.8696    3.6246 C   0  0  0  0  0  0  0  0  0  0  0  0
   -1.7464    1.1406    0.6632 H   0  0  0  0  0  0  0  0  0  0  0  0
   -2.4180   -0.3663    2.9972 H   0  0  0  0  0  0  0  0  0  0  0  0
   -0.2695    1.8090    3.3488 H   0  0  0  0  0  0  0  0  0  0  0  0
   -1.0857    0.9596    4.6670 H   0  0  0  0  0  0  0  0  0  0  0  0
   -0.0139    0.0721    3.5673 H   0  0  0  0  0  0  0  0  0  0  0  0
   -3.7568    1.6387    3.8889 N   0  0  0  0  0  0  0  0  0  0  0  0
   -4.7940    2.6038    4.1693 C   0  0  0  0  0  0  0  0  0  0  0  0
   -3.6403    0.8660    4.5379 H   0  0  0  0  0  0  0  0  0  0  0  0
   -4.3841    3.4132    4.7913 H   0  0  0  0  0  0  0  0  0  0  0  0
   -5.1703    3.0225    3.2243 H   0  0  0  0  0  0  0  0  0  0  0  0
   -5.6181    2.1108    4.7058 H   0  0  0  0  0  0  0  0  0  0  0  0
  1  3  1  0  0  0  0
  1  7  1  0  0  0  0
  1  2  2  0  0  0  0
 40 41  1  0  0  0  0
 41 49  1  0  0  0  0
 41 42  2  0  0  0  0
  8  9  1  0  0  0  0
  9 17  1  0  0  0  0
  9 10  2  0  0  0  0
 18 19  1  0  0  0  0
 19 39  1  0  0  0  0
 19 20  2  0  0  0  0
 40 43  1  0  0  0  0
  8 11  1  0  0  0  0
 49 50  1  0  0  0  0
 22 23  1  0  0  0  0
 21 22  1  0  0  0  0
 23 24  1  0  0  0  0
 18 21  1  0  0  0  0
 24 25  1  0  0  0  0
 39 40  1  0  0  0  0
  7  8  1  0  0  0  0
 17 18  1  0  0  0  0
  3  4  1  0  0  0  0
  3  5  1  0  0  0  0
  3  6  1  0  0  0  0
 43 46  1  0  0  0  0
 43 47  1  0  0  0  0
 43 48  1  0  0  0  0
 11 14  1  0  0  0  0
 11 15  1  0  0  0  0
 11 16  1  0  0  0  0
 50 52  1  0  0  0  0
 50 53  1  0  0  0  0
 50 54  1  0  0  0  0
 22 30  1  0  0  0  0
 22 31  1  0  0  0  0
 23 32  1  0  0  0  0
 23 33  1  0  0  0  0
 21 28  1  0  0  0  0
 21 29  1  0  0  0  0
 24 34  1  0  0  0  0
 24 35  1  0  0  0  0
 40 45  1  0  0  0  0
  8 13  1  0  0  0  0
 18 27  1  0  0  0  0
 49 51  1  0  0  0  0
  7 12  1  0  0  0  0
 39 44  1  0  0  0  0
 17 26  1  0  0  0  0
 25 36  1  0  0  0  0
 25 37  1  0  0  0  0
 25 38  1  0  0  0  0
M  CHG  1  25   1
M  END
$$$$

  -OEChem-05262214473D

 54 53  0     1  0  0  0  0  0999 V2000
    2.6714    2.8829   -3.0005 C   0  0  0  0  0  0  0  0  0  0  0  0
    3.1741    2.4398   -1.9745 O   0  0  0  0  0  0  0  0  0  0  0  0
    3.5527    3.3077   -4.1279 C   0  0  0  0  0  0  0  0  0  0  0  0
    3.8407    4.3691   -4.0597 H   0  0  0  0  0  0  0  0  0  0  0  0
    4.5024    2.7495   -4.1526 H   0  0  0  0  0  0  0  0  0  0  0  0
    3.1208    3.1887   -5.1345 H   0  0  0  0  0  0  0  0  0  0  0  0
    1.3174    3.0407   -3.2467 N   0  0  0  0  0  0  0  0  0  0  0  0
    0.2944    2.6927   -2.2960 C   0  0  2  0  0  0  0  0  0  0  0  0
    0.2976    1.1783   -2.1349 C   0  0  0  0  0  0  0  0  0  0  0  0
    0.7500    0.4142   -2.9850 O   0  0  0  0  0  0  0  0  0  0  0  0
   -1.0710    3.1886   -2.7460 C   0  0  0  0  0  0  0  0  0  0  0  0
    1.0312    3.4224   -4.1464 H   0  0  0  0  0  0  0  0  0  0  0  0
    0.5725    3.1622   -1.3461 H   0  0  0  0  0  0  0  0  0  0  0  0
   -1.3666    2.7292   -3.6963 H   0  0  0  0  0  0  0  0  0  0  0  0
   -1.8434    2.9482   -2.0082 H   0  0  0  0  0  0  0  0  0  0  0  0
   -1.0632    4.2744   -2.8901 H   0  0  0  0  0  0  0  0  0  0  0  0
   -0.3037    0.7742   -0.9484 N   0  0  0  0  0  0  0  0  0  0  0  0
   -0.4352   -0.6095   -0.5718 C   0  0  2  0  0  0  0  0  0  0  0  0
   -0.7848   -0.6849    0.9108 C   0  0  0  0  0  0  0  0  0  0  0  0
   -0.2240   -1.4493    1.6936 O   0  0  0  0  0  0  0  0  0  0  0  0
    0.8137   -1.4228   -0.9317 C   0  0  0  0  0  0  0  0  0  0  0  0
    1.0376   -1.5917   -2.4402 C   0  0  0  0  0  0  0  0  0  0  0  0
    2.2849   -2.4324   -2.7229 C   0  0  0  0  0  0  0  0  0  0  0  0
    2.5177   -2.5773   -4.2196 C   0  0  0  0  0  0  0  0  0  0  0  0
    3.7461   -3.3762   -4.4451 N   0  3  0  0  0  0  0  0  0  0  0  0
   -0.6336    1.4811   -0.2948 H   0  0  0  0  0  0  0  0  0  0  0  0
   -1.2896   -0.9953   -1.1411 H   0  0  0  0  0  0  0  0  0  0  0  0
    1.6934   -0.9311   -0.4965 H   0  0  0  0  0  0  0  0  0  0  0  0
    0.7478   -2.4158   -0.4701 H   0  0  0  0  0  0  0  0  0  0  0  0
    0.1664   -2.0763   -2.8961 H   0  0  0  0  0  0  0  0  0  0  0  0
    1.1491   -0.6099   -2.9149 H   0  0  0  0  0  0  0  0  0  0  0  0
    2.1708   -3.4237   -2.2669 H   0  0  0  0  0  0  0  0  0  0  0  0
    3.1586   -1.9622   -2.2548 H   0  0  0  0  0  0  0  0  0  0  0  0
    1.6983   -3.1090   -4.7124 H   0  0  0  0  0  0  0  0  0  0  0  0
    2.6744   -1.6098   -4.7058 H   0  0  0  0  0  0  0  0  0  0  0  0
    4.1160   -3.2234   -5.3897 H   0  0  0  0  0  0  0  0  0  0  0  0
    3.5566   -4.3790   -4.3391 H   0  0  0  0  0  0  0  0  0  0  0  0
    4.4791   -3.1210   -3.7741 H   0  0  0  0  0  0  0  0  0  0  0  0
   -1.7722    0.2230    1.2654 N   0  0  0  0  0  0  0  0  0  0  0  0
   -2.2545    0.3449    2.6204 C   0  0  2  0  0  0  0  0  0  0  0  0
   -3.5285    1.1789    2.5930 C   0  0  0  0  0  0  0  0  0  0  0  0
   -3.8005    1.9583    1.6821 O   0  0  0  0  0  0  0  0  0  0  0  0
   -1.2092    0.9789    3.5249 C   0  0  0  0  0  0  0  0  0  0  0  0
   -2.1689    0.8220    0.5474 H   0  0  0  0  0  0  0  0  0  0  0  0
   -2.4879   -0.6683    2.9654 H   0  0  0  0  0  0  0  0  0  0  0  0
   -0.9624    1.9947    3.1949 H   0  0  0  0  0  0  0  0  0  0  0  0
   -1.5657    1.0446    4.5581 H   0  0  0  0  0  0  0  0  0  0  0  0
   -0.2832    0.3938    3.5202 H   0  0  0  0  0  0  0  0  0  0  0  0
   -4.3053    0.9826    3.7262 N   0  0  0  0  0  0  0  0  0  0  0  0
   -5.5573    1.6697    3.9418 C   0  0  0  0  0  0  0  0  0  0  0  0
   -4.0117    0.3030    4.4216 H   0  0  0  0  0  0  0  0  0  0  0  0
   -5.3766    2.5908    4.5154 H   0  0  0  0  0  0  0  0  0  0  0  0
   -6.0073    1.9248    2.9711 H   0  0  0  0  0  0  0  0  0  0  0  0
   -6.2418    1.0167    4.5031 H   0  0  0  0  0  0  0  0  0  0  0  0
  1  3  1  0  0  0  0
  1  7  1  0  0  0  0
  1  2  2  0  0  0  0
 40 41  1  0  0  0  0
 41 49  1  0  0  0  0
 41 42  2  0  0  0  0
  8  9  1  0  0  0  0
  9 17  1  0  0  0  0
  9 10  2  0  0  0  0
 18 19  1  0  0  0  0
 19 39  1  0  0  0  0
 19 20  2  0  0  0  0
 40 43  1  0  0  0  0
  8 11  1  0  0  0  0
 49 50  1  0  0  0  0
 22 23  1  0  0  0  0
 21 22  1  0  0  0  0
 23 24  1  0  0  0  0
 18 21  1  0  0  0  0
 24 25  1  0  0  0  0
 39 40  1  0  0  0  0
  7  8  1  0  0  0  0
 17 18  1  0  0  0  0
  3  4  1  0  0  0  0
  3  5  1  0  0  0  0
  3  6  1  0  0  0  0
 43 46  1  0  0  0  0
 43 47  1  0  0  0  0
 43 48  1  0  0  0  0
 11 14  1  0  0  0  0
 11 15  1  0  0  0  0
 11 16  1  0  0  0  0
 50 52  1  0  0  0  0
 50 53  1  0  0  0  0
 50 54  1  0  0  0  0
 22 30  1  0  0  0  0
 22 31  1  0  0  0  0
 23 32  1  0  0  0  0
 23 33  1  0  0  0  0
 21 28  1  0  0  0  0
 21 29  1  0  0  0  0
 24 34  1  0  0  0  0
 24 35  1  0  0  0  0
 40 45  1  0  0  0  0
  8 13  1  0  0  0  0
 18 27  1  0  0  0  0
 49 51  1  0  0  0  0
  7 12  1  0  0  0  0
 39 44  1  0  0  0  0
 17 26  1  0  0  0  0
 25 36  1  0  0  0  0
 25 37  1  0  0  0  0
 25 38  1  0  0  0  0
M  CHG  1  25   1
M  END
$$$$

  -OEChem-05262214473D

 54 53  0     1  0  0  0  0  0999 V2000
    2.6714    2.8829   -3.0005 C   0  0  0  0  0  0  0  0  0  0  0  0
    3.1741    2.4398   -1.9745 O   0  0  0  0  0  0  0  0  0  0  0  0
    3.5527    3.3077   -4.1279 C   0  0  0  0  0  0  0  0  0  0  0  0
    3.8407    4.3691   -4.0597 H   0  0  0  0  0  0  0  0  0  0  0  0
    4.5024    2.7495   -4.1526 H   0  0  0  0  0  0  0  0  0  0  0  0
    3.1208    3.1887   -5.1345 H   0  0  0  0  0  0  0  0  0  0  0  0
    1.3174    3.0407   -3.2467 N   0  0  0  0  0  0  0  0  0  0  0  0
    0.2944    2.6927   -2.2960 C   0  0  2  0  0  0  0  0  0  0  0  0
    0.2976    1.1783   -2.1349 C   0  0  0  0  0  0  0  0  0  0  0  0
    0.7500    0.4142   -2.9850 O   0  0  0  0  0  0  0  0  0  0  0  0
   -1.0710    3.1886   -2.7460 C   0  0  0  0  0  0  0  0  0  0  0  0
    1.0312    3.4224   -4.1464 H   0  0  0  0  0  0  0  0  0  0  0  0
    0.5725    3.1622   -1.3461 H   0  0  0  0  0  0  0  0  0  0  0  0
   -1.3666    2.7292   -3.6963 H   0  0  0  0  0  0  0  0  0  0  0  0
   -1.8434    2.9482   -2.0082 H   0  0  0  0  0  0  0  0  0  0  0  0
   -1.0632    4.2744   -2.8901 H   0  0  0  0  0  0  0  0  0  0  0  0
   -0.3037    0.7742   -0.9484 N   0  0  0  0  0  0  0  0  0  0  0  0
   -0.4352   -0.6095   -0.5718 C   0  0  2  0  0  0  0  0  0  0  0  0
   -0.7848   -0.6849    0.9108 C   0  0  0  0  0  0  0  0  0  0  0  0
   -0.0661   -1.2368    1.7417 O   0  0  0  0  0  0  0  0  0  0  0  0
    0.8137   -1.4228   -0.9317 C   0  0  0  0  0  0  0  0  0  0  0  0
    1.0376   -1.5917   -2.4402 C   0  0  0  0  0  0  0  0  0  0  0  0
    2.2849   -2.4324   -2.7229 C   0  0  0  0  0  0  0  0  0  0  0  0
    2.5177   -2.5773   -4.2196 C   0  0  0  0  0  0  0  0  0  0  0  0
    3.7461   -3.3762   -4.4451 N   0  3  0  0  0  0  0  0  0  0  0  0
   -0.6336    1.4811   -0.2948 H   0  0  0  0  0  0  0  0  0  0  0  0
   -1.2896   -0.9953   -1.1411 H   0  0  0  0  0  0  0  0  0  0  0  0
    1.6934   -0.9311   -0.4965 H   0  0  0  0  0  0  0  0  0  0  0  0
    0.7478   -2.4158   -0.4701 H   0  0  0  0  0  0  0  0  0  0  0  0
    0.1664   -2.0763   -2.8961 H   0  0  0  0  0  0  0  0  0  0  0  0
    1.1491   -0.6099   -2.9149 H   0  0  0  0  0  0  0  0  0  0  0  0
    2.1708   -3.4237   -2.2669 H   0  0  0  0  0  0  0  0  0  0  0  0
    3.1586   -1.9622   -2.2548 H   0  0  0  0  0  0  0  0  0  0  0  0
    1.6983   -3.1090   -4.7124 H   0  0  0  0  0  0  0  0  0  0  0  0
    2.6744   -1.6098   -4.7058 H   0  0  0  0  0  0  0  0  0  0  0  0
    4.1160   -3.2234   -5.3897 H   0  0  0  0  0  0  0  0  0  0  0  0
    3.5566   -4.3790   -4.3391 H   0  0  0  0  0  0  0  0  0  0  0  0
    4.4791   -3.1210   -3.7741 H   0  0  0  0  0  0  0  0  0  0  0  0
   -1.9756   -0.0362    1.2042 N   0  0  0  0  0  0  0  0  0  0  0  0
   -2.5006    0.0382    2.5468 C   0  0  2  0  0  0  0  0  0  0  0  0
   -3.9425    0.5212    2.4619 C   0  0  0  0  0  0  0  0  0  0  0  0
   -4.3829    1.1530    1.5038 O   0  0  0  0  0  0  0  0  0  0  0  0
   -1.6668    0.9662    3.4163 C   0  0  0  0  0  0  0  0  0  0  0  0
   -2.4954    0.4010    0.4490 H   0  0  0  0  0  0  0  0  0  0  0  0
   -2.4790   -0.9795    2.9516 H   0  0  0  0  0  0  0  0  0  0  0  0
   -1.6764    1.9906    3.0264 H   0  0  0  0  0  0  0  0  0  0  0  0
   -2.0494    0.9994    4.4418 H   0  0  0  0  0  0  0  0  0  0  0  0
   -0.6236    0.6341    3.4521 H   0  0  0  0  0  0  0  0  0  0  0  0
   -4.6680    0.2012    3.6009 N   0  0  0  0  0  0  0  0  0  0  0  0
   -6.0565    0.5619    3.7677 C   0  0  0  0  0  0  0  0  0  0  0  0
   -4.2274   -0.3412    4.3380 H   0  0  0  0  0  0  0  0  0  0  0  0
   -6.1248    1.5303    4.2851 H   0  0  0  0  0  0  0  0  0  0  0  0
   -6.5363    0.6389    2.7809 H   0  0  0  0  0  0  0  0  0  0  0  0
   -6.5664   -0.2090    4.3642 H   0  0  0  0  0  0  0  0  0  0  0  0
  1  3  1  0  0  0  0
  1  7  1  0  0  0  0
  1  2  2  0  0  0  0
 40 41  1  0  0  0  0
 41 49  1  0  0  0  0
 41 42  2  0  0  0  0
  8  9  1  0  0  0  0
  9 17  1  0  0  0  0
  9 10  2  0  0  0  0
 18 19  1  0  0  0  0
 19 39  1  0  0  0  0
 19 20  2  0  0  0  0
 40 43  1  0  0  0  0
  8 11  1  0  0  0  0
 49 50  1  0  0  0  0
 22 23  1  0  0  0  0
 21 22  1  0  0  0  0
 23 24  1  0  0  0  0
 18 21  1  0  0  0  0
 24 25  1  0  0  0  0
 39 40  1  0  0  0  0
  7  8  1  0  0  0  0
 17 18  1  0  0  0  0
  3  4  1  0  0  0  0
  3  5  1  0  0  0  0
  3  6  1  0  0  0  0
 43 46  1  0  0  0  0
 43 47  1  0  0  0  0
 43 48  1  0  0  0  0
 11 14  1  0  0  0  0
 11 15  1  0  0  0  0
 11 16  1  0  0  0  0
 50 52  1  0  0  0  0
 50 53  1  0  0  0  0
 50 54  1  0  0  0  0
 22 30  1  0  0  0  0
 22 31  1  0  0  0  0
 23 32  1  0  0  0  0
 23 33  1  0  0  0  0
 21 28  1  0  0  0  0
 21 29  1  0  0  0  0
 24 34  1  0  0  0  0
 24 35  1  0  0  0  0
 40 45  1  0  0  0  0
  8 13  1  0  0  0  0
 18 27  1  0  0  0  0
 49 51  1  0  0  0  0
  7 12  1  0  0  0  0
 39 44  1  0  0  0  0
 17 26  1  0  0  0  0
 25 36  1  0  0  0  0
 25 37  1  0  0  0  0
 25 38  1  0  0  0  0
M  CHG  1  25   1
M  END
$$$$

  -OEChem-05262214473D

 54 53  0     1  0  0  0  0  0999 V2000
    2.6714    2.8829   -3.0005 C   0  0  0  0  0  0  0  0  0  0  0  0
    3.1741    2.4398   -1.9745 O   0  0  0  0  0  0  0  0  0  0  0  0
    3.5527    3.3077   -4.1279 C   0  0  0  0  0  0  0  0  0  0  0  0
    3.8407    4.3691   -4.0597 H   0  0  0  0  0  0  0  0  0  0  0  0
    4.5024    2.7495   -4.1526 H   0  0  0  0  0  0  0  0  0  0  0  0
    3.1208    3.1887   -5.1345 H   0  0  0  0  0  0  0  0  0  0  0  0
    1.3174    3.0407   -3.2467 N   0  0  0  0  0  0  0  0  0  0  0  0
    0.2944    2.6927   -2.2960 C   0  0  2  0  0  0  0  0  0  0  0  0
    0.2976    1.1783   -2.1349 C   0  0  0  0  0  0  0  0  0  0  0  0
    0.7500    0.4142   -2.9850 O   0  0  0  0  0  0  0  0  0  0  0  0
   -1.0710    3.1886   -2.7460 C   0  0  0  0  0  0  0  0  0  0  0  0
    1.0312    3.4224   -4.1464 H   0  0  0  0  0  0  0  0  0  0  0  0
    0.5725    3.1622   -1.3461 H   0  0  0  0  0  0  0  0  0  0  0  0
   -1.3666    2.7292   -3.6963 H   0  0  0  0  0  0  0  0  0  0  0  0
   -1.8434    2.9482   -2.0082 H   0  0  0  0  0  0  0  0  0  0  0  0
   -1.0632    4.2744   -2.8901 H   0  0  0  0  0  0  0  0  0  0  0  0
   -0.3037    0.7742   -0.9484 N   0  0  0  0  0  0  0  0  0  0  0  0
   -0.4352   -0.6095   -0.5718 C   0  0  2  0  0  0  0  0  0  0  0  0
   -0.7848   -0.6849    0.9108 C   0  0  0  0  0  0  0  0  0  0  0  0
    0.0324   -0.9890    1.7775 O   0  0  0  0  0  0  0  0  0  0  0  0
    0.8137   -1.4228   -0.9317 C   0  0  0  0  0  0  0  0  0  0  0  0
    1.0376   -1.5917   -2.4402 C   0  0  0  0  0  0  0  0  0  0  0  0
    2.2849   -2.4324   -2.7229 C   0  0  0  0  0  0  0  0  0  0  0  0
    2.5177   -2.5773   -4.2196 C   0  0  0  0  0  0  0  0  0  0  0  0
    3.7461   -3.3762   -4.4451 N   0  3  0  0  0  0  0  0  0  0  0  0
   -0.6336    1.4811   -0.2948 H   0  0  0  0  0  0  0  0  0  0  0  0
   -1.2896   -0.9953   -1.1411 H   0  0  0  0  0  0  0  0  0  0  0  0
    1.6934   -0.9311   -0.4965 H   0  0  0  0  0  0  0  0  0  0  0  0
    0.7478   -2.4158   -0.4701 H   0  0  0  0  0  0  0  0  0  0  0  0
    0.1664   -2.0763   -2.8961 H   0  0  0  0  0  0  0  0  0  0  0  0
    1.1491   -0.6099   -2.9149 H   0  0  0  0  0  0  0  0  0  0  0  0
    2.1708   -3.4237   -2.2669 H   0  0  0  0  0  0  0  0  0  0  0  0
    3.1586   -1.9622   -2.2548 H   0  0  0  0  0  0  0  0  0  0  0  0
    1.6983   -3.1090   -4.7124 H   0  0  0  0  0  0  0  0  0  0  0  0
    2.6744   -1.6098   -4.7058 H   0  0  0  0  0  0  0  0  0  0  0  0
    4.1160   -3.2234   -5.3897 H   0  0  0  0  0  0  0  0  0  0  0  0
    3.5566   -4.3790   -4.3391 H   0  0  0  0  0  0  0  0  0  0  0  0
    4.4791   -3.1210   -3.7741 H   0  0  0  0  0  0  0  0  0  0  0  0
   -2.1061   -0.3414    1.1579 N   0  0  0  0  0  0  0  0  0  0  0  0
   -2.6602   -0.3244    2.4907 C   0  0  2  0  0  0  0  0  0  0  0  0
   -4.1752   -0.2260    2.3690 C   0  0  0  0  0  0  0  0  0  0  0  0
   -4.7406    0.2180    1.3719 O   0  0  0  0  0  0  0  0  0  0  0  0
   -2.1042    0.8324    3.3064 C   0  0  0  0  0  0  0  0  0  0  0  0
   -2.7035   -0.0936    0.3748 H   0  0  0  0  0  0  0  0  0  0  0  0
   -2.3919   -1.2787    2.9569 H   0  0  0  0  0  0  0  0  0  0  0  0
   -2.3629    1.7970    2.8546 H   0  0  0  0  0  0  0  0  0  0  0  0
   -2.5037    0.8272    4.3259 H   0  0  0  0  0  0  0  0  0  0  0  0
   -1.0120    0.7765    3.3678 H   0  0  0  0  0  0  0  0  0  0  0  0
   -4.8201   -0.6522    3.5216 N   0  0  0  0  0  0  0  0  0  0  0  0
   -6.2578   -0.6441    3.6589 C   0  0  0  0  0  0  0  0  0  0  0  0
   -4.2725   -1.0227    4.2927 H   0  0  0  0  0  0  0  0  0  0  0  0
   -6.5777    0.3040    4.1159 H   0  0  0  0  0  0  0  0  0  0  0  0
   -6.7214   -0.7475    2.6667 H   0  0  0  0  0  0  0  0  0  0  0  0
   -6.5697   -1.4829    4.2985 H   0  0  0  0  0  0  0  0  0  0  0  0
  1  3  1  0  0  0  0
  1  7  1  0  0  0  0
  1  2  2  0  0  0  0
 40 41  1  0  0  0  0
 41 49  1  0  0  0  0
 41 42  2  0  0  0  0
  8  9  1  0  0  0  0
  9 17  1  0  0  0  0
  9 10  2  0  0  0  0
 18 19  1  0  0  0  0
 19 39  1  0  0  0  0
 19 20  2  0  0  0  0
 40 43  1  0  0  0  0
  8 11  1  0  0  0  0
 49 50  1  0  0  0  0
 22 23  1  0  0  0  0
 21 22  1  0  0  0  0
 23 24  1  0  0  0  0
 18 21  1  0  0  0  0
 24 25  1  0  0  0  0
 39 40  1  0  0  0  0
  7  8  1  0  0  0  0
 17 18  1  0  0  0  0
  3  4  1  0  0  0  0
  3  5  1  0  0  0  0
  3  6  1  0  0  0  0
 43 46  1  0  0  0  0
 43 47  1  0  0  0  0
 43 48  1  0  0  0  0
 11 14  1  0  0  0  0
 11 15  1  0  0  0  0
 11 16  1  0  0  0  0
 50 52  1  0  0  0  0
 50 53  1  0  0  0  0
 50 54  1  0  0  0  0
 22 30  1  0  0  0  0
 22 31  1  0  0  0  0
 23 32  1  0  0  0  0
 23 33  1  0  0  0  0
 21 28  1  0  0  0  0
 21 29  1  0  0  0  0
 24 34  1  0  0  0  0
 24 35  1  0  0  0  0
 40 45  1  0  0  0  0
  8 13  1  0  0  0  0
 18 27  1  0  0  0  0
 49 51  1  0  0  0  0
  7 12  1  0  0  0  0
 39 44  1  0  0  0  0
 17 26  1  0  0  0  0
 25 36  1  0  0  0  0
 25 37  1  0  0  0  0
 25 38  1  0  0  0  0
M  CHG  1  25   1
M  END
$$$$

  -OEChem-05262214473D

 54 53  0     1  0  0  0  0  0999 V2000
    2.6714    2.8829   -3.0005 C   0  0  0  0  0  0  0  0  0  0  0  0
    3.1741    2.4398   -1.9745 O   0  0  0  0  0  0  0  0  0  0  0  0
    3.5527    3.3077   -4.1279 C   0  0  0  0  0  0  0  0  0  0  0  0
    3.8407    4.3691   -4.0597 H   0  0  0  0  0  0  0  0  0  0  0  0
    4.5024    2.7495   -4.1526 H   0  0  0  0  0  0  0  0  0  0  0  0
    3.1208    3.1887   -5.1345 H   0  0  0  0  0  0  0  0  0  0  0  0
    1.3174    3.0407   -3.2467 N   0  0  0  0  0  0  0  0  0  0  0  0
    0.2944    2.6927   -2.2960 C   0  0  2  0  0  0  0  0  0  0  0  0
    0.2976    1.1783   -2.1349 C   0  0  0  0  0  0  0  0  0  0  0  0
    0.7500    0.4142   -2.9850 O   0  0  0  0  0  0  0  0  0  0  0  0
   -1.0710    3.1886   -2.7460 C   0  0  0  0  0  0  0  0  0  0  0  0
    1.0312    3.4224   -4.1464 H   0  0  0  0  0  0  0  0  0  0  0  0
    0.5725    3.1622   -1.3461 H   0  0  0  0  0  0  0  0  0  0  0  0
   -1.3666    2.7292   -3.6963 H   0  0  0  0  0  0  0  0  0  0  0  0
   -1.8434    2.9482   -2.0082 H   0  0  0  0  0  0  0  0  0  0  0  0
   -1.0632    4.2744   -2.8901 H   0  0  0  0  0  0  0  0  0  0  0  0
   -0.3037    0.7742   -0.9484 N   0  0  0  0  0  0  0  0  0  0  0  0
   -0.4352   -0.6095   -0.5718 C   0  0  2  0  0  0  0  0  0  0  0  0
   -0.7848   -0.6849    0.9108 C   0  0  0  0  0  0  0  0  0  0  0  0
    0.0648   -0.7228    1.7987 O   0  0  0  0  0  0  0  0  0  0  0  0
    0.8137   -1.4228   -0.9317 C   0  0  0  0  0  0  0  0  0  0  0  0
    1.0376   -1.5917   -2.4402 C   0  0  0  0  0  0  0  0  0  0  0  0
    2.2849   -2.4324   -2.7229 C   0  0  0  0  0  0  0  0  0  0  0  0
    2.5177   -2.5773   -4.2196 C   0  0  0  0  0  0  0  0  0  0  0  0
    3.7461   -3.3762   -4.4451 N   0  3  0  0  0  0  0  0  0  0  0  0
   -0.6336    1.4811   -0.2948 H   0  0  0  0  0  0  0  0  0  0  0  0
   -1.2896   -0.9953   -1.1411 H   0  0  0  0  0  0  0  0  0  0  0  0
    1.6934   -0.9311   -0.4965 H   0  0  0  0  0  0  0  0  0  0  0  0
    0.7478   -2.4158   -0.4701 H   0  0  0  0  0  0  0  0  0  0  0  0
    0.1664   -2.0763   -2.8961 H   0  0  0  0  0  0  0  0  0  0  0  0
    1.1491   -0.6099   -2.9149 H   0  0  0  0  0  0  0  0  0  0  0  0
    2.1708   -3.4237   -2.2669 H   0  0  0  0  0  0  0  0  0  0  0  0
    3.1586   -1.9622   -2.2548 H   0  0  0  0  0  0  0  0  0  0  0  0
    1.6983   -3.1090   -4.7124 H   0  0  0  0  0  0  0  0  0  0  0  0
    2.6744   -1.6098   -4.7058 H   0  0  0  0  0  0  0  0  0  0  0  0
    4.1160   -3.2234   -5.3897 H   0  0  0  0  0  0  0  0  0  0  0  0
    3.5566   -4.3790   -4.3391 H   0  0  0  0  0  0  0  0  0  0  0  0
    4.4791   -3.1210   -3.7741 H   0  0  0  0  0  0  0  0  0  0  0  0
   -2.1548   -0.6718    1.1296 N   0  0  0  0  0  0  0  0  0  0  0  0
   -2.7225   -0.7181    2.4560 C   0  0  2  0  0  0  0  0  0  0  0  0
   -4.2107   -1.0118    2.3206 C   0  0  0  0  0  0  0  0  0  0  0  0
   -4.8491   -0.7829    1.2954 O   0  0  0  0  0  0  0  0  0  0  0  0
   -2.4916    0.5865    3.2025 C   0  0  0  0  0  0  0  0  0  0  0  0
   -2.7792   -0.6281    0.3297 H   0  0  0  0  0  0  0  0  0  0  0  0
   -2.2326   -1.5454    2.9809 H   0  0  0  0  0  0  0  0  0  0  0  0
   -2.9751    1.4271    2.6915 H   0  0  0  0  0  0  0  0  0  0  0  0
   -2.8977    0.5396    4.2184 H   0  0  0  0  0  0  0  0  0  0  0  0
   -1.4219    0.8113    3.2729 H   0  0  0  0  0  0  0  0  0  0  0  0
   -4.7513   -1.5196    3.4937 N   0  0  0  0  0  0  0  0  0  0  0  0
   -6.1475   -1.8661    3.6227 C   0  0  0  0  0  0  0  0  0  0  0  0
   -4.1440   -1.6950    4.2888 H   0  0  0  0  0  0  0  0  0  0  0  0
   -6.7045   -1.0045    4.0194 H   0  0  0  0  0  0  0  0  0  0  0  0
   -6.5498   -2.1400    2.6363 H   0  0  0  0  0  0  0  0  0  0  0  0
   -6.2516   -2.7181    4.3107 H   0  0  0  0  0  0  0  0  0  0  0  0
  1  3  1  0  0  0  0
  1  7  1  0  0  0  0
  1  2  2  0  0  0  0
 40 41  1  0  0  0  0
 41 49  1  0  0  0  0
 41 42  2  0  0  0  0
  8  9  1  0  0  0  0
  9 17  1  0  0  0  0
  9 10  2  0  0  0  0
 18 19  1  0  0  0  0
 19 39  1  0  0  0  0
 19 20  2  0  0  0  0
 40 43  1  0  0  0  0
  8 11  1  0  0  0  0
 49 50  1  0  0  0  0
 22 23  1  0  0  0  0
 21 22  1  0  0  0  0
 23 24  1  0  0  0  0
 18 21  1  0  0  0  0
 24 25  1  0  0  0  0
 39 40  1  0  0  0  0
  7  8  1  0  0  0  0
 17 18  1  0  0  0  0
  3  4  1  0  0  0  0
  3  5  1  0  0  0  0
  3  6  1  0  0  0  0
 43 46  1  0  0  0  0
 43 47  1  0  0  0  0
 43 48  1  0  0  0  0
 11 14  1  0  0  0  0
 11 15  1  0  0  0  0
 11 16  1  0  0  0  0
 50 52  1  0  0  0  0
 50 53  1  0  0  0  0
 50 54  1  0  0  0  0
 22 30  1  0  0  0  0
 22 31  1  0  0  0  0
 23 32  1  0  0  0  0
 23 33  1  0  0  0  0
 21 28  1  0  0  0  0
 21 29  1  0  0  0  0
 24 34  1  0  0  0  0
 24 35  1  0  0  0  0
 40 45  1  0  0  0  0
  8 13  1  0  0  0  0
 18 27  1  0  0  0  0
 49 51  1  0  0  0  0
  7 12  1  0  0  0  0
 39 44  1  0  0  0  0
 17 26  1  0  0  0  0
 25 36  1  0  0  0  0
 25 37  1  0  0  0  0
 25 38  1  0  0  0  0
M  CHG  1  25   1
M  END
$$$$

  -OEChem-05262214473D

 54 53  0     1  0  0  0  0  0999 V2000
    2.6714    2.8829   -3.0005 C   0  0  0  0  0  0  0  0  0  0  0  0
    3.1741    2.4398   -1.9745 O   0  0  0  0  0  0  0  0  0  0  0  0
    3.5527    3.3077   -4.1279 C   0  0  0  0  0  0  0  0  0  0  0  0
    3.8407    4.3691   -4.0597 H   0  0  0  0  0  0  0  0  0  0  0  0
    4.5024    2.7495   -4.1526 H   0  0  0  0  0  0  0  0  0  0  0  0
    3.1208    3.1887   -5.1345 H   0  0  0  0  0  0  0  0  0  0  0  0
    1.3174    3.0407   -3.2467 N   0  0  0  0  0  0  0  0  0  0  0  0
    0.2944    2.6927   -2.2960 C   0  0  2  0  0  0  0  0  0  0  0  0
    0.2976    1.1783   -2.1349 C   0  0  0  0  0  0  0  0  0  0  0  0
    0.7500    0.4142   -2.9850 O   0  0  0  0  0  0  0  0  0  0  0  0
   -1.0710    3.1886   -2.7460 C   0  0  0  0  0  0  0  0  0  0  0  0
    1.0312    3.4224   -4.1464 H   0  0  0  0  0  0  0  0  0  0  0  0
    0.5725    3.1622   -1.3461 H   0  0  0  0  0  0  0  0  0  0  0  0
   -1.3666    2.7292   -3.6963 H   0  0  0  0  0  0  0  0  0  0  0  0
   -1.8434    2.9482   -2.0082 H   0  0  0  0  0  0  0  0  0  0  0  0
   -1.0632    4.2744   -2.8901 H   0  0  0  0  0  0  0  0  0  0  0  0
   -0.3037    0.7742   -0.9484 N   0  0  0  0  0  0  0  0  0  0  0  0
   -0.4352   -0.6095   -0.5718 C   0  0  2  0  0  0  0  0  0  0  0  0
   -0.7848   -0.6849    0.9108 C   0  0  0  0  0  0  0  0  0  0  0  0
    0.0287   -0.4562    1.8038 O   0  0  0  0  0  0  0  0  0  0  0  0
    0.8137   -1.4228   -0.9317 C   0  0  0  0  0  0  0  0  0  0  0  0
    1.0376   -1.5917   -2.4402 C   0  0  0  0  0  0  0  0  0  0  0  0
    2.2849   -2.4324   -2.7229 C   0  0  0  0  0  0  0  0  0  0  0  0
    2.5177   -2.5773   -4.2196 C   0  0  0  0  0  0  0  0  0  0  0  0
    3.7461   -3.3762   -4.4451 N   0  3  0  0  0  0  0  0  0  0  0  0
   -0.6336    1.4811   -0.2948 H   0  0  0  0  0  0  0  0  0  0  0  0
   -1.2896   -0.9953   -1.1411 H   0  0  0  0  0  0  0  0  0  0  0  0
    1.6934   -0.9311   -0.4965 H   0  0  0  0  0  0  0  0  0  0  0  0
    0.7478   -2.4158   -0.4701 H   0  0  0  0  0  0  0  0  0  0  0  0
    0.1664   -2.0763   -2.8961 H   0  0  0  0  0  0  0  0  0  0  0  0
    1.1491   -0.6099   -2.9149 H   0  0  0  0  0  0  0  0  0  0  0  0
    2.1708   -3.4237   -2.2669 H   0  0  0  0  0  0  0  0  0  0  0  0
    3.1586   -1.9622   -2.2548 H   0  0  0  0  0  0  0  0  0  0  0  0
    1.6983   -3.1090   -4.7124 H   0  0  0  0  0  0  0  0  0  0  0  0
    2.6744   -1.6098   -4.7058 H   0  0  0  0  0  0  0  0  0  0  0  0
    4.1160   -3.2234   -5.3897 H   0  0  0  0  0  0  0  0  0  0  0  0
    3.5566   -4.3790   -4.3391 H   0  0  0  0  0  0  0  0  0  0  0  0
    4.4791   -3.1210   -3.7741 H   0  0  0  0  0  0  0  0  0  0  0  0
   -2.1184   -1.0048    1.1213 N   0  0  0  0  0  0  0  0  0  0  0  0
   -2.6831   -1.1161    2.4450 C   0  0  2  0  0  0  0  0  0  0  0  0
   -4.0468   -1.7827    2.3200 C   0  0  0  0  0  0  0  0  0  0  0  0
   -4.7011   -1.7815    1.2794 O   0  0  0  0  0  0  0  0  0  0  0  0
   -2.8027    0.2454    3.1118 C   0  0  0  0  0  0  0  0  0  0  0  0
   -2.7173   -1.1661    0.3170 H   0  0  0  0  0  0  0  0  0  0  0  0
   -2.0119   -1.7616    3.0220 H   0  0  0  0  0  0  0  0  0  0  0  0
   -3.4713    0.9061    2.5480 H   0  0  0  0  0  0  0  0  0  0  0  0
   -3.2046    0.1564    4.1265 H   0  0  0  0  0  0  0  0  0  0  0  0
   -1.8254    0.7361    3.1740 H   0  0  0  0  0  0  0  0  0  0  0  0
   -4.4662   -2.3417    3.5191 N   0  0  0  0  0  0  0  0  0  0  0  0
   -5.7329   -3.0208    3.6617 C   0  0  0  0  0  0  0  0  0  0  0  0
   -3.8507   -2.3123    4.3265 H   0  0  0  0  0  0  0  0  0  0  0  0
   -6.4965   -2.3060    4.0022 H   0  0  0  0  0  0  0  0  0  0  0  0
   -6.0333   -3.4438    2.6917 H   0  0  0  0  0  0  0  0  0  0  0  0
   -5.6337   -3.8304    4.3998 H   0  0  0  0  0  0  0  0  0  0  0  0
  1  3  1  0  0  0  0
  1  7  1  0  0  0  0
  1  2  2  0  0  0  0
 40 41  1  0  0  0  0
 41 49  1  0  0  0  0
 41 42  2  0  0  0  0
  8  9  1  0  0  0  0
  9 17  1  0  0  0  0
  9 10  2  0  0  0  0
 18 19  1  0  0  0  0
 19 39  1  0  0  0  0
 19 20  2  0  0  0  0
 40 43  1  0  0  0  0
  8 11  1  0  0  0  0
 49 50  1  0  0  0  0
 22 23  1  0  0  0  0
 21 22  1  0  0  0  0
 23 24  1  0  0  0  0
 18 21  1  0  0  0  0
 24 25  1  0  0  0  0
 39 40  1  0  0  0  0
  7  8  1  0  0  0  0
 17 18  1  0  0  0  0
  3  4  1  0  0  0  0
  3  5  1  0  0  0  0
  3  6  1  0  0  0  0
 43 46  1  0  0  0  0
 43 47  1  0  0  0  0
 43 48  1  0  0  0  0
 11 14  1  0  0  0  0
 11 15  1  0  0  0  0
 11 16  1  0  0  0  0
 50 52  1  0  0  0  0
 50 53  1  0  0  0  0
 50 54  1  0  0  0  0
 22 30  1  0  0  0  0
 22 31  1  0  0  0  0
 23 32  1  0  0  0  0
 23 33  1  0  0  0  0
 21 28  1  0  0  0  0
 21 29  1  0  0  0  0
 24 34  1  0  0  0  0
 24 35  1  0  0  0  0
 40 45  1  0  0  0  0
  8 13  1  0  0  0  0
 18 27  1  0  0  0  0
 49 51  1  0  0  0  0
  7 12  1  0  0  0  0
 39 44  1  0  0  0  0
 17 26  1  0  0  0  0
 25 36  1  0  0  0  0
 25 37  1  0  0  0  0
 25 38  1  0  0  0  0
M  CHG  1  25   1
M  END
$$$$

  -OEChem-05262214473D

 54 53  0     1  0  0  0  0  0999 V2000
    2.6714    2.8829   -3.0005 C   0  0  0  0  0  0  0  0  0  0  0  0
    3.1741    2.4398   -1.9745 O   0  0  0  0  0  0  0  0  0  0  0  0
    3.5527    3.3077   -4.1279 C   0  0  0  0  0  0  0  0  0  0  0  0
    3.8407    4.3691   -4.0597 H   0  0  0  0  0  0  0  0  0  0  0  0
    4.5024    2.7495   -4.1526 H   0  0  0  0  0  0  0  0  0  0  0  0
    3.1208    3.1887   -5.1345 H   0  0  0  0  0  0  0  0  0  0  0  0
    1.3174    3.0407   -3.2467 N   0  0  0  0  0  0  0  0  0  0  0  0
    0.2944    2.6927   -2.2960 C   0  0  2  0  0  0  0  0  0  0  0  0
    0.2976    1.1783   -2.1349 C   0  0  0  0  0  0  0  0  0  0  0  0
    0.7500    0.4142   -2.9850 O   0  0  0  0  0  0  0  0  0  0  0  0
   -1.0710    3.1886   -2.7460 C   0  0  0  0  0  0  0  0  0  0  0  0
    1.0312    3.4224   -4.1464 H   0  0  0  0  0  0  0  0  0  0  0  0
    0.5725    3.1622   -1.3461 H   0  0  0  0  0  0  0  0  0  0  0  0
   -1.3666    2.7292   -3.6963 H   0  0  0  0  0  0  0  0  0  0  0  0
   -1.8434    2.9482   -2.0082 H   0  0  0  0  0  0  0  0  0  0  0  0
   -1.0632    4.2744   -2.8901 H   0  0  0  0  0  0  0  0  0  0  0  0
   -0.3037    0.7742   -0.9484 N   0  0  0  0  0  0  0  0  0  0  0  0
   -0.4352   -0.6095   -0.5718 C   0  0  2  0  0  0  0  0  0  0  0  0
   -0.7848   -0.6849    0.9108 C   0  0  0  0  0  0  0  0  0  0  0  0
   -0.0732   -0.2074    1.7924 O   0  0  0  0  0  0  0  0  0  0  0  0
    0.8137   -1.4228   -0.9317 C   0  0  0  0  0  0  0  0  0  0  0  0
    1.0376   -1.5917   -2.4402 C   0  0  0  0  0  0  0  0  0  0  0  0
    2.2849   -2.4324   -2.7229 C   0  0  0  0  0  0  0  0  0  0  0  0
    2.5177   -2.5773   -4.2196 C   0  0  0  0  0  0  0  0  0  0  0  0
    3.7461   -3.3762   -4.4451 N   0  3  0  0  0  0  0  0  0  0  0  0
   -0.6336    1.4811   -0.2948 H   0  0  0  0  0  0  0  0  0  0  0  0
   -1.2896   -0.9953   -1.1411 H   0  0  0  0  0  0  0  0  0  0  0  0
    1.6934   -0.9311   -0.4965 H   0  0  0  0  0  0  0  0  0  0  0  0
    0.7478   -2.4158   -0.4701 H   0  0  0  0  0  0  0  0  0  0  0  0
    0.1664   -2.0763   -2.8961 H   0  0  0  0  0  0  0  0  0  0  0  0
    1.1491   -0.6099   -2.9149 H   0  0  0  0  0  0  0  0  0  0  0  0
    2.1708   -3.4237   -2.2669 H   0  0  0  0  0  0  0  0  0  0  0  0
    3.1586   -1.9622   -2.2548 H   0  0  0  0  0  0  0  0  0  0  0  0
    1.6983   -3.1090   -4.7124 H   0  0  0  0  0  0  0  0  0  0  0  0
    2.6744   -1.6098   -4.7058 H   0  0  0  0  0  0  0  0  0  0  0  0
    4.1160   -3.2234   -5.3897 H   0  0  0  0  0  0  0  0  0  0  0  0
    3.5566   -4.3790   -4.3391 H   0  0  0  0  0  0  0  0  0  0  0  0
    4.4791   -3.1210   -3.7741 H   0  0  0  0  0  0  0  0  0  0  0  0
   -1.9992   -1.3179    1.1334 N   0  0  0  0  0  0  0  0  0  0  0  0
   -2.5448   -1.4913    2.4585 C   0  0  2  0  0  0  0  0  0  0  0  0
   -3.6944   -2.4861    2.3673 C   0  0  0  0  0  0  0  0  0  0  0  0
   -4.3067   -2.7098    1.3252 O   0  0  0  0  0  0  0  0  0  0  0  0
   -3.0162   -0.1677    3.0405 C   0  0  0  0  0  0  0  0  0  0  0  0
   -2.5219   -1.6710    0.3373 H   0  0  0  0  0  0  0  0  0  0  0  0
   -1.7449   -1.9125    3.0773 H   0  0  0  0  0  0  0  0  0  0  0  0
   -3.8177    0.2695    2.4339 H   0  0  0  0  0  0  0  0  0  0  0  0
   -3.4034   -0.2965    4.0566 H   0  0  0  0  0  0  0  0  0  0  0  0
   -2.1949    0.5562    3.0777 H   0  0  0  0  0  0  0  0  0  0  0  0
   -3.9844   -3.0626    3.5960 N   0  0  0  0  0  0  0  0  0  0  0  0
   -5.0425   -4.0296    3.7732 C   0  0  0  0  0  0  0  0  0  0  0  0
   -3.4126   -2.8325    4.4034 H   0  0  0  0  0  0  0  0  0  0  0  0
   -5.9679   -3.5118    4.0655 H   0  0  0  0  0  0  0  0  0  0  0  0
   -5.2072   -4.5698    2.8292 H   0  0  0  0  0  0  0  0  0  0  0  0
   -4.7581   -4.7441    4.5597 H   0  0  0  0  0  0  0  0  0  0  0  0
  1  3  1  0  0  0  0
  1  7  1  0  0  0  0
  1  2  2  0  0  0  0
 40 41  1  0  0  0  0
 41 49  1  0  0  0  0
 41 42  2  0  0  0  0
  8  9  1  0  0  0  0
  9 17  1  0  0  0  0
  9 10  2  0  0  0  0
 18 19  1  0  0  0  0
 19 39  1  0  0  0  0
 19 20  2  0  0  0  0
 40 43  1  0  0  0  0
  8 11  1  0  0  0  0
 49 50  1  0  0  0  0
 22 23  1  0  0  0  0
 21 22  1  0  0  0  0
 23 24  1  0  0  0  0
 18 21  1  0  0  0  0
 24 25  1  0  0  0  0
 39 40  1  0  0  0  0
  7  8  1  0  0  0  0
 17 18  1  0  0  0  0
  3  4  1  0  0  0  0
  3  5  1  0  0  0  0
  3  6  1  0  0  0  0
 43 46  1  0  0  0  0
 43 47  1  0  0  0  0
 43 48  1  0  0  0  0
 11 14  1  0  0  0  0
 11 15  1  0  0  0  0
 11 16  1  0  0  0  0
 50 52  1  0  0  0  0
 50 53  1  0  0  0  0
 50 54  1  0  0  0  0
 22 30  1  0  0  0  0
 22 31  1  0  0  0  0
 23 32  1  0  0  0  0
 23 33  1  0  0  0  0
 21 28  1  0  0  0  0
 21 29  1  0  0  0  0
 24 34  1  0  0  0  0
 24 35  1  0  0  0  0
 40 45  1  0  0  0  0
  8 13  1  0  0  0  0
 18 27  1  0  0  0  0
 49 51  1  0  0  0  0
  7 12  1  0  0  0  0
 39 44  1  0  0  0  0
 17 26  1  0  0  0  0
 25 36  1  0  0  0  0
 25 37  1  0  0  0  0
 25 38  1  0  0  0  0
M  CHG  1  25   1
M  END
$$$$

  -OEChem-05262214473D

 54 53  0     1  0  0  0  0  0999 V2000
    2.6714    2.8829   -3.0005 C   0  0  0  0  0  0  0  0  0  0  0  0
    3.1741    2.4398   -1.9745 O   0  0  0  0  0  0  0  0  0  0  0  0
    3.5527    3.3077   -4.1279 C   0  0  0  0  0  0  0  0  0  0  0  0
    3.8407    4.3691   -4.0597 H   0  0  0  0  0  0  0  0  0  0  0  0
    4.5024    2.7495   -4.1526 H   0  0  0  0  0  0  0  0  0  0  0  0
    3.1208    3.1887   -5.1345 H   0  0  0  0  0  0  0  0  0  0  0  0
    1.3174    3.0407   -3.2467 N   0  0  0  0  0  0  0  0  0  0  0  0
    0.2944    2.6927   -2.2960 C   0  0  2  0  0  0  0  0  0  0  0  0
    0.2976    1.1783   -2.1349 C   0  0  0  0  0  0  0  0  0  0  0  0
    0.7500    0.4142   -2.9850 O   0  0  0  0  0  0  0  0  0  0  0  0
   -1.0710    3.1886   -2.7460 C   0  0  0  0  0  0  0  0  0  0  0  0
    1.0312    3.4224   -4.1464 H   0  0  0  0  0  0  0  0  0  0  0  0
    0.5725    3.1622   -1.3461 H   0  0  0  0  0  0  0  0  0  0  0  0
   -1.3666    2.7292   -3.6963 H   0  0  0  0  0  0  0  0  0  0  0  0
   -1.8434    2.9482   -2.0082 H   0  0  0  0  0  0  0  0  0  0  0  0
   -1.0632    4.2744   -2.8901 H   0  0  0  0  0  0  0  0  0  0  0  0
   -0.3037    0.7742   -0.9484 N   0  0  0  0  0  0  0  0  0  0  0  0
   -0.4352   -0.6095   -0.5718 C   0  0  2  0  0  0  0  0  0  0  0  0
   -0.7848   -0.6849    0.9108 C   0  0  0  0  0  0  0  0  0  0  0  0
   -0.2341    0.0065    1.7653 O   0  0  0  0  0  0  0  0  0  0  0  0
    0.8137   -1.4228   -0.9317 C   0  0  0  0  0  0  0  0  0  0  0  0
    1.0376   -1.5917   -2.4402 C   0  0  0  0  0  0  0  0  0  0  0  0
    2.2849   -2.4324   -2.7229 C   0  0  0  0  0  0  0  0  0  0  0  0
    2.5177   -2.5773   -4.2196 C   0  0  0  0  0  0  0  0  0  0  0  0
    3.7461   -3.3762   -4.4451 N   0  3  0  0  0  0  0  0  0  0  0  0
   -0.6336    1.4811   -0.2948 H   0  0  0  0  0  0  0  0  0  0  0  0
   -1.2896   -0.9953   -1.1411 H   0  0  0  0  0  0  0  0  0  0  0  0
    1.6934   -0.9311   -0.4965 H   0  0  0  0  0  0  0  0  0  0  0  0
    0.7478   -2.4158   -0.4701 H   0  0  0  0  0  0  0  0  0  0  0  0
    0.1664   -2.0763   -2.8961 H   0  0  0  0  0  0  0  0  0  0  0  0
    1.1491   -0.6099   -2.9149 H   0  0  0  0  0  0  0  0  0  0  0  0
    2.1708   -3.4237   -2.2669 H   0  0  0  0  0  0  0  0  0  0  0  0
    3.1586   -1.9622   -2.2548 H   0  0  0  0  0  0  0  0  0  0  0  0
    1.6983   -3.1090   -4.7124 H   0  0  0  0  0  0  0  0  0  0  0  0
    2.6744   -1.6098   -4.7058 H   0  0  0  0  0  0  0  0  0  0  0  0
    4.1160   -3.2234   -5.3897 H   0  0  0  0  0  0  0  0  0  0  0  0
    3.5566   -4.3790   -4.3391 H   0  0  0  0  0  0  0  0  0  0  0  0
    4.4791   -3.1210   -3.7741 H   0  0  0  0  0  0  0  0  0  0  0  0
   -1.8056   -1.5895    1.1652 N   0  0  0  0  0  0  0  0  0  0  0  0
   -2.3170   -1.8181    2.4956 C   0  0  2  0  0  0  0  0  0  0  0  0
   -3.1777   -3.0740    2.4592 C   0  0  0  0  0  0  0  0  0  0  0  0
   -3.6928   -3.5046    1.4295 O   0  0  0  0  0  0  0  0  0  0  0  0
   -3.1175   -0.6247    2.9933 C   0  0  0  0  0  0  0  0  0  0  0  0
   -2.2064   -2.1083    0.3895 H   0  0  0  0  0  0  0  0  0  0  0  0
   -1.4497   -1.9877    3.1430 H   0  0  0  0  0  0  0  0  0  0  0  0
   -3.9906   -0.4393    2.3571 H   0  0  0  0  0  0  0  0  0  0  0  0
   -3.4806   -0.7881    4.0134 H   0  0  0  0  0  0  0  0  0  0  0  0
   -2.5054    0.2836    2.9906 H   0  0  0  0  0  0  0  0  0  0  0  0
   -3.3385   -3.6332    3.7192 N   0  0  0  0  0  0  0  0  0  0  0  0
   -4.1231   -4.8237    3.9495 C   0  0  0  0  0  0  0  0  0  0  0  0
   -2.8595   -3.2202    4.5140 H   0  0  0  0  0  0  0  0  0  0  0  0
   -5.1548   -4.5399    4.2049 H   0  0  0  0  0  0  0  0  0  0  0  0
   -4.1276   -5.4415    3.0394 H   0  0  0  0  0  0  0  0  0  0  0  0
   -3.6845   -5.3969    4.7796 H   0  0  0  0  0  0  0  0  0  0  0  0
  1  3  1  0  0  0  0
  1  7  1  0  0  0  0
  1  2  2  0  0  0  0
 40 41  1  0  0  0  0
 41 49  1  0  0  0  0
 41 42  2  0  0  0  0
  8  9  1  0  0  0  0
  9 17  1  0  0  0  0
  9 10  2  0  0  0  0
 18 19  1  0  0  0  0
 19 39  1  0  0  0  0
 19 20  2  0  0  0  0
 40 43  1  0  0  0  0
  8 11  1  0  0  0  0
 49 50  1  0  0  0  0
 22 23  1  0  0  0  0
 21 22  1  0  0  0  0
 23 24  1  0  0  0  0
 18 21  1  0  0  0  0
 24 25  1  0  0  0  0
 39 40  1  0  0  0  0
  7  8  1  0  0  0  0
 17 18  1  0  0  0  0
  3  4  1  0  0  0  0
  3  5  1  0  0  0  0
  3  6  1  0  0  0  0
 43 46  1  0  0  0  0
 43 47  1  0  0  0  0
 43 48  1  0  0  0  0
 11 14  1  0  0  0  0
 11 15  1  0  0  0  0
 11 16  1  0  0  0  0
 50 52  1  0  0  0  0
 50 53  1  0  0  0  0
 50 54  1  0  0  0  0
 22 30  1  0  0  0  0
 22 31  1  0  0  0  0
 23 32  1  0  0  0  0
 23 33  1  0  0  0  0
 21 28  1  0  0  0  0
 21 29  1  0  0  0  0
 24 34  1  0  0  0  0
 24 35  1  0  0  0  0
 40 45  1  0  0  0  0
  8 13  1  0  0  0  0
 18 27  1  0  0  0  0
 49 51  1  0  0  0  0
  7 12  1  0  0  0  0
 39 44  1  0  0  0  0
 17 26  1  0  0  0  0
 25 36  1  0  0  0  0
 25 37  1  0  0  0  0
 25 38  1  0  0  0  0
M  CHG  1  25   1
M  END
$$$$

  -OEChem-05262214473D

 54 53  0     1  0  0  0  0  0999 V2000
    2.6714    2.8829   -3.0005 C   0  0  0  0  0  0  0  0  0  0  0  0
    3.1741    2.4398   -1.9745 O   0  0  0  0  0  0  0  0  0  0  0  0
    3.5527    3.3077   -4.1279 C   0  0  0  0  0  0  0  0  0  0  0  0
    3.8407    4.3691   -4.0597 H   0  0  0  0  0  0  0  0  0  0  0  0
    4.5024    2.7495   -4.1526 H   0  0  0  0  0  0  0  0  0  0  0  0
    3.1208    3.1887   -5.1345 H   0  0  0  0  0  0  0  0  0  0  0  0
    1.3174    3.0407   -3.2467 N   0  0  0  0  0  0  0  0  0  0  0  0
    0.2944    2.6927   -2.2960 C   0  0  2  0  0  0  0  0  0  0  0  0
    0.2976    1.1783   -2.1349 C   0  0  0  0  0  0  0  0  0  0  0  0
    0.7500    0.4142   -2.9850 O   0  0  0  0  0  0  0  0  0  0  0  0
   -1.0710    3.1886   -2.7460 C   0  0  0  0  0  0  0  0  0  0  0  0
    1.0312    3.4224   -4.1464 H   0  0  0  0  0  0  0  0  0  0  0  0
    0.5725    3.1622   -1.3461 H   0  0  0  0  0  0  0  0  0  0  0  0
   -1.3666    2.7292   -3.6963 H   0  0  0  0  0  0  0  0  0  0  0  0
   -1.8434    2.9482   -2.0082 H   0  0  0  0  0  0  0  0  0  0  0  0
   -1.0632    4.2744   -2.8901 H   0  0  0  0  0  0  0  0  0  0  0  0
   -0.3037    0.7742   -0.9484 N   0  0  0  0  0  0  0  0  0  0  0  0
   -0.4352   -0.6095   -0.5718 C   0  0  2  0  0  0  0  0  0  0  0  0
   -0.7848   -0.6849    0.9108 C   0  0  0  0  0  0  0  0  0  0  0  0
   -0.4430    0.1710    1.7244 O   0  0  0  0  0  0  0  0  0  0  0  0
    0.8137   -1.4228   -0.9317 C   0  0  0  0  0  0  0  0  0  0  0  0
    1.0376   -1.5917   -2.4402 C   0  0  0  0  0  0  0  0  0  0  0  0
    2.2849   -2.4324   -2.7229 C   0  0  0  0  0  0  0  0  0  0  0  0
    2.5177   -2.5773   -4.2196 C   0  0  0  0  0  0  0  0  0  0  0  0
    3.7461   -3.3762   -4.4451 N   0  3  0  0  0  0  0  0  0  0  0  0
   -0.6336    1.4811   -0.2948 H   0  0  0  0  0  0  0  0  0  0  0  0
   -1.2896   -0.9953   -1.1411 H   0  0  0  0  0  0  0  0  0  0  0  0
    1.6934   -0.9311   -0.4965 H   0  0  0  0  0  0  0  0  0  0  0  0
    0.7478   -2.4158   -0.4701 H   0  0  0  0  0  0  0  0  0  0  0  0
    0.1664   -2.0763   -2.8961 H   0  0  0  0  0  0  0  0  0  0  0  0
    1.1491   -0.6099   -2.9149 H   0  0  0  0  0  0  0  0  0  0  0  0
    2.1708   -3.4237   -2.2669 H   0  0  0  0  0  0  0  0  0  0  0  0
    3.1586   -1.9622   -2.2548 H   0  0  0  0  0  0  0  0  0  0  0  0
    1.6983   -3.1090   -4.7124 H   0  0  0  0  0  0  0  0  0  0  0  0
    2.6744   -1.6098   -4.7058 H   0  0  0  0  0  0  0  0  0  0  0  0
    4.1160   -3.2234   -5.3897 H   0  0  0  0  0  0  0  0  0  0  0  0
    3.5566   -4.3790   -4.3391 H   0  0  0  0  0  0  0  0  0  0  0  0
    4.4791   -3.1210   -3.7741 H   0  0  0  0  0  0  0  0  0  0  0  0
   -1.5505   -1.8013    1.2146 N   0  0  0  0  0  0  0  0  0  0  0  0
   -2.0152   -2.0743    2.5537 C   0  0  2  0  0  0  0  0  0  0  0  0
   -2.5319   -3.5065    2.5895 C   0  0  0  0  0  0  0  0  0  0  0  0
   -2.9011   -4.1116    1.5853 O   0  0  0  0  0  0  0  0  0  0  0  0
   -3.0998   -1.0945    2.9736 C   0  0  0  0  0  0  0  0  0  0  0  0
   -1.7923   -2.4482    0.4698 H   0  0  0  0  0  0  0  0  0  0  0  0
   -1.1465   -1.9822    3.2148 H   0  0  0  0  0  0  0  0  0  0  0  0
   -3.9783   -1.1721    2.3227 H   0  0  0  0  0  0  0  0  0  0  0  0
   -3.4309   -1.2849    3.9998 H   0  0  0  0  0  0  0  0  0  0  0  0
   -2.7356   -0.0629    2.9187 H   0  0  0  0  0  0  0  0  0  0  0  0
   -2.5727   -4.0145    3.8804 N   0  0  0  0  0  0  0  0  0  0  0  0
   -3.0376   -5.3490    4.1787 C   0  0  0  0  0  0  0  0  0  0  0  0
   -2.2291   -3.4490    4.6510 H   0  0  0  0  0  0  0  0  0  0  0  0
   -4.1124   -5.3200    4.4109 H   0  0  0  0  0  0  0  0  0  0  0  0
   -2.8681   -5.9994    3.3080 H   0  0  0  0  0  0  0  0  0  0  0  0
   -2.4861   -5.7442    5.0445 H   0  0  0  0  0  0  0  0  0  0  0  0
  1  3  1  0  0  0  0
  1  7  1  0  0  0  0
  1  2  2  0  0  0  0
 40 41  1  0  0  0  0
 41 49  1  0  0  0  0
 41 42  2  0  0  0  0
  8  9  1  0  0  0  0
  9 17  1  0  0  0  0
  9 10  2  0  0  0  0
 18 19  1  0  0  0  0
 19 39  1  0  0  0  0
 19 20  2  0  0  0  0
 40 43  1  0  0  0  0
  8 11  1  0  0  0  0
 49 50  1  0  0  0  0
 22 23  1  0  0  0  0
 21 22  1  0  0  0  0
 23 24  1  0  0  0  0
 18 21  1  0  0  0  0
 24 25  1  0  0  0  0
 39 40  1  0  0  0  0
  7  8  1  0  0  0  0
 17 18  1  0  0  0  0
  3  4  1  0  0  0  0
  3  5  1  0  0  0  0
  3  6  1  0  0  0  0
 43 46  1  0  0  0  0
 43 47  1  0  0  0  0
 43 48  1  0  0  0  0
 11 14  1  0  0  0  0
 11 15  1  0  0  0  0
 11 16  1  0  0  0  0
 50 52  1  0  0  0  0
 50 53  1  0  0  0  0
 50 54  1  0  0  0  0
 22 30  1  0  0  0  0
 22 31  1  0  0  0  0
 23 32  1  0  0  0  0
 23 33  1  0  0  0  0
 21 28  1  0  0  0  0
 21 29  1  0  0  0  0
 24 34  1  0  0  0  0
 24 35  1  0  0  0  0
 40 45  1  0  0  0  0
  8 13  1  0  0  0  0
 18 27  1  0  0  0  0
 49 51  1  0  0  0  0
  7 12  1  0  0  0  0
 39 44  1  0  0  0  0
 17 26  1  0  0  0  0
 25 36  1  0  0  0  0
 25 37  1  0  0  0  0
 25 38  1  0  0  0  0
M  CHG  1  25   1
M  END
$$$$

  -OEChem-05262214473D

 54 53  0     1  0  0  0  0  0999 V2000
    2.6714    2.8829   -3.0005 C   0  0  0  0  0  0  0  0  0  0  0  0
    3.1741    2.4398   -1.9745 O   0  0  0  0  0  0  0  0  0  0  0  0
    3.5527    3.3077   -4.1279 C   0  0  0  0  0  0  0  0  0  0  0  0
    3.8407    4.3691   -4.0597 H   0  0  0  0  0  0  0  0  0  0  0  0
    4.5024    2.7495   -4.1526 H   0  0  0  0  0  0  0  0  0  0  0  0
    3.1208    3.1887   -5.1345 H   0  0  0  0  0  0  0  0  0  0  0  0
    1.3174    3.0407   -3.2467 N   0  0  0  0  0  0  0  0  0  0  0  0
    0.2944    2.6927   -2.2960 C   0  0  2  0  0  0  0  0  0  0  0  0
    0.2976    1.1783   -2.1349 C   0  0  0  0  0  0  0  0  0  0  0  0
    0.7500    0.4142   -2.9850 O   0  0  0  0  0  0  0  0  0  0  0  0
   -1.0710    3.1886   -2.7460 C   0  0  0  0  0  0  0  0  0  0  0  0
    1.0312    3.4224   -4.1464 H   0  0  0  0  0  0  0  0  0  0  0  0
    0.5725    3.1622   -1.3461 H   0  0  0  0  0  0  0  0  0  0  0  0
   -1.3666    2.7292   -3.6963 H   0  0  0  0  0  0  0  0  0  0  0  0
   -1.8434    2.9482   -2.0082 H   0  0  0  0  0  0  0  0  0  0  0  0
   -1.0632    4.2744   -2.8901 H   0  0  0  0  0  0  0  0  0  0  0  0
   -0.3037    0.7742   -0.9484 N   0  0  0  0  0  0  0  0  0  0  0  0
   -0.4352   -0.6095   -0.5718 C   0  0  2  0  0  0  0  0  0  0  0  0
   -0.7848   -0.6849    0.9108 C   0  0  0  0  0  0  0  0  0  0  0  0
   -0.6857    0.2750    1.6725 O   0  0  0  0  0  0  0  0  0  0  0  0
    0.8137   -1.4228   -0.9317 C   0  0  0  0  0  0  0  0  0  0  0  0
    1.0376   -1.5917   -2.4402 C   0  0  0  0  0  0  0  0  0  0  0  0
    2.2849   -2.4324   -2.7229 C   0  0  0  0  0  0  0  0  0  0  0  0
    2.5177   -2.5773   -4.2196 C   0  0  0  0  0  0  0  0  0  0  0  0
    3.7461   -3.3762   -4.4451 N   0  3  0  0  0  0  0  0  0  0  0  0
   -0.6336    1.4811   -0.2948 H   0  0  0  0  0  0  0  0  0  0  0  0
   -1.2896   -0.9953   -1.1411 H   0  0  0  0  0  0  0  0  0  0  0  0
    1.6934   -0.9311   -0.4965 H   0  0  0  0  0  0  0  0  0  0  0  0
    0.7478   -2.4158   -0.4701 H   0  0  0  0  0  0  0  0  0  0  0  0
    0.1664   -2.0763   -2.8961 H   0  0  0  0  0  0  0  0  0  0  0  0
    1.1491   -0.6099   -2.9149 H   0  0  0  0  0  0  0  0  0  0  0  0
    2.1708   -3.4237   -2.2669 H   0  0  0  0  0  0  0  0  0  0  0  0
    3.1586   -1.9622   -2.2548 H   0  0  0  0  0  0  0  0  0  0  0  0
    1.6983   -3.1090   -4.7124 H   0  0  0  0  0  0  0  0  0  0  0  0
    2.6744   -1.6098   -4.7058 H   0  0  0  0  0  0  0  0  0  0  0  0
    4.1160   -3.2234   -5.3897 H   0  0  0  0  0  0  0  0  0  0  0  0
    3.5566   -4.3790   -4.3391 H   0  0  0  0  0  0  0  0  0  0  0  0
    4.4791   -3.1210   -3.7741 H   0  0  0  0  0  0  0  0  0  0  0  0
   -1.2516   -1.9388    1.2781 N   0  0  0  0  0  0  0  0  0  0  0  0
   -1.6599   -2.2423    2.6290 C   0  0  2  0  0  0  0  0  0  0  0  0
   -1.8009   -3.7540    2.7493 C   0  0  0  0  0  0  0  0  0  0  0  0
   -1.9857   -4.4895    1.7819 O   0  0  0  0  0  0  0  0  0  0  0  0
   -2.9642   -1.5449    2.9826 C   0  0  0  0  0  0  0  0  0  0  0  0
   -1.3078   -2.6676    0.5729 H   0  0  0  0  0  0  0  0  0  0  0  0
   -0.8559   -1.8963    3.2877 H   0  0  0  0  0  0  0  0  0  0  0  0
   -3.7816   -1.8788    2.3331 H   0  0  0  0  0  0  0  0  0  0  0  0
   -3.2578   -1.7532    4.0168 H   0  0  0  0  0  0  0  0  0  0  0  0
   -2.8698   -0.4598    2.8669 H   0  0  0  0  0  0  0  0  0  0  0  0
   -1.7391   -4.1805    4.0685 N   0  0  0  0  0  0  0  0  0  0  0  0
   -1.8599   -5.5696    4.4452 C   0  0  0  0  0  0  0  0  0  0  0  0
   -1.5644   -3.5032    4.8050 H   0  0  0  0  0  0  0  0  0  0  0  0
   -2.9120   -5.7991    4.6696 H   0  0  0  0  0  0  0  0  0  0  0  0
   -1.5147   -6.2054    3.6166 H   0  0  0  0  0  0  0  0  0  0  0  0
   -1.2445   -5.7625    5.3363 H   0  0  0  0  0  0  0  0  0  0  0  0
  1  3  1  0  0  0  0
  1  7  1  0  0  0  0
  1  2  2  0  0  0  0
 40 41  1  0  0  0  0
 41 49  1  0  0  0  0
 41 42  2  0  0  0  0
  8  9  1  0  0  0  0
  9 17  1  0  0  0  0
  9 10  2  0  0  0  0
 18 19  1  0  0  0  0
 19 39  1  0  0  0  0
 19 20  2  0  0  0  0
 40 43  1  0  0  0  0
  8 11  1  0  0  0  0
 49 50  1  0  0  0  0
 22 23  1  0  0  0  0
 21 22  1  0  0  0  0
 23 24  1  0  0  0  0
 18 21  1  0  0  0  0
 24 25  1  0  0  0  0
 39 40  1  0  0  0  0
  7  8  1  0  0  0  0
 17 18  1  0  0  0  0
  3  4  1  0  0  0  0
  3  5  1  0  0  0  0
  3  6  1  0  0  0  0
 43 46  1  0  0  0  0
 43 47  1  0  0  0  0
 43 48  1  0  0  0  0
 11 14  1  0  0  0  0
 11 15  1  0  0  0  0
 11 16  1  0  0  0  0
 50 52  1  0  0  0  0
 50 53  1  0  0  0  0
 50 54  1  0  0  0  0
 22 30  1  0  0  0  0
 22 31  1  0  0  0  0
 23 32  1  0  0  0  0
 23 33  1  0  0  0  0
 21 28  1  0  0  0  0
 21 29  1  0  0  0  0
 24 34  1  0  0  0  0
 24 35  1  0  0  0  0
 40 45  1  0  0  0  0
  8 13  1  0  0  0  0
 18 27  1  0  0  0  0
 49 51  1  0  0  0  0
  7 12  1  0  0  0  0
 39 44  1  0  0  0  0
 17 26  1  0  0  0  0
 25 36  1  0  0  0  0
 25 37  1  0  0  0  0
 25 38  1  0  0  0  0
M  CHG  1  25   1
M  END
$$$$
