@<TRIPOS>MOLECULE
default_name
   26    26     1     0     0
SMALL
No Charge or Current Charge


@<TRIPOS>ATOM
      1 H1          26.5080    24.8970    24.1980 H          1 ACE       0.112300
      2 CH3         26.2780    25.9540    24.0750 C.3        1 ACE      -0.366200
      3 H2          25.6620    26.2870    24.9080 H          1 ACE       0.112300
      4 H3          25.7540    26.1050    23.1340 H          1 ACE       0.112300
      5 C           27.5770    26.7400    24.0640 C.2        1 ACE       0.597200
      6 O           28.6370    26.1230    24.0440 O.2        1 ACE      -0.567900
      7 N           27.5280    28.0850    24.0640 N.am       2 PRO      -0.254800
      8 CD          26.3420    28.9110    23.9080 C.3        2 PRO       0.019200
      9 HD2         25.9070    29.1090    24.8890 H          2 PRO       0.039100
     10 HD3         25.6040    28.4520    23.2510 H          2 PRO       0.039100
     11 CG          26.8510    30.2120    23.2910 C.3        2 PRO       0.018900
     12 HG2         26.1950    31.0530    23.5210 H          2 PRO       0.021300
     13 HG3         26.9600    30.0890    22.2130 H          2 PRO       0.021300
     14 CB          28.2280    30.3690    23.9360 C.3        2 PRO      -0.007000
     15 HB2         28.1100    30.8440    24.9120 H          2 PRO       0.025300
     16 HB3         28.8990    30.9570    23.3100 H          2 PRO       0.025300
     17 CA          28.7250    28.9230    24.0970 C.3        2 PRO      -0.026600
     18 HA          29.3480    28.6660    23.2400 H          2 PRO       0.064100
     19 C           29.5310    28.7340    25.3930 C.2        2 PRO       0.589600
     20 O           29.0110    28.9440    26.4870 O.2        2 PRO      -0.574800
     21 N           30.8140    28.3750    25.2640 N.am       3 NME      -0.415700
     22 H           31.1500    28.1640    24.3380 H          3 NME       0.271900
     23 CH3         31.7190    28.1620    26.3910 C.3        3 NME      -0.149000
     24 HH31        31.3720    27.3110    26.9810 H          3 NME       0.097600
     25 HH32        32.7300    27.9650    26.0330 H          3 NME       0.097600
     26 HH33        31.7270    29.0470    27.0310 H          3 NME       0.097600
@<TRIPOS>BOND
     1     5     6 2   
     2     5     7 am  
     3     2     3 1   
     4     2     4 1   
     5     2     5 1   
     6     1     2 1   
     7    19    20 2   
     8    19    21 am  
     9    17    18 1   
    10    17    19 1   
    11    14    15 1   
    12    14    16 1   
    13    14    17 1   
    14    11    12 1   
    15    11    13 1   
    16    11    14 1   
    17     8     9 1   
    18     8    10 1   
    19     8    11 1   
    20     7     8 1   
    21     7    17 1   
    22    23    24 1   
    23    23    25 1   
    24    23    26 1   
    25    21    22 1   
    26    21    23 1   
@<TRIPOS>SUBSTRUCTURE
     1 ACE         1 TEMP              0 ****  ****    0 ROOT
