@<TRIPOS>MOLECULE
default_name
   20    19     1     0     0
SMALL
No Charge or Current Charge


@<TRIPOS>ATOM
      1 N           27.3320    25.6400    23.9950 N.4        1 NAS       0.000000
      2 H1          27.6680    25.0300    24.7280 H          1 NAS       0.000000
      3 H2          27.5730    25.2190    23.1090 H          1 NAS       0.000000
      4 H3          26.3350    25.7740    24.0760 H          1 NAS       0.000000
      5 CA          28.0320    26.9300    24.1190 C.3        1 NAS       0.000000
      6 HA          27.7240    27.5890    23.3050 H          1 NAS       0.000000
      7 CB          27.6540    27.6100    25.4420 C.3        1 NAS       0.000000
      8 HB2         26.5870    27.4610    25.6230 H          1 NAS       0.000000
      9 HB3         28.2100    27.1510    26.2620 H          1 NAS       0.000000
     10 CG          27.9200    29.1140    25.3910 C.2        1 NAS       0.000000
     11 OD1         28.2710    29.5720    24.2800 O.co2      1 NAS       0.000000
     12 OD2         27.7640    29.7530    26.4440 O.co2      1 NAS       0.000000
     13 C           29.5360    26.7010    23.9800 C.2        1 NAS       0.000000
     14 O           29.9380    25.5390    23.9530 O.2        1 NAS       0.000000
     15 N           30.3370    27.7620    23.8550 N.am       2 NME      -0.415700
     16 H           29.8940    28.6830    23.9020 H          2 NME       0.271900
     17 CH3         31.7910    27.7100    23.7220 C.3        2 NME      -0.149000
     18 HH31        32.1020    26.7610    23.2820 H          2 NME       0.097600
     19 HH32        32.1320    28.5280    23.0850 H          2 NME       0.097600
     20 HH33        32.2520    27.8140    24.7060 H          2 NME       0.097600
@<TRIPOS>BOND
     1    13    14 2   
     2    13    15 am  
     3    10    11 1   
     4    10    12 1   
     5     7     8 1   
     6     7     9 1   
     7     7    10 1   
     8     5     6 1   
     9     5     7 1   
    10     5    13 1   
    11     1     2 1   
    12     1     3 1   
    13     1     4 1   
    14     1     5 1   
    15    17    18 1   
    16    17    19 1   
    17    17    20 1   
    18    15    16 1   
    19    15    17 1   
@<TRIPOS>SUBSTRUCTURE
     1 NAS         1 TEMP              0 ****  ****    0 ROOT
