default_name
  -OEChem-01062215323D

 19 18  0     0  0  0  0  0  0999 V2000
   -2.2056   -4.0049    0.0000 H   0  0  0  0  0  0  0  0  0  0  0  0
   -2.2496   -2.9169    0.0000 C   0  0  0  0  0  0  0  0  0  0  0  0
   -2.7696   -2.5709    0.8910 H   0  0  0  0  0  0  0  0  0  0  0  0
   -2.7696   -2.5709   -0.8910 H   0  0  0  0  0  0  0  0  0  0  0  0
   -0.8406   -2.3699    0.0000 C   0  0  0  0  0  0  0  0  0  0  0  0
    0.1164   -3.1329    0.0000 O   0  0  0  0  0  0  0  0  0  0  0  0
   -0.7136   -1.0459    0.0000 N   0  0  0  0  0  0  0  0  0  0  0  0
   -1.5436   -0.4719    0.0000 H   0  0  0  0  0  0  0  0  0  0  0  0
    0.5724   -0.3469    0.0000 C   0  0  0  0  0  0  0  0  0  0  0  0
    1.1404   -0.6399    0.8840 H   0  0  0  0  0  0  0  0  0  0  0  0
    1.1404   -0.6399   -0.8840 H   0  0  0  0  0  0  0  0  0  0  0  0
    0.4124    1.1761    0.0000 C   0  0  0  0  0  0  0  0  0  0  0  0
   -0.7076    1.6831    0.0000 O   0  0  0  0  0  0  0  0  0  0  0  0
    1.5414    1.8961    0.0000 N   0  0  0  0  0  0  0  0  0  0  0  0
    2.4144    1.3921   -0.0000 H   0  0  0  0  0  0  0  0  0  0  0  0
    1.6034    3.3591    0.0000 C   0  0  0  0  0  0  0  0  0  0  0  0
    0.5984    3.7881    0.0000 H   0  0  0  0  0  0  0  0  0  0  0  0
    2.1304    3.7081    0.8890 H   0  0  0  0  0  0  0  0  0  0  0  0
    2.1304    3.7081   -0.8890 H   0  0  0  0  0  0  0  0  0  0  0  0
  5  6  2  0  0  0  0
  5  7  1  0  0  0  0
  2  3  1  0  0  0  0
  2  4  1  0  0  0  0
  2  5  1  0  0  0  0
  1  2  1  0  0  0  0
 12 13  2  0  0  0  0
 12 14  1  0  0  0  0
  9 10  1  0  0  0  0
  9 11  1  0  0  0  0
  9 12  1  0  0  0  0
  7  8  1  0  0  0  0
  7  9  1  0  0  0  0
 16 17  1  0  0  0  0
 16 18  1  0  0  0  0
 16 19  1  0  0  0  0
 14 15  1  0  0  0  0
 14 16  1  0  0  0  0
M  END
$$$$
default_name
  -OEChem-01062215323D

 19 18  0     0  0  0  0  0  0999 V2000
   -2.2056   -4.0049    0.0000 H   0  0  0  0  0  0  0  0  0  0  0  0
   -2.2496   -2.9169    0.0000 C   0  0  0  0  0  0  0  0  0  0  0  0
   -2.7696   -2.5709    0.8910 H   0  0  0  0  0  0  0  0  0  0  0  0
   -2.7696   -2.5709   -0.8910 H   0  0  0  0  0  0  0  0  0  0  0  0
   -0.8406   -2.3699    0.0000 C   0  0  0  0  0  0  0  0  0  0  0  0
    0.1164   -3.1329    0.0000 O   0  0  0  0  0  0  0  0  0  0  0  0
   -0.7136   -1.0459    0.0000 N   0  0  0  0  0  0  0  0  0  0  0  0
   -1.5436   -0.4719    0.0000 H   0  0  0  0  0  0  0  0  0  0  0  0
    0.5724   -0.3469    0.0000 C   0  0  0  0  0  0  0  0  0  0  0  0
    1.1404   -0.6399    0.8840 H   0  0  0  0  0  0  0  0  0  0  0  0
    1.1404   -0.6399   -0.8840 H   0  0  0  0  0  0  0  0  0  0  0  0
    0.4124    1.1761    0.0000 C   0  0  0  0  0  0  0  0  0  0  0  0
   -0.6717    1.6869    0.2746 O   0  0  0  0  0  0  0  0  0  0  0  0
    1.5008    1.8918   -0.3101 N   0  0  0  0  0  0  0  0  0  0  0  0
    2.3461    1.3849   -0.5212 H   0  0  0  0  0  0  0  0  0  0  0  0
    1.5555    3.3541   -0.3656 C   0  0  0  0  0  0  0  0  0  0  0  0
    0.5829    3.7865   -0.1185 H   0  0  0  0  0  0  0  0  0  0  0  0
    2.2923    3.7251    0.3480 H   0  0  0  0  0  0  0  0  0  0  0  0
    1.8347    3.6770   -1.3694 H   0  0  0  0  0  0  0  0  0  0  0  0
  5  6  2  0  0  0  0
  5  7  1  0  0  0  0
  2  3  1  0  0  0  0
  2  4  1  0  0  0  0
  2  5  1  0  0  0  0
  1  2  1  0  0  0  0
 12 13  2  0  0  0  0
 12 14  1  0  0  0  0
  9 10  1  0  0  0  0
  9 11  1  0  0  0  0
  9 12  1  0  0  0  0
  7  8  1  0  0  0  0
  7  9  1  0  0  0  0
 16 17  1  0  0  0  0
 16 18  1  0  0  0  0
 16 19  1  0  0  0  0
 14 15  1  0  0  0  0
 14 16  1  0  0  0  0
M  END
$$$$
default_name
  -OEChem-01062215323D

 19 18  0     0  0  0  0  0  0999 V2000
   -2.2056   -4.0049    0.0000 H   0  0  0  0  0  0  0  0  0  0  0  0
   -2.2496   -2.9169    0.0000 C   0  0  0  0  0  0  0  0  0  0  0  0
   -2.7696   -2.5709    0.8910 H   0  0  0  0  0  0  0  0  0  0  0  0
   -2.7696   -2.5709   -0.8910 H   0  0  0  0  0  0  0  0  0  0  0  0
   -0.8406   -2.3699    0.0000 C   0  0  0  0  0  0  0  0  0  0  0  0
    0.1164   -3.1329    0.0000 O   0  0  0  0  0  0  0  0  0  0  0  0
   -0.7136   -1.0459    0.0000 N   0  0  0  0  0  0  0  0  0  0  0  0
   -1.5436   -0.4719    0.0000 H   0  0  0  0  0  0  0  0  0  0  0  0
    0.5724   -0.3469    0.0000 C   0  0  0  0  0  0  0  0  0  0  0  0
    1.1404   -0.6399    0.8840 H   0  0  0  0  0  0  0  0  0  0  0  0
    1.1404   -0.6399   -0.8840 H   0  0  0  0  0  0  0  0  0  0  0  0
    0.4124    1.1761    0.0000 C   0  0  0  0  0  0  0  0  0  0  0  0
   -0.5663    1.6980    0.5304 O   0  0  0  0  0  0  0  0  0  0  0  0
    1.3817    1.8793   -0.5990 N   0  0  0  0  0  0  0  0  0  0  0  0
    2.1461    1.3639   -1.0068 H   0  0  0  0  0  0  0  0  0  0  0  0
    1.4152    3.3393   -0.7063 C   0  0  0  0  0  0  0  0  0  0  0  0
    0.5374    3.7817   -0.2289 H   0  0  0  0  0  0  0  0  0  0  0  0
    2.3095    3.7269   -0.2167 H   0  0  0  0  0  0  0  0  0  0  0  0
    1.4254    3.6340   -1.7565 H   0  0  0  0  0  0  0  0  0  0  0  0
  5  6  2  0  0  0  0
  5  7  1  0  0  0  0
  2  3  1  0  0  0  0
  2  4  1  0  0  0  0
  2  5  1  0  0  0  0
  1  2  1  0  0  0  0
 12 13  2  0  0  0  0
 12 14  1  0  0  0  0
  9 10  1  0  0  0  0
  9 11  1  0  0  0  0
  9 12  1  0  0  0  0
  7  8  1  0  0  0  0
  7  9  1  0  0  0  0
 16 17  1  0  0  0  0
 16 18  1  0  0  0  0
 16 19  1  0  0  0  0
 14 15  1  0  0  0  0
 14 16  1  0  0  0  0
M  END
$$$$
default_name
  -OEChem-01062215323D

 19 18  0     0  0  0  0  0  0999 V2000
   -2.2056   -4.0049    0.0000 H   0  0  0  0  0  0  0  0  0  0  0  0
   -2.2496   -2.9169    0.0000 C   0  0  0  0  0  0  0  0  0  0  0  0
   -2.7696   -2.5709    0.8910 H   0  0  0  0  0  0  0  0  0  0  0  0
   -2.7696   -2.5709   -0.8910 H   0  0  0  0  0  0  0  0  0  0  0  0
   -0.8406   -2.3699    0.0000 C   0  0  0  0  0  0  0  0  0  0  0  0
    0.1164   -3.1329    0.0000 O   0  0  0  0  0  0  0  0  0  0  0  0
   -0.7136   -1.0459    0.0000 N   0  0  0  0  0  0  0  0  0  0  0  0
   -1.5436   -0.4719    0.0000 H   0  0  0  0  0  0  0  0  0  0  0  0
    0.5724   -0.3469    0.0000 C   0  0  0  0  0  0  0  0  0  0  0  0
    1.1404   -0.6399    0.8840 H   0  0  0  0  0  0  0  0  0  0  0  0
    1.1404   -0.6399   -0.8840 H   0  0  0  0  0  0  0  0  0  0  0  0
    0.4124    1.1761    0.0000 C   0  0  0  0  0  0  0  0  0  0  0  0
   -0.3986    1.7156    0.7502 O   0  0  0  0  0  0  0  0  0  0  0  0
    1.1924    1.8594   -0.8471 N   0  0  0  0  0  0  0  0  0  0  0  0
    1.8278    1.3305   -1.4238 H   0  0  0  0  0  0  0  0  0  0  0  0
    1.1919    3.3159   -0.9988 C   0  0  0  0  0  0  0  0  0  0  0  0
    0.4650    3.7741   -0.3238 H   0  0  0  0  0  0  0  0  0  0  0  0
    2.1808    3.7134   -0.7666 H   0  0  0  0  0  0  0  0  0  0  0  0
    0.9304    3.5820   -2.0238 H   0  0  0  0  0  0  0  0  0  0  0  0
  5  6  2  0  0  0  0
  5  7  1  0  0  0  0
  2  3  1  0  0  0  0
  2  4  1  0  0  0  0
  2  5  1  0  0  0  0
  1  2  1  0  0  0  0
 12 13  2  0  0  0  0
 12 14  1  0  0  0  0
  9 10  1  0  0  0  0
  9 11  1  0  0  0  0
  9 12  1  0  0  0  0
  7  8  1  0  0  0  0
  7  9  1  0  0  0  0
 16 17  1  0  0  0  0
 16 18  1  0  0  0  0
 16 19  1  0  0  0  0
 14 15  1  0  0  0  0
 14 16  1  0  0  0  0
M  END
$$$$
default_name
  -OEChem-01062215323D

 19 18  0     0  0  0  0  0  0999 V2000
   -2.2056   -4.0049    0.0000 H   0  0  0  0  0  0  0  0  0  0  0  0
   -2.2496   -2.9169    0.0000 C   0  0  0  0  0  0  0  0  0  0  0  0
   -2.7696   -2.5709    0.8910 H   0  0  0  0  0  0  0  0  0  0  0  0
   -2.7696   -2.5709   -0.8910 H   0  0  0  0  0  0  0  0  0  0  0  0
   -0.8406   -2.3699    0.0000 C   0  0  0  0  0  0  0  0  0  0  0  0
    0.1164   -3.1329    0.0000 O   0  0  0  0  0  0  0  0  0  0  0  0
   -0.7136   -1.0459    0.0000 N   0  0  0  0  0  0  0  0  0  0  0  0
   -1.5436   -0.4719    0.0000 H   0  0  0  0  0  0  0  0  0  0  0  0
    0.5724   -0.3469    0.0000 C   0  0  0  0  0  0  0  0  0  0  0  0
    1.1404   -0.6399    0.8840 H   0  0  0  0  0  0  0  0  0  0  0  0
    1.1404   -0.6399   -0.8840 H   0  0  0  0  0  0  0  0  0  0  0  0
    0.4124    1.1761    0.0000 C   0  0  0  0  0  0  0  0  0  0  0  0
   -0.1801    1.7385    0.9188 O   0  0  0  0  0  0  0  0  0  0  0  0
    0.9456    1.8335   -1.0375 N   0  0  0  0  0  0  0  0  0  0  0  0
    1.4131    1.2869   -1.7438 H   0  0  0  0  0  0  0  0  0  0  0  0
    0.9010    3.2853   -1.2233 C   0  0  0  0  0  0  0  0  0  0  0  0
    0.3707    3.7642   -0.3965 H   0  0  0  0  0  0  0  0  0  0  0  0
    1.9149    3.6855   -1.2643 H   0  0  0  0  0  0  0  0  0  0  0  0
    0.3835    3.5246   -2.1533 H   0  0  0  0  0  0  0  0  0  0  0  0
  5  6  2  0  0  0  0
  5  7  1  0  0  0  0
  2  3  1  0  0  0  0
  2  4  1  0  0  0  0
  2  5  1  0  0  0  0
  1  2  1  0  0  0  0
 12 13  2  0  0  0  0
 12 14  1  0  0  0  0
  9 10  1  0  0  0  0
  9 11  1  0  0  0  0
  9 12  1  0  0  0  0
  7  8  1  0  0  0  0
  7  9  1  0  0  0  0
 16 17  1  0  0  0  0
 16 18  1  0  0  0  0
 16 19  1  0  0  0  0
 14 15  1  0  0  0  0
 14 16  1  0  0  0  0
M  END
$$$$
default_name
  -OEChem-01062215323D

 19 18  0     0  0  0  0  0  0999 V2000
   -2.2056   -4.0049    0.0000 H   0  0  0  0  0  0  0  0  0  0  0  0
   -2.2496   -2.9169    0.0000 C   0  0  0  0  0  0  0  0  0  0  0  0
   -2.7696   -2.5709    0.8910 H   0  0  0  0  0  0  0  0  0  0  0  0
   -2.7696   -2.5709   -0.8910 H   0  0  0  0  0  0  0  0  0  0  0  0
   -0.8406   -2.3699    0.0000 C   0  0  0  0  0  0  0  0  0  0  0  0
    0.1164   -3.1329    0.0000 O   0  0  0  0  0  0  0  0  0  0  0  0
   -0.7136   -1.0459    0.0000 N   0  0  0  0  0  0  0  0  0  0  0  0
   -1.5436   -0.4719    0.0000 H   0  0  0  0  0  0  0  0  0  0  0  0
    0.5724   -0.3469    0.0000 C   0  0  0  0  0  0  0  0  0  0  0  0
    1.1404   -0.6399    0.8840 H   0  0  0  0  0  0  0  0  0  0  0  0
    1.1404   -0.6399   -0.8840 H   0  0  0  0  0  0  0  0  0  0  0  0
    0.4124    1.1761    0.0000 C   0  0  0  0  0  0  0  0  0  0  0  0
    0.0744    1.7653    1.0247 O   0  0  0  0  0  0  0  0  0  0  0  0
    0.6583    1.8033   -1.1572 N   0  0  0  0  0  0  0  0  0  0  0  0
    0.9301    1.2362   -1.9450 H   0  0  0  0  0  0  0  0  0  0  0  0
    0.5621    3.2497   -1.3644 C   0  0  0  0  0  0  0  0  0  0  0  0
    0.2609    3.7526   -0.4423 H   0  0  0  0  0  0  0  0  0  0  0  0
    1.5299    3.6450   -1.6758 H   0  0  0  0  0  0  0  0  0  0  0  0
   -0.1781    3.4656   -2.1360 H   0  0  0  0  0  0  0  0  0  0  0  0
  5  6  2  0  0  0  0
  5  7  1  0  0  0  0
  2  3  1  0  0  0  0
  2  4  1  0  0  0  0
  2  5  1  0  0  0  0
  1  2  1  0  0  0  0
 12 13  2  0  0  0  0
 12 14  1  0  0  0  0
  9 10  1  0  0  0  0
  9 11  1  0  0  0  0
  9 12  1  0  0  0  0
  7  8  1  0  0  0  0
  7  9  1  0  0  0  0
 16 17  1  0  0  0  0
 16 18  1  0  0  0  0
 16 19  1  0  0  0  0
 14 15  1  0  0  0  0
 14 16  1  0  0  0  0
M  END
$$$$
default_name
  -OEChem-01062215323D

 19 18  0     0  0  0  0  0  0999 V2000
   -2.2056   -4.0049    0.0000 H   0  0  0  0  0  0  0  0  0  0  0  0
   -2.2496   -2.9169    0.0000 C   0  0  0  0  0  0  0  0  0  0  0  0
   -2.7696   -2.5709    0.8910 H   0  0  0  0  0  0  0  0  0  0  0  0
   -2.7696   -2.5709   -0.8910 H   0  0  0  0  0  0  0  0  0  0  0  0
   -0.8406   -2.3699    0.0000 C   0  0  0  0  0  0  0  0  0  0  0  0
    0.1164   -3.1329    0.0000 O   0  0  0  0  0  0  0  0  0  0  0  0
   -0.7136   -1.0459    0.0000 N   0  0  0  0  0  0  0  0  0  0  0  0
   -1.5436   -0.4719    0.0000 H   0  0  0  0  0  0  0  0  0  0  0  0
    0.5724   -0.3469    0.0000 C   0  0  0  0  0  0  0  0  0  0  0  0
    1.1404   -0.6399    0.8840 H   0  0  0  0  0  0  0  0  0  0  0  0
    1.1404   -0.6399   -0.8840 H   0  0  0  0  0  0  0  0  0  0  0  0
    0.4124    1.1761    0.0000 C   0  0  0  0  0  0  0  0  0  0  0  0
    0.3475    1.7939    1.0609 O   0  0  0  0  0  0  0  0  0  0  0  0
    0.3499    1.7709   -1.1980 N   0  0  0  0  0  0  0  0  0  0  0  0
    0.4118    1.1817   -2.0136 H   0  0  0  0  0  0  0  0  0  0  0  0
    0.1985    3.2115   -1.4126 C   0  0  0  0  0  0  0  0  0  0  0  0
    0.1430    3.7403   -0.4579 H   0  0  0  0  0  0  0  0  0  0  0  0
    1.0522    3.5948   -1.9731 H   0  0  0  0  0  0  0  0  0  0  0  0
   -0.7161    3.4091   -1.9731 H   0  0  0  0  0  0  0  0  0  0  0  0
  5  6  2  0  0  0  0
  5  7  1  0  0  0  0
  2  3  1  0  0  0  0
  2  4  1  0  0  0  0
  2  5  1  0  0  0  0
  1  2  1  0  0  0  0
 12 13  2  0  0  0  0
 12 14  1  0  0  0  0
  9 10  1  0  0  0  0
  9 11  1  0  0  0  0
  9 12  1  0  0  0  0
  7  8  1  0  0  0  0
  7  9  1  0  0  0  0
 16 17  1  0  0  0  0
 16 18  1  0  0  0  0
 16 19  1  0  0  0  0
 14 15  1  0  0  0  0
 14 16  1  0  0  0  0
M  END
$$$$
default_name
  -OEChem-01062215323D

 19 18  0     0  0  0  0  0  0999 V2000
   -2.2056   -4.0049    0.0000 H   0  0  0  0  0  0  0  0  0  0  0  0
   -2.2496   -2.9169    0.0000 C   0  0  0  0  0  0  0  0  0  0  0  0
   -2.7696   -2.5709    0.8910 H   0  0  0  0  0  0  0  0  0  0  0  0
   -2.7696   -2.5709   -0.8910 H   0  0  0  0  0  0  0  0  0  0  0  0
   -0.8406   -2.3699    0.0000 C   0  0  0  0  0  0  0  0  0  0  0  0
    0.1164   -3.1329    0.0000 O   0  0  0  0  0  0  0  0  0  0  0  0
   -0.7136   -1.0459    0.0000 N   0  0  0  0  0  0  0  0  0  0  0  0
   -1.5436   -0.4719    0.0000 H   0  0  0  0  0  0  0  0  0  0  0  0
    0.5724   -0.3469    0.0000 C   0  0  0  0  0  0  0  0  0  0  0  0
    1.1404   -0.6399    0.8840 H   0  0  0  0  0  0  0  0  0  0  0  0
    1.1404   -0.6399   -0.8840 H   0  0  0  0  0  0  0  0  0  0  0  0
    0.4124    1.1761    0.0000 C   0  0  0  0  0  0  0  0  0  0  0  0
    0.6205    1.8226    1.0247 O   0  0  0  0  0  0  0  0  0  0  0  0
    0.0415    1.7385   -1.1572 N   0  0  0  0  0  0  0  0  0  0  0  0
   -0.1065    1.1273   -1.9450 H   0  0  0  0  0  0  0  0  0  0  0  0
   -0.1651    3.1733   -1.3644 C   0  0  0  0  0  0  0  0  0  0  0  0
    0.0251    3.7279   -0.4423 H   0  0  0  0  0  0  0  0  0  0  0  0
    0.5141    3.5383   -2.1360 H   0  0  0  0  0  0  0  0  0  0  0  0
   -1.1939    3.3589   -1.6758 H   0  0  0  0  0  0  0  0  0  0  0  0
  5  6  2  0  0  0  0
  5  7  1  0  0  0  0
  2  3  1  0  0  0  0
  2  4  1  0  0  0  0
  2  5  1  0  0  0  0
  1  2  1  0  0  0  0
 12 13  2  0  0  0  0
 12 14  1  0  0  0  0
  9 10  1  0  0  0  0
  9 11  1  0  0  0  0
  9 12  1  0  0  0  0
  7  8  1  0  0  0  0
  7  9  1  0  0  0  0
 16 17  1  0  0  0  0
 16 18  1  0  0  0  0
 16 19  1  0  0  0  0
 14 15  1  0  0  0  0
 14 16  1  0  0  0  0
M  END
$$$$
default_name
  -OEChem-01062215323D

 19 18  0     0  0  0  0  0  0999 V2000
   -2.2056   -4.0049    0.0000 H   0  0  0  0  0  0  0  0  0  0  0  0
   -2.2496   -2.9169    0.0000 C   0  0  0  0  0  0  0  0  0  0  0  0
   -2.7696   -2.5709    0.8910 H   0  0  0  0  0  0  0  0  0  0  0  0
   -2.7696   -2.5709   -0.8910 H   0  0  0  0  0  0  0  0  0  0  0  0
   -0.8406   -2.3699    0.0000 C   0  0  0  0  0  0  0  0  0  0  0  0
    0.1164   -3.1329    0.0000 O   0  0  0  0  0  0  0  0  0  0  0  0
   -0.7136   -1.0459    0.0000 N   0  0  0  0  0  0  0  0  0  0  0  0
   -1.5436   -0.4719    0.0000 H   0  0  0  0  0  0  0  0  0  0  0  0
    0.5724   -0.3469    0.0000 C   0  0  0  0  0  0  0  0  0  0  0  0
    1.1404   -0.6399    0.8840 H   0  0  0  0  0  0  0  0  0  0  0  0
    1.1404   -0.6399   -0.8840 H   0  0  0  0  0  0  0  0  0  0  0  0
    0.4124    1.1761    0.0000 C   0  0  0  0  0  0  0  0  0  0  0  0
    0.8750    1.8494    0.9188 O   0  0  0  0  0  0  0  0  0  0  0  0
   -0.2459    1.7083   -1.0375 N   0  0  0  0  0  0  0  0  0  0  0  0
   -0.5895    1.0765   -1.7438 H   0  0  0  0  0  0  0  0  0  0  0  0
   -0.5039    3.1377   -1.2233 C   0  0  0  0  0  0  0  0  0  0  0  0
   -0.0847    3.7163   -0.3965 H   0  0  0  0  0  0  0  0  0  0  0  0
   -0.0475    3.4793   -2.1533 H   0  0  0  0  0  0  0  0  0  0  0  0
   -1.5788    3.3184   -1.2643 H   0  0  0  0  0  0  0  0  0  0  0  0
  5  6  2  0  0  0  0
  5  7  1  0  0  0  0
  2  3  1  0  0  0  0
  2  4  1  0  0  0  0
  2  5  1  0  0  0  0
  1  2  1  0  0  0  0
 12 13  2  0  0  0  0
 12 14  1  0  0  0  0
  9 10  1  0  0  0  0
  9 11  1  0  0  0  0
  9 12  1  0  0  0  0
  7  8  1  0  0  0  0
  7  9  1  0  0  0  0
 16 17  1  0  0  0  0
 16 18  1  0  0  0  0
 16 19  1  0  0  0  0
 14 15  1  0  0  0  0
 14 16  1  0  0  0  0
M  END
$$$$
default_name
  -OEChem-01062215323D

 19 18  0     0  0  0  0  0  0999 V2000
   -2.2056   -4.0049    0.0000 H   0  0  0  0  0  0  0  0  0  0  0  0
   -2.2496   -2.9169    0.0000 C   0  0  0  0  0  0  0  0  0  0  0  0
   -2.7696   -2.5709    0.8910 H   0  0  0  0  0  0  0  0  0  0  0  0
   -2.7696   -2.5709   -0.8910 H   0  0  0  0  0  0  0  0  0  0  0  0
   -0.8406   -2.3699    0.0000 C   0  0  0  0  0  0  0  0  0  0  0  0
    0.1164   -3.1329    0.0000 O   0  0  0  0  0  0  0  0  0  0  0  0
   -0.7136   -1.0459    0.0000 N   0  0  0  0  0  0  0  0  0  0  0  0
   -1.5436   -0.4719    0.0000 H   0  0  0  0  0  0  0  0  0  0  0  0
    0.5724   -0.3469    0.0000 C   0  0  0  0  0  0  0  0  0  0  0  0
    1.1404   -0.6399    0.8840 H   0  0  0  0  0  0  0  0  0  0  0  0
    1.1404   -0.6399   -0.8840 H   0  0  0  0  0  0  0  0  0  0  0  0
    0.4124    1.1761    0.0000 C   0  0  0  0  0  0  0  0  0  0  0  0
    1.0935    1.8723    0.7502 O   0  0  0  0  0  0  0  0  0  0  0  0
   -0.4926    1.6824   -0.8471 N   0  0  0  0  0  0  0  0  0  0  0  0
   -1.0043    1.0330   -1.4238 H   0  0  0  0  0  0  0  0  0  0  0  0
   -0.7948    3.1072   -0.9988 C   0  0  0  0  0  0  0  0  0  0  0  0
   -0.1790    3.7064   -0.3238 H   0  0  0  0  0  0  0  0  0  0  0  0
   -0.5944    3.4219   -2.0238 H   0  0  0  0  0  0  0  0  0  0  0  0
   -1.8447    3.2905   -0.7666 H   0  0  0  0  0  0  0  0  0  0  0  0
  5  6  2  0  0  0  0
  5  7  1  0  0  0  0
  2  3  1  0  0  0  0
  2  4  1  0  0  0  0
  2  5  1  0  0  0  0
  1  2  1  0  0  0  0
 12 13  2  0  0  0  0
 12 14  1  0  0  0  0
  9 10  1  0  0  0  0
  9 11  1  0  0  0  0
  9 12  1  0  0  0  0
  7  8  1  0  0  0  0
  7  9  1  0  0  0  0
 16 17  1  0  0  0  0
 16 18  1  0  0  0  0
 16 19  1  0  0  0  0
 14 15  1  0  0  0  0
 14 16  1  0  0  0  0
M  END
$$$$
default_name
  -OEChem-01062215323D

 19 18  0     0  0  0  0  0  0999 V2000
   -2.2056   -4.0049    0.0000 H   0  0  0  0  0  0  0  0  0  0  0  0
   -2.2496   -2.9169    0.0000 C   0  0  0  0  0  0  0  0  0  0  0  0
   -2.7696   -2.5709    0.8910 H   0  0  0  0  0  0  0  0  0  0  0  0
   -2.7696   -2.5709   -0.8910 H   0  0  0  0  0  0  0  0  0  0  0  0
   -0.8406   -2.3699    0.0000 C   0  0  0  0  0  0  0  0  0  0  0  0
    0.1164   -3.1329    0.0000 O   0  0  0  0  0  0  0  0  0  0  0  0
   -0.7136   -1.0459    0.0000 N   0  0  0  0  0  0  0  0  0  0  0  0
   -1.5436   -0.4719    0.0000 H   0  0  0  0  0  0  0  0  0  0  0  0
    0.5724   -0.3469    0.0000 C   0  0  0  0  0  0  0  0  0  0  0  0
    1.1404   -0.6399    0.8840 H   0  0  0  0  0  0  0  0  0  0  0  0
    1.1404   -0.6399   -0.8840 H   0  0  0  0  0  0  0  0  0  0  0  0
    0.4124    1.1761    0.0000 C   0  0  0  0  0  0  0  0  0  0  0  0
    1.2612    1.8899    0.5304 O   0  0  0  0  0  0  0  0  0  0  0  0
   -0.6820    1.6625   -0.5990 N   0  0  0  0  0  0  0  0  0  0  0  0
   -1.3225    0.9995   -1.0068 H   0  0  0  0  0  0  0  0  0  0  0  0
   -1.0181    3.0837   -0.7063 C   0  0  0  0  0  0  0  0  0  0  0  0
   -0.2514    3.6988   -0.2289 H   0  0  0  0  0  0  0  0  0  0  0  0
   -1.0893    3.3699   -1.7565 H   0  0  0  0  0  0  0  0  0  0  0  0
   -1.9735    3.2770   -0.2167 H   0  0  0  0  0  0  0  0  0  0  0  0
  5  6  2  0  0  0  0
  5  7  1  0  0  0  0
  2  3  1  0  0  0  0
  2  4  1  0  0  0  0
  2  5  1  0  0  0  0
  1  2  1  0  0  0  0
 12 13  2  0  0  0  0
 12 14  1  0  0  0  0
  9 10  1  0  0  0  0
  9 11  1  0  0  0  0
  9 12  1  0  0  0  0
  7  8  1  0  0  0  0
  7  9  1  0  0  0  0
 16 17  1  0  0  0  0
 16 18  1  0  0  0  0
 16 19  1  0  0  0  0
 14 15  1  0  0  0  0
 14 16  1  0  0  0  0
M  END
$$$$
default_name
  -OEChem-01062215323D

 19 18  0     0  0  0  0  0  0999 V2000
   -2.2056   -4.0049    0.0000 H   0  0  0  0  0  0  0  0  0  0  0  0
   -2.2496   -2.9169    0.0000 C   0  0  0  0  0  0  0  0  0  0  0  0
   -2.7696   -2.5709    0.8910 H   0  0  0  0  0  0  0  0  0  0  0  0
   -2.7696   -2.5709   -0.8910 H   0  0  0  0  0  0  0  0  0  0  0  0
   -0.8406   -2.3699    0.0000 C   0  0  0  0  0  0  0  0  0  0  0  0
    0.1164   -3.1329    0.0000 O   0  0  0  0  0  0  0  0  0  0  0  0
   -0.7136   -1.0459    0.0000 N   0  0  0  0  0  0  0  0  0  0  0  0
   -1.5436   -0.4719    0.0000 H   0  0  0  0  0  0  0  0  0  0  0  0
    0.5724   -0.3469    0.0000 C   0  0  0  0  0  0  0  0  0  0  0  0
    1.1404   -0.6399    0.8840 H   0  0  0  0  0  0  0  0  0  0  0  0
    1.1404   -0.6399   -0.8840 H   0  0  0  0  0  0  0  0  0  0  0  0
    0.4124    1.1761    0.0000 C   0  0  0  0  0  0  0  0  0  0  0  0
    1.3666    1.9010    0.2746 O   0  0  0  0  0  0  0  0  0  0  0  0
   -0.8010    1.6500   -0.3101 N   0  0  0  0  0  0  0  0  0  0  0  0
   -1.5226    0.9785   -0.5212 H   0  0  0  0  0  0  0  0  0  0  0  0
   -1.1584    3.0690   -0.3656 C   0  0  0  0  0  0  0  0  0  0  0  0
   -0.2969    3.6941   -0.1185 H   0  0  0  0  0  0  0  0  0  0  0  0
   -1.4986    3.3269   -1.3694 H   0  0  0  0  0  0  0  0  0  0  0  0
   -1.9563    3.2788    0.3480 H   0  0  0  0  0  0  0  0  0  0  0  0
  5  6  2  0  0  0  0
  5  7  1  0  0  0  0
  2  3  1  0  0  0  0
  2  4  1  0  0  0  0
  2  5  1  0  0  0  0
  1  2  1  0  0  0  0
 12 13  2  0  0  0  0
 12 14  1  0  0  0  0
  9 10  1  0  0  0  0
  9 11  1  0  0  0  0
  9 12  1  0  0  0  0
  7  8  1  0  0  0  0
  7  9  1  0  0  0  0
 16 17  1  0  0  0  0
 16 18  1  0  0  0  0
 16 19  1  0  0  0  0
 14 15  1  0  0  0  0
 14 16  1  0  0  0  0
M  END
$$$$
default_name
  -OEChem-01062215323D

 19 18  0     0  0  0  0  0  0999 V2000
   -2.2056   -4.0049    0.0000 H   0  0  0  0  0  0  0  0  0  0  0  0
   -2.2496   -2.9169    0.0000 C   0  0  0  0  0  0  0  0  0  0  0  0
   -2.7696   -2.5709    0.8910 H   0  0  0  0  0  0  0  0  0  0  0  0
   -2.7696   -2.5709   -0.8910 H   0  0  0  0  0  0  0  0  0  0  0  0
   -0.8406   -2.3699    0.0000 C   0  0  0  0  0  0  0  0  0  0  0  0
    0.1164   -3.1329    0.0000 O   0  0  0  0  0  0  0  0  0  0  0  0
   -0.7136   -1.0459    0.0000 N   0  0  0  0  0  0  0  0  0  0  0  0
   -1.5436   -0.4719    0.0000 H   0  0  0  0  0  0  0  0  0  0  0  0
    0.5724   -0.3469    0.0000 C   0  0  0  0  0  0  0  0  0  0  0  0
    1.1404   -0.6399    0.8840 H   0  0  0  0  0  0  0  0  0  0  0  0
    1.1404   -0.6399   -0.8840 H   0  0  0  0  0  0  0  0  0  0  0  0
    0.4124    1.1761    0.0000 C   0  0  0  0  0  0  0  0  0  0  0  0
    1.4026    1.9048   -0.0000 O   0  0  0  0  0  0  0  0  0  0  0  0
   -0.8416    1.6458    0.0000 N   0  0  0  0  0  0  0  0  0  0  0  0
   -1.5908    0.9713    0.0000 H   0  0  0  0  0  0  0  0  0  0  0  0
   -1.2063    3.0639    0.0000 C   0  0  0  0  0  0  0  0  0  0  0  0
   -0.3124    3.6924    0.0000 H   0  0  0  0  0  0  0  0  0  0  0  0
   -1.7943    3.2958   -0.8890 H   0  0  0  0  0  0  0  0  0  0  0  0
   -1.7943    3.2958    0.8890 H   0  0  0  0  0  0  0  0  0  0  0  0
  5  6  2  0  0  0  0
  5  7  1  0  0  0  0
  2  3  1  0  0  0  0
  2  4  1  0  0  0  0
  2  5  1  0  0  0  0
  1  2  1  0  0  0  0
 12 13  2  0  0  0  0
 12 14  1  0  0  0  0
  9 10  1  0  0  0  0
  9 11  1  0  0  0  0
  9 12  1  0  0  0  0
  7  8  1  0  0  0  0
  7  9  1  0  0  0  0
 16 17  1  0  0  0  0
 16 18  1  0  0  0  0
 16 19  1  0  0  0  0
 14 15  1  0  0  0  0
 14 16  1  0  0  0  0
M  END
$$$$
default_name
  -OEChem-01062215323D

 19 18  0     0  0  0  0  0  0999 V2000
   -2.2056   -4.0049    0.0000 H   0  0  0  0  0  0  0  0  0  0  0  0
   -2.2496   -2.9169    0.0000 C   0  0  0  0  0  0  0  0  0  0  0  0
   -2.7696   -2.5709    0.8910 H   0  0  0  0  0  0  0  0  0  0  0  0
   -2.7696   -2.5709   -0.8910 H   0  0  0  0  0  0  0  0  0  0  0  0
   -0.8406   -2.3699    0.0000 C   0  0  0  0  0  0  0  0  0  0  0  0
    0.1164   -3.1329    0.0000 O   0  0  0  0  0  0  0  0  0  0  0  0
   -0.7136   -1.0459    0.0000 N   0  0  0  0  0  0  0  0  0  0  0  0
   -1.5436   -0.4719    0.0000 H   0  0  0  0  0  0  0  0  0  0  0  0
    0.5724   -0.3469    0.0000 C   0  0  0  0  0  0  0  0  0  0  0  0
    1.1404   -0.6399    0.8840 H   0  0  0  0  0  0  0  0  0  0  0  0
    1.1404   -0.6399   -0.8840 H   0  0  0  0  0  0  0  0  0  0  0  0
    0.4124    1.1761    0.0000 C   0  0  0  0  0  0  0  0  0  0  0  0
    1.3666    1.9010   -0.2746 O   0  0  0  0  0  0  0  0  0  0  0  0
   -0.8010    1.6500    0.3101 N   0  0  0  0  0  0  0  0  0  0  0  0
   -1.5226    0.9785    0.5212 H   0  0  0  0  0  0  0  0  0  0  0  0
   -1.1584    3.0690    0.3656 C   0  0  0  0  0  0  0  0  0  0  0  0
   -0.2969    3.6941    0.1185 H   0  0  0  0  0  0  0  0  0  0  0  0
   -1.9563    3.2788   -0.3480 H   0  0  0  0  0  0  0  0  0  0  0  0
   -1.4986    3.3269    1.3694 H   0  0  0  0  0  0  0  0  0  0  0  0
  5  6  2  0  0  0  0
  5  7  1  0  0  0  0
  2  3  1  0  0  0  0
  2  4  1  0  0  0  0
  2  5  1  0  0  0  0
  1  2  1  0  0  0  0
 12 13  2  0  0  0  0
 12 14  1  0  0  0  0
  9 10  1  0  0  0  0
  9 11  1  0  0  0  0
  9 12  1  0  0  0  0
  7  8  1  0  0  0  0
  7  9  1  0  0  0  0
 16 17  1  0  0  0  0
 16 18  1  0  0  0  0
 16 19  1  0  0  0  0
 14 15  1  0  0  0  0
 14 16  1  0  0  0  0
M  END
$$$$
default_name
  -OEChem-01062215323D

 19 18  0     0  0  0  0  0  0999 V2000
   -2.2056   -4.0049    0.0000 H   0  0  0  0  0  0  0  0  0  0  0  0
   -2.2496   -2.9169    0.0000 C   0  0  0  0  0  0  0  0  0  0  0  0
   -2.7696   -2.5709    0.8910 H   0  0  0  0  0  0  0  0  0  0  0  0
   -2.7696   -2.5709   -0.8910 H   0  0  0  0  0  0  0  0  0  0  0  0
   -0.8406   -2.3699    0.0000 C   0  0  0  0  0  0  0  0  0  0  0  0
    0.1164   -3.1329    0.0000 O   0  0  0  0  0  0  0  0  0  0  0  0
   -0.7136   -1.0459    0.0000 N   0  0  0  0  0  0  0  0  0  0  0  0
   -1.5436   -0.4719    0.0000 H   0  0  0  0  0  0  0  0  0  0  0  0
    0.5724   -0.3469    0.0000 C   0  0  0  0  0  0  0  0  0  0  0  0
    1.1404   -0.6399    0.8840 H   0  0  0  0  0  0  0  0  0  0  0  0
    1.1404   -0.6399   -0.8840 H   0  0  0  0  0  0  0  0  0  0  0  0
    0.4124    1.1761    0.0000 C   0  0  0  0  0  0  0  0  0  0  0  0
    1.2612    1.8899   -0.5304 O   0  0  0  0  0  0  0  0  0  0  0  0
   -0.6820    1.6625    0.5990 N   0  0  0  0  0  0  0  0  0  0  0  0
   -1.3225    0.9995    1.0068 H   0  0  0  0  0  0  0  0  0  0  0  0
   -1.0181    3.0837    0.7063 C   0  0  0  0  0  0  0  0  0  0  0  0
   -0.2514    3.6988    0.2289 H   0  0  0  0  0  0  0  0  0  0  0  0
   -1.9735    3.2770    0.2167 H   0  0  0  0  0  0  0  0  0  0  0  0
   -1.0893    3.3699    1.7565 H   0  0  0  0  0  0  0  0  0  0  0  0
  5  6  2  0  0  0  0
  5  7  1  0  0  0  0
  2  3  1  0  0  0  0
  2  4  1  0  0  0  0
  2  5  1  0  0  0  0
  1  2  1  0  0  0  0
 12 13  2  0  0  0  0
 12 14  1  0  0  0  0
  9 10  1  0  0  0  0
  9 11  1  0  0  0  0
  9 12  1  0  0  0  0
  7  8  1  0  0  0  0
  7  9  1  0  0  0  0
 16 17  1  0  0  0  0
 16 18  1  0  0  0  0
 16 19  1  0  0  0  0
 14 15  1  0  0  0  0
 14 16  1  0  0  0  0
M  END
$$$$
default_name
  -OEChem-01062215323D

 19 18  0     0  0  0  0  0  0999 V2000
   -2.2056   -4.0049    0.0000 H   0  0  0  0  0  0  0  0  0  0  0  0
   -2.2496   -2.9169    0.0000 C   0  0  0  0  0  0  0  0  0  0  0  0
   -2.7696   -2.5709    0.8910 H   0  0  0  0  0  0  0  0  0  0  0  0
   -2.7696   -2.5709   -0.8910 H   0  0  0  0  0  0  0  0  0  0  0  0
   -0.8406   -2.3699    0.0000 C   0  0  0  0  0  0  0  0  0  0  0  0
    0.1164   -3.1329    0.0000 O   0  0  0  0  0  0  0  0  0  0  0  0
   -0.7136   -1.0459    0.0000 N   0  0  0  0  0  0  0  0  0  0  0  0
   -1.5436   -0.4719    0.0000 H   0  0  0  0  0  0  0  0  0  0  0  0
    0.5724   -0.3469    0.0000 C   0  0  0  0  0  0  0  0  0  0  0  0
    1.1404   -0.6399    0.8840 H   0  0  0  0  0  0  0  0  0  0  0  0
    1.1404   -0.6399   -0.8840 H   0  0  0  0  0  0  0  0  0  0  0  0
    0.4124    1.1761    0.0000 C   0  0  0  0  0  0  0  0  0  0  0  0
    1.0935    1.8723   -0.7502 O   0  0  0  0  0  0  0  0  0  0  0  0
   -0.4926    1.6824    0.8471 N   0  0  0  0  0  0  0  0  0  0  0  0
   -1.0043    1.0330    1.4238 H   0  0  0  0  0  0  0  0  0  0  0  0
   -0.7948    3.1072    0.9988 C   0  0  0  0  0  0  0  0  0  0  0  0
   -0.1790    3.7064    0.3238 H   0  0  0  0  0  0  0  0  0  0  0  0
   -1.8447    3.2905    0.7666 H   0  0  0  0  0  0  0  0  0  0  0  0
   -0.5944    3.4219    2.0238 H   0  0  0  0  0  0  0  0  0  0  0  0
  5  6  2  0  0  0  0
  5  7  1  0  0  0  0
  2  3  1  0  0  0  0
  2  4  1  0  0  0  0
  2  5  1  0  0  0  0
  1  2  1  0  0  0  0
 12 13  2  0  0  0  0
 12 14  1  0  0  0  0
  9 10  1  0  0  0  0
  9 11  1  0  0  0  0
  9 12  1  0  0  0  0
  7  8  1  0  0  0  0
  7  9  1  0  0  0  0
 16 17  1  0  0  0  0
 16 18  1  0  0  0  0
 16 19  1  0  0  0  0
 14 15  1  0  0  0  0
 14 16  1  0  0  0  0
M  END
$$$$
default_name
  -OEChem-01062215323D

 19 18  0     0  0  0  0  0  0999 V2000
   -2.2056   -4.0049    0.0000 H   0  0  0  0  0  0  0  0  0  0  0  0
   -2.2496   -2.9169    0.0000 C   0  0  0  0  0  0  0  0  0  0  0  0
   -2.7696   -2.5709    0.8910 H   0  0  0  0  0  0  0  0  0  0  0  0
   -2.7696   -2.5709   -0.8910 H   0  0  0  0  0  0  0  0  0  0  0  0
   -0.8406   -2.3699    0.0000 C   0  0  0  0  0  0  0  0  0  0  0  0
    0.1164   -3.1329    0.0000 O   0  0  0  0  0  0  0  0  0  0  0  0
   -0.7136   -1.0459    0.0000 N   0  0  0  0  0  0  0  0  0  0  0  0
   -1.5436   -0.4719    0.0000 H   0  0  0  0  0  0  0  0  0  0  0  0
    0.5724   -0.3469    0.0000 C   0  0  0  0  0  0  0  0  0  0  0  0
    1.1404   -0.6399    0.8840 H   0  0  0  0  0  0  0  0  0  0  0  0
    1.1404   -0.6399   -0.8840 H   0  0  0  0  0  0  0  0  0  0  0  0
    0.4124    1.1761    0.0000 C   0  0  0  0  0  0  0  0  0  0  0  0
    0.8750    1.8494   -0.9188 O   0  0  0  0  0  0  0  0  0  0  0  0
   -0.2459    1.7083    1.0375 N   0  0  0  0  0  0  0  0  0  0  0  0
   -0.5895    1.0765    1.7438 H   0  0  0  0  0  0  0  0  0  0  0  0
   -0.5039    3.1377    1.2233 C   0  0  0  0  0  0  0  0  0  0  0  0
   -0.0847    3.7163    0.3965 H   0  0  0  0  0  0  0  0  0  0  0  0
   -1.5788    3.3184    1.2643 H   0  0  0  0  0  0  0  0  0  0  0  0
   -0.0475    3.4793    2.1533 H   0  0  0  0  0  0  0  0  0  0  0  0
  5  6  2  0  0  0  0
  5  7  1  0  0  0  0
  2  3  1  0  0  0  0
  2  4  1  0  0  0  0
  2  5  1  0  0  0  0
  1  2  1  0  0  0  0
 12 13  2  0  0  0  0
 12 14  1  0  0  0  0
  9 10  1  0  0  0  0
  9 11  1  0  0  0  0
  9 12  1  0  0  0  0
  7  8  1  0  0  0  0
  7  9  1  0  0  0  0
 16 17  1  0  0  0  0
 16 18  1  0  0  0  0
 16 19  1  0  0  0  0
 14 15  1  0  0  0  0
 14 16  1  0  0  0  0
M  END
$$$$
default_name
  -OEChem-01062215323D

 19 18  0     0  0  0  0  0  0999 V2000
   -2.2056   -4.0049    0.0000 H   0  0  0  0  0  0  0  0  0  0  0  0
   -2.2496   -2.9169    0.0000 C   0  0  0  0  0  0  0  0  0  0  0  0
   -2.7696   -2.5709    0.8910 H   0  0  0  0  0  0  0  0  0  0  0  0
   -2.7696   -2.5709   -0.8910 H   0  0  0  0  0  0  0  0  0  0  0  0
   -0.8406   -2.3699    0.0000 C   0  0  0  0  0  0  0  0  0  0  0  0
    0.1164   -3.1329    0.0000 O   0  0  0  0  0  0  0  0  0  0  0  0
   -0.7136   -1.0459    0.0000 N   0  0  0  0  0  0  0  0  0  0  0  0
   -1.5436   -0.4719    0.0000 H   0  0  0  0  0  0  0  0  0  0  0  0
    0.5724   -0.3469    0.0000 C   0  0  0  0  0  0  0  0  0  0  0  0
    1.1404   -0.6399    0.8840 H   0  0  0  0  0  0  0  0  0  0  0  0
    1.1404   -0.6399   -0.8840 H   0  0  0  0  0  0  0  0  0  0  0  0
    0.4124    1.1761    0.0000 C   0  0  0  0  0  0  0  0  0  0  0  0
    0.6205    1.8226   -1.0247 O   0  0  0  0  0  0  0  0  0  0  0  0
    0.0415    1.7385    1.1572 N   0  0  0  0  0  0  0  0  0  0  0  0
   -0.1065    1.1273    1.9450 H   0  0  0  0  0  0  0  0  0  0  0  0
   -0.1651    3.1733    1.3644 C   0  0  0  0  0  0  0  0  0  0  0  0
    0.0251    3.7279    0.4423 H   0  0  0  0  0  0  0  0  0  0  0  0
   -1.1939    3.3589    1.6758 H   0  0  0  0  0  0  0  0  0  0  0  0
    0.5141    3.5383    2.1360 H   0  0  0  0  0  0  0  0  0  0  0  0
  5  6  2  0  0  0  0
  5  7  1  0  0  0  0
  2  3  1  0  0  0  0
  2  4  1  0  0  0  0
  2  5  1  0  0  0  0
  1  2  1  0  0  0  0
 12 13  2  0  0  0  0
 12 14  1  0  0  0  0
  9 10  1  0  0  0  0
  9 11  1  0  0  0  0
  9 12  1  0  0  0  0
  7  8  1  0  0  0  0
  7  9  1  0  0  0  0
 16 17  1  0  0  0  0
 16 18  1  0  0  0  0
 16 19  1  0  0  0  0
 14 15  1  0  0  0  0
 14 16  1  0  0  0  0
M  END
$$$$
default_name
  -OEChem-01062215323D

 19 18  0     0  0  0  0  0  0999 V2000
   -2.2056   -4.0049    0.0000 H   0  0  0  0  0  0  0  0  0  0  0  0
   -2.2496   -2.9169    0.0000 C   0  0  0  0  0  0  0  0  0  0  0  0
   -2.7696   -2.5709    0.8910 H   0  0  0  0  0  0  0  0  0  0  0  0
   -2.7696   -2.5709   -0.8910 H   0  0  0  0  0  0  0  0  0  0  0  0
   -0.8406   -2.3699    0.0000 C   0  0  0  0  0  0  0  0  0  0  0  0
    0.1164   -3.1329    0.0000 O   0  0  0  0  0  0  0  0  0  0  0  0
   -0.7136   -1.0459    0.0000 N   0  0  0  0  0  0  0  0  0  0  0  0
   -1.5436   -0.4719    0.0000 H   0  0  0  0  0  0  0  0  0  0  0  0
    0.5724   -0.3469    0.0000 C   0  0  0  0  0  0  0  0  0  0  0  0
    1.1404   -0.6399    0.8840 H   0  0  0  0  0  0  0  0  0  0  0  0
    1.1404   -0.6399   -0.8840 H   0  0  0  0  0  0  0  0  0  0  0  0
    0.4124    1.1761    0.0000 C   0  0  0  0  0  0  0  0  0  0  0  0
    0.3475    1.7939   -1.0609 O   0  0  0  0  0  0  0  0  0  0  0  0
    0.3499    1.7709    1.1980 N   0  0  0  0  0  0  0  0  0  0  0  0
    0.4118    1.1817    2.0136 H   0  0  0  0  0  0  0  0  0  0  0  0
    0.1985    3.2115    1.4126 C   0  0  0  0  0  0  0  0  0  0  0  0
    0.1430    3.7403    0.4579 H   0  0  0  0  0  0  0  0  0  0  0  0
   -0.7161    3.4091    1.9731 H   0  0  0  0  0  0  0  0  0  0  0  0
    1.0522    3.5948    1.9731 H   0  0  0  0  0  0  0  0  0  0  0  0
  5  6  2  0  0  0  0
  5  7  1  0  0  0  0
  2  3  1  0  0  0  0
  2  4  1  0  0  0  0
  2  5  1  0  0  0  0
  1  2  1  0  0  0  0
 12 13  2  0  0  0  0
 12 14  1  0  0  0  0
  9 10  1  0  0  0  0
  9 11  1  0  0  0  0
  9 12  1  0  0  0  0
  7  8  1  0  0  0  0
  7  9  1  0  0  0  0
 16 17  1  0  0  0  0
 16 18  1  0  0  0  0
 16 19  1  0  0  0  0
 14 15  1  0  0  0  0
 14 16  1  0  0  0  0
M  END
$$$$
default_name
  -OEChem-01062215323D

 19 18  0     0  0  0  0  0  0999 V2000
   -2.2056   -4.0049    0.0000 H   0  0  0  0  0  0  0  0  0  0  0  0
   -2.2496   -2.9169    0.0000 C   0  0  0  0  0  0  0  0  0  0  0  0
   -2.7696   -2.5709    0.8910 H   0  0  0  0  0  0  0  0  0  0  0  0
   -2.7696   -2.5709   -0.8910 H   0  0  0  0  0  0  0  0  0  0  0  0
   -0.8406   -2.3699    0.0000 C   0  0  0  0  0  0  0  0  0  0  0  0
    0.1164   -3.1329    0.0000 O   0  0  0  0  0  0  0  0  0  0  0  0
   -0.7136   -1.0459    0.0000 N   0  0  0  0  0  0  0  0  0  0  0  0
   -1.5436   -0.4719    0.0000 H   0  0  0  0  0  0  0  0  0  0  0  0
    0.5724   -0.3469    0.0000 C   0  0  0  0  0  0  0  0  0  0  0  0
    1.1404   -0.6399    0.8840 H   0  0  0  0  0  0  0  0  0  0  0  0
    1.1404   -0.6399   -0.8840 H   0  0  0  0  0  0  0  0  0  0  0  0
    0.4124    1.1761    0.0000 C   0  0  0  0  0  0  0  0  0  0  0  0
    0.0744    1.7653   -1.0247 O   0  0  0  0  0  0  0  0  0  0  0  0
    0.6583    1.8033    1.1572 N   0  0  0  0  0  0  0  0  0  0  0  0
    0.9301    1.2362    1.9450 H   0  0  0  0  0  0  0  0  0  0  0  0
    0.5621    3.2497    1.3644 C   0  0  0  0  0  0  0  0  0  0  0  0
    0.2609    3.7526    0.4423 H   0  0  0  0  0  0  0  0  0  0  0  0
   -0.1781    3.4656    2.1360 H   0  0  0  0  0  0  0  0  0  0  0  0
    1.5299    3.6450    1.6758 H   0  0  0  0  0  0  0  0  0  0  0  0
  5  6  2  0  0  0  0
  5  7  1  0  0  0  0
  2  3  1  0  0  0  0
  2  4  1  0  0  0  0
  2  5  1  0  0  0  0
  1  2  1  0  0  0  0
 12 13  2  0  0  0  0
 12 14  1  0  0  0  0
  9 10  1  0  0  0  0
  9 11  1  0  0  0  0
  9 12  1  0  0  0  0
  7  8  1  0  0  0  0
  7  9  1  0  0  0  0
 16 17  1  0  0  0  0
 16 18  1  0  0  0  0
 16 19  1  0  0  0  0
 14 15  1  0  0  0  0
 14 16  1  0  0  0  0
M  END
$$$$
default_name
  -OEChem-01062215323D

 19 18  0     0  0  0  0  0  0999 V2000
   -2.2056   -4.0049    0.0000 H   0  0  0  0  0  0  0  0  0  0  0  0
   -2.2496   -2.9169    0.0000 C   0  0  0  0  0  0  0  0  0  0  0  0
   -2.7696   -2.5709    0.8910 H   0  0  0  0  0  0  0  0  0  0  0  0
   -2.7696   -2.5709   -0.8910 H   0  0  0  0  0  0  0  0  0  0  0  0
   -0.8406   -2.3699    0.0000 C   0  0  0  0  0  0  0  0  0  0  0  0
    0.1164   -3.1329    0.0000 O   0  0  0  0  0  0  0  0  0  0  0  0
   -0.7136   -1.0459    0.0000 N   0  0  0  0  0  0  0  0  0  0  0  0
   -1.5436   -0.4719    0.0000 H   0  0  0  0  0  0  0  0  0  0  0  0
    0.5724   -0.3469    0.0000 C   0  0  0  0  0  0  0  0  0  0  0  0
    1.1404   -0.6399    0.8840 H   0  0  0  0  0  0  0  0  0  0  0  0
    1.1404   -0.6399   -0.8840 H   0  0  0  0  0  0  0  0  0  0  0  0
    0.4124    1.1761    0.0000 C   0  0  0  0  0  0  0  0  0  0  0  0
   -0.1801    1.7385   -0.9188 O   0  0  0  0  0  0  0  0  0  0  0  0
    0.9456    1.8335    1.0375 N   0  0  0  0  0  0  0  0  0  0  0  0
    1.4131    1.2869    1.7438 H   0  0  0  0  0  0  0  0  0  0  0  0
    0.9010    3.2853    1.2233 C   0  0  0  0  0  0  0  0  0  0  0  0
    0.3707    3.7642    0.3965 H   0  0  0  0  0  0  0  0  0  0  0  0
    0.3835    3.5246    2.1533 H   0  0  0  0  0  0  0  0  0  0  0  0
    1.9149    3.6855    1.2643 H   0  0  0  0  0  0  0  0  0  0  0  0
  5  6  2  0  0  0  0
  5  7  1  0  0  0  0
  2  3  1  0  0  0  0
  2  4  1  0  0  0  0
  2  5  1  0  0  0  0
  1  2  1  0  0  0  0
 12 13  2  0  0  0  0
 12 14  1  0  0  0  0
  9 10  1  0  0  0  0
  9 11  1  0  0  0  0
  9 12  1  0  0  0  0
  7  8  1  0  0  0  0
  7  9  1  0  0  0  0
 16 17  1  0  0  0  0
 16 18  1  0  0  0  0
 16 19  1  0  0  0  0
 14 15  1  0  0  0  0
 14 16  1  0  0  0  0
M  END
$$$$
default_name
  -OEChem-01062215323D

 19 18  0     0  0  0  0  0  0999 V2000
   -2.2056   -4.0049    0.0000 H   0  0  0  0  0  0  0  0  0  0  0  0
   -2.2496   -2.9169    0.0000 C   0  0  0  0  0  0  0  0  0  0  0  0
   -2.7696   -2.5709    0.8910 H   0  0  0  0  0  0  0  0  0  0  0  0
   -2.7696   -2.5709   -0.8910 H   0  0  0  0  0  0  0  0  0  0  0  0
   -0.8406   -2.3699    0.0000 C   0  0  0  0  0  0  0  0  0  0  0  0
    0.1164   -3.1329    0.0000 O   0  0  0  0  0  0  0  0  0  0  0  0
   -0.7136   -1.0459    0.0000 N   0  0  0  0  0  0  0  0  0  0  0  0
   -1.5436   -0.4719    0.0000 H   0  0  0  0  0  0  0  0  0  0  0  0
    0.5724   -0.3469    0.0000 C   0  0  0  0  0  0  0  0  0  0  0  0
    1.1404   -0.6399    0.8840 H   0  0  0  0  0  0  0  0  0  0  0  0
    1.1404   -0.6399   -0.8840 H   0  0  0  0  0  0  0  0  0  0  0  0
    0.4124    1.1761    0.0000 C   0  0  0  0  0  0  0  0  0  0  0  0
   -0.3986    1.7156   -0.7502 O   0  0  0  0  0  0  0  0  0  0  0  0
    1.1924    1.8594    0.8471 N   0  0  0  0  0  0  0  0  0  0  0  0
    1.8278    1.3305    1.4238 H   0  0  0  0  0  0  0  0  0  0  0  0
    1.1919    3.3159    0.9988 C   0  0  0  0  0  0  0  0  0  0  0  0
    0.4650    3.7741    0.3238 H   0  0  0  0  0  0  0  0  0  0  0  0
    0.9304    3.5820    2.0238 H   0  0  0  0  0  0  0  0  0  0  0  0
    2.1808    3.7134    0.7666 H   0  0  0  0  0  0  0  0  0  0  0  0
  5  6  2  0  0  0  0
  5  7  1  0  0  0  0
  2  3  1  0  0  0  0
  2  4  1  0  0  0  0
  2  5  1  0  0  0  0
  1  2  1  0  0  0  0
 12 13  2  0  0  0  0
 12 14  1  0  0  0  0
  9 10  1  0  0  0  0
  9 11  1  0  0  0  0
  9 12  1  0  0  0  0
  7  8  1  0  0  0  0
  7  9  1  0  0  0  0
 16 17  1  0  0  0  0
 16 18  1  0  0  0  0
 16 19  1  0  0  0  0
 14 15  1  0  0  0  0
 14 16  1  0  0  0  0
M  END
$$$$
default_name
  -OEChem-01062215323D

 19 18  0     0  0  0  0  0  0999 V2000
   -2.2056   -4.0049    0.0000 H   0  0  0  0  0  0  0  0  0  0  0  0
   -2.2496   -2.9169    0.0000 C   0  0  0  0  0  0  0  0  0  0  0  0
   -2.7696   -2.5709    0.8910 H   0  0  0  0  0  0  0  0  0  0  0  0
   -2.7696   -2.5709   -0.8910 H   0  0  0  0  0  0  0  0  0  0  0  0
   -0.8406   -2.3699    0.0000 C   0  0  0  0  0  0  0  0  0  0  0  0
    0.1164   -3.1329    0.0000 O   0  0  0  0  0  0  0  0  0  0  0  0
   -0.7136   -1.0459    0.0000 N   0  0  0  0  0  0  0  0  0  0  0  0
   -1.5436   -0.4719    0.0000 H   0  0  0  0  0  0  0  0  0  0  0  0
    0.5724   -0.3469    0.0000 C   0  0  0  0  0  0  0  0  0  0  0  0
    1.1404   -0.6399    0.8840 H   0  0  0  0  0  0  0  0  0  0  0  0
    1.1404   -0.6399   -0.8840 H   0  0  0  0  0  0  0  0  0  0  0  0
    0.4124    1.1761    0.0000 C   0  0  0  0  0  0  0  0  0  0  0  0
   -0.5663    1.6980   -0.5304 O   0  0  0  0  0  0  0  0  0  0  0  0
    1.3817    1.8793    0.5990 N   0  0  0  0  0  0  0  0  0  0  0  0
    2.1461    1.3639    1.0068 H   0  0  0  0  0  0  0  0  0  0  0  0
    1.4152    3.3393    0.7063 C   0  0  0  0  0  0  0  0  0  0  0  0
    0.5374    3.7817    0.2289 H   0  0  0  0  0  0  0  0  0  0  0  0
    1.4254    3.6340    1.7565 H   0  0  0  0  0  0  0  0  0  0  0  0
    2.3095    3.7269    0.2167 H   0  0  0  0  0  0  0  0  0  0  0  0
  5  6  2  0  0  0  0
  5  7  1  0  0  0  0
  2  3  1  0  0  0  0
  2  4  1  0  0  0  0
  2  5  1  0  0  0  0
  1  2  1  0  0  0  0
 12 13  2  0  0  0  0
 12 14  1  0  0  0  0
  9 10  1  0  0  0  0
  9 11  1  0  0  0  0
  9 12  1  0  0  0  0
  7  8  1  0  0  0  0
  7  9  1  0  0  0  0
 16 17  1  0  0  0  0
 16 18  1  0  0  0  0
 16 19  1  0  0  0  0
 14 15  1  0  0  0  0
 14 16  1  0  0  0  0
M  END
$$$$
default_name
  -OEChem-01062215323D

 19 18  0     0  0  0  0  0  0999 V2000
   -2.2056   -4.0049    0.0000 H   0  0  0  0  0  0  0  0  0  0  0  0
   -2.2496   -2.9169    0.0000 C   0  0  0  0  0  0  0  0  0  0  0  0
   -2.7696   -2.5709    0.8910 H   0  0  0  0  0  0  0  0  0  0  0  0
   -2.7696   -2.5709   -0.8910 H   0  0  0  0  0  0  0  0  0  0  0  0
   -0.8406   -2.3699    0.0000 C   0  0  0  0  0  0  0  0  0  0  0  0
    0.1164   -3.1329    0.0000 O   0  0  0  0  0  0  0  0  0  0  0  0
   -0.7136   -1.0459    0.0000 N   0  0  0  0  0  0  0  0  0  0  0  0
   -1.5436   -0.4719    0.0000 H   0  0  0  0  0  0  0  0  0  0  0  0
    0.5724   -0.3469    0.0000 C   0  0  0  0  0  0  0  0  0  0  0  0
    1.1404   -0.6399    0.8840 H   0  0  0  0  0  0  0  0  0  0  0  0
    1.1404   -0.6399   -0.8840 H   0  0  0  0  0  0  0  0  0  0  0  0
    0.4124    1.1761    0.0000 C   0  0  0  0  0  0  0  0  0  0  0  0
   -0.6717    1.6869   -0.2746 O   0  0  0  0  0  0  0  0  0  0  0  0
    1.5008    1.8918    0.3101 N   0  0  0  0  0  0  0  0  0  0  0  0
    2.3461    1.3849    0.5212 H   0  0  0  0  0  0  0  0  0  0  0  0
    1.5555    3.3541    0.3656 C   0  0  0  0  0  0  0  0  0  0  0  0
    0.5829    3.7865    0.1185 H   0  0  0  0  0  0  0  0  0  0  0  0
    1.8347    3.6770    1.3694 H   0  0  0  0  0  0  0  0  0  0  0  0
    2.2923    3.7251   -0.3480 H   0  0  0  0  0  0  0  0  0  0  0  0
  5  6  2  0  0  0  0
  5  7  1  0  0  0  0
  2  3  1  0  0  0  0
  2  4  1  0  0  0  0
  2  5  1  0  0  0  0
  1  2  1  0  0  0  0
 12 13  2  0  0  0  0
 12 14  1  0  0  0  0
  9 10  1  0  0  0  0
  9 11  1  0  0  0  0
  9 12  1  0  0  0  0
  7  8  1  0  0  0  0
  7  9  1  0  0  0  0
 16 17  1  0  0  0  0
 16 18  1  0  0  0  0
 16 19  1  0  0  0  0
 14 15  1  0  0  0  0
 14 16  1  0  0  0  0
M  END
$$$$
default_name
  -OEChem-01062215323D

 19 18  0     0  0  0  0  0  0999 V2000
   -2.2056   -4.0049    0.0000 H   0  0  0  0  0  0  0  0  0  0  0  0
   -2.2496   -2.9169    0.0000 C   0  0  0  0  0  0  0  0  0  0  0  0
   -2.7696   -2.5709    0.8910 H   0  0  0  0  0  0  0  0  0  0  0  0
   -2.7696   -2.5709   -0.8910 H   0  0  0  0  0  0  0  0  0  0  0  0
   -0.8406   -2.3699    0.0000 C   0  0  0  0  0  0  0  0  0  0  0  0
    0.1164   -3.1329    0.0000 O   0  0  0  0  0  0  0  0  0  0  0  0
   -0.7136   -1.0459    0.0000 N   0  0  0  0  0  0  0  0  0  0  0  0
   -1.5436   -0.4719    0.0000 H   0  0  0  0  0  0  0  0  0  0  0  0
    0.5724   -0.3469    0.0000 C   0  0  0  0  0  0  0  0  0  0  0  0
    1.2410   -0.8251    0.7170 H   0  0  0  0  0  0  0  0  0  0  0  0
    1.0225   -0.4230   -0.9907 H   0  0  0  0  0  0  0  0  0  0  0  0
    0.4354    1.1338    0.3661 C   0  0  0  0  0  0  0  0  0  0  0  0
   -0.6687    1.6114    0.6198 O   0  0  0  0  0  0  0  0  0  0  0  0
    1.5659    1.8510    0.3903 N   0  0  0  0  0  0  0  0  0  0  0  0
    2.4249    1.3727    0.1678 H   0  0  0  0  0  0  0  0  0  0  0  0
    1.6483    3.2764    0.7153 C   0  0  0  0  0  0  0  0  0  0  0  0
    0.6573    3.6797    0.9371 H   0  0  0  0  0  0  0  0  0  0  0  0
    2.2861    3.4216    1.5882 H   0  0  0  0  0  0  0  0  0  0  0  0
    2.0664    3.8259   -0.1292 H   0  0  0  0  0  0  0  0  0  0  0  0
  5  6  2  0  0  0  0
  5  7  1  0  0  0  0
  2  3  1  0  0  0  0
  2  4  1  0  0  0  0
  2  5  1  0  0  0  0
  1  2  1  0  0  0  0
 12 13  2  0  0  0  0
 12 14  1  0  0  0  0
  9 10  1  0  0  0  0
  9 11  1  0  0  0  0
  9 12  1  0  0  0  0
  7  8  1  0  0  0  0
  7  9  1  0  0  0  0
 16 17  1  0  0  0  0
 16 18  1  0  0  0  0
 16 19  1  0  0  0  0
 14 15  1  0  0  0  0
 14 16  1  0  0  0  0
M  END
$$$$
default_name
  -OEChem-01062215323D

 19 18  0     0  0  0  0  0  0999 V2000
   -2.2056   -4.0049    0.0000 H   0  0  0  0  0  0  0  0  0  0  0  0
   -2.2496   -2.9169    0.0000 C   0  0  0  0  0  0  0  0  0  0  0  0
   -2.7696   -2.5709    0.8910 H   0  0  0  0  0  0  0  0  0  0  0  0
   -2.7696   -2.5709   -0.8910 H   0  0  0  0  0  0  0  0  0  0  0  0
   -0.8406   -2.3699    0.0000 C   0  0  0  0  0  0  0  0  0  0  0  0
    0.1164   -3.1329    0.0000 O   0  0  0  0  0  0  0  0  0  0  0  0
   -0.7136   -1.0459    0.0000 N   0  0  0  0  0  0  0  0  0  0  0  0
   -1.5436   -0.4719    0.0000 H   0  0  0  0  0  0  0  0  0  0  0  0
    0.5724   -0.3469    0.0000 C   0  0  0  0  0  0  0  0  0  0  0  0
    1.2410   -0.8251    0.7170 H   0  0  0  0  0  0  0  0  0  0  0  0
    1.0225   -0.4230   -0.9907 H   0  0  0  0  0  0  0  0  0  0  0  0
    0.4354    1.1338    0.3661 C   0  0  0  0  0  0  0  0  0  0  0  0
   -0.5990    1.5532    0.8815 O   0  0  0  0  0  0  0  0  0  0  0  0
    1.4872    1.9167    0.0948 N   0  0  0  0  0  0  0  0  0  0  0  0
    2.2927    1.4833   -0.3288 H   0  0  0  0  0  0  0  0  0  0  0  0
    1.5556    3.3539    0.3669 C   0  0  0  0  0  0  0  0  0  0  0  0
    0.6272    3.7049    0.8242 H   0  0  0  0  0  0  0  0  0  0  0  0
    2.3802    3.5635    1.0495 H   0  0  0  0  0  0  0  0  0  0  0  0
    1.7131    3.9006   -0.5637 H   0  0  0  0  0  0  0  0  0  0  0  0
  5  6  2  0  0  0  0
  5  7  1  0  0  0  0
  2  3  1  0  0  0  0
  2  4  1  0  0  0  0
  2  5  1  0  0  0  0
  1  2  1  0  0  0  0
 12 13  2  0  0  0  0
 12 14  1  0  0  0  0
  9 10  1  0  0  0  0
  9 11  1  0  0  0  0
  9 12  1  0  0  0  0
  7  8  1  0  0  0  0
  7  9  1  0  0  0  0
 16 17  1  0  0  0  0
 16 18  1  0  0  0  0
 16 19  1  0  0  0  0
 14 15  1  0  0  0  0
 14 16  1  0  0  0  0
M  END
$$$$
default_name
  -OEChem-01062215323D

 19 18  0     0  0  0  0  0  0999 V2000
   -2.2056   -4.0049    0.0000 H   0  0  0  0  0  0  0  0  0  0  0  0
   -2.2496   -2.9169    0.0000 C   0  0  0  0  0  0  0  0  0  0  0  0
   -2.7696   -2.5709    0.8910 H   0  0  0  0  0  0  0  0  0  0  0  0
   -2.7696   -2.5709   -0.8910 H   0  0  0  0  0  0  0  0  0  0  0  0
   -0.8406   -2.3699    0.0000 C   0  0  0  0  0  0  0  0  0  0  0  0
    0.1164   -3.1329    0.0000 O   0  0  0  0  0  0  0  0  0  0  0  0
   -0.7136   -1.0459    0.0000 N   0  0  0  0  0  0  0  0  0  0  0  0
   -1.5436   -0.4719    0.0000 H   0  0  0  0  0  0  0  0  0  0  0  0
    0.5724   -0.3469    0.0000 C   0  0  0  0  0  0  0  0  0  0  0  0
    1.2410   -0.8251    0.7170 H   0  0  0  0  0  0  0  0  0  0  0  0
    1.0225   -0.4230   -0.9907 H   0  0  0  0  0  0  0  0  0  0  0  0
    0.4354    1.1338    0.3661 C   0  0  0  0  0  0  0  0  0  0  0  0
   -0.4626    1.5073    1.1181 O   0  0  0  0  0  0  0  0  0  0  0  0
    1.3332    1.9686   -0.1724 N   0  0  0  0  0  0  0  0  0  0  0  0
    2.0339    1.5704   -0.7780 H   0  0  0  0  0  0  0  0  0  0  0  0
    1.3740    3.4150    0.0519 C   0  0  0  0  0  0  0  0  0  0  0  0
    0.5684    3.7247    0.7220 H   0  0  0  0  0  0  0  0  0  0  0  0
    2.3275    3.6939    0.5024 H   0  0  0  0  0  0  0  0  0  0  0  0
    1.2586    3.9409   -0.8968 H   0  0  0  0  0  0  0  0  0  0  0  0
  5  6  2  0  0  0  0
  5  7  1  0  0  0  0
  2  3  1  0  0  0  0
  2  4  1  0  0  0  0
  2  5  1  0  0  0  0
  1  2  1  0  0  0  0
 12 13  2  0  0  0  0
 12 14  1  0  0  0  0
  9 10  1  0  0  0  0
  9 11  1  0  0  0  0
  9 12  1  0  0  0  0
  7  8  1  0  0  0  0
  7  9  1  0  0  0  0
 16 17  1  0  0  0  0
 16 18  1  0  0  0  0
 16 19  1  0  0  0  0
 14 15  1  0  0  0  0
 14 16  1  0  0  0  0
M  END
$$$$
default_name
  -OEChem-01062215323D

 19 18  0     0  0  0  0  0  0999 V2000
   -2.2056   -4.0049    0.0000 H   0  0  0  0  0  0  0  0  0  0  0  0
   -2.2496   -2.9169    0.0000 C   0  0  0  0  0  0  0  0  0  0  0  0
   -2.7696   -2.5709    0.8910 H   0  0  0  0  0  0  0  0  0  0  0  0
   -2.7696   -2.5709   -0.8910 H   0  0  0  0  0  0  0  0  0  0  0  0
   -0.8406   -2.3699    0.0000 C   0  0  0  0  0  0  0  0  0  0  0  0
    0.1164   -3.1329    0.0000 O   0  0  0  0  0  0  0  0  0  0  0  0
   -0.7136   -1.0459    0.0000 N   0  0  0  0  0  0  0  0  0  0  0  0
   -1.5436   -0.4719    0.0000 H   0  0  0  0  0  0  0  0  0  0  0  0
    0.5724   -0.3469    0.0000 C   0  0  0  0  0  0  0  0  0  0  0  0
    1.2410   -0.8251    0.7170 H   0  0  0  0  0  0  0  0  0  0  0  0
    1.0225   -0.4230   -0.9907 H   0  0  0  0  0  0  0  0  0  0  0  0
    0.4354    1.1338    0.3661 C   0  0  0  0  0  0  0  0  0  0  0  0
   -0.2688    1.4769    1.3136 O   0  0  0  0  0  0  0  0  0  0  0  0
    1.1144    2.0029   -0.3932 N   0  0  0  0  0  0  0  0  0  0  0  0
    1.6661    1.6281   -1.1491 H   0  0  0  0  0  0  0  0  0  0  0  0
    1.1160    3.4555   -0.2085 C   0  0  0  0  0  0  0  0  0  0  0  0
    0.4847    3.7378    0.6376 H   0  0  0  0  0  0  0  0  0  0  0  0
    2.1316    3.8039   -0.0160 H   0  0  0  0  0  0  0  0  0  0  0  0
    0.7337    3.9440   -1.1057 H   0  0  0  0  0  0  0  0  0  0  0  0
  5  6  2  0  0  0  0
  5  7  1  0  0  0  0
  2  3  1  0  0  0  0
  2  4  1  0  0  0  0
  2  5  1  0  0  0  0
  1  2  1  0  0  0  0
 12 13  2  0  0  0  0
 12 14  1  0  0  0  0
  9 10  1  0  0  0  0
  9 11  1  0  0  0  0
  9 12  1  0  0  0  0
  7  8  1  0  0  0  0
  7  9  1  0  0  0  0
 16 17  1  0  0  0  0
 16 18  1  0  0  0  0
 16 19  1  0  0  0  0
 14 15  1  0  0  0  0
 14 16  1  0  0  0  0
M  END
$$$$
default_name
  -OEChem-01062215323D

 19 18  0     0  0  0  0  0  0999 V2000
   -2.2056   -4.0049    0.0000 H   0  0  0  0  0  0  0  0  0  0  0  0
   -2.2496   -2.9169    0.0000 C   0  0  0  0  0  0  0  0  0  0  0  0
   -2.7696   -2.5709    0.8910 H   0  0  0  0  0  0  0  0  0  0  0  0
   -2.7696   -2.5709   -0.8910 H   0  0  0  0  0  0  0  0  0  0  0  0
   -0.8406   -2.3699    0.0000 C   0  0  0  0  0  0  0  0  0  0  0  0
    0.1164   -3.1329    0.0000 O   0  0  0  0  0  0  0  0  0  0  0  0
   -0.7136   -1.0459    0.0000 N   0  0  0  0  0  0  0  0  0  0  0  0
   -1.5436   -0.4719    0.0000 H   0  0  0  0  0  0  0  0  0  0  0  0
    0.5724   -0.3469    0.0000 C   0  0  0  0  0  0  0  0  0  0  0  0
    1.2410   -0.8251    0.7170 H   0  0  0  0  0  0  0  0  0  0  0  0
    1.0225   -0.4230   -0.9907 H   0  0  0  0  0  0  0  0  0  0  0  0
    0.4354    1.1338    0.3661 C   0  0  0  0  0  0  0  0  0  0  0  0
   -0.0309    1.4640    1.4547 O   0  0  0  0  0  0  0  0  0  0  0  0
    0.8457    2.0174   -0.5525 N   0  0  0  0  0  0  0  0  0  0  0  0
    1.2144    1.6525   -1.4168 H   0  0  0  0  0  0  0  0  0  0  0  0
    0.7991    3.4727   -0.3963 C   0  0  0  0  0  0  0  0  0  0  0  0
    0.3820    3.7433    0.5768 H   0  0  0  0  0  0  0  0  0  0  0  0
    1.8058    3.8861   -0.4702 H   0  0  0  0  0  0  0  0  0  0  0  0
    0.1742    3.9097   -1.1762 H   0  0  0  0  0  0  0  0  0  0  0  0
  5  6  2  0  0  0  0
  5  7  1  0  0  0  0
  2  3  1  0  0  0  0
  2  4  1  0  0  0  0
  2  5  1  0  0  0  0
  1  2  1  0  0  0  0
 12 13  2  0  0  0  0
 12 14  1  0  0  0  0
  9 10  1  0  0  0  0
  9 11  1  0  0  0  0
  9 12  1  0  0  0  0
  7  8  1  0  0  0  0
  7  9  1  0  0  0  0
 16 17  1  0  0  0  0
 16 18  1  0  0  0  0
 16 19  1  0  0  0  0
 14 15  1  0  0  0  0
 14 16  1  0  0  0  0
M  END
$$$$
default_name
  -OEChem-01062215323D

 19 18  0     0  0  0  0  0  0999 V2000
   -2.2056   -4.0049    0.0000 H   0  0  0  0  0  0  0  0  0  0  0  0
   -2.2496   -2.9169    0.0000 C   0  0  0  0  0  0  0  0  0  0  0  0
   -2.7696   -2.5709    0.8910 H   0  0  0  0  0  0  0  0  0  0  0  0
   -2.7696   -2.5709   -0.8910 H   0  0  0  0  0  0  0  0  0  0  0  0
   -0.8406   -2.3699    0.0000 C   0  0  0  0  0  0  0  0  0  0  0  0
    0.1164   -3.1329    0.0000 O   0  0  0  0  0  0  0  0  0  0  0  0
   -0.7136   -1.0459    0.0000 N   0  0  0  0  0  0  0  0  0  0  0  0
   -1.5436   -0.4719    0.0000 H   0  0  0  0  0  0  0  0  0  0  0  0
    0.5724   -0.3469    0.0000 C   0  0  0  0  0  0  0  0  0  0  0  0
    1.2410   -0.8251    0.7170 H   0  0  0  0  0  0  0  0  0  0  0  0
    1.0225   -0.4230   -0.9907 H   0  0  0  0  0  0  0  0  0  0  0  0
    0.4354    1.1338    0.3661 C   0  0  0  0  0  0  0  0  0  0  0  0
    0.2351    1.4696    1.5317 O   0  0  0  0  0  0  0  0  0  0  0  0
    0.5453    2.0112   -0.6395 N   0  0  0  0  0  0  0  0  0  0  0  0
    0.7095    1.6419   -1.5630 H   0  0  0  0  0  0  0  0  0  0  0  0
    0.4450    3.4652   -0.4988 C   0  0  0  0  0  0  0  0  0  0  0  0
    0.2672    3.7409    0.5435 H   0  0  0  0  0  0  0  0  0  0  0  0
    1.3724    3.9348   -0.8293 H   0  0  0  0  0  0  0  0  0  0  0  0
   -0.3818    3.8403   -1.1035 H   0  0  0  0  0  0  0  0  0  0  0  0
  5  6  2  0  0  0  0
  5  7  1  0  0  0  0
  2  3  1  0  0  0  0
  2  4  1  0  0  0  0
  2  5  1  0  0  0  0
  1  2  1  0  0  0  0
 12 13  2  0  0  0  0
 12 14  1  0  0  0  0
  9 10  1  0  0  0  0
  9 11  1  0  0  0  0
  9 12  1  0  0  0  0
  7  8  1  0  0  0  0
  7  9  1  0  0  0  0
 16 17  1  0  0  0  0
 16 18  1  0  0  0  0
 16 19  1  0  0  0  0
 14 15  1  0  0  0  0
 14 16  1  0  0  0  0
M  END
$$$$
default_name
  -OEChem-01062215323D

 19 18  0     0  0  0  0  0  0999 V2000
   -2.2056   -4.0049    0.0000 H   0  0  0  0  0  0  0  0  0  0  0  0
   -2.2496   -2.9169    0.0000 C   0  0  0  0  0  0  0  0  0  0  0  0
   -2.7696   -2.5709    0.8910 H   0  0  0  0  0  0  0  0  0  0  0  0
   -2.7696   -2.5709   -0.8910 H   0  0  0  0  0  0  0  0  0  0  0  0
   -0.8406   -2.3699    0.0000 C   0  0  0  0  0  0  0  0  0  0  0  0
    0.1164   -3.1329    0.0000 O   0  0  0  0  0  0  0  0  0  0  0  0
   -0.7136   -1.0459    0.0000 N   0  0  0  0  0  0  0  0  0  0  0  0
   -1.5436   -0.4719    0.0000 H   0  0  0  0  0  0  0  0  0  0  0  0
    0.5724   -0.3469    0.0000 C   0  0  0  0  0  0  0  0  0  0  0  0
    1.2410   -0.8251    0.7170 H   0  0  0  0  0  0  0  0  0  0  0  0
    1.0225   -0.4230   -0.9907 H   0  0  0  0  0  0  0  0  0  0  0  0
    0.4354    1.1338    0.3661 C   0  0  0  0  0  0  0  0  0  0  0  0
    0.5109    1.4932    1.5394 O   0  0  0  0  0  0  0  0  0  0  0  0
    0.2338    1.9845   -0.6481 N   0  0  0  0  0  0  0  0  0  0  0  0
    0.1860    1.5971   -1.5775 H   0  0  0  0  0  0  0  0  0  0  0  0
    0.0777    3.4338   -0.5090 C   0  0  0  0  0  0  0  0  0  0  0  0
    0.1482    3.7307    0.5402 H   0  0  0  0  0  0  0  0  0  0  0  0
    0.8609    3.9467   -1.0689 H   0  0  0  0  0  0  0  0  0  0  0  0
   -0.8963    3.7405   -0.8925 H   0  0  0  0  0  0  0  0  0  0  0  0
  5  6  2  0  0  0  0
  5  7  1  0  0  0  0
  2  3  1  0  0  0  0
  2  4  1  0  0  0  0
  2  5  1  0  0  0  0
  1  2  1  0  0  0  0
 12 13  2  0  0  0  0
 12 14  1  0  0  0  0
  9 10  1  0  0  0  0
  9 11  1  0  0  0  0
  9 12  1  0  0  0  0
  7  8  1  0  0  0  0
  7  9  1  0  0  0  0
 16 17  1  0  0  0  0
 16 18  1  0  0  0  0
 16 19  1  0  0  0  0
 14 15  1  0  0  0  0
 14 16  1  0  0  0  0
M  END
$$$$
default_name
  -OEChem-01062215323D

 19 18  0     0  0  0  0  0  0999 V2000
   -2.2056   -4.0049    0.0000 H   0  0  0  0  0  0  0  0  0  0  0  0
   -2.2496   -2.9169    0.0000 C   0  0  0  0  0  0  0  0  0  0  0  0
   -2.7696   -2.5709    0.8910 H   0  0  0  0  0  0  0  0  0  0  0  0
   -2.7696   -2.5709   -0.8910 H   0  0  0  0  0  0  0  0  0  0  0  0
   -0.8406   -2.3699    0.0000 C   0  0  0  0  0  0  0  0  0  0  0  0
    0.1164   -3.1329    0.0000 O   0  0  0  0  0  0  0  0  0  0  0  0
   -0.7136   -1.0459    0.0000 N   0  0  0  0  0  0  0  0  0  0  0  0
   -1.5436   -0.4719    0.0000 H   0  0  0  0  0  0  0  0  0  0  0  0
    0.5724   -0.3469    0.0000 C   0  0  0  0  0  0  0  0  0  0  0  0
    1.2410   -0.8251    0.7170 H   0  0  0  0  0  0  0  0  0  0  0  0
    1.0225   -0.4230   -0.9907 H   0  0  0  0  0  0  0  0  0  0  0  0
    0.4354    1.1338    0.3661 C   0  0  0  0  0  0  0  0  0  0  0  0
    0.7778    1.5332    1.4772 O   0  0  0  0  0  0  0  0  0  0  0  0
   -0.0676    1.9392   -0.5780 N   0  0  0  0  0  0  0  0  0  0  0  0
   -0.3206    1.5211   -1.4596 H   0  0  0  0  0  0  0  0  0  0  0  0
   -0.2776    3.3805   -0.4263 C   0  0  0  0  0  0  0  0  0  0  0  0
    0.0330    3.7135    0.5670 H   0  0  0  0  0  0  0  0  0  0  0  0
    0.3061    3.9210   -1.1725 H   0  0  0  0  0  0  0  0  0  0  0  0
   -1.3343    3.6172   -0.5577 H   0  0  0  0  0  0  0  0  0  0  0  0
  5  6  2  0  0  0  0
  5  7  1  0  0  0  0
  2  3  1  0  0  0  0
  2  4  1  0  0  0  0
  2  5  1  0  0  0  0
  1  2  1  0  0  0  0
 12 13  2  0  0  0  0
 12 14  1  0  0  0  0
  9 10  1  0  0  0  0
  9 11  1  0  0  0  0
  9 12  1  0  0  0  0
  7  8  1  0  0  0  0
  7  9  1  0  0  0  0
 16 17  1  0  0  0  0
 16 18  1  0  0  0  0
 16 19  1  0  0  0  0
 14 15  1  0  0  0  0
 14 16  1  0  0  0  0
M  END
$$$$
default_name
  -OEChem-01062215323D

 19 18  0     0  0  0  0  0  0999 V2000
   -2.2056   -4.0049    0.0000 H   0  0  0  0  0  0  0  0  0  0  0  0
   -2.2496   -2.9169    0.0000 C   0  0  0  0  0  0  0  0  0  0  0  0
   -2.7696   -2.5709    0.8910 H   0  0  0  0  0  0  0  0  0  0  0  0
   -2.7696   -2.5709   -0.8910 H   0  0  0  0  0  0  0  0  0  0  0  0
   -0.8406   -2.3699    0.0000 C   0  0  0  0  0  0  0  0  0  0  0  0
    0.1164   -3.1329    0.0000 O   0  0  0  0  0  0  0  0  0  0  0  0
   -0.7136   -1.0459    0.0000 N   0  0  0  0  0  0  0  0  0  0  0  0
   -1.5436   -0.4719    0.0000 H   0  0  0  0  0  0  0  0  0  0  0  0
    0.5724   -0.3469    0.0000 C   0  0  0  0  0  0  0  0  0  0  0  0
    1.2410   -0.8251    0.7170 H   0  0  0  0  0  0  0  0  0  0  0  0
    1.0225   -0.4230   -0.9907 H   0  0  0  0  0  0  0  0  0  0  0  0
    0.4354    1.1338    0.3661 C   0  0  0  0  0  0  0  0  0  0  0  0
    1.0176    1.5870    1.3495 O   0  0  0  0  0  0  0  0  0  0  0  0
   -0.3384    1.8785   -0.4337 N   0  0  0  0  0  0  0  0  0  0  0  0
   -0.7757    1.4190   -1.2171 H   0  0  0  0  0  0  0  0  0  0  0  0
   -0.5969    3.3089   -0.2562 C   0  0  0  0  0  0  0  0  0  0  0  0
   -0.0705    3.6902    0.6222 H   0  0  0  0  0  0  0  0  0  0  0  0
   -0.2541    3.8595   -1.1332 H   0  0  0  0  0  0  0  0  0  0  0  0
   -1.6660    3.4788   -0.1218 H   0  0  0  0  0  0  0  0  0  0  0  0
  5  6  2  0  0  0  0
  5  7  1  0  0  0  0
  2  3  1  0  0  0  0
  2  4  1  0  0  0  0
  2  5  1  0  0  0  0
  1  2  1  0  0  0  0
 12 13  2  0  0  0  0
 12 14  1  0  0  0  0
  9 10  1  0  0  0  0
  9 11  1  0  0  0  0
  9 12  1  0  0  0  0
  7  8  1  0  0  0  0
  7  9  1  0  0  0  0
 16 17  1  0  0  0  0
 16 18  1  0  0  0  0
 16 19  1  0  0  0  0
 14 15  1  0  0  0  0
 14 16  1  0  0  0  0
M  END
$$$$
default_name
  -OEChem-01062215323D

 19 18  0     0  0  0  0  0  0999 V2000
   -2.2056   -4.0049    0.0000 H   0  0  0  0  0  0  0  0  0  0  0  0
   -2.2496   -2.9169    0.0000 C   0  0  0  0  0  0  0  0  0  0  0  0
   -2.7696   -2.5709    0.8910 H   0  0  0  0  0  0  0  0  0  0  0  0
   -2.7696   -2.5709   -0.8910 H   0  0  0  0  0  0  0  0  0  0  0  0
   -0.8406   -2.3699    0.0000 C   0  0  0  0  0  0  0  0  0  0  0  0
    0.1164   -3.1329    0.0000 O   0  0  0  0  0  0  0  0  0  0  0  0
   -0.7136   -1.0459    0.0000 N   0  0  0  0  0  0  0  0  0  0  0  0
   -1.5436   -0.4719    0.0000 H   0  0  0  0  0  0  0  0  0  0  0  0
    0.5724   -0.3469    0.0000 C   0  0  0  0  0  0  0  0  0  0  0  0
    1.2410   -0.8251    0.7170 H   0  0  0  0  0  0  0  0  0  0  0  0
    1.0225   -0.4230   -0.9907 H   0  0  0  0  0  0  0  0  0  0  0  0
    0.4354    1.1338    0.3661 C   0  0  0  0  0  0  0  0  0  0  0  0
    1.2139    1.6508    1.1648 O   0  0  0  0  0  0  0  0  0  0  0  0
   -0.5601    1.8065   -0.2252 N   0  0  0  0  0  0  0  0  0  0  0  0
   -1.1483    1.2979   -0.8667 H   0  0  0  0  0  0  0  0  0  0  0  0
   -0.8583    3.2239   -0.0104 C   0  0  0  0  0  0  0  0  0  0  0  0
   -0.1552    3.6627    0.7019 H   0  0  0  0  0  0  0  0  0  0  0  0
   -0.7816    3.7663   -0.9537 H   0  0  0  0  0  0  0  0  0  0  0  0
   -1.8687    3.3346    0.3854 H   0  0  0  0  0  0  0  0  0  0  0  0
  5  6  2  0  0  0  0
  5  7  1  0  0  0  0
  2  3  1  0  0  0  0
  2  4  1  0  0  0  0
  2  5  1  0  0  0  0
  1  2  1  0  0  0  0
 12 13  2  0  0  0  0
 12 14  1  0  0  0  0
  9 10  1  0  0  0  0
  9 11  1  0  0  0  0
  9 12  1  0  0  0  0
  7  8  1  0  0  0  0
  7  9  1  0  0  0  0
 16 17  1  0  0  0  0
 16 18  1  0  0  0  0
 16 19  1  0  0  0  0
 14 15  1  0  0  0  0
 14 16  1  0  0  0  0
M  END
$$$$
default_name
  -OEChem-01062215323D

 19 18  0     0  0  0  0  0  0999 V2000
   -2.2056   -4.0049    0.0000 H   0  0  0  0  0  0  0  0  0  0  0  0
   -2.2496   -2.9169    0.0000 C   0  0  0  0  0  0  0  0  0  0  0  0
   -2.7696   -2.5709    0.8910 H   0  0  0  0  0  0  0  0  0  0  0  0
   -2.7696   -2.5709   -0.8910 H   0  0  0  0  0  0  0  0  0  0  0  0
   -0.8406   -2.3699    0.0000 C   0  0  0  0  0  0  0  0  0  0  0  0
    0.1164   -3.1329    0.0000 O   0  0  0  0  0  0  0  0  0  0  0  0
   -0.7136   -1.0459    0.0000 N   0  0  0  0  0  0  0  0  0  0  0  0
   -1.5436   -0.4719    0.0000 H   0  0  0  0  0  0  0  0  0  0  0  0
    0.5724   -0.3469    0.0000 C   0  0  0  0  0  0  0  0  0  0  0  0
    1.2410   -0.8251    0.7170 H   0  0  0  0  0  0  0  0  0  0  0  0
    1.0225   -0.4230   -0.9907 H   0  0  0  0  0  0  0  0  0  0  0  0
    0.4354    1.1338    0.3661 C   0  0  0  0  0  0  0  0  0  0  0  0
    1.3534    1.7203    0.9359 O   0  0  0  0  0  0  0  0  0  0  0  0
   -0.7175    1.7280    0.0334 N   0  0  0  0  0  0  0  0  0  0  0  0
   -1.4130    1.1660   -0.4321 H   0  0  0  0  0  0  0  0  0  0  0  0
   -1.0440    3.1313    0.2945 C   0  0  0  0  0  0  0  0  0  0  0  0
   -0.2154    3.6327    0.8007 H   0  0  0  0  0  0  0  0  0  0  0  0
   -1.2404    3.6478   -0.6460 H   0  0  0  0  0  0  0  0  0  0  0  0
   -1.9287    3.1945    0.9294 H   0  0  0  0  0  0  0  0  0  0  0  0
  5  6  2  0  0  0  0
  5  7  1  0  0  0  0
  2  3  1  0  0  0  0
  2  4  1  0  0  0  0
  2  5  1  0  0  0  0
  1  2  1  0  0  0  0
 12 13  2  0  0  0  0
 12 14  1  0  0  0  0
  9 10  1  0  0  0  0
  9 11  1  0  0  0  0
  9 12  1  0  0  0  0
  7  8  1  0  0  0  0
  7  9  1  0  0  0  0
 16 17  1  0  0  0  0
 16 18  1  0  0  0  0
 16 19  1  0  0  0  0
 14 15  1  0  0  0  0
 14 16  1  0  0  0  0
M  END
$$$$
default_name
  -OEChem-01062215323D

 19 18  0     0  0  0  0  0  0999 V2000
   -2.2056   -4.0049    0.0000 H   0  0  0  0  0  0  0  0  0  0  0  0
   -2.2496   -2.9169    0.0000 C   0  0  0  0  0  0  0  0  0  0  0  0
   -2.7696   -2.5709    0.8910 H   0  0  0  0  0  0  0  0  0  0  0  0
   -2.7696   -2.5709   -0.8910 H   0  0  0  0  0  0  0  0  0  0  0  0
   -0.8406   -2.3699    0.0000 C   0  0  0  0  0  0  0  0  0  0  0  0
    0.1164   -3.1329    0.0000 O   0  0  0  0  0  0  0  0  0  0  0  0
   -0.7136   -1.0459    0.0000 N   0  0  0  0  0  0  0  0  0  0  0  0
   -1.5436   -0.4719    0.0000 H   0  0  0  0  0  0  0  0  0  0  0  0
    0.5724   -0.3469    0.0000 C   0  0  0  0  0  0  0  0  0  0  0  0
    1.2410   -0.8251    0.7170 H   0  0  0  0  0  0  0  0  0  0  0  0
    1.0225   -0.4230   -0.9907 H   0  0  0  0  0  0  0  0  0  0  0  0
    0.4354    1.1338    0.3661 C   0  0  0  0  0  0  0  0  0  0  0  0
    1.4265    1.7908    0.6782 O   0  0  0  0  0  0  0  0  0  0  0  0
   -0.8001    1.6484    0.3243 N   0  0  0  0  0  0  0  0  0  0  0  0
   -1.5518    1.0322    0.0569 H   0  0  0  0  0  0  0  0  0  0  0  0
   -1.1413    3.0375    0.6375 C   0  0  0  0  0  0  0  0  0  0  0  0
   -0.2470    3.6023    0.9119 H   0  0  0  0  0  0  0  0  0  0  0  0
   -1.5993    3.5120   -0.2314 H   0  0  0  0  0  0  0  0  0  0  0  0
   -1.8418    3.0681    1.4732 H   0  0  0  0  0  0  0  0  0  0  0  0
  5  6  2  0  0  0  0
  5  7  1  0  0  0  0
  2  3  1  0  0  0  0
  2  4  1  0  0  0  0
  2  5  1  0  0  0  0
  1  2  1  0  0  0  0
 12 13  2  0  0  0  0
 12 14  1  0  0  0  0
  9 10  1  0  0  0  0
  9 11  1  0  0  0  0
  9 12  1  0  0  0  0
  7  8  1  0  0  0  0
  7  9  1  0  0  0  0
 16 17  1  0  0  0  0
 16 18  1  0  0  0  0
 16 19  1  0  0  0  0
 14 15  1  0  0  0  0
 14 16  1  0  0  0  0
M  END
$$$$
default_name
  -OEChem-01062215323D

 19 18  0     0  0  0  0  0  0999 V2000
   -2.2056   -4.0049    0.0000 H   0  0  0  0  0  0  0  0  0  0  0  0
   -2.2496   -2.9169    0.0000 C   0  0  0  0  0  0  0  0  0  0  0  0
   -2.7696   -2.5709    0.8910 H   0  0  0  0  0  0  0  0  0  0  0  0
   -2.7696   -2.5709   -0.8910 H   0  0  0  0  0  0  0  0  0  0  0  0
   -0.8406   -2.3699    0.0000 C   0  0  0  0  0  0  0  0  0  0  0  0
    0.1164   -3.1329    0.0000 O   0  0  0  0  0  0  0  0  0  0  0  0
   -0.7136   -1.0459    0.0000 N   0  0  0  0  0  0  0  0  0  0  0  0
   -1.5436   -0.4719    0.0000 H   0  0  0  0  0  0  0  0  0  0  0  0
    0.5724   -0.3469    0.0000 C   0  0  0  0  0  0  0  0  0  0  0  0
    1.2410   -0.8251    0.7170 H   0  0  0  0  0  0  0  0  0  0  0  0
    1.0225   -0.4230   -0.9907 H   0  0  0  0  0  0  0  0  0  0  0  0
    0.4354    1.1338    0.3661 C   0  0  0  0  0  0  0  0  0  0  0  0
    1.4283    1.8574    0.4094 O   0  0  0  0  0  0  0  0  0  0  0  0
   -0.8021    1.5731    0.6279 N   0  0  0  0  0  0  0  0  0  0  0  0
   -1.5552    0.9057    0.5671 H   0  0  0  0  0  0  0  0  0  0  0  0
   -1.1437    2.9488    0.9955 C   0  0  0  0  0  0  0  0  0  0  0  0
   -0.2478    3.5735    1.0279 H   0  0  0  0  0  0  0  0  0  0  0  0
   -1.8337    3.3683    0.2622 H   0  0  0  0  0  0  0  0  0  0  0  0
   -1.6140    2.9640    1.9796 H   0  0  0  0  0  0  0  0  0  0  0  0
  5  6  2  0  0  0  0
  5  7  1  0  0  0  0
  2  3  1  0  0  0  0
  2  4  1  0  0  0  0
  2  5  1  0  0  0  0
  1  2  1  0  0  0  0
 12 13  2  0  0  0  0
 12 14  1  0  0  0  0
  9 10  1  0  0  0  0
  9 11  1  0  0  0  0
  9 12  1  0  0  0  0
  7  8  1  0  0  0  0
  7  9  1  0  0  0  0
 16 17  1  0  0  0  0
 16 18  1  0  0  0  0
 16 19  1  0  0  0  0
 14 15  1  0  0  0  0
 14 16  1  0  0  0  0
M  END
$$$$
default_name
  -OEChem-01062215323D

 19 18  0     0  0  0  0  0  0999 V2000
   -2.2056   -4.0049    0.0000 H   0  0  0  0  0  0  0  0  0  0  0  0
   -2.2496   -2.9169    0.0000 C   0  0  0  0  0  0  0  0  0  0  0  0
   -2.7696   -2.5709    0.8910 H   0  0  0  0  0  0  0  0  0  0  0  0
   -2.7696   -2.5709   -0.8910 H   0  0  0  0  0  0  0  0  0  0  0  0
   -0.8406   -2.3699    0.0000 C   0  0  0  0  0  0  0  0  0  0  0  0
    0.1164   -3.1329    0.0000 O   0  0  0  0  0  0  0  0  0  0  0  0
   -0.7136   -1.0459    0.0000 N   0  0  0  0  0  0  0  0  0  0  0  0
   -1.5436   -0.4719    0.0000 H   0  0  0  0  0  0  0  0  0  0  0  0
    0.5724   -0.3469    0.0000 C   0  0  0  0  0  0  0  0  0  0  0  0
    1.2410   -0.8251    0.7170 H   0  0  0  0  0  0  0  0  0  0  0  0
    1.0225   -0.4230   -0.9907 H   0  0  0  0  0  0  0  0  0  0  0  0
    0.4354    1.1338    0.3661 C   0  0  0  0  0  0  0  0  0  0  0  0
    1.3586    1.9157    0.1478 O   0  0  0  0  0  0  0  0  0  0  0  0
   -0.7235    1.5074    0.9234 N   0  0  0  0  0  0  0  0  0  0  0  0
   -1.4229    0.7952    1.0637 H   0  0  0  0  0  0  0  0  0  0  0  0
   -1.0510    2.8712    1.3438 C   0  0  0  0  0  0  0  0  0  0  0  0
   -0.2177    3.5484    1.1408 H   0  0  0  0  0  0  0  0  0  0  0  0
   -1.9278    3.2264    0.8009 H   0  0  0  0  0  0  0  0  0  0  0  0
   -1.2607    2.8892    2.4141 H   0  0  0  0  0  0  0  0  0  0  0  0
  5  6  2  0  0  0  0
  5  7  1  0  0  0  0
  2  3  1  0  0  0  0
  2  4  1  0  0  0  0
  2  5  1  0  0  0  0
  1  2  1  0  0  0  0
 12 13  2  0  0  0  0
 12 14  1  0  0  0  0
  9 10  1  0  0  0  0
  9 11  1  0  0  0  0
  9 12  1  0  0  0  0
  7  8  1  0  0  0  0
  7  9  1  0  0  0  0
 16 17  1  0  0  0  0
 16 18  1  0  0  0  0
 16 19  1  0  0  0  0
 14 15  1  0  0  0  0
 14 16  1  0  0  0  0
M  END
$$$$
default_name
  -OEChem-01062215323D

 19 18  0     0  0  0  0  0  0999 V2000
   -2.2056   -4.0049    0.0000 H   0  0  0  0  0  0  0  0  0  0  0  0
   -2.2496   -2.9169    0.0000 C   0  0  0  0  0  0  0  0  0  0  0  0
   -2.7696   -2.5709    0.8910 H   0  0  0  0  0  0  0  0  0  0  0  0
   -2.7696   -2.5709   -0.8910 H   0  0  0  0  0  0  0  0  0  0  0  0
   -0.8406   -2.3699    0.0000 C   0  0  0  0  0  0  0  0  0  0  0  0
    0.1164   -3.1329    0.0000 O   0  0  0  0  0  0  0  0  0  0  0  0
   -0.7136   -1.0459    0.0000 N   0  0  0  0  0  0  0  0  0  0  0  0
   -1.5436   -0.4719    0.0000 H   0  0  0  0  0  0  0  0  0  0  0  0
    0.5724   -0.3469    0.0000 C   0  0  0  0  0  0  0  0  0  0  0  0
    1.2410   -0.8251    0.7170 H   0  0  0  0  0  0  0  0  0  0  0  0
    1.0225   -0.4230   -0.9907 H   0  0  0  0  0  0  0  0  0  0  0  0
    0.4354    1.1338    0.3661 C   0  0  0  0  0  0  0  0  0  0  0  0
    1.2223    1.9616   -0.0889 O   0  0  0  0  0  0  0  0  0  0  0  0
   -0.5695    1.4555    1.1906 N   0  0  0  0  0  0  0  0  0  0  0  0
   -1.1641    0.7081    1.5129 H   0  0  0  0  0  0  0  0  0  0  0  0
   -0.8694    2.8101    1.6589 C   0  0  0  0  0  0  0  0  0  0  0  0
   -0.1588    3.5286    1.2429 H   0  0  0  0  0  0  0  0  0  0  0  0
   -1.8751    3.0960    1.3480 H   0  0  0  0  0  0  0  0  0  0  0  0
   -0.8062    2.8489    2.7472 H   0  0  0  0  0  0  0  0  0  0  0  0
  5  6  2  0  0  0  0
  5  7  1  0  0  0  0
  2  3  1  0  0  0  0
  2  4  1  0  0  0  0
  2  5  1  0  0  0  0
  1  2  1  0  0  0  0
 12 13  2  0  0  0  0
 12 14  1  0  0  0  0
  9 10  1  0  0  0  0
  9 11  1  0  0  0  0
  9 12  1  0  0  0  0
  7  8  1  0  0  0  0
  7  9  1  0  0  0  0
 16 17  1  0  0  0  0
 16 18  1  0  0  0  0
 16 19  1  0  0  0  0
 14 15  1  0  0  0  0
 14 16  1  0  0  0  0
M  END
$$$$
default_name
  -OEChem-01062215323D

 19 18  0     0  0  0  0  0  0999 V2000
   -2.2056   -4.0049    0.0000 H   0  0  0  0  0  0  0  0  0  0  0  0
   -2.2496   -2.9169    0.0000 C   0  0  0  0  0  0  0  0  0  0  0  0
   -2.7696   -2.5709    0.8910 H   0  0  0  0  0  0  0  0  0  0  0  0
   -2.7696   -2.5709   -0.8910 H   0  0  0  0  0  0  0  0  0  0  0  0
   -0.8406   -2.3699    0.0000 C   0  0  0  0  0  0  0  0  0  0  0  0
    0.1164   -3.1329    0.0000 O   0  0  0  0  0  0  0  0  0  0  0  0
   -0.7136   -1.0459    0.0000 N   0  0  0  0  0  0  0  0  0  0  0  0
   -1.5436   -0.4719    0.0000 H   0  0  0  0  0  0  0  0  0  0  0  0
    0.5724   -0.3469    0.0000 C   0  0  0  0  0  0  0  0  0  0  0  0
    1.2410   -0.8251    0.7170 H   0  0  0  0  0  0  0  0  0  0  0  0
    1.0225   -0.4230   -0.9907 H   0  0  0  0  0  0  0  0  0  0  0  0
    0.4354    1.1338    0.3661 C   0  0  0  0  0  0  0  0  0  0  0  0
    1.0285    1.9920   -0.2844 O   0  0  0  0  0  0  0  0  0  0  0  0
   -0.3506    1.4212    1.4114 N   0  0  0  0  0  0  0  0  0  0  0  0
   -0.7963    0.6503    1.8840 H   0  0  0  0  0  0  0  0  0  0  0  0
   -0.6114    2.7696    1.9192 C   0  0  0  0  0  0  0  0  0  0  0  0
   -0.0752    3.5155    1.3273 H   0  0  0  0  0  0  0  0  0  0  0  0
   -1.6792    2.9859    1.8664 H   0  0  0  0  0  0  0  0  0  0  0  0
   -0.2813    2.8458    2.9561 H   0  0  0  0  0  0  0  0  0  0  0  0
  5  6  2  0  0  0  0
  5  7  1  0  0  0  0
  2  3  1  0  0  0  0
  2  4  1  0  0  0  0
  2  5  1  0  0  0  0
  1  2  1  0  0  0  0
 12 13  2  0  0  0  0
 12 14  1  0  0  0  0
  9 10  1  0  0  0  0
  9 11  1  0  0  0  0
  9 12  1  0  0  0  0
  7  8  1  0  0  0  0
  7  9  1  0  0  0  0
 16 17  1  0  0  0  0
 16 18  1  0  0  0  0
 16 19  1  0  0  0  0
 14 15  1  0  0  0  0
 14 16  1  0  0  0  0
M  END
$$$$
default_name
  -OEChem-01062215323D

 19 18  0     0  0  0  0  0  0999 V2000
   -2.2056   -4.0049    0.0000 H   0  0  0  0  0  0  0  0  0  0  0  0
   -2.2496   -2.9169    0.0000 C   0  0  0  0  0  0  0  0  0  0  0  0
   -2.7696   -2.5709    0.8910 H   0  0  0  0  0  0  0  0  0  0  0  0
   -2.7696   -2.5709   -0.8910 H   0  0  0  0  0  0  0  0  0  0  0  0
   -0.8406   -2.3699    0.0000 C   0  0  0  0  0  0  0  0  0  0  0  0
    0.1164   -3.1329    0.0000 O   0  0  0  0  0  0  0  0  0  0  0  0
   -0.7136   -1.0459    0.0000 N   0  0  0  0  0  0  0  0  0  0  0  0
   -1.5436   -0.4719    0.0000 H   0  0  0  0  0  0  0  0  0  0  0  0
    0.5724   -0.3469    0.0000 C   0  0  0  0  0  0  0  0  0  0  0  0
    1.2410   -0.8251    0.7170 H   0  0  0  0  0  0  0  0  0  0  0  0
    1.0225   -0.4230   -0.9907 H   0  0  0  0  0  0  0  0  0  0  0  0
    0.4354    1.1338    0.3661 C   0  0  0  0  0  0  0  0  0  0  0  0
    0.7905    2.0049   -0.4254 O   0  0  0  0  0  0  0  0  0  0  0  0
   -0.0819    1.4067    1.5707 N   0  0  0  0  0  0  0  0  0  0  0  0
   -0.3446    0.6259    2.1517 H   0  0  0  0  0  0  0  0  0  0  0  0
   -0.2945    2.7525    2.1071 C   0  0  0  0  0  0  0  0  0  0  0  0
    0.0275    3.5099    1.3882 H   0  0  0  0  0  0  0  0  0  0  0  0
   -1.3534    2.9038    2.3206 H   0  0  0  0  0  0  0  0  0  0  0  0
    0.2782    2.8802    3.0266 H   0  0  0  0  0  0  0  0  0  0  0  0
  5  6  2  0  0  0  0
  5  7  1  0  0  0  0
  2  3  1  0  0  0  0
  2  4  1  0  0  0  0
  2  5  1  0  0  0  0
  1  2  1  0  0  0  0
 12 13  2  0  0  0  0
 12 14  1  0  0  0  0
  9 10  1  0  0  0  0
  9 11  1  0  0  0  0
  9 12  1  0  0  0  0
  7  8  1  0  0  0  0
  7  9  1  0  0  0  0
 16 17  1  0  0  0  0
 16 18  1  0  0  0  0
 16 19  1  0  0  0  0
 14 15  1  0  0  0  0
 14 16  1  0  0  0  0
M  END
$$$$
default_name
  -OEChem-01062215323D

 19 18  0     0  0  0  0  0  0999 V2000
   -2.2056   -4.0049    0.0000 H   0  0  0  0  0  0  0  0  0  0  0  0
   -2.2496   -2.9169    0.0000 C   0  0  0  0  0  0  0  0  0  0  0  0
   -2.7696   -2.5709    0.8910 H   0  0  0  0  0  0  0  0  0  0  0  0
   -2.7696   -2.5709   -0.8910 H   0  0  0  0  0  0  0  0  0  0  0  0
   -0.8406   -2.3699    0.0000 C   0  0  0  0  0  0  0  0  0  0  0  0
    0.1164   -3.1329    0.0000 O   0  0  0  0  0  0  0  0  0  0  0  0
   -0.7136   -1.0459    0.0000 N   0  0  0  0  0  0  0  0  0  0  0  0
   -1.5436   -0.4719    0.0000 H   0  0  0  0  0  0  0  0  0  0  0  0
    0.5724   -0.3469    0.0000 C   0  0  0  0  0  0  0  0  0  0  0  0
    1.2410   -0.8251    0.7170 H   0  0  0  0  0  0  0  0  0  0  0  0
    1.0225   -0.4230   -0.9907 H   0  0  0  0  0  0  0  0  0  0  0  0
    0.4354    1.1338    0.3661 C   0  0  0  0  0  0  0  0  0  0  0  0
    0.5245    1.9993   -0.5024 O   0  0  0  0  0  0  0  0  0  0  0  0
    0.2185    1.4129    1.6576 N   0  0  0  0  0  0  0  0  0  0  0  0
    0.1602    0.6365    2.2979 H   0  0  0  0  0  0  0  0  0  0  0  0
    0.0596    2.7599    2.2096 C   0  0  0  0  0  0  0  0  0  0  0  0
    0.1423    3.5123    1.4214 H   0  0  0  0  0  0  0  0  0  0  0  0
   -0.9200    2.8551    2.6797 H   0  0  0  0  0  0  0  0  0  0  0  0
    0.8342    2.9496    2.9539 H   0  0  0  0  0  0  0  0  0  0  0  0
  5  6  2  0  0  0  0
  5  7  1  0  0  0  0
  2  3  1  0  0  0  0
  2  4  1  0  0  0  0
  2  5  1  0  0  0  0
  1  2  1  0  0  0  0
 12 13  2  0  0  0  0
 12 14  1  0  0  0  0
  9 10  1  0  0  0  0
  9 11  1  0  0  0  0
  9 12  1  0  0  0  0
  7  8  1  0  0  0  0
  7  9  1  0  0  0  0
 16 17  1  0  0  0  0
 16 18  1  0  0  0  0
 16 19  1  0  0  0  0
 14 15  1  0  0  0  0
 14 16  1  0  0  0  0
M  END
$$$$
default_name
  -OEChem-01062215323D

 19 18  0     0  0  0  0  0  0999 V2000
   -2.2056   -4.0049    0.0000 H   0  0  0  0  0  0  0  0  0  0  0  0
   -2.2496   -2.9169    0.0000 C   0  0  0  0  0  0  0  0  0  0  0  0
   -2.7696   -2.5709    0.8910 H   0  0  0  0  0  0  0  0  0  0  0  0
   -2.7696   -2.5709   -0.8910 H   0  0  0  0  0  0  0  0  0  0  0  0
   -0.8406   -2.3699    0.0000 C   0  0  0  0  0  0  0  0  0  0  0  0
    0.1164   -3.1329    0.0000 O   0  0  0  0  0  0  0  0  0  0  0  0
   -0.7136   -1.0459    0.0000 N   0  0  0  0  0  0  0  0  0  0  0  0
   -1.5436   -0.4719    0.0000 H   0  0  0  0  0  0  0  0  0  0  0  0
    0.5724   -0.3469    0.0000 C   0  0  0  0  0  0  0  0  0  0  0  0
    1.2410   -0.8251    0.7170 H   0  0  0  0  0  0  0  0  0  0  0  0
    1.0225   -0.4230   -0.9907 H   0  0  0  0  0  0  0  0  0  0  0  0
    0.4354    1.1338    0.3661 C   0  0  0  0  0  0  0  0  0  0  0  0
    0.2487    1.9757   -0.5101 O   0  0  0  0  0  0  0  0  0  0  0  0
    0.5300    1.4396    1.6663 N   0  0  0  0  0  0  0  0  0  0  0  0
    0.6838    0.6813    2.3125 H   0  0  0  0  0  0  0  0  0  0  0  0
    0.4269    2.7914    2.2198 C   0  0  0  0  0  0  0  0  0  0  0  0
    0.2614    3.5225    1.4248 H   0  0  0  0  0  0  0  0  0  0  0  0
   -0.4085    2.8432    2.9193 H   0  0  0  0  0  0  0  0  0  0  0  0
    1.3487    3.0493    2.7429 H   0  0  0  0  0  0  0  0  0  0  0  0
  5  6  2  0  0  0  0
  5  7  1  0  0  0  0
  2  3  1  0  0  0  0
  2  4  1  0  0  0  0
  2  5  1  0  0  0  0
  1  2  1  0  0  0  0
 12 13  2  0  0  0  0
 12 14  1  0  0  0  0
  9 10  1  0  0  0  0
  9 11  1  0  0  0  0
  9 12  1  0  0  0  0
  7  8  1  0  0  0  0
  7  9  1  0  0  0  0
 16 17  1  0  0  0  0
 16 18  1  0  0  0  0
 16 19  1  0  0  0  0
 14 15  1  0  0  0  0
 14 16  1  0  0  0  0
M  END
$$$$
default_name
  -OEChem-01062215323D

 19 18  0     0  0  0  0  0  0999 V2000
   -2.2056   -4.0049    0.0000 H   0  0  0  0  0  0  0  0  0  0  0  0
   -2.2496   -2.9169    0.0000 C   0  0  0  0  0  0  0  0  0  0  0  0
   -2.7696   -2.5709    0.8910 H   0  0  0  0  0  0  0  0  0  0  0  0
   -2.7696   -2.5709   -0.8910 H   0  0  0  0  0  0  0  0  0  0  0  0
   -0.8406   -2.3699    0.0000 C   0  0  0  0  0  0  0  0  0  0  0  0
    0.1164   -3.1329    0.0000 O   0  0  0  0  0  0  0  0  0  0  0  0
   -0.7136   -1.0459    0.0000 N   0  0  0  0  0  0  0  0  0  0  0  0
   -1.5436   -0.4719    0.0000 H   0  0  0  0  0  0  0  0  0  0  0  0
    0.5724   -0.3469    0.0000 C   0  0  0  0  0  0  0  0  0  0  0  0
    1.2410   -0.8251    0.7170 H   0  0  0  0  0  0  0  0  0  0  0  0
    1.0225   -0.4230   -0.9907 H   0  0  0  0  0  0  0  0  0  0  0  0
    0.4354    1.1338    0.3661 C   0  0  0  0  0  0  0  0  0  0  0  0
   -0.0182    1.9356   -0.4480 O   0  0  0  0  0  0  0  0  0  0  0  0
    0.8314    1.4848    1.5961 N   0  0  0  0  0  0  0  0  0  0  0  0
    1.1903    0.7574    2.1945 H   0  0  0  0  0  0  0  0  0  0  0  0
    0.7823    2.8447    2.1371 C   0  0  0  0  0  0  0  0  0  0  0  0
    0.3765    3.5398    1.3979 H   0  0  0  0  0  0  0  0  0  0  0  0
    0.1463    2.8689    3.0229 H   0  0  0  0  0  0  0  0  0  0  0  0
    1.7867    3.1726    2.4081 H   0  0  0  0  0  0  0  0  0  0  0  0
  5  6  2  0  0  0  0
  5  7  1  0  0  0  0
  2  3  1  0  0  0  0
  2  4  1  0  0  0  0
  2  5  1  0  0  0  0
  1  2  1  0  0  0  0
 12 13  2  0  0  0  0
 12 14  1  0  0  0  0
  9 10  1  0  0  0  0
  9 11  1  0  0  0  0
  9 12  1  0  0  0  0
  7  8  1  0  0  0  0
  7  9  1  0  0  0  0
 16 17  1  0  0  0  0
 16 18  1  0  0  0  0
 16 19  1  0  0  0  0
 14 15  1  0  0  0  0
 14 16  1  0  0  0  0
M  END
$$$$
default_name
  -OEChem-01062215323D

 19 18  0     0  0  0  0  0  0999 V2000
   -2.2056   -4.0049    0.0000 H   0  0  0  0  0  0  0  0  0  0  0  0
   -2.2496   -2.9169    0.0000 C   0  0  0  0  0  0  0  0  0  0  0  0
   -2.7696   -2.5709    0.8910 H   0  0  0  0  0  0  0  0  0  0  0  0
   -2.7696   -2.5709   -0.8910 H   0  0  0  0  0  0  0  0  0  0  0  0
   -0.8406   -2.3699    0.0000 C   0  0  0  0  0  0  0  0  0  0  0  0
    0.1164   -3.1329    0.0000 O   0  0  0  0  0  0  0  0  0  0  0  0
   -0.7136   -1.0459    0.0000 N   0  0  0  0  0  0  0  0  0  0  0  0
   -1.5436   -0.4719    0.0000 H   0  0  0  0  0  0  0  0  0  0  0  0
    0.5724   -0.3469    0.0000 C   0  0  0  0  0  0  0  0  0  0  0  0
    1.2410   -0.8251    0.7170 H   0  0  0  0  0  0  0  0  0  0  0  0
    1.0225   -0.4230   -0.9907 H   0  0  0  0  0  0  0  0  0  0  0  0
    0.4354    1.1338    0.3661 C   0  0  0  0  0  0  0  0  0  0  0  0
   -0.2580    1.8818   -0.3202 O   0  0  0  0  0  0  0  0  0  0  0  0
    1.1021    1.5456    1.4519 N   0  0  0  0  0  0  0  0  0  0  0  0
    1.6454    0.8594    1.9520 H   0  0  0  0  0  0  0  0  0  0  0  0
    1.1015    2.9163    1.9670 C   0  0  0  0  0  0  0  0  0  0  0  0
    0.4800    3.5630    1.3428 H   0  0  0  0  0  0  0  0  0  0  0  0
    0.7065    2.9304    2.9836 H   0  0  0  0  0  0  0  0  0  0  0  0
    2.1184    3.3111    1.9722 H   0  0  0  0  0  0  0  0  0  0  0  0
  5  6  2  0  0  0  0
  5  7  1  0  0  0  0
  2  3  1  0  0  0  0
  2  4  1  0  0  0  0
  2  5  1  0  0  0  0
  1  2  1  0  0  0  0
 12 13  2  0  0  0  0
 12 14  1  0  0  0  0
  9 10  1  0  0  0  0
  9 11  1  0  0  0  0
  9 12  1  0  0  0  0
  7  8  1  0  0  0  0
  7  9  1  0  0  0  0
 16 17  1  0  0  0  0
 16 18  1  0  0  0  0
 16 19  1  0  0  0  0
 14 15  1  0  0  0  0
 14 16  1  0  0  0  0
M  END
$$$$
default_name
  -OEChem-01062215323D

 19 18  0     0  0  0  0  0  0999 V2000
   -2.2056   -4.0049    0.0000 H   0  0  0  0  0  0  0  0  0  0  0  0
   -2.2496   -2.9169    0.0000 C   0  0  0  0  0  0  0  0  0  0  0  0
   -2.7696   -2.5709    0.8910 H   0  0  0  0  0  0  0  0  0  0  0  0
   -2.7696   -2.5709   -0.8910 H   0  0  0  0  0  0  0  0  0  0  0  0
   -0.8406   -2.3699    0.0000 C   0  0  0  0  0  0  0  0  0  0  0  0
    0.1164   -3.1329    0.0000 O   0  0  0  0  0  0  0  0  0  0  0  0
   -0.7136   -1.0459    0.0000 N   0  0  0  0  0  0  0  0  0  0  0  0
   -1.5436   -0.4719    0.0000 H   0  0  0  0  0  0  0  0  0  0  0  0
    0.5724   -0.3469    0.0000 C   0  0  0  0  0  0  0  0  0  0  0  0
    1.2410   -0.8251    0.7170 H   0  0  0  0  0  0  0  0  0  0  0  0
    1.0225   -0.4230   -0.9907 H   0  0  0  0  0  0  0  0  0  0  0  0
    0.4354    1.1338    0.3661 C   0  0  0  0  0  0  0  0  0  0  0  0
   -0.4543    1.8180   -0.1356 O   0  0  0  0  0  0  0  0  0  0  0  0
    1.3238    1.6176    1.2434 N   0  0  0  0  0  0  0  0  0  0  0  0
    2.0180    0.9805    1.6016 H   0  0  0  0  0  0  0  0  0  0  0  0
    1.3629    3.0013    1.7211 C   0  0  0  0  0  0  0  0  0  0  0  0
    0.5648    3.5905    1.2631 H   0  0  0  0  0  0  0  0  0  0  0  0
    1.2340    3.0236    2.8041 H   0  0  0  0  0  0  0  0  0  0  0  0
    2.3211    3.4553    1.4650 H   0  0  0  0  0  0  0  0  0  0  0  0
  5  6  2  0  0  0  0
  5  7  1  0  0  0  0
  2  3  1  0  0  0  0
  2  4  1  0  0  0  0
  2  5  1  0  0  0  0
  1  2  1  0  0  0  0
 12 13  2  0  0  0  0
 12 14  1  0  0  0  0
  9 10  1  0  0  0  0
  9 11  1  0  0  0  0
  9 12  1  0  0  0  0
  7  8  1  0  0  0  0
  7  9  1  0  0  0  0
 16 17  1  0  0  0  0
 16 18  1  0  0  0  0
 16 19  1  0  0  0  0
 14 15  1  0  0  0  0
 14 16  1  0  0  0  0
M  END
$$$$
default_name
  -OEChem-01062215323D

 19 18  0     0  0  0  0  0  0999 V2000
   -2.2056   -4.0049    0.0000 H   0  0  0  0  0  0  0  0  0  0  0  0
   -2.2496   -2.9169    0.0000 C   0  0  0  0  0  0  0  0  0  0  0  0
   -2.7696   -2.5709    0.8910 H   0  0  0  0  0  0  0  0  0  0  0  0
   -2.7696   -2.5709   -0.8910 H   0  0  0  0  0  0  0  0  0  0  0  0
   -0.8406   -2.3699    0.0000 C   0  0  0  0  0  0  0  0  0  0  0  0
    0.1164   -3.1329    0.0000 O   0  0  0  0  0  0  0  0  0  0  0  0
   -0.7136   -1.0459    0.0000 N   0  0  0  0  0  0  0  0  0  0  0  0
   -1.5436   -0.4719    0.0000 H   0  0  0  0  0  0  0  0  0  0  0  0
    0.5724   -0.3469    0.0000 C   0  0  0  0  0  0  0  0  0  0  0  0
    1.2410   -0.8251    0.7170 H   0  0  0  0  0  0  0  0  0  0  0  0
    1.0225   -0.4230   -0.9907 H   0  0  0  0  0  0  0  0  0  0  0  0
    0.4354    1.1338    0.3661 C   0  0  0  0  0  0  0  0  0  0  0  0
   -0.5938    1.7485    0.0934 O   0  0  0  0  0  0  0  0  0  0  0  0
    1.4813    1.6961    0.9848 N   0  0  0  0  0  0  0  0  0  0  0  0
    2.2827    1.1125    1.1670 H   0  0  0  0  0  0  0  0  0  0  0  0
    1.5486    3.0938    1.4163 C   0  0  0  0  0  0  0  0  0  0  0  0
    0.6250    3.6205    1.1643 H   0  0  0  0  0  0  0  0  0  0  0  0
    1.6928    3.1421    2.4964 H   0  0  0  0  0  0  0  0  0  0  0  0
    2.3811    3.5953    0.9210 H   0  0  0  0  0  0  0  0  0  0  0  0
  5  6  2  0  0  0  0
  5  7  1  0  0  0  0
  2  3  1  0  0  0  0
  2  4  1  0  0  0  0
  2  5  1  0  0  0  0
  1  2  1  0  0  0  0
 12 13  2  0  0  0  0
 12 14  1  0  0  0  0
  9 10  1  0  0  0  0
  9 11  1  0  0  0  0
  9 12  1  0  0  0  0
  7  8  1  0  0  0  0
  7  9  1  0  0  0  0
 16 17  1  0  0  0  0
 16 18  1  0  0  0  0
 16 19  1  0  0  0  0
 14 15  1  0  0  0  0
 14 16  1  0  0  0  0
M  END
$$$$
default_name
  -OEChem-01062215323D

 19 18  0     0  0  0  0  0  0999 V2000
   -2.2056   -4.0049    0.0000 H   0  0  0  0  0  0  0  0  0  0  0  0
   -2.2496   -2.9169    0.0000 C   0  0  0  0  0  0  0  0  0  0  0  0
   -2.7696   -2.5709    0.8910 H   0  0  0  0  0  0  0  0  0  0  0  0
   -2.7696   -2.5709   -0.8910 H   0  0  0  0  0  0  0  0  0  0  0  0
   -0.8406   -2.3699    0.0000 C   0  0  0  0  0  0  0  0  0  0  0  0
    0.1164   -3.1329    0.0000 O   0  0  0  0  0  0  0  0  0  0  0  0
   -0.7136   -1.0459    0.0000 N   0  0  0  0  0  0  0  0  0  0  0  0
   -1.5436   -0.4719    0.0000 H   0  0  0  0  0  0  0  0  0  0  0  0
    0.5724   -0.3469    0.0000 C   0  0  0  0  0  0  0  0  0  0  0  0
    1.2410   -0.8251    0.7170 H   0  0  0  0  0  0  0  0  0  0  0  0
    1.0225   -0.4230   -0.9907 H   0  0  0  0  0  0  0  0  0  0  0  0
    0.4354    1.1338    0.3661 C   0  0  0  0  0  0  0  0  0  0  0  0
   -0.6669    1.6780    0.3510 O   0  0  0  0  0  0  0  0  0  0  0  0
    1.5639    1.7757    0.6938 N   0  0  0  0  0  0  0  0  0  0  0  0
    2.4215    1.2462    0.6780 H   0  0  0  0  0  0  0  0  0  0  0  0
    1.6460    3.1876    1.0732 C   0  0  0  0  0  0  0  0  0  0  0  0
    0.6565    3.6510    1.0531 H   0  0  0  0  0  0  0  0  0  0  0  0
    2.0517    3.2778    2.0817 H   0  0  0  0  0  0  0  0  0  0  0  0
    2.2942    3.7217    0.3772 H   0  0  0  0  0  0  0  0  0  0  0  0
  5  6  2  0  0  0  0
  5  7  1  0  0  0  0
  2  3  1  0  0  0  0
  2  4  1  0  0  0  0
  2  5  1  0  0  0  0
  1  2  1  0  0  0  0
 12 13  2  0  0  0  0
 12 14  1  0  0  0  0
  9 10  1  0  0  0  0
  9 11  1  0  0  0  0
  9 12  1  0  0  0  0
  7  8  1  0  0  0  0
  7  9  1  0  0  0  0
 16 17  1  0  0  0  0
 16 18  1  0  0  0  0
 16 19  1  0  0  0  0
 14 15  1  0  0  0  0
 14 16  1  0  0  0  0
M  END
$$$$
default_name
  -OEChem-01062215323D

 19 18  0     0  0  0  0  0  0999 V2000
   -2.2056   -4.0049    0.0000 H   0  0  0  0  0  0  0  0  0  0  0  0
   -2.2496   -2.9169    0.0000 C   0  0  0  0  0  0  0  0  0  0  0  0
   -2.7696   -2.5709    0.8910 H   0  0  0  0  0  0  0  0  0  0  0  0
   -2.7696   -2.5709   -0.8910 H   0  0  0  0  0  0  0  0  0  0  0  0
   -0.8406   -2.3699    0.0000 C   0  0  0  0  0  0  0  0  0  0  0  0
    0.1164   -3.1329    0.0000 O   0  0  0  0  0  0  0  0  0  0  0  0
   -0.7136   -1.0459    0.0000 N   0  0  0  0  0  0  0  0  0  0  0  0
   -1.5436   -0.4719    0.0000 H   0  0  0  0  0  0  0  0  0  0  0  0
    0.5724   -0.3469    0.0000 C   0  0  0  0  0  0  0  0  0  0  0  0
    1.3176   -0.9660    0.5012 H   0  0  0  0  0  0  0  0  0  0  0  0
    0.8955   -0.1893   -1.0299 H   0  0  0  0  0  0  0  0  0  0  0  0
    0.5029    1.0096    0.7073 C   0  0  0  0  0  0  0  0  0  0  0  0
   -0.5544    1.4012    1.1974 O   0  0  0  0  0  0  0  0  0  0  0  0
    1.6378    1.7186    0.7540 N   0  0  0  0  0  0  0  0  0  0  0  0
    2.4558    1.3158    0.3241 H   0  0  0  0  0  0  0  0  0  0  0  0
    1.7802    3.0338    1.3819 C   0  0  0  0  0  0  0  0  0  0  0  0
    0.8300    3.3619    1.8103 H   0  0  0  0  0  0  0  0  0  0  0  0
    2.5230    2.9858    2.1792 H   0  0  0  0  0  0  0  0  0  0  0  0
    2.0984    3.7669    0.6394 H   0  0  0  0  0  0  0  0  0  0  0  0
  5  6  2  0  0  0  0
  5  7  1  0  0  0  0
  2  3  1  0  0  0  0
  2  4  1  0  0  0  0
  2  5  1  0  0  0  0
  1  2  1  0  0  0  0
 12 13  2  0  0  0  0
 12 14  1  0  0  0  0
  9 10  1  0  0  0  0
  9 11  1  0  0  0  0
  9 12  1  0  0  0  0
  7  8  1  0  0  0  0
  7  9  1  0  0  0  0
 16 17  1  0  0  0  0
 16 18  1  0  0  0  0
 16 19  1  0  0  0  0
 14 15  1  0  0  0  0
 14 16  1  0  0  0  0
M  END
$$$$
default_name
  -OEChem-01062215323D

 19 18  0     0  0  0  0  0  0999 V2000
   -2.2056   -4.0049    0.0000 H   0  0  0  0  0  0  0  0  0  0  0  0
   -2.2496   -2.9169    0.0000 C   0  0  0  0  0  0  0  0  0  0  0  0
   -2.7696   -2.5709    0.8910 H   0  0  0  0  0  0  0  0  0  0  0  0
   -2.7696   -2.5709   -0.8910 H   0  0  0  0  0  0  0  0  0  0  0  0
   -0.8406   -2.3699    0.0000 C   0  0  0  0  0  0  0  0  0  0  0  0
    0.1164   -3.1329    0.0000 O   0  0  0  0  0  0  0  0  0  0  0  0
   -0.7136   -1.0459    0.0000 N   0  0  0  0  0  0  0  0  0  0  0  0
   -1.5436   -0.4719    0.0000 H   0  0  0  0  0  0  0  0  0  0  0  0
    0.5724   -0.3469    0.0000 C   0  0  0  0  0  0  0  0  0  0  0  0
    1.3176   -0.9660    0.5012 H   0  0  0  0  0  0  0  0  0  0  0  0
    0.8955   -0.1893   -1.0299 H   0  0  0  0  0  0  0  0  0  0  0  0
    0.5029    1.0096    0.7073 C   0  0  0  0  0  0  0  0  0  0  0  0
   -0.4538    1.2860    1.4283 O   0  0  0  0  0  0  0  0  0  0  0  0
    1.5242    1.8487    0.4933 N   0  0  0  0  0  0  0  0  0  0  0  0
    2.2648    1.5345   -0.1141 H   0  0  0  0  0  0  0  0  0  0  0  0
    1.6462    3.1872    1.0745 C   0  0  0  0  0  0  0  0  0  0  0  0
    0.7866    3.4117    1.7107 H   0  0  0  0  0  0  0  0  0  0  0  0
    2.5518    3.2478    1.6795 H   0  0  0  0  0  0  0  0  0  0  0  0
    1.6953    3.9334    0.2804 H   0  0  0  0  0  0  0  0  0  0  0  0
  5  6  2  0  0  0  0
  5  7  1  0  0  0  0
  2  3  1  0  0  0  0
  2  4  1  0  0  0  0
  2  5  1  0  0  0  0
  1  2  1  0  0  0  0
 12 13  2  0  0  0  0
 12 14  1  0  0  0  0
  9 10  1  0  0  0  0
  9 11  1  0  0  0  0
  9 12  1  0  0  0  0
  7  8  1  0  0  0  0
  7  9  1  0  0  0  0
 16 17  1  0  0  0  0
 16 18  1  0  0  0  0
 16 19  1  0  0  0  0
 14 15  1  0  0  0  0
 14 16  1  0  0  0  0
M  END
$$$$
default_name
  -OEChem-01062215323D

 19 18  0     0  0  0  0  0  0999 V2000
   -2.2056   -4.0049    0.0000 H   0  0  0  0  0  0  0  0  0  0  0  0
   -2.2496   -2.9169    0.0000 C   0  0  0  0  0  0  0  0  0  0  0  0
   -2.7696   -2.5709    0.8910 H   0  0  0  0  0  0  0  0  0  0  0  0
   -2.7696   -2.5709   -0.8910 H   0  0  0  0  0  0  0  0  0  0  0  0
   -0.8406   -2.3699    0.0000 C   0  0  0  0  0  0  0  0  0  0  0  0
    0.1164   -3.1329    0.0000 O   0  0  0  0  0  0  0  0  0  0  0  0
   -0.7136   -1.0459    0.0000 N   0  0  0  0  0  0  0  0  0  0  0  0
   -1.5436   -0.4719    0.0000 H   0  0  0  0  0  0  0  0  0  0  0  0
    0.5724   -0.3469    0.0000 C   0  0  0  0  0  0  0  0  0  0  0  0
    1.3176   -0.9660    0.5012 H   0  0  0  0  0  0  0  0  0  0  0  0
    0.8955   -0.1893   -1.0299 H   0  0  0  0  0  0  0  0  0  0  0  0
    0.5029    1.0096    0.7073 C   0  0  0  0  0  0  0  0  0  0  0  0
   -0.2899    1.1894    1.6296 O   0  0  0  0  0  0  0  0  0  0  0  0
    1.3391    1.9577    0.2660 N   0  0  0  0  0  0  0  0  0  0  0  0
    1.9538    1.7177   -0.4961 H   0  0  0  0  0  0  0  0  0  0  0  0
    1.4280    3.3157    0.8065 C   0  0  0  0  0  0  0  0  0  0  0  0
    0.7158    3.4533    1.6238 H   0  0  0  0  0  0  0  0  0  0  0  0
    2.4337    3.4985    1.1872 H   0  0  0  0  0  0  0  0  0  0  0  0
    1.2037    4.0419    0.0240 H   0  0  0  0  0  0  0  0  0  0  0  0
  5  6  2  0  0  0  0
  5  7  1  0  0  0  0
  2  3  1  0  0  0  0
  2  4  1  0  0  0  0
  2  5  1  0  0  0  0
  1  2  1  0  0  0  0
 12 13  2  0  0  0  0
 12 14  1  0  0  0  0
  9 10  1  0  0  0  0
  9 11  1  0  0  0  0
  9 12  1  0  0  0  0
  7  8  1  0  0  0  0
  7  9  1  0  0  0  0
 16 17  1  0  0  0  0
 16 18  1  0  0  0  0
 16 19  1  0  0  0  0
 14 15  1  0  0  0  0
 14 16  1  0  0  0  0
M  END
$$$$
default_name
  -OEChem-01062215323D

 19 18  0     0  0  0  0  0  0999 V2000
   -2.2056   -4.0049    0.0000 H   0  0  0  0  0  0  0  0  0  0  0  0
   -2.2496   -2.9169    0.0000 C   0  0  0  0  0  0  0  0  0  0  0  0
   -2.7696   -2.5709    0.8910 H   0  0  0  0  0  0  0  0  0  0  0  0
   -2.7696   -2.5709   -0.8910 H   0  0  0  0  0  0  0  0  0  0  0  0
   -0.8406   -2.3699    0.0000 C   0  0  0  0  0  0  0  0  0  0  0  0
    0.1164   -3.1329    0.0000 O   0  0  0  0  0  0  0  0  0  0  0  0
   -0.7136   -1.0459    0.0000 N   0  0  0  0  0  0  0  0  0  0  0  0
   -1.5436   -0.4719    0.0000 H   0  0  0  0  0  0  0  0  0  0  0  0
    0.5724   -0.3469    0.0000 C   0  0  0  0  0  0  0  0  0  0  0  0
    1.3176   -0.9660    0.5012 H   0  0  0  0  0  0  0  0  0  0  0  0
    0.8955   -0.1893   -1.0299 H   0  0  0  0  0  0  0  0  0  0  0  0
    0.5029    1.0096    0.7073 C   0  0  0  0  0  0  0  0  0  0  0  0
   -0.0739    1.1181    1.7876 O   0  0  0  0  0  0  0  0  0  0  0  0
    1.0952    2.0383    0.0875 N   0  0  0  0  0  0  0  0  0  0  0  0
    1.5438    1.8531   -0.7960 H   0  0  0  0  0  0  0  0  0  0  0  0
    1.1404    3.4107    0.5961 C   0  0  0  0  0  0  0  0  0  0  0  0
    0.6226    3.4841    1.5556 H   0  0  0  0  0  0  0  0  0  0  0  0
    2.1768    3.7207    0.7357 H   0  0  0  0  0  0  0  0  0  0  0  0
    0.6571    4.0849   -0.1122 H   0  0  0  0  0  0  0  0  0  0  0  0
  5  6  2  0  0  0  0
  5  7  1  0  0  0  0
  2  3  1  0  0  0  0
  2  4  1  0  0  0  0
  2  5  1  0  0  0  0
  1  2  1  0  0  0  0
 12 13  2  0  0  0  0
 12 14  1  0  0  0  0
  9 10  1  0  0  0  0
  9 11  1  0  0  0  0
  9 12  1  0  0  0  0
  7  8  1  0  0  0  0
  7  9  1  0  0  0  0
 16 17  1  0  0  0  0
 16 18  1  0  0  0  0
 16 19  1  0  0  0  0
 14 15  1  0  0  0  0
 14 16  1  0  0  0  0
M  END
$$$$
default_name
  -OEChem-01062215323D

 19 18  0     0  0  0  0  0  0999 V2000
   -2.2056   -4.0049    0.0000 H   0  0  0  0  0  0  0  0  0  0  0  0
   -2.2496   -2.9169    0.0000 C   0  0  0  0  0  0  0  0  0  0  0  0
   -2.7696   -2.5709    0.8910 H   0  0  0  0  0  0  0  0  0  0  0  0
   -2.7696   -2.5709   -0.8910 H   0  0  0  0  0  0  0  0  0  0  0  0
   -0.8406   -2.3699    0.0000 C   0  0  0  0  0  0  0  0  0  0  0  0
    0.1164   -3.1329    0.0000 O   0  0  0  0  0  0  0  0  0  0  0  0
   -0.7136   -1.0459    0.0000 N   0  0  0  0  0  0  0  0  0  0  0  0
   -1.5436   -0.4719    0.0000 H   0  0  0  0  0  0  0  0  0  0  0  0
    0.5724   -0.3469    0.0000 C   0  0  0  0  0  0  0  0  0  0  0  0
    1.3176   -0.9660    0.5012 H   0  0  0  0  0  0  0  0  0  0  0  0
    0.8955   -0.1893   -1.0299 H   0  0  0  0  0  0  0  0  0  0  0  0
    0.5029    1.0096    0.7073 C   0  0  0  0  0  0  0  0  0  0  0  0
    0.1795    1.0769    1.8915 O   0  0  0  0  0  0  0  0  0  0  0  0
    0.8090    2.0848   -0.0298 N   0  0  0  0  0  0  0  0  0  0  0  0
    1.0628    1.9313   -0.9932 H   0  0  0  0  0  0  0  0  0  0  0  0
    0.8030    3.4655    0.4577 C   0  0  0  0  0  0  0  0  0  0  0  0
    0.5133    3.5019    1.5107 H   0  0  0  0  0  0  0  0  0  0  0  0
    1.7986    3.8993    0.3559 H   0  0  0  0  0  0  0  0  0  0  0  0
    0.0928    4.0595   -0.1190 H   0  0  0  0  0  0  0  0  0  0  0  0
  5  6  2  0  0  0  0
  5  7  1  0  0  0  0
  2  3  1  0  0  0  0
  2  4  1  0  0  0  0
  2  5  1  0  0  0  0
  1  2  1  0  0  0  0
 12 13  2  0  0  0  0
 12 14  1  0  0  0  0
  9 10  1  0  0  0  0
  9 11  1  0  0  0  0
  9 12  1  0  0  0  0
  7  8  1  0  0  0  0
  7  9  1  0  0  0  0
 16 17  1  0  0  0  0
 16 18  1  0  0  0  0
 16 19  1  0  0  0  0
 14 15  1  0  0  0  0
 14 16  1  0  0  0  0
M  END
$$$$
default_name
  -OEChem-01062215323D

 19 18  0     0  0  0  0  0  0999 V2000
   -2.2056   -4.0049    0.0000 H   0  0  0  0  0  0  0  0  0  0  0  0
   -2.2496   -2.9169    0.0000 C   0  0  0  0  0  0  0  0  0  0  0  0
   -2.7696   -2.5709    0.8910 H   0  0  0  0  0  0  0  0  0  0  0  0
   -2.7696   -2.5709   -0.8910 H   0  0  0  0  0  0  0  0  0  0  0  0
   -0.8406   -2.3699    0.0000 C   0  0  0  0  0  0  0  0  0  0  0  0
    0.1164   -3.1329    0.0000 O   0  0  0  0  0  0  0  0  0  0  0  0
   -0.7136   -1.0459    0.0000 N   0  0  0  0  0  0  0  0  0  0  0  0
   -1.5436   -0.4719    0.0000 H   0  0  0  0  0  0  0  0  0  0  0  0
    0.5724   -0.3469    0.0000 C   0  0  0  0  0  0  0  0  0  0  0  0
    1.3176   -0.9660    0.5012 H   0  0  0  0  0  0  0  0  0  0  0  0
    0.8955   -0.1893   -1.0299 H   0  0  0  0  0  0  0  0  0  0  0  0
    0.5029    1.0096    0.7073 C   0  0  0  0  0  0  0  0  0  0  0  0
    0.4530    1.0687    1.9342 O   0  0  0  0  0  0  0  0  0  0  0  0
    0.5002    2.0941   -0.0781 N   0  0  0  0  0  0  0  0  0  0  0  0
    0.5437    1.9470   -1.0744 H   0  0  0  0  0  0  0  0  0  0  0  0
    0.4388    3.4766    0.4008 C   0  0  0  0  0  0  0  0  0  0  0  0
    0.3952    3.5055    1.4923 H   0  0  0  0  0  0  0  0  0  0  0  0
    1.3249    4.0222    0.0737 H   0  0  0  0  0  0  0  0  0  0  0  0
   -0.4509    3.9675    0.0042 H   0  0  0  0  0  0  0  0  0  0  0  0
  5  6  2  0  0  0  0
  5  7  1  0  0  0  0
  2  3  1  0  0  0  0
  2  4  1  0  0  0  0
  2  5  1  0  0  0  0
  1  2  1  0  0  0  0
 12 13  2  0  0  0  0
 12 14  1  0  0  0  0
  9 10  1  0  0  0  0
  9 11  1  0  0  0  0
  9 12  1  0  0  0  0
  7  8  1  0  0  0  0
  7  9  1  0  0  0  0
 16 17  1  0  0  0  0
 16 18  1  0  0  0  0
 16 19  1  0  0  0  0
 14 15  1  0  0  0  0
 14 16  1  0  0  0  0
M  END
$$$$
default_name
  -OEChem-01062215323D

 19 18  0     0  0  0  0  0  0999 V2000
   -2.2056   -4.0049    0.0000 H   0  0  0  0  0  0  0  0  0  0  0  0
   -2.2496   -2.9169    0.0000 C   0  0  0  0  0  0  0  0  0  0  0  0
   -2.7696   -2.5709    0.8910 H   0  0  0  0  0  0  0  0  0  0  0  0
   -2.7696   -2.5709   -0.8910 H   0  0  0  0  0  0  0  0  0  0  0  0
   -0.8406   -2.3699    0.0000 C   0  0  0  0  0  0  0  0  0  0  0  0
    0.1164   -3.1329    0.0000 O   0  0  0  0  0  0  0  0  0  0  0  0
   -0.7136   -1.0459    0.0000 N   0  0  0  0  0  0  0  0  0  0  0  0
   -1.5436   -0.4719    0.0000 H   0  0  0  0  0  0  0  0  0  0  0  0
    0.5724   -0.3469    0.0000 C   0  0  0  0  0  0  0  0  0  0  0  0
    1.3176   -0.9660    0.5012 H   0  0  0  0  0  0  0  0  0  0  0  0
    0.8955   -0.1893   -1.0299 H   0  0  0  0  0  0  0  0  0  0  0  0
    0.5029    1.0096    0.7073 C   0  0  0  0  0  0  0  0  0  0  0  0
    0.7280    1.0938    1.9129 O   0  0  0  0  0  0  0  0  0  0  0  0
    0.1897    2.0657   -0.0541 N   0  0  0  0  0  0  0  0  0  0  0  0
    0.0218    1.8992   -1.0340 H   0  0  0  0  0  0  0  0  0  0  0  0
    0.0727    3.4430    0.4292 C   0  0  0  0  0  0  0  0  0  0  0  0
    0.2765    3.4946    1.5015 H   0  0  0  0  0  0  0  0  0  0  0  0
    0.7879    4.0810   -0.0918 H   0  0  0  0  0  0  0  0  0  0  0  0
   -0.9367    3.8150    0.2489 H   0  0  0  0  0  0  0  0  0  0  0  0
  5  6  2  0  0  0  0
  5  7  1  0  0  0  0
  2  3  1  0  0  0  0
  2  4  1  0  0  0  0
  2  5  1  0  0  0  0
  1  2  1  0  0  0  0
 12 13  2  0  0  0  0
 12 14  1  0  0  0  0
  9 10  1  0  0  0  0
  9 11  1  0  0  0  0
  9 12  1  0  0  0  0
  7  8  1  0  0  0  0
  7  9  1  0  0  0  0
 16 17  1  0  0  0  0
 16 18  1  0  0  0  0
 16 19  1  0  0  0  0
 14 15  1  0  0  0  0
 14 16  1  0  0  0  0
M  END
$$$$
default_name
  -OEChem-01062215323D

 19 18  0     0  0  0  0  0  0999 V2000
   -2.2056   -4.0049    0.0000 H   0  0  0  0  0  0  0  0  0  0  0  0
   -2.2496   -2.9169    0.0000 C   0  0  0  0  0  0  0  0  0  0  0  0
   -2.7696   -2.5709    0.8910 H   0  0  0  0  0  0  0  0  0  0  0  0
   -2.7696   -2.5709   -0.8910 H   0  0  0  0  0  0  0  0  0  0  0  0
   -0.8406   -2.3699    0.0000 C   0  0  0  0  0  0  0  0  0  0  0  0
    0.1164   -3.1329    0.0000 O   0  0  0  0  0  0  0  0  0  0  0  0
   -0.7136   -1.0459    0.0000 N   0  0  0  0  0  0  0  0  0  0  0  0
   -1.5436   -0.4719    0.0000 H   0  0  0  0  0  0  0  0  0  0  0  0
    0.5724   -0.3469    0.0000 C   0  0  0  0  0  0  0  0  0  0  0  0
    1.3176   -0.9660    0.5012 H   0  0  0  0  0  0  0  0  0  0  0  0
    0.8955   -0.1893   -1.0299 H   0  0  0  0  0  0  0  0  0  0  0  0
    0.5029    1.0096    0.7073 C   0  0  0  0  0  0  0  0  0  0  0  0
    0.9857    1.1508    1.8290 O   0  0  0  0  0  0  0  0  0  0  0  0
   -0.1014    2.0014    0.0407 N   0  0  0  0  0  0  0  0  0  0  0  0
   -0.4673    1.7911   -0.8747 H   0  0  0  0  0  0  0  0  0  0  0  0
   -0.2704    3.3672    0.5409 C   0  0  0  0  0  0  0  0  0  0  0  0
    0.1653    3.4700    1.5377 H   0  0  0  0  0  0  0  0  0  0  0  0
    0.2243    4.0716   -0.1292 H   0  0  0  0  0  0  0  0  0  0  0  0
   -1.3317    3.6125    0.5984 H   0  0  0  0  0  0  0  0  0  0  0  0
  5  6  2  0  0  0  0
  5  7  1  0  0  0  0
  2  3  1  0  0  0  0
  2  4  1  0  0  0  0
  2  5  1  0  0  0  0
  1  2  1  0  0  0  0
 12 13  2  0  0  0  0
 12 14  1  0  0  0  0
  9 10  1  0  0  0  0
  9 11  1  0  0  0  0
  9 12  1  0  0  0  0
  7  8  1  0  0  0  0
  7  9  1  0  0  0  0
 16 17  1  0  0  0  0
 16 18  1  0  0  0  0
 16 19  1  0  0  0  0
 14 15  1  0  0  0  0
 14 16  1  0  0  0  0
M  END
$$$$
default_name
  -OEChem-01062215323D

 19 18  0     0  0  0  0  0  0999 V2000
   -2.2056   -4.0049    0.0000 H   0  0  0  0  0  0  0  0  0  0  0  0
   -2.2496   -2.9169    0.0000 C   0  0  0  0  0  0  0  0  0  0  0  0
   -2.7696   -2.5709    0.8910 H   0  0  0  0  0  0  0  0  0  0  0  0
   -2.7696   -2.5709   -0.8910 H   0  0  0  0  0  0  0  0  0  0  0  0
   -0.8406   -2.3699    0.0000 C   0  0  0  0  0  0  0  0  0  0  0  0
    0.1164   -3.1329    0.0000 O   0  0  0  0  0  0  0  0  0  0  0  0
   -0.7136   -1.0459    0.0000 N   0  0  0  0  0  0  0  0  0  0  0  0
   -1.5436   -0.4719    0.0000 H   0  0  0  0  0  0  0  0  0  0  0  0
    0.5724   -0.3469    0.0000 C   0  0  0  0  0  0  0  0  0  0  0  0
    1.3176   -0.9660    0.5012 H   0  0  0  0  0  0  0  0  0  0  0  0
    0.8955   -0.1893   -1.0299 H   0  0  0  0  0  0  0  0  0  0  0  0
    0.5029    1.0096    0.7073 C   0  0  0  0  0  0  0  0  0  0  0  0
    1.2086    1.2356    1.6882 O   0  0  0  0  0  0  0  0  0  0  0  0
   -0.3531    1.9056    0.1997 N   0  0  0  0  0  0  0  0  0  0  0  0
   -0.8904    1.6301   -0.6075 H   0  0  0  0  0  0  0  0  0  0  0  0
   -0.5672    3.2542    0.7284 C   0  0  0  0  0  0  0  0  0  0  0  0
    0.0691    3.4334    1.5985 H   0  0  0  0  0  0  0  0  0  0  0  0
   -0.3276    3.9947   -0.0359 H   0  0  0  0  0  0  0  0  0  0  0  0
   -1.6089    3.3738    1.0289 H   0  0  0  0  0  0  0  0  0  0  0  0
  5  6  2  0  0  0  0
  5  7  1  0  0  0  0
  2  3  1  0  0  0  0
  2  4  1  0  0  0  0
  2  5  1  0  0  0  0
  1  2  1  0  0  0  0
 12 13  2  0  0  0  0
 12 14  1  0  0  0  0
  9 10  1  0  0  0  0
  9 11  1  0  0  0  0
  9 12  1  0  0  0  0
  7  8  1  0  0  0  0
  7  9  1  0  0  0  0
 16 17  1  0  0  0  0
 16 18  1  0  0  0  0
 16 19  1  0  0  0  0
 14 15  1  0  0  0  0
 14 16  1  0  0  0  0
M  END
$$$$
default_name
  -OEChem-01062215323D

 19 18  0     0  0  0  0  0  0999 V2000
   -2.2056   -4.0049    0.0000 H   0  0  0  0  0  0  0  0  0  0  0  0
   -2.2496   -2.9169    0.0000 C   0  0  0  0  0  0  0  0  0  0  0  0
   -2.7696   -2.5709    0.8910 H   0  0  0  0  0  0  0  0  0  0  0  0
   -2.7696   -2.5709   -0.8910 H   0  0  0  0  0  0  0  0  0  0  0  0
   -0.8406   -2.3699    0.0000 C   0  0  0  0  0  0  0  0  0  0  0  0
    0.1164   -3.1329    0.0000 O   0  0  0  0  0  0  0  0  0  0  0  0
   -0.7136   -1.0459    0.0000 N   0  0  0  0  0  0  0  0  0  0  0  0
   -1.5436   -0.4719    0.0000 H   0  0  0  0  0  0  0  0  0  0  0  0
    0.5724   -0.3469    0.0000 C   0  0  0  0  0  0  0  0  0  0  0  0
    1.3176   -0.9660    0.5012 H   0  0  0  0  0  0  0  0  0  0  0  0
    0.8955   -0.1893   -1.0299 H   0  0  0  0  0  0  0  0  0  0  0  0
    0.5029    1.0096    0.7073 C   0  0  0  0  0  0  0  0  0  0  0  0
    1.3815    1.3426    1.5001 O   0  0  0  0  0  0  0  0  0  0  0  0
   -0.5483    1.7848    0.4121 N   0  0  0  0  0  0  0  0  0  0  0  0
   -1.2185    1.4271   -0.2504 H   0  0  0  0  0  0  0  0  0  0  0  0
   -0.7974    3.1119    0.9788 C   0  0  0  0  0  0  0  0  0  0  0  0
   -0.0055    3.3872    1.6796 H   0  0  0  0  0  0  0  0  0  0  0  0
   -0.8301    3.8556    0.1815 H   0  0  0  0  0  0  0  0  0  0  0  0
   -1.7495    3.1152    1.5112 H   0  0  0  0  0  0  0  0  0  0  0  0
  5  6  2  0  0  0  0
  5  7  1  0  0  0  0
  2  3  1  0  0  0  0
  2  4  1  0  0  0  0
  2  5  1  0  0  0  0
  1  2  1  0  0  0  0
 12 13  2  0  0  0  0
 12 14  1  0  0  0  0
  9 10  1  0  0  0  0
  9 11  1  0  0  0  0
  9 12  1  0  0  0  0
  7  8  1  0  0  0  0
  7  9  1  0  0  0  0
 16 17  1  0  0  0  0
 16 18  1  0  0  0  0
 16 19  1  0  0  0  0
 14 15  1  0  0  0  0
 14 16  1  0  0  0  0
M  END
$$$$
default_name
  -OEChem-01062215323D

 19 18  0     0  0  0  0  0  0999 V2000
   -2.2056   -4.0049    0.0000 H   0  0  0  0  0  0  0  0  0  0  0  0
   -2.2496   -2.9169    0.0000 C   0  0  0  0  0  0  0  0  0  0  0  0
   -2.7696   -2.5709    0.8910 H   0  0  0  0  0  0  0  0  0  0  0  0
   -2.7696   -2.5709   -0.8910 H   0  0  0  0  0  0  0  0  0  0  0  0
   -0.8406   -2.3699    0.0000 C   0  0  0  0  0  0  0  0  0  0  0  0
    0.1164   -3.1329    0.0000 O   0  0  0  0  0  0  0  0  0  0  0  0
   -0.7136   -1.0459    0.0000 N   0  0  0  0  0  0  0  0  0  0  0  0
   -1.5436   -0.4719    0.0000 H   0  0  0  0  0  0  0  0  0  0  0  0
    0.5724   -0.3469    0.0000 C   0  0  0  0  0  0  0  0  0  0  0  0
    1.3176   -0.9660    0.5012 H   0  0  0  0  0  0  0  0  0  0  0  0
    0.8955   -0.1893   -1.0299 H   0  0  0  0  0  0  0  0  0  0  0  0
    0.5029    1.0096    0.7073 C   0  0  0  0  0  0  0  0  0  0  0  0
    1.4926    1.4643    1.2775 O   0  0  0  0  0  0  0  0  0  0  0  0
   -0.6737    1.6474    0.6635 N   0  0  0  0  0  0  0  0  0  0  0  0
   -1.4293    1.1960    0.1720 H   0  0  0  0  0  0  0  0  0  0  0  0
   -0.9453    2.9498    1.2752 C   0  0  0  0  0  0  0  0  0  0  0  0
   -0.0535    3.3347    1.7757 H   0  0  0  0  0  0  0  0  0  0  0  0
   -1.2490    3.6637    0.5084 H   0  0  0  0  0  0  0  0  0  0  0  0
   -1.7437    2.8543    2.0122 H   0  0  0  0  0  0  0  0  0  0  0  0
  5  6  2  0  0  0  0
  5  7  1  0  0  0  0
  2  3  1  0  0  0  0
  2  4  1  0  0  0  0
  2  5  1  0  0  0  0
  1  2  1  0  0  0  0
 12 13  2  0  0  0  0
 12 14  1  0  0  0  0
  9 10  1  0  0  0  0
  9 11  1  0  0  0  0
  9 12  1  0  0  0  0
  7  8  1  0  0  0  0
  7  9  1  0  0  0  0
 16 17  1  0  0  0  0
 16 18  1  0  0  0  0
 16 19  1  0  0  0  0
 14 15  1  0  0  0  0
 14 16  1  0  0  0  0
M  END
$$$$
default_name
  -OEChem-01062215323D

 19 18  0     0  0  0  0  0  0999 V2000
   -2.2056   -4.0049    0.0000 H   0  0  0  0  0  0  0  0  0  0  0  0
   -2.2496   -2.9169    0.0000 C   0  0  0  0  0  0  0  0  0  0  0  0
   -2.7696   -2.5709    0.8910 H   0  0  0  0  0  0  0  0  0  0  0  0
   -2.7696   -2.5709   -0.8910 H   0  0  0  0  0  0  0  0  0  0  0  0
   -0.8406   -2.3699    0.0000 C   0  0  0  0  0  0  0  0  0  0  0  0
    0.1164   -3.1329    0.0000 O   0  0  0  0  0  0  0  0  0  0  0  0
   -0.7136   -1.0459    0.0000 N   0  0  0  0  0  0  0  0  0  0  0  0
   -1.5436   -0.4719    0.0000 H   0  0  0  0  0  0  0  0  0  0  0  0
    0.5724   -0.3469    0.0000 C   0  0  0  0  0  0  0  0  0  0  0  0
    1.3176   -0.9660    0.5012 H   0  0  0  0  0  0  0  0  0  0  0  0
    0.8955   -0.1893   -1.0299 H   0  0  0  0  0  0  0  0  0  0  0  0
    0.5029    1.0096    0.7073 C   0  0  0  0  0  0  0  0  0  0  0  0
    1.5343    1.5926    1.0357 O   0  0  0  0  0  0  0  0  0  0  0  0
   -0.7208    1.5025    0.9366 N   0  0  0  0  0  0  0  0  0  0  0  0
   -1.5085    0.9526    0.6311 H   0  0  0  0  0  0  0  0  0  0  0  0
   -1.0008    2.7790    1.5972 C   0  0  0  0  0  0  0  0  0  0  0  0
   -0.0715    3.2793    1.8801 H   0  0  0  0  0  0  0  0  0  0  0  0
   -1.5558    3.4321    0.9225 H   0  0  0  0  0  0  0  0  0  0  0  0
   -1.5921    2.6088    2.4979 H   0  0  0  0  0  0  0  0  0  0  0  0
  5  6  2  0  0  0  0
  5  7  1  0  0  0  0
  2  3  1  0  0  0  0
  2  4  1  0  0  0  0
  2  5  1  0  0  0  0
  1  2  1  0  0  0  0
 12 13  2  0  0  0  0
 12 14  1  0  0  0  0
  9 10  1  0  0  0  0
  9 11  1  0  0  0  0
  9 12  1  0  0  0  0
  7  8  1  0  0  0  0
  7  9  1  0  0  0  0
 16 17  1  0  0  0  0
 16 18  1  0  0  0  0
 16 19  1  0  0  0  0
 14 15  1  0  0  0  0
 14 16  1  0  0  0  0
M  END
$$$$
default_name
  -OEChem-01062215323D

 19 18  0     0  0  0  0  0  0999 V2000
   -2.2056   -4.0049    0.0000 H   0  0  0  0  0  0  0  0  0  0  0  0
   -2.2496   -2.9169    0.0000 C   0  0  0  0  0  0  0  0  0  0  0  0
   -2.7696   -2.5709    0.8910 H   0  0  0  0  0  0  0  0  0  0  0  0
   -2.7696   -2.5709   -0.8910 H   0  0  0  0  0  0  0  0  0  0  0  0
   -0.8406   -2.3699    0.0000 C   0  0  0  0  0  0  0  0  0  0  0  0
    0.1164   -3.1329    0.0000 O   0  0  0  0  0  0  0  0  0  0  0  0
   -0.7136   -1.0459    0.0000 N   0  0  0  0  0  0  0  0  0  0  0  0
   -1.5436   -0.4719    0.0000 H   0  0  0  0  0  0  0  0  0  0  0  0
    0.5724   -0.3469    0.0000 C   0  0  0  0  0  0  0  0  0  0  0  0
    1.3176   -0.9660    0.5012 H   0  0  0  0  0  0  0  0  0  0  0  0
    0.8955   -0.1893   -1.0299 H   0  0  0  0  0  0  0  0  0  0  0  0
    0.5029    1.0096    0.7073 C   0  0  0  0  0  0  0  0  0  0  0  0
    1.5038    1.7186    0.7909 O   0  0  0  0  0  0  0  0  0  0  0  0
   -0.6864    1.3602    1.2130 N   0  0  0  0  0  0  0  0  0  0  0  0
   -1.4506    0.7134    1.0956 H   0  0  0  0  0  0  0  0  0  0  0  0
   -0.9602    2.6112    1.9231 C   0  0  0  0  0  0  0  0  0  0  0  0
   -0.0583    3.2249    1.9857 H   0  0  0  0  0  0  0  0  0  0  0  0
   -1.7295    3.1766    1.3955 H   0  0  0  0  0  0  0  0  0  0  0  0
   -1.3050    2.3955    2.9352 H   0  0  0  0  0  0  0  0  0  0  0  0
  5  6  2  0  0  0  0
  5  7  1  0  0  0  0
  2  3  1  0  0  0  0
  2  4  1  0  0  0  0
  2  5  1  0  0  0  0
  1  2  1  0  0  0  0
 12 13  2  0  0  0  0
 12 14  1  0  0  0  0
  9 10  1  0  0  0  0
  9 11  1  0  0  0  0
  9 12  1  0  0  0  0
  7  8  1  0  0  0  0
  7  9  1  0  0  0  0
 16 17  1  0  0  0  0
 16 18  1  0  0  0  0
 16 19  1  0  0  0  0
 14 15  1  0  0  0  0
 14 16  1  0  0  0  0
M  END
$$$$
default_name
  -OEChem-01062215323D

 19 18  0     0  0  0  0  0  0999 V2000
   -2.2056   -4.0049    0.0000 H   0  0  0  0  0  0  0  0  0  0  0  0
   -2.2496   -2.9169    0.0000 C   0  0  0  0  0  0  0  0  0  0  0  0
   -2.7696   -2.5709    0.8910 H   0  0  0  0  0  0  0  0  0  0  0  0
   -2.7696   -2.5709   -0.8910 H   0  0  0  0  0  0  0  0  0  0  0  0
   -0.8406   -2.3699    0.0000 C   0  0  0  0  0  0  0  0  0  0  0  0
    0.1164   -3.1329    0.0000 O   0  0  0  0  0  0  0  0  0  0  0  0
   -0.7136   -1.0459    0.0000 N   0  0  0  0  0  0  0  0  0  0  0  0
   -1.5436   -0.4719    0.0000 H   0  0  0  0  0  0  0  0  0  0  0  0
    0.5724   -0.3469    0.0000 C   0  0  0  0  0  0  0  0  0  0  0  0
    1.3176   -0.9660    0.5012 H   0  0  0  0  0  0  0  0  0  0  0  0
    0.8955   -0.1893   -1.0299 H   0  0  0  0  0  0  0  0  0  0  0  0
    0.5029    1.0096    0.7073 C   0  0  0  0  0  0  0  0  0  0  0  0
    1.4031    1.8338    0.5601 O   0  0  0  0  0  0  0  0  0  0  0  0
   -0.5728    1.2301    1.4737 N   0  0  0  0  0  0  0  0  0  0  0  0
   -1.2596    0.4947    1.5338 H   0  0  0  0  0  0  0  0  0  0  0  0
   -0.8262    2.4578    2.2305 C   0  0  0  0  0  0  0  0  0  0  0  0
   -0.0149    3.1752    2.0854 H   0  0  0  0  0  0  0  0  0  0  0  0
   -1.7583    2.9146    1.8952 H   0  0  0  0  0  0  0  0  0  0  0  0
   -0.9018    2.2289    3.2943 H   0  0  0  0  0  0  0  0  0  0  0  0
  5  6  2  0  0  0  0
  5  7  1  0  0  0  0
  2  3  1  0  0  0  0
  2  4  1  0  0  0  0
  2  5  1  0  0  0  0
  1  2  1  0  0  0  0
 12 13  2  0  0  0  0
 12 14  1  0  0  0  0
  9 10  1  0  0  0  0
  9 11  1  0  0  0  0
  9 12  1  0  0  0  0
  7  8  1  0  0  0  0
  7  9  1  0  0  0  0
 16 17  1  0  0  0  0
 16 18  1  0  0  0  0
 16 19  1  0  0  0  0
 14 15  1  0  0  0  0
 14 16  1  0  0  0  0
M  END
$$$$
default_name
  -OEChem-01062215323D

 19 18  0     0  0  0  0  0  0999 V2000
   -2.2056   -4.0049    0.0000 H   0  0  0  0  0  0  0  0  0  0  0  0
   -2.2496   -2.9169    0.0000 C   0  0  0  0  0  0  0  0  0  0  0  0
   -2.7696   -2.5709    0.8910 H   0  0  0  0  0  0  0  0  0  0  0  0
   -2.7696   -2.5709   -0.8910 H   0  0  0  0  0  0  0  0  0  0  0  0
   -0.8406   -2.3699    0.0000 C   0  0  0  0  0  0  0  0  0  0  0  0
    0.1164   -3.1329    0.0000 O   0  0  0  0  0  0  0  0  0  0  0  0
   -0.7136   -1.0459    0.0000 N   0  0  0  0  0  0  0  0  0  0  0  0
   -1.5436   -0.4719    0.0000 H   0  0  0  0  0  0  0  0  0  0  0  0
    0.5724   -0.3469    0.0000 C   0  0  0  0  0  0  0  0  0  0  0  0
    1.3176   -0.9660    0.5012 H   0  0  0  0  0  0  0  0  0  0  0  0
    0.8955   -0.1893   -1.0299 H   0  0  0  0  0  0  0  0  0  0  0  0
    0.5029    1.0096    0.7073 C   0  0  0  0  0  0  0  0  0  0  0  0
    1.2392    1.9304    0.3588 O   0  0  0  0  0  0  0  0  0  0  0  0
   -0.3877    1.1211    1.7010 N   0  0  0  0  0  0  0  0  0  0  0  0
   -0.9485    0.3115    1.9159 H   0  0  0  0  0  0  0  0  0  0  0  0
   -0.6080    2.3292    2.4985 C   0  0  0  0  0  0  0  0  0  0  0  0
    0.0559    3.1335    2.1723 H   0  0  0  0  0  0  0  0  0  0  0  0
   -1.6402    2.6639    2.3875 H   0  0  0  0  0  0  0  0  0  0  0  0
   -0.4102    2.1204    3.5507 H   0  0  0  0  0  0  0  0  0  0  0  0
  5  6  2  0  0  0  0
  5  7  1  0  0  0  0
  2  3  1  0  0  0  0
  2  4  1  0  0  0  0
  2  5  1  0  0  0  0
  1  2  1  0  0  0  0
 12 13  2  0  0  0  0
 12 14  1  0  0  0  0
  9 10  1  0  0  0  0
  9 11  1  0  0  0  0
  9 12  1  0  0  0  0
  7  8  1  0  0  0  0
  7  9  1  0  0  0  0
 16 17  1  0  0  0  0
 16 18  1  0  0  0  0
 16 19  1  0  0  0  0
 14 15  1  0  0  0  0
 14 16  1  0  0  0  0
M  END
$$$$
default_name
  -OEChem-01062215323D

 19 18  0     0  0  0  0  0  0999 V2000
   -2.2056   -4.0049    0.0000 H   0  0  0  0  0  0  0  0  0  0  0  0
   -2.2496   -2.9169    0.0000 C   0  0  0  0  0  0  0  0  0  0  0  0
   -2.7696   -2.5709    0.8910 H   0  0  0  0  0  0  0  0  0  0  0  0
   -2.7696   -2.5709   -0.8910 H   0  0  0  0  0  0  0  0  0  0  0  0
   -0.8406   -2.3699    0.0000 C   0  0  0  0  0  0  0  0  0  0  0  0
    0.1164   -3.1329    0.0000 O   0  0  0  0  0  0  0  0  0  0  0  0
   -0.7136   -1.0459    0.0000 N   0  0  0  0  0  0  0  0  0  0  0  0
   -1.5436   -0.4719    0.0000 H   0  0  0  0  0  0  0  0  0  0  0  0
    0.5724   -0.3469    0.0000 C   0  0  0  0  0  0  0  0  0  0  0  0
    1.3176   -0.9660    0.5012 H   0  0  0  0  0  0  0  0  0  0  0  0
    0.8955   -0.1893   -1.0299 H   0  0  0  0  0  0  0  0  0  0  0  0
    0.5029    1.0096    0.7073 C   0  0  0  0  0  0  0  0  0  0  0  0
    1.0232    2.0017    0.2008 O   0  0  0  0  0  0  0  0  0  0  0  0
   -0.1437    1.0405    1.8794 N   0  0  0  0  0  0  0  0  0  0  0  0
   -0.5385    0.1761    2.2157 H   0  0  0  0  0  0  0  0  0  0  0  0
   -0.3204    2.2343    2.7088 C   0  0  0  0  0  0  0  0  0  0  0  0
    0.1491    3.1028    2.2404 H   0  0  0  0  0  0  0  0  0  0  0  0
   -1.3834    2.4417    2.8390 H   0  0  0  0  0  0  0  0  0  0  0  0
    0.1364    2.0774    3.6869 H   0  0  0  0  0  0  0  0  0  0  0  0
  5  6  2  0  0  0  0
  5  7  1  0  0  0  0
  2  3  1  0  0  0  0
  2  4  1  0  0  0  0
  2  5  1  0  0  0  0
  1  2  1  0  0  0  0
 12 13  2  0  0  0  0
 12 14  1  0  0  0  0
  9 10  1  0  0  0  0
  9 11  1  0  0  0  0
  9 12  1  0  0  0  0
  7  8  1  0  0  0  0
  7  9  1  0  0  0  0
 16 17  1  0  0  0  0
 16 18  1  0  0  0  0
 16 19  1  0  0  0  0
 14 15  1  0  0  0  0
 14 16  1  0  0  0  0
M  END
$$$$
default_name
  -OEChem-01062215323D

 19 18  0     0  0  0  0  0  0999 V2000
   -2.2056   -4.0049    0.0000 H   0  0  0  0  0  0  0  0  0  0  0  0
   -2.2496   -2.9169    0.0000 C   0  0  0  0  0  0  0  0  0  0  0  0
   -2.7696   -2.5709    0.8910 H   0  0  0  0  0  0  0  0  0  0  0  0
   -2.7696   -2.5709   -0.8910 H   0  0  0  0  0  0  0  0  0  0  0  0
   -0.8406   -2.3699    0.0000 C   0  0  0  0  0  0  0  0  0  0  0  0
    0.1164   -3.1329    0.0000 O   0  0  0  0  0  0  0  0  0  0  0  0
   -0.7136   -1.0459    0.0000 N   0  0  0  0  0  0  0  0  0  0  0  0
   -1.5436   -0.4719    0.0000 H   0  0  0  0  0  0  0  0  0  0  0  0
    0.5724   -0.3469    0.0000 C   0  0  0  0  0  0  0  0  0  0  0  0
    1.3176   -0.9660    0.5012 H   0  0  0  0  0  0  0  0  0  0  0  0
    0.8955   -0.1893   -1.0299 H   0  0  0  0  0  0  0  0  0  0  0  0
    0.5029    1.0096    0.7073 C   0  0  0  0  0  0  0  0  0  0  0  0
    0.7698    2.0429    0.0969 O   0  0  0  0  0  0  0  0  0  0  0  0
    0.1424    0.9940    1.9968 N   0  0  0  0  0  0  0  0  0  0  0  0
   -0.0576    0.0979    2.4130 H   0  0  0  0  0  0  0  0  0  0  0  0
    0.0170    2.1794    2.8472 C   0  0  0  0  0  0  0  0  0  0  0  0
    0.2585    3.0850    2.2853 H   0  0  0  0  0  0  0  0  0  0  0  0
   -1.0052    2.2630    3.2187 H   0  0  0  0  0  0  0  0  0  0  0  0
    0.7007    2.1028    3.6937 H   0  0  0  0  0  0  0  0  0  0  0  0
  5  6  2  0  0  0  0
  5  7  1  0  0  0  0
  2  3  1  0  0  0  0
  2  4  1  0  0  0  0
  2  5  1  0  0  0  0
  1  2  1  0  0  0  0
 12 13  2  0  0  0  0
 12 14  1  0  0  0  0
  9 10  1  0  0  0  0
  9 11  1  0  0  0  0
  9 12  1  0  0  0  0
  7  8  1  0  0  0  0
  7  9  1  0  0  0  0
 16 17  1  0  0  0  0
 16 18  1  0  0  0  0
 16 19  1  0  0  0  0
 14 15  1  0  0  0  0
 14 16  1  0  0  0  0
M  END
$$$$
default_name
  -OEChem-01062215323D

 19 18  0     0  0  0  0  0  0999 V2000
   -2.2056   -4.0049    0.0000 H   0  0  0  0  0  0  0  0  0  0  0  0
   -2.2496   -2.9169    0.0000 C   0  0  0  0  0  0  0  0  0  0  0  0
   -2.7696   -2.5709    0.8910 H   0  0  0  0  0  0  0  0  0  0  0  0
   -2.7696   -2.5709   -0.8910 H   0  0  0  0  0  0  0  0  0  0  0  0
   -0.8406   -2.3699    0.0000 C   0  0  0  0  0  0  0  0  0  0  0  0
    0.1164   -3.1329    0.0000 O   0  0  0  0  0  0  0  0  0  0  0  0
   -0.7136   -1.0459    0.0000 N   0  0  0  0  0  0  0  0  0  0  0  0
   -1.5436   -0.4719    0.0000 H   0  0  0  0  0  0  0  0  0  0  0  0
    0.5724   -0.3469    0.0000 C   0  0  0  0  0  0  0  0  0  0  0  0
    1.3176   -0.9660    0.5012 H   0  0  0  0  0  0  0  0  0  0  0  0
    0.8955   -0.1893   -1.0299 H   0  0  0  0  0  0  0  0  0  0  0  0
    0.5029    1.0096    0.7073 C   0  0  0  0  0  0  0  0  0  0  0  0
    0.4963    2.0511    0.0541 O   0  0  0  0  0  0  0  0  0  0  0  0
    0.4513    0.9846    2.0451 N   0  0  0  0  0  0  0  0  0  0  0  0
    0.4615    0.0822    2.4941 H   0  0  0  0  0  0  0  0  0  0  0  0
    0.3812    2.1684    2.9041 C   0  0  0  0  0  0  0  0  0  0  0  0
    0.3765    3.0814    2.3037 H   0  0  0  0  0  0  0  0  0  0  0  0
   -0.5314    2.1402    3.5010 H   0  0  0  0  0  0  0  0  0  0  0  0
    1.2444    2.1949    3.5705 H   0  0  0  0  0  0  0  0  0  0  0  0
  5  6  2  0  0  0  0
  5  7  1  0  0  0  0
  2  3  1  0  0  0  0
  2  4  1  0  0  0  0
  2  5  1  0  0  0  0
  1  2  1  0  0  0  0
 12 13  2  0  0  0  0
 12 14  1  0  0  0  0
  9 10  1  0  0  0  0
  9 11  1  0  0  0  0
  9 12  1  0  0  0  0
  7  8  1  0  0  0  0
  7  9  1  0  0  0  0
 16 17  1  0  0  0  0
 16 18  1  0  0  0  0
 16 19  1  0  0  0  0
 14 15  1  0  0  0  0
 14 16  1  0  0  0  0
M  END
$$$$
default_name
  -OEChem-01062215323D

 19 18  0     0  0  0  0  0  0999 V2000
   -2.2056   -4.0049    0.0000 H   0  0  0  0  0  0  0  0  0  0  0  0
   -2.2496   -2.9169    0.0000 C   0  0  0  0  0  0  0  0  0  0  0  0
   -2.7696   -2.5709    0.8910 H   0  0  0  0  0  0  0  0  0  0  0  0
   -2.7696   -2.5709   -0.8910 H   0  0  0  0  0  0  0  0  0  0  0  0
   -0.8406   -2.3699    0.0000 C   0  0  0  0  0  0  0  0  0  0  0  0
    0.1164   -3.1329    0.0000 O   0  0  0  0  0  0  0  0  0  0  0  0
   -0.7136   -1.0459    0.0000 N   0  0  0  0  0  0  0  0  0  0  0  0
   -1.5436   -0.4719    0.0000 H   0  0  0  0  0  0  0  0  0  0  0  0
    0.5724   -0.3469    0.0000 C   0  0  0  0  0  0  0  0  0  0  0  0
    1.3176   -0.9660    0.5012 H   0  0  0  0  0  0  0  0  0  0  0  0
    0.8955   -0.1893   -1.0299 H   0  0  0  0  0  0  0  0  0  0  0  0
    0.5029    1.0096    0.7073 C   0  0  0  0  0  0  0  0  0  0  0  0
    0.2214    2.0260    0.0754 O   0  0  0  0  0  0  0  0  0  0  0  0
    0.7618    1.0131    2.0210 N   0  0  0  0  0  0  0  0  0  0  0  0
    0.9834    0.1300    2.4537 H   0  0  0  0  0  0  0  0  0  0  0  0
    0.7473    2.2020    2.8758 C   0  0  0  0  0  0  0  0  0  0  0  0
    0.4952    3.0923    2.2946 H   0  0  0  0  0  0  0  0  0  0  0  0
    0.0055    2.0814    3.6664 H   0  0  0  0  0  0  0  0  0  0  0  0
    1.7302    2.3474    3.3258 H   0  0  0  0  0  0  0  0  0  0  0  0
  5  6  2  0  0  0  0
  5  7  1  0  0  0  0
  2  3  1  0  0  0  0
  2  4  1  0  0  0  0
  2  5  1  0  0  0  0
  1  2  1  0  0  0  0
 12 13  2  0  0  0  0
 12 14  1  0  0  0  0
  9 10  1  0  0  0  0
  9 11  1  0  0  0  0
  9 12  1  0  0  0  0
  7  8  1  0  0  0  0
  7  9  1  0  0  0  0
 16 17  1  0  0  0  0
 16 18  1  0  0  0  0
 16 19  1  0  0  0  0
 14 15  1  0  0  0  0
 14 16  1  0  0  0  0
M  END
$$$$
default_name
  -OEChem-01062215323D

 19 18  0     0  0  0  0  0  0999 V2000
   -2.2056   -4.0049    0.0000 H   0  0  0  0  0  0  0  0  0  0  0  0
   -2.2496   -2.9169    0.0000 C   0  0  0  0  0  0  0  0  0  0  0  0
   -2.7696   -2.5709    0.8910 H   0  0  0  0  0  0  0  0  0  0  0  0
   -2.7696   -2.5709   -0.8910 H   0  0  0  0  0  0  0  0  0  0  0  0
   -0.8406   -2.3699    0.0000 C   0  0  0  0  0  0  0  0  0  0  0  0
    0.1164   -3.1329    0.0000 O   0  0  0  0  0  0  0  0  0  0  0  0
   -0.7136   -1.0459    0.0000 N   0  0  0  0  0  0  0  0  0  0  0  0
   -1.5436   -0.4719    0.0000 H   0  0  0  0  0  0  0  0  0  0  0  0
    0.5724   -0.3469    0.0000 C   0  0  0  0  0  0  0  0  0  0  0  0
    1.3176   -0.9660    0.5012 H   0  0  0  0  0  0  0  0  0  0  0  0
    0.8955   -0.1893   -1.0299 H   0  0  0  0  0  0  0  0  0  0  0  0
    0.5029    1.0096    0.7073 C   0  0  0  0  0  0  0  0  0  0  0  0
   -0.0364    1.9690    0.1593 O   0  0  0  0  0  0  0  0  0  0  0  0
    1.0528    1.0774    1.9263 N   0  0  0  0  0  0  0  0  0  0  0  0
    1.4726    0.2381    2.2944 H   0  0  0  0  0  0  0  0  0  0  0  0
    1.0904    2.2778    2.7641 C   0  0  0  0  0  0  0  0  0  0  0  0
    0.6064    3.1169    2.2583 H   0  0  0  0  0  0  0  0  0  0  0  0
    0.5692    2.0908    3.7038 H   0  0  0  0  0  0  0  0  0  0  0  0
    2.1252    2.5498    2.9763 H   0  0  0  0  0  0  0  0  0  0  0  0
  5  6  2  0  0  0  0
  5  7  1  0  0  0  0
  2  3  1  0  0  0  0
  2  4  1  0  0  0  0
  2  5  1  0  0  0  0
  1  2  1  0  0  0  0
 12 13  2  0  0  0  0
 12 14  1  0  0  0  0
  9 10  1  0  0  0  0
  9 11  1  0  0  0  0
  9 12  1  0  0  0  0
  7  8  1  0  0  0  0
  7  9  1  0  0  0  0
 16 17  1  0  0  0  0
 16 18  1  0  0  0  0
 16 19  1  0  0  0  0
 14 15  1  0  0  0  0
 14 16  1  0  0  0  0
M  END
$$$$
default_name
  -OEChem-01062215323D

 19 18  0     0  0  0  0  0  0999 V2000
   -2.2056   -4.0049    0.0000 H   0  0  0  0  0  0  0  0  0  0  0  0
   -2.2496   -2.9169    0.0000 C   0  0  0  0  0  0  0  0  0  0  0  0
   -2.7696   -2.5709    0.8910 H   0  0  0  0  0  0  0  0  0  0  0  0
   -2.7696   -2.5709   -0.8910 H   0  0  0  0  0  0  0  0  0  0  0  0
   -0.8406   -2.3699    0.0000 C   0  0  0  0  0  0  0  0  0  0  0  0
    0.1164   -3.1329    0.0000 O   0  0  0  0  0  0  0  0  0  0  0  0
   -0.7136   -1.0459    0.0000 N   0  0  0  0  0  0  0  0  0  0  0  0
   -1.5436   -0.4719    0.0000 H   0  0  0  0  0  0  0  0  0  0  0  0
    0.5724   -0.3469    0.0000 C   0  0  0  0  0  0  0  0  0  0  0  0
    1.3176   -0.9660    0.5012 H   0  0  0  0  0  0  0  0  0  0  0  0
    0.8955   -0.1893   -1.0299 H   0  0  0  0  0  0  0  0  0  0  0  0
    0.5029    1.0096    0.7073 C   0  0  0  0  0  0  0  0  0  0  0  0
   -0.2592    1.8842    0.3001 O   0  0  0  0  0  0  0  0  0  0  0  0
    1.3045    1.1732    1.7673 N   0  0  0  0  0  0  0  0  0  0  0  0
    1.8956    0.3991    2.0272 H   0  0  0  0  0  0  0  0  0  0  0  0
    1.3872    2.3907    2.5766 C   0  0  0  0  0  0  0  0  0  0  0  0
    0.7026    3.1535    2.1976 H   0  0  0  0  0  0  0  0  0  0  0  0
    1.1211    2.1676    3.6106 H   0  0  0  0  0  0  0  0  0  0  0  0
    2.4024    2.7885    2.5458 H   0  0  0  0  0  0  0  0  0  0  0  0
  5  6  2  0  0  0  0
  5  7  1  0  0  0  0
  2  3  1  0  0  0  0
  2  4  1  0  0  0  0
  2  5  1  0  0  0  0
  1  2  1  0  0  0  0
 12 13  2  0  0  0  0
 12 14  1  0  0  0  0
  9 10  1  0  0  0  0
  9 11  1  0  0  0  0
  9 12  1  0  0  0  0
  7  8  1  0  0  0  0
  7  9  1  0  0  0  0
 16 17  1  0  0  0  0
 16 18  1  0  0  0  0
 16 19  1  0  0  0  0
 14 15  1  0  0  0  0
 14 16  1  0  0  0  0
M  END
$$$$
default_name
  -OEChem-01062215323D

 19 18  0     0  0  0  0  0  0999 V2000
   -2.2056   -4.0049    0.0000 H   0  0  0  0  0  0  0  0  0  0  0  0
   -2.2496   -2.9169    0.0000 C   0  0  0  0  0  0  0  0  0  0  0  0
   -2.7696   -2.5709    0.8910 H   0  0  0  0  0  0  0  0  0  0  0  0
   -2.7696   -2.5709   -0.8910 H   0  0  0  0  0  0  0  0  0  0  0  0
   -0.8406   -2.3699    0.0000 C   0  0  0  0  0  0  0  0  0  0  0  0
    0.1164   -3.1329    0.0000 O   0  0  0  0  0  0  0  0  0  0  0  0
   -0.7136   -1.0459    0.0000 N   0  0  0  0  0  0  0  0  0  0  0  0
   -1.5436   -0.4719    0.0000 H   0  0  0  0  0  0  0  0  0  0  0  0
    0.5724   -0.3469    0.0000 C   0  0  0  0  0  0  0  0  0  0  0  0
    1.3176   -0.9660    0.5012 H   0  0  0  0  0  0  0  0  0  0  0  0
    0.8955   -0.1893   -1.0299 H   0  0  0  0  0  0  0  0  0  0  0  0
    0.5029    1.0096    0.7073 C   0  0  0  0  0  0  0  0  0  0  0  0
   -0.4321    1.7772    0.4882 O   0  0  0  0  0  0  0  0  0  0  0  0
    1.4998    1.2940    1.5548 N   0  0  0  0  0  0  0  0  0  0  0  0
    2.2237    0.6021    1.6702 H   0  0  0  0  0  0  0  0  0  0  0  0
    1.6174    2.5331    2.3261 C   0  0  0  0  0  0  0  0  0  0  0  0
    0.7772    3.1996    2.1164 H   0  0  0  0  0  0  0  0  0  0  0  0
    1.6236    2.3068    3.3932 H   0  0  0  0  0  0  0  0  0  0  0  0
    2.5429    3.0471    2.0635 H   0  0  0  0  0  0  0  0  0  0  0  0
  5  6  2  0  0  0  0
  5  7  1  0  0  0  0
  2  3  1  0  0  0  0
  2  4  1  0  0  0  0
  2  5  1  0  0  0  0
  1  2  1  0  0  0  0
 12 13  2  0  0  0  0
 12 14  1  0  0  0  0
  9 10  1  0  0  0  0
  9 11  1  0  0  0  0
  9 12  1  0  0  0  0
  7  8  1  0  0  0  0
  7  9  1  0  0  0  0
 16 17  1  0  0  0  0
 16 18  1  0  0  0  0
 16 19  1  0  0  0  0
 14 15  1  0  0  0  0
 14 16  1  0  0  0  0
M  END
$$$$
default_name
  -OEChem-01062215323D

 19 18  0     0  0  0  0  0  0999 V2000
   -2.2056   -4.0049    0.0000 H   0  0  0  0  0  0  0  0  0  0  0  0
   -2.2496   -2.9169    0.0000 C   0  0  0  0  0  0  0  0  0  0  0  0
   -2.7696   -2.5709    0.8910 H   0  0  0  0  0  0  0  0  0  0  0  0
   -2.7696   -2.5709   -0.8910 H   0  0  0  0  0  0  0  0  0  0  0  0
   -0.8406   -2.3699    0.0000 C   0  0  0  0  0  0  0  0  0  0  0  0
    0.1164   -3.1329    0.0000 O   0  0  0  0  0  0  0  0  0  0  0  0
   -0.7136   -1.0459    0.0000 N   0  0  0  0  0  0  0  0  0  0  0  0
   -1.5436   -0.4719    0.0000 H   0  0  0  0  0  0  0  0  0  0  0  0
    0.5724   -0.3469    0.0000 C   0  0  0  0  0  0  0  0  0  0  0  0
    1.3176   -0.9660    0.5012 H   0  0  0  0  0  0  0  0  0  0  0  0
    0.8955   -0.1893   -1.0299 H   0  0  0  0  0  0  0  0  0  0  0  0
    0.5029    1.0096    0.7073 C   0  0  0  0  0  0  0  0  0  0  0  0
   -0.5432    1.6555    0.7108 O   0  0  0  0  0  0  0  0  0  0  0  0
    1.6252    1.4314    1.3035 N   0  0  0  0  0  0  0  0  0  0  0  0
    2.4346    0.8332    1.2477 H   0  0  0  0  0  0  0  0  0  0  0  0
    1.7653    2.6952    2.0298 C   0  0  0  0  0  0  0  0  0  0  0  0
    0.8252    3.2522    2.0203 H   0  0  0  0  0  0  0  0  0  0  0  0
    2.0425    2.4987    3.0663 H   0  0  0  0  0  0  0  0  0  0  0  0
    2.5372    3.3081    1.5625 H   0  0  0  0  0  0  0  0  0  0  0  0
  5  6  2  0  0  0  0
  5  7  1  0  0  0  0
  2  3  1  0  0  0  0
  2  4  1  0  0  0  0
  2  5  1  0  0  0  0
  1  2  1  0  0  0  0
 12 13  2  0  0  0  0
 12 14  1  0  0  0  0
  9 10  1  0  0  0  0
  9 11  1  0  0  0  0
  9 12  1  0  0  0  0
  7  8  1  0  0  0  0
  7  9  1  0  0  0  0
 16 17  1  0  0  0  0
 16 18  1  0  0  0  0
 16 19  1  0  0  0  0
 14 15  1  0  0  0  0
 14 16  1  0  0  0  0
M  END
$$$$
default_name
  -OEChem-01062215323D

 19 18  0     0  0  0  0  0  0999 V2000
   -2.2056   -4.0049    0.0000 H   0  0  0  0  0  0  0  0  0  0  0  0
   -2.2496   -2.9169    0.0000 C   0  0  0  0  0  0  0  0  0  0  0  0
   -2.7696   -2.5709    0.8910 H   0  0  0  0  0  0  0  0  0  0  0  0
   -2.7696   -2.5709   -0.8910 H   0  0  0  0  0  0  0  0  0  0  0  0
   -0.8406   -2.3699    0.0000 C   0  0  0  0  0  0  0  0  0  0  0  0
    0.1164   -3.1329    0.0000 O   0  0  0  0  0  0  0  0  0  0  0  0
   -0.7136   -1.0459    0.0000 N   0  0  0  0  0  0  0  0  0  0  0  0
   -1.5436   -0.4719    0.0000 H   0  0  0  0  0  0  0  0  0  0  0  0
    0.5724   -0.3469    0.0000 C   0  0  0  0  0  0  0  0  0  0  0  0
    1.3176   -0.9660    0.5012 H   0  0  0  0  0  0  0  0  0  0  0  0
    0.8955   -0.1893   -1.0299 H   0  0  0  0  0  0  0  0  0  0  0  0
    0.5029    1.0096    0.7073 C   0  0  0  0  0  0  0  0  0  0  0  0
   -0.5849    1.5272    0.9527 O   0  0  0  0  0  0  0  0  0  0  0  0
    1.6723    1.5763    1.0303 N   0  0  0  0  0  0  0  0  0  0  0  0
    2.5137    1.0766    0.7886 H   0  0  0  0  0  0  0  0  0  0  0  0
    1.8208    2.8660    1.7077 C   0  0  0  0  0  0  0  0  0  0  0  0
    0.8432    3.3075    1.9159 H   0  0  0  0  0  0  0  0  0  0  0  0
    2.3493    2.7303    2.6522 H   0  0  0  0  0  0  0  0  0  0  0  0
    2.3856    3.5536    1.0768 H   0  0  0  0  0  0  0  0  0  0  0  0
  5  6  2  0  0  0  0
  5  7  1  0  0  0  0
  2  3  1  0  0  0  0
  2  4  1  0  0  0  0
  2  5  1  0  0  0  0
  1  2  1  0  0  0  0
 12 13  2  0  0  0  0
 12 14  1  0  0  0  0
  9 10  1  0  0  0  0
  9 11  1  0  0  0  0
  9 12  1  0  0  0  0
  7  8  1  0  0  0  0
  7  9  1  0  0  0  0
 16 17  1  0  0  0  0
 16 18  1  0  0  0  0
 16 19  1  0  0  0  0
 14 15  1  0  0  0  0
 14 16  1  0  0  0  0
M  END
$$$$
default_name
  -OEChem-01062215323D

 19 18  0     0  0  0  0  0  0999 V2000
   -2.2056   -4.0049    0.0000 H   0  0  0  0  0  0  0  0  0  0  0  0
   -2.2496   -2.9169    0.0000 C   0  0  0  0  0  0  0  0  0  0  0  0
   -2.7696   -2.5709    0.8910 H   0  0  0  0  0  0  0  0  0  0  0  0
   -2.7696   -2.5709   -0.8910 H   0  0  0  0  0  0  0  0  0  0  0  0
   -0.8406   -2.3699    0.0000 C   0  0  0  0  0  0  0  0  0  0  0  0
    0.1164   -3.1329    0.0000 O   0  0  0  0  0  0  0  0  0  0  0  0
   -0.7136   -1.0459    0.0000 N   0  0  0  0  0  0  0  0  0  0  0  0
   -1.5436   -0.4719    0.0000 H   0  0  0  0  0  0  0  0  0  0  0  0
    0.5724   -0.3469    0.0000 C   0  0  0  0  0  0  0  0  0  0  0  0
    1.3649   -1.0530    0.2512 H   0  0  0  0  0  0  0  0  0  0  0  0
    0.7679    0.0454   -0.9989 H   0  0  0  0  0  0  0  0  0  0  0  0
    0.6102    0.8121    1.0002 C   0  0  0  0  0  0  0  0  0  0  0  0
   -0.3727    1.0668    1.6934 O   0  0  0  0  0  0  0  0  0  0  0  0
    1.7523    1.5081    1.0663 N   0  0  0  0  0  0  0  0  0  0  0  0
    2.5050    1.2253    0.4584 H   0  0  0  0  0  0  0  0  0  0  0  0
    1.9899    2.6479    1.9542 C   0  0  0  0  0  0  0  0  0  0  0  0
    1.1048    2.8564    2.5601 H   0  0  0  0  0  0  0  0  0  0  0  0
    2.8248    2.4305    2.6217 H   0  0  0  0  0  0  0  0  0  0  0  0
    2.2244    3.5351    1.3645 H   0  0  0  0  0  0  0  0  0  0  0  0
  5  6  2  0  0  0  0
  5  7  1  0  0  0  0
  2  3  1  0  0  0  0
  2  4  1  0  0  0  0
  2  5  1  0  0  0  0
  1  2  1  0  0  0  0
 12 13  2  0  0  0  0
 12 14  1  0  0  0  0
  9 10  1  0  0  0  0
  9 11  1  0  0  0  0
  9 12  1  0  0  0  0
  7  8  1  0  0  0  0
  7  9  1  0  0  0  0
 16 17  1  0  0  0  0
 16 18  1  0  0  0  0
 16 19  1  0  0  0  0
 14 15  1  0  0  0  0
 14 16  1  0  0  0  0
M  END
$$$$
default_name
  -OEChem-01062215323D

 19 18  0     0  0  0  0  0  0999 V2000
   -2.2056   -4.0049    0.0000 H   0  0  0  0  0  0  0  0  0  0  0  0
   -2.2496   -2.9169    0.0000 C   0  0  0  0  0  0  0  0  0  0  0  0
   -2.7696   -2.5709    0.8910 H   0  0  0  0  0  0  0  0  0  0  0  0
   -2.7696   -2.5709   -0.8910 H   0  0  0  0  0  0  0  0  0  0  0  0
   -0.8406   -2.3699    0.0000 C   0  0  0  0  0  0  0  0  0  0  0  0
    0.1164   -3.1329    0.0000 O   0  0  0  0  0  0  0  0  0  0  0  0
   -0.7136   -1.0459    0.0000 N   0  0  0  0  0  0  0  0  0  0  0  0
   -1.5436   -0.4719    0.0000 H   0  0  0  0  0  0  0  0  0  0  0  0
    0.5724   -0.3469    0.0000 C   0  0  0  0  0  0  0  0  0  0  0  0
    1.3649   -1.0530    0.2512 H   0  0  0  0  0  0  0  0  0  0  0  0
    0.7679    0.0454   -0.9989 H   0  0  0  0  0  0  0  0  0  0  0  0
    0.6102    0.8121    1.0002 C   0  0  0  0  0  0  0  0  0  0  0  0
   -0.2459    0.9036    1.8778 O   0  0  0  0  0  0  0  0  0  0  0  0
    1.6092    1.6924    0.8581 N   0  0  0  0  0  0  0  0  0  0  0  0
    2.2645    1.5351    0.1084 H   0  0  0  0  0  0  0  0  0  0  0  0
    1.8212    2.8653    1.7088 C   0  0  0  0  0  0  0  0  0  0  0  0
    1.0501    2.9269    2.4806 H   0  0  0  0  0  0  0  0  0  0  0  0
    2.7954    2.7996    2.1951 H   0  0  0  0  0  0  0  0  0  0  0  0
    1.7824    3.7731    1.1054 H   0  0  0  0  0  0  0  0  0  0  0  0
  5  6  2  0  0  0  0
  5  7  1  0  0  0  0
  2  3  1  0  0  0  0
  2  4  1  0  0  0  0
  2  5  1  0  0  0  0
  1  2  1  0  0  0  0
 12 13  2  0  0  0  0
 12 14  1  0  0  0  0
  9 10  1  0  0  0  0
  9 11  1  0  0  0  0
  9 12  1  0  0  0  0
  7  8  1  0  0  0  0
  7  9  1  0  0  0  0
 16 17  1  0  0  0  0
 16 18  1  0  0  0  0
 16 19  1  0  0  0  0
 14 15  1  0  0  0  0
 14 16  1  0  0  0  0
M  END
$$$$
default_name
  -OEChem-01062215323D

 19 18  0     0  0  0  0  0  0999 V2000
   -2.2056   -4.0049    0.0000 H   0  0  0  0  0  0  0  0  0  0  0  0
   -2.2496   -2.9169    0.0000 C   0  0  0  0  0  0  0  0  0  0  0  0
   -2.7696   -2.5709    0.8910 H   0  0  0  0  0  0  0  0  0  0  0  0
   -2.7696   -2.5709   -0.8910 H   0  0  0  0  0  0  0  0  0  0  0  0
   -0.8406   -2.3699    0.0000 C   0  0  0  0  0  0  0  0  0  0  0  0
    0.1164   -3.1329    0.0000 O   0  0  0  0  0  0  0  0  0  0  0  0
   -0.7136   -1.0459    0.0000 N   0  0  0  0  0  0  0  0  0  0  0  0
   -1.5436   -0.4719    0.0000 H   0  0  0  0  0  0  0  0  0  0  0  0
    0.5724   -0.3469    0.0000 C   0  0  0  0  0  0  0  0  0  0  0  0
    1.3649   -1.0530    0.2512 H   0  0  0  0  0  0  0  0  0  0  0  0
    0.7679    0.0454   -0.9989 H   0  0  0  0  0  0  0  0  0  0  0  0
    0.6102    0.8121    1.0002 C   0  0  0  0  0  0  0  0  0  0  0  0
   -0.0598    0.7661    2.0300 O   0  0  0  0  0  0  0  0  0  0  0  0
    1.3990    1.8476    0.6862 N   0  0  0  0  0  0  0  0  0  0  0  0
    1.9112    1.7960   -0.1805 H   0  0  0  0  0  0  0  0  0  0  0  0
    1.5734    3.0483    1.5061 C   0  0  0  0  0  0  0  0  0  0  0  0
    0.9698    2.9862    2.4149 H   0  0  0  0  0  0  0  0  0  0  0  0
    2.6210    3.1540    1.7911 H   0  0  0  0  0  0  0  0  0  0  0  0
    1.2645    3.9300    0.9432 H   0  0  0  0  0  0  0  0  0  0  0  0
  5  6  2  0  0  0  0
  5  7  1  0  0  0  0
  2  3  1  0  0  0  0
  2  4  1  0  0  0  0
  2  5  1  0  0  0  0
  1  2  1  0  0  0  0
 12 13  2  0  0  0  0
 12 14  1  0  0  0  0
  9 10  1  0  0  0  0
  9 11  1  0  0  0  0
  9 12  1  0  0  0  0
  7  8  1  0  0  0  0
  7  9  1  0  0  0  0
 16 17  1  0  0  0  0
 16 18  1  0  0  0  0
 16 19  1  0  0  0  0
 14 15  1  0  0  0  0
 14 16  1  0  0  0  0
M  END
$$$$
default_name
  -OEChem-01062215323D

 19 18  0     0  0  0  0  0  0999 V2000
   -2.2056   -4.0049    0.0000 H   0  0  0  0  0  0  0  0  0  0  0  0
   -2.2496   -2.9169    0.0000 C   0  0  0  0  0  0  0  0  0  0  0  0
   -2.7696   -2.5709    0.8910 H   0  0  0  0  0  0  0  0  0  0  0  0
   -2.7696   -2.5709   -0.8910 H   0  0  0  0  0  0  0  0  0  0  0  0
   -0.8406   -2.3699    0.0000 C   0  0  0  0  0  0  0  0  0  0  0  0
    0.1164   -3.1329    0.0000 O   0  0  0  0  0  0  0  0  0  0  0  0
   -0.7136   -1.0459    0.0000 N   0  0  0  0  0  0  0  0  0  0  0  0
   -1.5436   -0.4719    0.0000 H   0  0  0  0  0  0  0  0  0  0  0  0
    0.5724   -0.3469    0.0000 C   0  0  0  0  0  0  0  0  0  0  0  0
    1.3649   -1.0530    0.2512 H   0  0  0  0  0  0  0  0  0  0  0  0
    0.7679    0.0454   -0.9989 H   0  0  0  0  0  0  0  0  0  0  0  0
    0.6102    0.8121    1.0002 C   0  0  0  0  0  0  0  0  0  0  0  0
    0.1730    0.6639    2.1397 O   0  0  0  0  0  0  0  0  0  0  0  0
    1.1360    1.9631    0.5623 N   0  0  0  0  0  0  0  0  0  0  0  0
    1.4693    1.9901   -0.3887 H   0  0  0  0  0  0  0  0  0  0  0  0
    1.2634    3.1844    1.3601 C   0  0  0  0  0  0  0  0  0  0  0  0
    0.8693    3.0303    2.3675 H   0  0  0  0  0  0  0  0  0  0  0  0
    2.3135    3.4693    1.4373 H   0  0  0  0  0  0  0  0  0  0  0  0
    0.7059    3.9951    0.8889 H   0  0  0  0  0  0  0  0  0  0  0  0
  5  6  2  0  0  0  0
  5  7  1  0  0  0  0
  2  3  1  0  0  0  0
  2  4  1  0  0  0  0
  2  5  1  0  0  0  0
  1  2  1  0  0  0  0
 12 13  2  0  0  0  0
 12 14  1  0  0  0  0
  9 10  1  0  0  0  0
  9 11  1  0  0  0  0
  9 12  1  0  0  0  0
  7  8  1  0  0  0  0
  7  9  1  0  0  0  0
 16 17  1  0  0  0  0
 16 18  1  0  0  0  0
 16 19  1  0  0  0  0
 14 15  1  0  0  0  0
 14 16  1  0  0  0  0
M  END
$$$$
default_name
  -OEChem-01062215323D

 19 18  0     0  0  0  0  0  0999 V2000
   -2.2056   -4.0049    0.0000 H   0  0  0  0  0  0  0  0  0  0  0  0
   -2.2496   -2.9169    0.0000 C   0  0  0  0  0  0  0  0  0  0  0  0
   -2.7696   -2.5709    0.8910 H   0  0  0  0  0  0  0  0  0  0  0  0
   -2.7696   -2.5709   -0.8910 H   0  0  0  0  0  0  0  0  0  0  0  0
   -0.8406   -2.3699    0.0000 C   0  0  0  0  0  0  0  0  0  0  0  0
    0.1164   -3.1329    0.0000 O   0  0  0  0  0  0  0  0  0  0  0  0
   -0.7136   -1.0459    0.0000 N   0  0  0  0  0  0  0  0  0  0  0  0
   -1.5436   -0.4719    0.0000 H   0  0  0  0  0  0  0  0  0  0  0  0
    0.5724   -0.3469    0.0000 C   0  0  0  0  0  0  0  0  0  0  0  0
    1.3649   -1.0530    0.2512 H   0  0  0  0  0  0  0  0  0  0  0  0
    0.7679    0.0454   -0.9989 H   0  0  0  0  0  0  0  0  0  0  0  0
    0.6102    0.8121    1.0002 C   0  0  0  0  0  0  0  0  0  0  0  0
    0.4367    0.6038    2.1994 O   0  0  0  0  0  0  0  0  0  0  0  0
    0.8383    2.0310    0.4949 N   0  0  0  0  0  0  0  0  0  0  0  0
    0.9688    2.1042   -0.5019 H   0  0  0  0  0  0  0  0  0  0  0  0
    0.9123    3.2645    1.2806 C   0  0  0  0  0  0  0  0  0  0  0  0
    0.7555    3.0563    2.3418 H   0  0  0  0  0  0  0  0  0  0  0  0
    1.8938    3.7242    1.1578 H   0  0  0  0  0  0  0  0  0  0  0  0
    0.1448    3.9638    0.9464 H   0  0  0  0  0  0  0  0  0  0  0  0
  5  6  2  0  0  0  0
  5  7  1  0  0  0  0
  2  3  1  0  0  0  0
  2  4  1  0  0  0  0
  2  5  1  0  0  0  0
  1  2  1  0  0  0  0
 12 13  2  0  0  0  0
 12 14  1  0  0  0  0
  9 10  1  0  0  0  0
  9 11  1  0  0  0  0
  9 12  1  0  0  0  0
  7  8  1  0  0  0  0
  7  9  1  0  0  0  0
 16 17  1  0  0  0  0
 16 18  1  0  0  0  0
 16 19  1  0  0  0  0
 14 15  1  0  0  0  0
 14 16  1  0  0  0  0
M  END
$$$$
default_name
  -OEChem-01062215323D

 19 18  0     0  0  0  0  0  0999 V2000
   -2.2056   -4.0049    0.0000 H   0  0  0  0  0  0  0  0  0  0  0  0
   -2.2496   -2.9169    0.0000 C   0  0  0  0  0  0  0  0  0  0  0  0
   -2.7696   -2.5709    0.8910 H   0  0  0  0  0  0  0  0  0  0  0  0
   -2.7696   -2.5709   -0.8910 H   0  0  0  0  0  0  0  0  0  0  0  0
   -0.8406   -2.3699    0.0000 C   0  0  0  0  0  0  0  0  0  0  0  0
    0.1164   -3.1329    0.0000 O   0  0  0  0  0  0  0  0  0  0  0  0
   -0.7136   -1.0459    0.0000 N   0  0  0  0  0  0  0  0  0  0  0  0
   -1.5436   -0.4719    0.0000 H   0  0  0  0  0  0  0  0  0  0  0  0
    0.5724   -0.3469    0.0000 C   0  0  0  0  0  0  0  0  0  0  0  0
    1.3649   -1.0530    0.2512 H   0  0  0  0  0  0  0  0  0  0  0  0
    0.7679    0.0454   -0.9989 H   0  0  0  0  0  0  0  0  0  0  0  0
    0.6102    0.8121    1.0002 C   0  0  0  0  0  0  0  0  0  0  0  0
    0.7133    0.5899    2.2050 O   0  0  0  0  0  0  0  0  0  0  0  0
    0.5260    2.0467    0.4886 N   0  0  0  0  0  0  0  0  0  0  0  0
    0.4439    2.1306   -0.5126 H   0  0  0  0  0  0  0  0  0  0  0  0
    0.5441    3.2830    1.2731 C   0  0  0  0  0  0  0  0  0  0  0  0
    0.6361    3.0623    2.3394 H   0  0  0  0  0  0  0  0  0  0  0  0
    1.3906    3.9013    0.9717 H   0  0  0  0  0  0  0  0  0  0  0  0
   -0.3807    3.8384    1.1116 H   0  0  0  0  0  0  0  0  0  0  0  0
  5  6  2  0  0  0  0
  5  7  1  0  0  0  0
  2  3  1  0  0  0  0
  2  4  1  0  0  0  0
  2  5  1  0  0  0  0
  1  2  1  0  0  0  0
 12 13  2  0  0  0  0
 12 14  1  0  0  0  0
  9 10  1  0  0  0  0
  9 11  1  0  0  0  0
  9 12  1  0  0  0  0
  7  8  1  0  0  0  0
  7  9  1  0  0  0  0
 16 17  1  0  0  0  0
 16 18  1  0  0  0  0
 16 19  1  0  0  0  0
 14 15  1  0  0  0  0
 14 16  1  0  0  0  0
M  END
$$$$
default_name
  -OEChem-01062215323D

 19 18  0     0  0  0  0  0  0999 V2000
   -2.2056   -4.0049    0.0000 H   0  0  0  0  0  0  0  0  0  0  0  0
   -2.2496   -2.9169    0.0000 C   0  0  0  0  0  0  0  0  0  0  0  0
   -2.7696   -2.5709    0.8910 H   0  0  0  0  0  0  0  0  0  0  0  0
   -2.7696   -2.5709   -0.8910 H   0  0  0  0  0  0  0  0  0  0  0  0
   -0.8406   -2.3699    0.0000 C   0  0  0  0  0  0  0  0  0  0  0  0
    0.1164   -3.1329    0.0000 O   0  0  0  0  0  0  0  0  0  0  0  0
   -0.7136   -1.0459    0.0000 N   0  0  0  0  0  0  0  0  0  0  0  0
   -1.5436   -0.4719    0.0000 H   0  0  0  0  0  0  0  0  0  0  0  0
    0.5724   -0.3469    0.0000 C   0  0  0  0  0  0  0  0  0  0  0  0
    1.3649   -1.0530    0.2512 H   0  0  0  0  0  0  0  0  0  0  0  0
    0.7679    0.0454   -0.9989 H   0  0  0  0  0  0  0  0  0  0  0  0
    0.6102    0.8121    1.0002 C   0  0  0  0  0  0  0  0  0  0  0  0
    0.9838    0.6232    2.1561 O   0  0  0  0  0  0  0  0  0  0  0  0
    0.2204    2.0091    0.5437 N   0  0  0  0  0  0  0  0  0  0  0  0
   -0.0696    2.0674   -0.4199 H   0  0  0  0  0  0  0  0  0  0  0  0
    0.1838    3.2386    1.3381 C   0  0  0  0  0  0  0  0  0  0  0  0
    0.5193    3.0479    2.3604 H   0  0  0  0  0  0  0  0  0  0  0  0
    0.8382    3.9884    0.8916 H   0  0  0  0  0  0  0  0  0  0  0  0
   -0.8348    3.6274    1.3733 H   0  0  0  0  0  0  0  0  0  0  0  0
  5  6  2  0  0  0  0
  5  7  1  0  0  0  0
  2  3  1  0  0  0  0
  2  4  1  0  0  0  0
  2  5  1  0  0  0  0
  1  2  1  0  0  0  0
 12 13  2  0  0  0  0
 12 14  1  0  0  0  0
  9 10  1  0  0  0  0
  9 11  1  0  0  0  0
  9 12  1  0  0  0  0
  7  8  1  0  0  0  0
  7  9  1  0  0  0  0
 16 17  1  0  0  0  0
 16 18  1  0  0  0  0
 16 19  1  0  0  0  0
 14 15  1  0  0  0  0
 14 16  1  0  0  0  0
M  END
$$$$
default_name
  -OEChem-01062215323D

 19 18  0     0  0  0  0  0  0999 V2000
   -2.2056   -4.0049    0.0000 H   0  0  0  0  0  0  0  0  0  0  0  0
   -2.2496   -2.9169    0.0000 C   0  0  0  0  0  0  0  0  0  0  0  0
   -2.7696   -2.5709    0.8910 H   0  0  0  0  0  0  0  0  0  0  0  0
   -2.7696   -2.5709   -0.8910 H   0  0  0  0  0  0  0  0  0  0  0  0
   -0.8406   -2.3699    0.0000 C   0  0  0  0  0  0  0  0  0  0  0  0
    0.1164   -3.1329    0.0000 O   0  0  0  0  0  0  0  0  0  0  0  0
   -0.7136   -1.0459    0.0000 N   0  0  0  0  0  0  0  0  0  0  0  0
   -1.5436   -0.4719    0.0000 H   0  0  0  0  0  0  0  0  0  0  0  0
    0.5724   -0.3469    0.0000 C   0  0  0  0  0  0  0  0  0  0  0  0
    1.3649   -1.0530    0.2512 H   0  0  0  0  0  0  0  0  0  0  0  0
    0.7679    0.0454   -0.9989 H   0  0  0  0  0  0  0  0  0  0  0  0
    0.6102    0.8121    1.0002 C   0  0  0  0  0  0  0  0  0  0  0  0
    1.2300    0.7014    2.0562 O   0  0  0  0  0  0  0  0  0  0  0  0
   -0.0575    1.9207    0.6566 N   0  0  0  0  0  0  0  0  0  0  0  0
   -0.5368    1.9189   -0.2302 H   0  0  0  0  0  0  0  0  0  0  0  0
   -0.1439    3.1345    1.4712 C   0  0  0  0  0  0  0  0  0  0  0  0
    0.4131    3.0141    2.4036 H   0  0  0  0  0  0  0  0  0  0  0  0
    0.2742    3.9797    0.9230 H   0  0  0  0  0  0  0  0  0  0  0  0
   -1.1864    3.3451    1.7137 H   0  0  0  0  0  0  0  0  0  0  0  0
  5  6  2  0  0  0  0
  5  7  1  0  0  0  0
  2  3  1  0  0  0  0
  2  4  1  0  0  0  0
  2  5  1  0  0  0  0
  1  2  1  0  0  0  0
 12 13  2  0  0  0  0
 12 14  1  0  0  0  0
  9 10  1  0  0  0  0
  9 11  1  0  0  0  0
  9 12  1  0  0  0  0
  7  8  1  0  0  0  0
  7  9  1  0  0  0  0
 16 17  1  0  0  0  0
 16 18  1  0  0  0  0
 16 19  1  0  0  0  0
 14 15  1  0  0  0  0
 14 16  1  0  0  0  0
M  END
$$$$
default_name
  -OEChem-01062215323D

 19 18  0     0  0  0  0  0  0999 V2000
   -2.2056   -4.0049    0.0000 H   0  0  0  0  0  0  0  0  0  0  0  0
   -2.2496   -2.9169    0.0000 C   0  0  0  0  0  0  0  0  0  0  0  0
   -2.7696   -2.5709    0.8910 H   0  0  0  0  0  0  0  0  0  0  0  0
   -2.7696   -2.5709   -0.8910 H   0  0  0  0  0  0  0  0  0  0  0  0
   -0.8406   -2.3699    0.0000 C   0  0  0  0  0  0  0  0  0  0  0  0
    0.1164   -3.1329    0.0000 O   0  0  0  0  0  0  0  0  0  0  0  0
   -0.7136   -1.0459    0.0000 N   0  0  0  0  0  0  0  0  0  0  0  0
   -1.5436   -0.4719    0.0000 H   0  0  0  0  0  0  0  0  0  0  0  0
    0.5724   -0.3469    0.0000 C   0  0  0  0  0  0  0  0  0  0  0  0
    1.3649   -1.0530    0.2512 H   0  0  0  0  0  0  0  0  0  0  0  0
    0.7679    0.0454   -0.9989 H   0  0  0  0  0  0  0  0  0  0  0  0
    0.6102    0.8121    1.0002 C   0  0  0  0  0  0  0  0  0  0  0  0
    1.4350    0.8192    1.9119 O   0  0  0  0  0  0  0  0  0  0  0  0
   -0.2890    1.7877    0.8195 N   0  0  0  0  0  0  0  0  0  0  0  0
   -0.9258    1.6953    0.0436 H   0  0  0  0  0  0  0  0  0  0  0  0
   -0.4168    2.9776    1.6633 C   0  0  0  0  0  0  0  0  0  0  0  0
    0.3246    2.9633    2.4658 H   0  0  0  0  0  0  0  0  0  0  0  0
   -0.2630    3.8758    1.0638 H   0  0  0  0  0  0  0  0  0  0  0  0
   -1.4116    3.0108    2.1096 H   0  0  0  0  0  0  0  0  0  0  0  0
  5  6  2  0  0  0  0
  5  7  1  0  0  0  0
  2  3  1  0  0  0  0
  2  4  1  0  0  0  0
  2  5  1  0  0  0  0
  1  2  1  0  0  0  0
 12 13  2  0  0  0  0
 12 14  1  0  0  0  0
  9 10  1  0  0  0  0
  9 11  1  0  0  0  0
  9 12  1  0  0  0  0
  7  8  1  0  0  0  0
  7  9  1  0  0  0  0
 16 17  1  0  0  0  0
 16 18  1  0  0  0  0
 16 19  1  0  0  0  0
 14 15  1  0  0  0  0
 14 16  1  0  0  0  0
M  END
$$$$
default_name
  -OEChem-01062215323D

 19 18  0     0  0  0  0  0  0999 V2000
   -2.2056   -4.0049    0.0000 H   0  0  0  0  0  0  0  0  0  0  0  0
   -2.2496   -2.9169    0.0000 C   0  0  0  0  0  0  0  0  0  0  0  0
   -2.7696   -2.5709    0.8910 H   0  0  0  0  0  0  0  0  0  0  0  0
   -2.7696   -2.5709   -0.8910 H   0  0  0  0  0  0  0  0  0  0  0  0
   -0.8406   -2.3699    0.0000 C   0  0  0  0  0  0  0  0  0  0  0  0
    0.1164   -3.1329    0.0000 O   0  0  0  0  0  0  0  0  0  0  0  0
   -0.7136   -1.0459    0.0000 N   0  0  0  0  0  0  0  0  0  0  0  0
   -1.5436   -0.4719    0.0000 H   0  0  0  0  0  0  0  0  0  0  0  0
    0.5724   -0.3469    0.0000 C   0  0  0  0  0  0  0  0  0  0  0  0
    1.3649   -1.0530    0.2512 H   0  0  0  0  0  0  0  0  0  0  0  0
    0.7679    0.0454   -0.9989 H   0  0  0  0  0  0  0  0  0  0  0  0
    0.6102    0.8121    1.0002 C   0  0  0  0  0  0  0  0  0  0  0  0
    1.5848    0.9686    1.7332 O   0  0  0  0  0  0  0  0  0  0  0  0
   -0.4582    1.6190    1.0214 N   0  0  0  0  0  0  0  0  0  0  0  0
   -1.2102    1.4118    0.3829 H   0  0  0  0  0  0  0  0  0  0  0  0
   -0.6163    2.7787    1.9013 C   0  0  0  0  0  0  0  0  0  0  0  0
    0.2600    2.8988    2.5430 H   0  0  0  0  0  0  0  0  0  0  0  0
   -0.7367    3.6837    1.3043 H   0  0  0  0  0  0  0  0  0  0  0  0
   -1.4951    2.6473    2.5339 H   0  0  0  0  0  0  0  0  0  0  0  0
  5  6  2  0  0  0  0
  5  7  1  0  0  0  0
  2  3  1  0  0  0  0
  2  4  1  0  0  0  0
  2  5  1  0  0  0  0
  1  2  1  0  0  0  0
 12 13  2  0  0  0  0
 12 14  1  0  0  0  0
  9 10  1  0  0  0  0
  9 11  1  0  0  0  0
  9 12  1  0  0  0  0
  7  8  1  0  0  0  0
  7  9  1  0  0  0  0
 16 17  1  0  0  0  0
 16 18  1  0  0  0  0
 16 19  1  0  0  0  0
 14 15  1  0  0  0  0
 14 16  1  0  0  0  0
M  END
$$$$
default_name
  -OEChem-01062215323D

 19 18  0     0  0  0  0  0  0999 V2000
   -2.2056   -4.0049    0.0000 H   0  0  0  0  0  0  0  0  0  0  0  0
   -2.2496   -2.9169    0.0000 C   0  0  0  0  0  0  0  0  0  0  0  0
   -2.7696   -2.5709    0.8910 H   0  0  0  0  0  0  0  0  0  0  0  0
   -2.7696   -2.5709   -0.8910 H   0  0  0  0  0  0  0  0  0  0  0  0
   -0.8406   -2.3699    0.0000 C   0  0  0  0  0  0  0  0  0  0  0  0
    0.1164   -3.1329    0.0000 O   0  0  0  0  0  0  0  0  0  0  0  0
   -0.7136   -1.0459    0.0000 N   0  0  0  0  0  0  0  0  0  0  0  0
   -1.5436   -0.4719    0.0000 H   0  0  0  0  0  0  0  0  0  0  0  0
    0.5724   -0.3469    0.0000 C   0  0  0  0  0  0  0  0  0  0  0  0
    1.3649   -1.0530    0.2512 H   0  0  0  0  0  0  0  0  0  0  0  0
    0.7679    0.0454   -0.9989 H   0  0  0  0  0  0  0  0  0  0  0  0
    0.6102    0.8121    1.0002 C   0  0  0  0  0  0  0  0  0  0  0  0
    1.6692    1.1393    1.5321 O   0  0  0  0  0  0  0  0  0  0  0  0
   -0.5535    1.4262    1.2484 N   0  0  0  0  0  0  0  0  0  0  0  0
   -1.3705    1.0877    0.7644 H   0  0  0  0  0  0  0  0  0  0  0  0
   -0.7287    2.5514    2.1690 C   0  0  0  0  0  0  0  0  0  0  0  0
    0.2235    2.8251    2.6297 H   0  0  0  0  0  0  0  0  0  0  0  0
   -1.1147    3.4165    1.6282 H   0  0  0  0  0  0  0  0  0  0  0  0
   -1.4312    2.2794    2.9579 H   0  0  0  0  0  0  0  0  0  0  0  0
  5  6  2  0  0  0  0
  5  7  1  0  0  0  0
  2  3  1  0  0  0  0
  2  4  1  0  0  0  0
  2  5  1  0  0  0  0
  1  2  1  0  0  0  0
 12 13  2  0  0  0  0
 12 14  1  0  0  0  0
  9 10  1  0  0  0  0
  9 11  1  0  0  0  0
  9 12  1  0  0  0  0
  7  8  1  0  0  0  0
  7  9  1  0  0  0  0
 16 17  1  0  0  0  0
 16 18  1  0  0  0  0
 16 19  1  0  0  0  0
 14 15  1  0  0  0  0
 14 16  1  0  0  0  0
M  END
$$$$
default_name
  -OEChem-01062215323D

 19 18  0     0  0  0  0  0  0999 V2000
   -2.2056   -4.0049    0.0000 H   0  0  0  0  0  0  0  0  0  0  0  0
   -2.2496   -2.9169    0.0000 C   0  0  0  0  0  0  0  0  0  0  0  0
   -2.7696   -2.5709    0.8910 H   0  0  0  0  0  0  0  0  0  0  0  0
   -2.7696   -2.5709   -0.8910 H   0  0  0  0  0  0  0  0  0  0  0  0
   -0.8406   -2.3699    0.0000 C   0  0  0  0  0  0  0  0  0  0  0  0
    0.1164   -3.1329    0.0000 O   0  0  0  0  0  0  0  0  0  0  0  0
   -0.7136   -1.0459    0.0000 N   0  0  0  0  0  0  0  0  0  0  0  0
   -1.5436   -0.4719    0.0000 H   0  0  0  0  0  0  0  0  0  0  0  0
    0.5724   -0.3469    0.0000 C   0  0  0  0  0  0  0  0  0  0  0  0
    1.3649   -1.0530    0.2512 H   0  0  0  0  0  0  0  0  0  0  0  0
    0.7679    0.0454   -0.9989 H   0  0  0  0  0  0  0  0  0  0  0  0
    0.6102    0.8121    1.0002 C   0  0  0  0  0  0  0  0  0  0  0  0
    1.6825    1.3198    1.3225 O   0  0  0  0  0  0  0  0  0  0  0  0
   -0.5686    1.2224    1.4851 N   0  0  0  0  0  0  0  0  0  0  0  0
   -1.3957    0.7452    1.1623 H   0  0  0  0  0  0  0  0  0  0  0  0
   -0.7465    2.3111    2.4481 C   0  0  0  0  0  0  0  0  0  0  0  0
    0.2178    2.7472    2.7202 H   0  0  0  0  0  0  0  0  0  0  0  0
   -1.3712    3.0925    2.0134 H   0  0  0  0  0  0  0  0  0  0  0  0
   -1.2243    1.9321    3.3525 H   0  0  0  0  0  0  0  0  0  0  0  0
  5  6  2  0  0  0  0
  5  7  1  0  0  0  0
  2  3  1  0  0  0  0
  2  4  1  0  0  0  0
  2  5  1  0  0  0  0
  1  2  1  0  0  0  0
 12 13  2  0  0  0  0
 12 14  1  0  0  0  0
  9 10  1  0  0  0  0
  9 11  1  0  0  0  0
  9 12  1  0  0  0  0
  7  8  1  0  0  0  0
  7  9  1  0  0  0  0
 16 17  1  0  0  0  0
 16 18  1  0  0  0  0
 16 19  1  0  0  0  0
 14 15  1  0  0  0  0
 14 16  1  0  0  0  0
M  END
$$$$
default_name
  -OEChem-01062215323D

 19 18  0     0  0  0  0  0  0999 V2000
   -2.2056   -4.0049    0.0000 H   0  0  0  0  0  0  0  0  0  0  0  0
   -2.2496   -2.9169    0.0000 C   0  0  0  0  0  0  0  0  0  0  0  0
   -2.7696   -2.5709    0.8910 H   0  0  0  0  0  0  0  0  0  0  0  0
   -2.7696   -2.5709   -0.8910 H   0  0  0  0  0  0  0  0  0  0  0  0
   -0.8406   -2.3699    0.0000 C   0  0  0  0  0  0  0  0  0  0  0  0
    0.1164   -3.1329    0.0000 O   0  0  0  0  0  0  0  0  0  0  0  0
   -0.7136   -1.0459    0.0000 N   0  0  0  0  0  0  0  0  0  0  0  0
   -1.5436   -0.4719    0.0000 H   0  0  0  0  0  0  0  0  0  0  0  0
    0.5724   -0.3469    0.0000 C   0  0  0  0  0  0  0  0  0  0  0  0
    1.3649   -1.0530    0.2512 H   0  0  0  0  0  0  0  0  0  0  0  0
    0.7679    0.0454   -0.9989 H   0  0  0  0  0  0  0  0  0  0  0  0
    0.6102    0.8121    1.0002 C   0  0  0  0  0  0  0  0  0  0  0  0
    1.6238    1.4977    1.1186 O   0  0  0  0  0  0  0  0  0  0  0  0
   -0.5023    1.0215    1.7154 N   0  0  0  0  0  0  0  0  0  0  0  0
   -1.2843    0.4075    1.5494 H   0  0  0  0  0  0  0  0  0  0  0  0
   -0.6683    2.0742    2.7197 C   0  0  0  0  0  0  0  0  0  0  0  0
    0.2431    2.6704    2.8083 H   0  0  0  0  0  0  0  0  0  0  0  0
   -1.4888    2.7337    2.4336 H   0  0  0  0  0  0  0  0  0  0  0  0
   -0.8884    1.6290    3.6909 H   0  0  0  0  0  0  0  0  0  0  0  0
  5  6  2  0  0  0  0
  5  7  1  0  0  0  0
  2  3  1  0  0  0  0
  2  4  1  0  0  0  0
  2  5  1  0  0  0  0
  1  2  1  0  0  0  0
 12 13  2  0  0  0  0
 12 14  1  0  0  0  0
  9 10  1  0  0  0  0
  9 11  1  0  0  0  0
  9 12  1  0  0  0  0
  7  8  1  0  0  0  0
  7  9  1  0  0  0  0
 16 17  1  0  0  0  0
 16 18  1  0  0  0  0
 16 19  1  0  0  0  0
 14 15  1  0  0  0  0
 14 16  1  0  0  0  0
M  END
$$$$
default_name
  -OEChem-01062215323D

 19 18  0     0  0  0  0  0  0999 V2000
   -2.2056   -4.0049    0.0000 H   0  0  0  0  0  0  0  0  0  0  0  0
   -2.2496   -2.9169    0.0000 C   0  0  0  0  0  0  0  0  0  0  0  0
   -2.7696   -2.5709    0.8910 H   0  0  0  0  0  0  0  0  0  0  0  0
   -2.7696   -2.5709   -0.8910 H   0  0  0  0  0  0  0  0  0  0  0  0
   -0.8406   -2.3699    0.0000 C   0  0  0  0  0  0  0  0  0  0  0  0
    0.1164   -3.1329    0.0000 O   0  0  0  0  0  0  0  0  0  0  0  0
   -0.7136   -1.0459    0.0000 N   0  0  0  0  0  0  0  0  0  0  0  0
   -1.5436   -0.4719    0.0000 H   0  0  0  0  0  0  0  0  0  0  0  0
    0.5724   -0.3469    0.0000 C   0  0  0  0  0  0  0  0  0  0  0  0
    1.3649   -1.0530    0.2512 H   0  0  0  0  0  0  0  0  0  0  0  0
    0.7679    0.0454   -0.9989 H   0  0  0  0  0  0  0  0  0  0  0  0
    0.6102    0.8121    1.0002 C   0  0  0  0  0  0  0  0  0  0  0  0
    1.4971    1.6610    0.9342 O   0  0  0  0  0  0  0  0  0  0  0  0
   -0.3592    0.8371    1.9236 N   0  0  0  0  0  0  0  0  0  0  0  0
   -1.0438    0.0976    1.8994 H   0  0  0  0  0  0  0  0  0  0  0  0
   -0.4996    1.8568    2.9651 C   0  0  0  0  0  0  0  0  0  0  0  0
    0.2978    2.6000    2.8878 H   0  0  0  0  0  0  0  0  0  0  0  0
   -1.4593    2.3645    2.8603 H   0  0  0  0  0  0  0  0  0  0  0  0
   -0.4464    1.3910    3.9500 H   0  0  0  0  0  0  0  0  0  0  0  0
  5  6  2  0  0  0  0
  5  7  1  0  0  0  0
  2  3  1  0  0  0  0
  2  4  1  0  0  0  0
  2  5  1  0  0  0  0
  1  2  1  0  0  0  0
 12 13  2  0  0  0  0
 12 14  1  0  0  0  0
  9 10  1  0  0  0  0
  9 11  1  0  0  0  0
  9 12  1  0  0  0  0
  7  8  1  0  0  0  0
  7  9  1  0  0  0  0
 16 17  1  0  0  0  0
 16 18  1  0  0  0  0
 16 19  1  0  0  0  0
 14 15  1  0  0  0  0
 14 16  1  0  0  0  0
M  END
$$$$
default_name
  -OEChem-01062215323D

 19 18  0     0  0  0  0  0  0999 V2000
   -2.2056   -4.0049    0.0000 H   0  0  0  0  0  0  0  0  0  0  0  0
   -2.2496   -2.9169    0.0000 C   0  0  0  0  0  0  0  0  0  0  0  0
   -2.7696   -2.5709    0.8910 H   0  0  0  0  0  0  0  0  0  0  0  0
   -2.7696   -2.5709   -0.8910 H   0  0  0  0  0  0  0  0  0  0  0  0
   -0.8406   -2.3699    0.0000 C   0  0  0  0  0  0  0  0  0  0  0  0
    0.1164   -3.1329    0.0000 O   0  0  0  0  0  0  0  0  0  0  0  0
   -0.7136   -1.0459    0.0000 N   0  0  0  0  0  0  0  0  0  0  0  0
   -1.5436   -0.4719    0.0000 H   0  0  0  0  0  0  0  0  0  0  0  0
    0.5724   -0.3469    0.0000 C   0  0  0  0  0  0  0  0  0  0  0  0
    1.3649   -1.0530    0.2512 H   0  0  0  0  0  0  0  0  0  0  0  0
    0.7679    0.0454   -0.9989 H   0  0  0  0  0  0  0  0  0  0  0  0
    0.6102    0.8121    1.0002 C   0  0  0  0  0  0  0  0  0  0  0  0
    1.3110    1.7984    0.7820 O   0  0  0  0  0  0  0  0  0  0  0  0
   -0.1490    0.6819    2.0955 N   0  0  0  0  0  0  0  0  0  0  0  0
   -0.6905   -0.1633    2.1883 H   0  0  0  0  0  0  0  0  0  0  0  0
   -0.2517    1.6738    3.1678 C   0  0  0  0  0  0  0  0  0  0  0  0
    0.3781    2.5406    2.9535 H   0  0  0  0  0  0  0  0  0  0  0  0
   -1.2849    2.0102    3.2643 H   0  0  0  0  0  0  0  0  0  0  0  0
    0.0715    1.2341    4.1122 H   0  0  0  0  0  0  0  0  0  0  0  0
  5  6  2  0  0  0  0
  5  7  1  0  0  0  0
  2  3  1  0  0  0  0
  2  4  1  0  0  0  0
  2  5  1  0  0  0  0
  1  2  1  0  0  0  0
 12 13  2  0  0  0  0
 12 14  1  0  0  0  0
  9 10  1  0  0  0  0
  9 11  1  0  0  0  0
  9 12  1  0  0  0  0
  7  8  1  0  0  0  0
  7  9  1  0  0  0  0
 16 17  1  0  0  0  0
 16 18  1  0  0  0  0
 16 19  1  0  0  0  0
 14 15  1  0  0  0  0
 14 16  1  0  0  0  0
M  END
$$$$
default_name
  -OEChem-01062215323D

 19 18  0     0  0  0  0  0  0999 V2000
   -2.2056   -4.0049    0.0000 H   0  0  0  0  0  0  0  0  0  0  0  0
   -2.2496   -2.9169    0.0000 C   0  0  0  0  0  0  0  0  0  0  0  0
   -2.7696   -2.5709    0.8910 H   0  0  0  0  0  0  0  0  0  0  0  0
   -2.7696   -2.5709   -0.8910 H   0  0  0  0  0  0  0  0  0  0  0  0
   -0.8406   -2.3699    0.0000 C   0  0  0  0  0  0  0  0  0  0  0  0
    0.1164   -3.1329    0.0000 O   0  0  0  0  0  0  0  0  0  0  0  0
   -0.7136   -1.0459    0.0000 N   0  0  0  0  0  0  0  0  0  0  0  0
   -1.5436   -0.4719    0.0000 H   0  0  0  0  0  0  0  0  0  0  0  0
    0.5724   -0.3469    0.0000 C   0  0  0  0  0  0  0  0  0  0  0  0
    1.3649   -1.0530    0.2512 H   0  0  0  0  0  0  0  0  0  0  0  0
    0.7679    0.0454   -0.9989 H   0  0  0  0  0  0  0  0  0  0  0  0
    0.6102    0.8121    1.0002 C   0  0  0  0  0  0  0  0  0  0  0  0
    1.0781    1.9007    0.6723 O   0  0  0  0  0  0  0  0  0  0  0  0
    0.1140    0.5664    2.2194 N   0  0  0  0  0  0  0  0  0  0  0  0
   -0.2486   -0.3574    2.3965 H   0  0  0  0  0  0  0  0  0  0  0  0
    0.0583    1.5377    3.3138 C   0  0  0  0  0  0  0  0  0  0  0  0
    0.4786    2.4965    3.0009 H   0  0  0  0  0  0  0  0  0  0  0  0
   -0.9774    1.6948    3.6181 H   0  0  0  0  0  0  0  0  0  0  0  0
    0.6301    1.1690    4.1665 H   0  0  0  0  0  0  0  0  0  0  0  0
  5  6  2  0  0  0  0
  5  7  1  0  0  0  0
  2  3  1  0  0  0  0
  2  4  1  0  0  0  0
  2  5  1  0  0  0  0
  1  2  1  0  0  0  0
 12 13  2  0  0  0  0
 12 14  1  0  0  0  0
  9 10  1  0  0  0  0
  9 11  1  0  0  0  0
  9 12  1  0  0  0  0
  7  8  1  0  0  0  0
  7  9  1  0  0  0  0
 16 17  1  0  0  0  0
 16 18  1  0  0  0  0
 16 19  1  0  0  0  0
 14 15  1  0  0  0  0
 14 16  1  0  0  0  0
M  END
$$$$
default_name
  -OEChem-01062215323D

 19 18  0     0  0  0  0  0  0999 V2000
   -2.2056   -4.0049    0.0000 H   0  0  0  0  0  0  0  0  0  0  0  0
   -2.2496   -2.9169    0.0000 C   0  0  0  0  0  0  0  0  0  0  0  0
   -2.7696   -2.5709    0.8910 H   0  0  0  0  0  0  0  0  0  0  0  0
   -2.7696   -2.5709   -0.8910 H   0  0  0  0  0  0  0  0  0  0  0  0
   -0.8406   -2.3699    0.0000 C   0  0  0  0  0  0  0  0  0  0  0  0
    0.1164   -3.1329    0.0000 O   0  0  0  0  0  0  0  0  0  0  0  0
   -0.7136   -1.0459    0.0000 N   0  0  0  0  0  0  0  0  0  0  0  0
   -1.5436   -0.4719    0.0000 H   0  0  0  0  0  0  0  0  0  0  0  0
    0.5724   -0.3469    0.0000 C   0  0  0  0  0  0  0  0  0  0  0  0
    1.3649   -1.0530    0.2512 H   0  0  0  0  0  0  0  0  0  0  0  0
    0.7679    0.0454   -0.9989 H   0  0  0  0  0  0  0  0  0  0  0  0
    0.6102    0.8121    1.0002 C   0  0  0  0  0  0  0  0  0  0  0  0
    0.8144    1.9608    0.6126 O   0  0  0  0  0  0  0  0  0  0  0  0
    0.4117    0.4985    2.2868 N   0  0  0  0  0  0  0  0  0  0  0  0
    0.2519   -0.4715    2.5098 H   0  0  0  0  0  0  0  0  0  0  0  0
    0.4093    1.4576    3.3933 C   0  0  0  0  0  0  0  0  0  0  0  0
    0.5924    2.4706    3.0266 H   0  0  0  0  0  0  0  0  0  0  0  0
   -0.5578    1.4399    3.8976 H   0  0  0  0  0  0  0  0  0  0  0  0
    1.1913    1.2003    4.1090 H   0  0  0  0  0  0  0  0  0  0  0  0
  5  6  2  0  0  0  0
  5  7  1  0  0  0  0
  2  3  1  0  0  0  0
  2  4  1  0  0  0  0
  2  5  1  0  0  0  0
  1  2  1  0  0  0  0
 12 13  2  0  0  0  0
 12 14  1  0  0  0  0
  9 10  1  0  0  0  0
  9 11  1  0  0  0  0
  9 12  1  0  0  0  0
  7  8  1  0  0  0  0
  7  9  1  0  0  0  0
 16 17  1  0  0  0  0
 16 18  1  0  0  0  0
 16 19  1  0  0  0  0
 14 15  1  0  0  0  0
 14 16  1  0  0  0  0
M  END
$$$$
default_name
  -OEChem-01062215323D

 19 18  0     0  0  0  0  0  0999 V2000
   -2.2056   -4.0049    0.0000 H   0  0  0  0  0  0  0  0  0  0  0  0
   -2.2496   -2.9169    0.0000 C   0  0  0  0  0  0  0  0  0  0  0  0
   -2.7696   -2.5709    0.8910 H   0  0  0  0  0  0  0  0  0  0  0  0
   -2.7696   -2.5709   -0.8910 H   0  0  0  0  0  0  0  0  0  0  0  0
   -0.8406   -2.3699    0.0000 C   0  0  0  0  0  0  0  0  0  0  0  0
    0.1164   -3.1329    0.0000 O   0  0  0  0  0  0  0  0  0  0  0  0
   -0.7136   -1.0459    0.0000 N   0  0  0  0  0  0  0  0  0  0  0  0
   -1.5436   -0.4719    0.0000 H   0  0  0  0  0  0  0  0  0  0  0  0
    0.5724   -0.3469    0.0000 C   0  0  0  0  0  0  0  0  0  0  0  0
    1.3649   -1.0530    0.2512 H   0  0  0  0  0  0  0  0  0  0  0  0
    0.7679    0.0454   -0.9989 H   0  0  0  0  0  0  0  0  0  0  0  0
    0.6102    0.8121    1.0002 C   0  0  0  0  0  0  0  0  0  0  0  0
    0.5379    1.9747    0.6070 O   0  0  0  0  0  0  0  0  0  0  0  0
    0.7240    0.4828    2.2932 N   0  0  0  0  0  0  0  0  0  0  0  0
    0.7768   -0.4978    2.5204 H   0  0  0  0  0  0  0  0  0  0  0  0
    0.7776    1.4391    3.4008 C   0  0  0  0  0  0  0  0  0  0  0  0
    0.7118    2.4646    3.0290 H   0  0  0  0  0  0  0  0  0  0  0  0
   -0.0546    1.2628    4.0837 H   0  0  0  0  0  0  0  0  0  0  0  0
    1.7168    1.3257    3.9438 H   0  0  0  0  0  0  0  0  0  0  0  0
  5  6  2  0  0  0  0
  5  7  1  0  0  0  0
  2  3  1  0  0  0  0
  2  4  1  0  0  0  0
  2  5  1  0  0  0  0
  1  2  1  0  0  0  0
 12 13  2  0  0  0  0
 12 14  1  0  0  0  0
  9 10  1  0  0  0  0
  9 11  1  0  0  0  0
  9 12  1  0  0  0  0
  7  8  1  0  0  0  0
  7  9  1  0  0  0  0
 16 17  1  0  0  0  0
 16 18  1  0  0  0  0
 16 19  1  0  0  0  0
 14 15  1  0  0  0  0
 14 16  1  0  0  0  0
M  END
$$$$
default_name
  -OEChem-01062215323D

 19 18  0     0  0  0  0  0  0999 V2000
   -2.2056   -4.0049    0.0000 H   0  0  0  0  0  0  0  0  0  0  0  0
   -2.2496   -2.9169    0.0000 C   0  0  0  0  0  0  0  0  0  0  0  0
   -2.7696   -2.5709    0.8910 H   0  0  0  0  0  0  0  0  0  0  0  0
   -2.7696   -2.5709   -0.8910 H   0  0  0  0  0  0  0  0  0  0  0  0
   -0.8406   -2.3699    0.0000 C   0  0  0  0  0  0  0  0  0  0  0  0
    0.1164   -3.1329    0.0000 O   0  0  0  0  0  0  0  0  0  0  0  0
   -0.7136   -1.0459    0.0000 N   0  0  0  0  0  0  0  0  0  0  0  0
   -1.5436   -0.4719    0.0000 H   0  0  0  0  0  0  0  0  0  0  0  0
    0.5724   -0.3469    0.0000 C   0  0  0  0  0  0  0  0  0  0  0  0
    1.3649   -1.0530    0.2512 H   0  0  0  0  0  0  0  0  0  0  0  0
    0.7679    0.0454   -0.9989 H   0  0  0  0  0  0  0  0  0  0  0  0
    0.6102    0.8121    1.0002 C   0  0  0  0  0  0  0  0  0  0  0  0
    0.2673    1.9414    0.6558 O   0  0  0  0  0  0  0  0  0  0  0  0
    1.0296    0.5205    2.2380 N   0  0  0  0  0  0  0  0  0  0  0  0
    1.2903   -0.4346    2.4277 H   0  0  0  0  0  0  0  0  0  0  0  0
    1.1378    1.4835    3.3358 C   0  0  0  0  0  0  0  0  0  0  0  0
    0.8286    2.4789    3.0080 H   0  0  0  0  0  0  0  0  0  0  0  0
    0.4978    1.1757    4.1638 H   0  0  0  0  0  0  0  0  0  0  0  0
    2.1708    1.5368    3.6821 H   0  0  0  0  0  0  0  0  0  0  0  0
  5  6  2  0  0  0  0
  5  7  1  0  0  0  0
  2  3  1  0  0  0  0
  2  4  1  0  0  0  0
  2  5  1  0  0  0  0
  1  2  1  0  0  0  0
 12 13  2  0  0  0  0
 12 14  1  0  0  0  0
  9 10  1  0  0  0  0
  9 11  1  0  0  0  0
  9 12  1  0  0  0  0
  7  8  1  0  0  0  0
  7  9  1  0  0  0  0
 16 17  1  0  0  0  0
 16 18  1  0  0  0  0
 16 19  1  0  0  0  0
 14 15  1  0  0  0  0
 14 16  1  0  0  0  0
M  END
$$$$
default_name
  -OEChem-01062215323D

 19 18  0     0  0  0  0  0  0999 V2000
   -2.2056   -4.0049    0.0000 H   0  0  0  0  0  0  0  0  0  0  0  0
   -2.2496   -2.9169    0.0000 C   0  0  0  0  0  0  0  0  0  0  0  0
   -2.7696   -2.5709    0.8910 H   0  0  0  0  0  0  0  0  0  0  0  0
   -2.7696   -2.5709   -0.8910 H   0  0  0  0  0  0  0  0  0  0  0  0
   -0.8406   -2.3699    0.0000 C   0  0  0  0  0  0  0  0  0  0  0  0
    0.1164   -3.1329    0.0000 O   0  0  0  0  0  0  0  0  0  0  0  0
   -0.7136   -1.0459    0.0000 N   0  0  0  0  0  0  0  0  0  0  0  0
   -1.5436   -0.4719    0.0000 H   0  0  0  0  0  0  0  0  0  0  0  0
    0.5724   -0.3469    0.0000 C   0  0  0  0  0  0  0  0  0  0  0  0
    1.3649   -1.0530    0.2512 H   0  0  0  0  0  0  0  0  0  0  0  0
    0.7679    0.0454   -0.9989 H   0  0  0  0  0  0  0  0  0  0  0  0
    0.6102    0.8121    1.0002 C   0  0  0  0  0  0  0  0  0  0  0  0
    0.0212    1.8632    0.7558 O   0  0  0  0  0  0  0  0  0  0  0  0
    1.3075    0.6088    2.1251 N   0  0  0  0  0  0  0  0  0  0  0  0
    1.7575   -0.2861    2.2380 H   0  0  0  0  0  0  0  0  0  0  0  0
    1.4656    1.5876    3.2027 C   0  0  0  0  0  0  0  0  0  0  0  0
    0.9348    2.5127    2.9648 H   0  0  0  0  0  0  0  0  0  0  0  0
    1.0619    1.1844    4.1324 H   0  0  0  0  0  0  0  0  0  0  0  0
    2.5224    1.8190    3.3417 H   0  0  0  0  0  0  0  0  0  0  0  0
  5  6  2  0  0  0  0
  5  7  1  0  0  0  0
  2  3  1  0  0  0  0
  2  4  1  0  0  0  0
  2  5  1  0  0  0  0
  1  2  1  0  0  0  0
 12 13  2  0  0  0  0
 12 14  1  0  0  0  0
  9 10  1  0  0  0  0
  9 11  1  0  0  0  0
  9 12  1  0  0  0  0
  7  8  1  0  0  0  0
  7  9  1  0  0  0  0
 16 17  1  0  0  0  0
 16 18  1  0  0  0  0
 16 19  1  0  0  0  0
 14 15  1  0  0  0  0
 14 16  1  0  0  0  0
M  END
$$$$
default_name
  -OEChem-01062215323D

 19 18  0     0  0  0  0  0  0999 V2000
   -2.2056   -4.0049    0.0000 H   0  0  0  0  0  0  0  0  0  0  0  0
   -2.2496   -2.9169    0.0000 C   0  0  0  0  0  0  0  0  0  0  0  0
   -2.7696   -2.5709    0.8910 H   0  0  0  0  0  0  0  0  0  0  0  0
   -2.7696   -2.5709   -0.8910 H   0  0  0  0  0  0  0  0  0  0  0  0
   -0.8406   -2.3699    0.0000 C   0  0  0  0  0  0  0  0  0  0  0  0
    0.1164   -3.1329    0.0000 O   0  0  0  0  0  0  0  0  0  0  0  0
   -0.7136   -1.0459    0.0000 N   0  0  0  0  0  0  0  0  0  0  0  0
   -1.5436   -0.4719    0.0000 H   0  0  0  0  0  0  0  0  0  0  0  0
    0.5724   -0.3469    0.0000 C   0  0  0  0  0  0  0  0  0  0  0  0
    1.3649   -1.0530    0.2512 H   0  0  0  0  0  0  0  0  0  0  0  0
    0.7679    0.0454   -0.9989 H   0  0  0  0  0  0  0  0  0  0  0  0
    0.6102    0.8121    1.0002 C   0  0  0  0  0  0  0  0  0  0  0  0
   -0.1838    1.7453    0.9000 O   0  0  0  0  0  0  0  0  0  0  0  0
    1.5390    0.7418    1.9622 N   0  0  0  0  0  0  0  0  0  0  0  0
    2.1466   -0.0626    1.9642 H   0  0  0  0  0  0  0  0  0  0  0  0
    1.7385    1.7445    3.0106 C   0  0  0  0  0  0  0  0  0  0  0  0
    1.0233    2.5635    2.9026 H   0  0  0  0  0  0  0  0  0  0  0  0
    1.5990    1.2883    3.9916 H   0  0  0  0  0  0  0  0  0  0  0  0
    2.7477    2.1533    2.9458 H   0  0  0  0  0  0  0  0  0  0  0  0
  5  6  2  0  0  0  0
  5  7  1  0  0  0  0
  2  3  1  0  0  0  0
  2  4  1  0  0  0  0
  2  5  1  0  0  0  0
  1  2  1  0  0  0  0
 12 13  2  0  0  0  0
 12 14  1  0  0  0  0
  9 10  1  0  0  0  0
  9 11  1  0  0  0  0
  9 12  1  0  0  0  0
  7  8  1  0  0  0  0
  7  9  1  0  0  0  0
 16 17  1  0  0  0  0
 16 18  1  0  0  0  0
 16 19  1  0  0  0  0
 14 15  1  0  0  0  0
 14 16  1  0  0  0  0
M  END
$$$$
default_name
  -OEChem-01062215323D

 19 18  0     0  0  0  0  0  0999 V2000
   -2.2056   -4.0049    0.0000 H   0  0  0  0  0  0  0  0  0  0  0  0
   -2.2496   -2.9169    0.0000 C   0  0  0  0  0  0  0  0  0  0  0  0
   -2.7696   -2.5709    0.8910 H   0  0  0  0  0  0  0  0  0  0  0  0
   -2.7696   -2.5709   -0.8910 H   0  0  0  0  0  0  0  0  0  0  0  0
   -0.8406   -2.3699    0.0000 C   0  0  0  0  0  0  0  0  0  0  0  0
    0.1164   -3.1329    0.0000 O   0  0  0  0  0  0  0  0  0  0  0  0
   -0.7136   -1.0459    0.0000 N   0  0  0  0  0  0  0  0  0  0  0  0
   -1.5436   -0.4719    0.0000 H   0  0  0  0  0  0  0  0  0  0  0  0
    0.5724   -0.3469    0.0000 C   0  0  0  0  0  0  0  0  0  0  0  0
    1.3649   -1.0530    0.2512 H   0  0  0  0  0  0  0  0  0  0  0  0
    0.7679    0.0454   -0.9989 H   0  0  0  0  0  0  0  0  0  0  0  0
    0.6102    0.8121    1.0002 C   0  0  0  0  0  0  0  0  0  0  0  0
   -0.3336    1.5960    1.0788 O   0  0  0  0  0  0  0  0  0  0  0  0
    1.7082    0.9105    1.7604 N   0  0  0  0  0  0  0  0  0  0  0  0
    2.4309    0.2209    1.6250 H   0  0  0  0  0  0  0  0  0  0  0  0
    1.9379    1.9433    2.7726 C   0  0  0  0  0  0  0  0  0  0  0  0
    1.0879    2.6280    2.8254 H   0  0  0  0  0  0  0  0  0  0  0  0
    2.0728    1.4804    3.7511 H   0  0  0  0  0  0  0  0  0  0  0  0
    2.8312    2.5168    2.5214 H   0  0  0  0  0  0  0  0  0  0  0  0
  5  6  2  0  0  0  0
  5  7  1  0  0  0  0
  2  3  1  0  0  0  0
  2  4  1  0  0  0  0
  2  5  1  0  0  0  0
  1  2  1  0  0  0  0
 12 13  2  0  0  0  0
 12 14  1  0  0  0  0
  9 10  1  0  0  0  0
  9 11  1  0  0  0  0
  9 12  1  0  0  0  0
  7  8  1  0  0  0  0
  7  9  1  0  0  0  0
 16 17  1  0  0  0  0
 16 18  1  0  0  0  0
 16 19  1  0  0  0  0
 14 15  1  0  0  0  0
 14 16  1  0  0  0  0
M  END
$$$$
default_name
  -OEChem-01062215323D

 19 18  0     0  0  0  0  0  0999 V2000
   -2.2056   -4.0049    0.0000 H   0  0  0  0  0  0  0  0  0  0  0  0
   -2.2496   -2.9169    0.0000 C   0  0  0  0  0  0  0  0  0  0  0  0
   -2.7696   -2.5709    0.8910 H   0  0  0  0  0  0  0  0  0  0  0  0
   -2.7696   -2.5709   -0.8910 H   0  0  0  0  0  0  0  0  0  0  0  0
   -0.8406   -2.3699    0.0000 C   0  0  0  0  0  0  0  0  0  0  0  0
    0.1164   -3.1329    0.0000 O   0  0  0  0  0  0  0  0  0  0  0  0
   -0.7136   -1.0459    0.0000 N   0  0  0  0  0  0  0  0  0  0  0  0
   -1.5436   -0.4719    0.0000 H   0  0  0  0  0  0  0  0  0  0  0  0
    0.5724   -0.3469    0.0000 C   0  0  0  0  0  0  0  0  0  0  0  0
    1.3649   -1.0530    0.2512 H   0  0  0  0  0  0  0  0  0  0  0  0
    0.7679    0.0454   -0.9989 H   0  0  0  0  0  0  0  0  0  0  0  0
    0.6102    0.8121    1.0002 C   0  0  0  0  0  0  0  0  0  0  0  0
   -0.4180    1.4252    1.2798 O   0  0  0  0  0  0  0  0  0  0  0  0
    1.8035    1.1033    1.5333 N   0  0  0  0  0  0  0  0  0  0  0  0
    2.5912    0.5450    1.2434 H   0  0  0  0  0  0  0  0  0  0  0  0
    2.0504    2.1707    2.5049 C   0  0  0  0  0  0  0  0  0  0  0  0
    1.1244    2.7017    2.7387 H   0  0  0  0  0  0  0  0  0  0  0  0
    2.4508    1.7476    3.4272 H   0  0  0  0  0  0  0  0  0  0  0  0
    2.7673    2.8847    2.0975 H   0  0  0  0  0  0  0  0  0  0  0  0
  5  6  2  0  0  0  0
  5  7  1  0  0  0  0
  2  3  1  0  0  0  0
  2  4  1  0  0  0  0
  2  5  1  0  0  0  0
  1  2  1  0  0  0  0
 12 13  2  0  0  0  0
 12 14  1  0  0  0  0
  9 10  1  0  0  0  0
  9 11  1  0  0  0  0
  9 12  1  0  0  0  0
  7  8  1  0  0  0  0
  7  9  1  0  0  0  0
 16 17  1  0  0  0  0
 16 18  1  0  0  0  0
 16 19  1  0  0  0  0
 14 15  1  0  0  0  0
 14 16  1  0  0  0  0
M  END
$$$$
default_name
  -OEChem-01062215323D

 19 18  0     0  0  0  0  0  0999 V2000
   -2.2056   -4.0049    0.0000 H   0  0  0  0  0  0  0  0  0  0  0  0
   -2.2496   -2.9169    0.0000 C   0  0  0  0  0  0  0  0  0  0  0  0
   -2.7696   -2.5709    0.8910 H   0  0  0  0  0  0  0  0  0  0  0  0
   -2.7696   -2.5709   -0.8910 H   0  0  0  0  0  0  0  0  0  0  0  0
   -0.8406   -2.3699    0.0000 C   0  0  0  0  0  0  0  0  0  0  0  0
    0.1164   -3.1329    0.0000 O   0  0  0  0  0  0  0  0  0  0  0  0
   -0.7136   -1.0459    0.0000 N   0  0  0  0  0  0  0  0  0  0  0  0
   -1.5436   -0.4719    0.0000 H   0  0  0  0  0  0  0  0  0  0  0  0
    0.5724   -0.3469    0.0000 C   0  0  0  0  0  0  0  0  0  0  0  0
    1.3649   -1.0530    0.2512 H   0  0  0  0  0  0  0  0  0  0  0  0
    0.7679    0.0454   -0.9989 H   0  0  0  0  0  0  0  0  0  0  0  0
    0.6102    0.8121    1.0002 C   0  0  0  0  0  0  0  0  0  0  0  0
   -0.4314    1.2448    1.4895 O   0  0  0  0  0  0  0  0  0  0  0  0
    1.8186    1.3071    1.2966 N   0  0  0  0  0  0  0  0  0  0  0  0
    2.6165    0.8876    0.8455 H   0  0  0  0  0  0  0  0  0  0  0  0
    2.0681    2.4110    2.2258 C   0  0  0  0  0  0  0  0  0  0  0  0
    1.1301    2.7796    2.6482 H   0  0  0  0  0  0  0  0  0  0  0  0
    2.7073    2.0716    3.0420 H   0  0  0  0  0  0  0  0  0  0  0  0
    2.5603    3.2320    1.7029 H   0  0  0  0  0  0  0  0  0  0  0  0
  5  6  2  0  0  0  0
  5  7  1  0  0  0  0
  2  3  1  0  0  0  0
  2  4  1  0  0  0  0
  2  5  1  0  0  0  0
  1  2  1  0  0  0  0
 12 13  2  0  0  0  0
 12 14  1  0  0  0  0
  9 10  1  0  0  0  0
  9 11  1  0  0  0  0
  9 12  1  0  0  0  0
  7  8  1  0  0  0  0
  7  9  1  0  0  0  0
 16 17  1  0  0  0  0
 16 18  1  0  0  0  0
 16 19  1  0  0  0  0
 14 15  1  0  0  0  0
 14 16  1  0  0  0  0
M  END
$$$$
default_name
  -OEChem-01062215323D

 19 18  0     0  0  0  0  0  0999 V2000
   -2.2056   -4.0049    0.0000 H   0  0  0  0  0  0  0  0  0  0  0  0
   -2.2496   -2.9169    0.0000 C   0  0  0  0  0  0  0  0  0  0  0  0
   -2.7696   -2.5709    0.8910 H   0  0  0  0  0  0  0  0  0  0  0  0
   -2.7696   -2.5709   -0.8910 H   0  0  0  0  0  0  0  0  0  0  0  0
   -0.8406   -2.3699    0.0000 C   0  0  0  0  0  0  0  0  0  0  0  0
    0.1164   -3.1329    0.0000 O   0  0  0  0  0  0  0  0  0  0  0  0
   -0.7136   -1.0459    0.0000 N   0  0  0  0  0  0  0  0  0  0  0  0
   -1.5436   -0.4719    0.0000 H   0  0  0  0  0  0  0  0  0  0  0  0
    0.5724   -0.3469    0.0000 C   0  0  0  0  0  0  0  0  0  0  0  0
    1.3797   -1.0803   -0.0159 H   0  0  0  0  0  0  0  0  0  0  0  0
    0.6485    0.2650   -0.8999 H   0  0  0  0  0  0  0  0  0  0  0  0
    0.7501    0.5547    1.2250 C   0  0  0  0  0  0  0  0  0  0  0  0
   -0.1358    0.6311    2.0740 O   0  0  0  0  0  0  0  0  0  0  0  0
    1.9014    1.2337    1.3059 N   0  0  0  0  0  0  0  0  0  0  0  0
    2.5692    1.1073    0.5614 H   0  0  0  0  0  0  0  0  0  0  0  0
    2.2633    2.1450    2.3935 C   0  0  0  0  0  0  0  0  0  0  0  0
    1.4629    2.1976    3.1355 H   0  0  0  0  0  0  0  0  0  0  0  0
    3.1711    1.7934    2.8856 H   0  0  0  0  0  0  0  0  0  0  0  0
    2.4357    3.1463    1.9966 H   0  0  0  0  0  0  0  0  0  0  0  0
  5  6  2  0  0  0  0
  5  7  1  0  0  0  0
  2  3  1  0  0  0  0
  2  4  1  0  0  0  0
  2  5  1  0  0  0  0
  1  2  1  0  0  0  0
 12 13  2  0  0  0  0
 12 14  1  0  0  0  0
  9 10  1  0  0  0  0
  9 11  1  0  0  0  0
  9 12  1  0  0  0  0
  7  8  1  0  0  0  0
  7  9  1  0  0  0  0
 16 17  1  0  0  0  0
 16 18  1  0  0  0  0
 16 19  1  0  0  0  0
 14 15  1  0  0  0  0
 14 16  1  0  0  0  0
M  END
$$$$
default_name
  -OEChem-01062215323D

 19 18  0     0  0  0  0  0  0999 V2000
   -2.2056   -4.0049    0.0000 H   0  0  0  0  0  0  0  0  0  0  0  0
   -2.2496   -2.9169    0.0000 C   0  0  0  0  0  0  0  0  0  0  0  0
   -2.7696   -2.5709    0.8910 H   0  0  0  0  0  0  0  0  0  0  0  0
   -2.7696   -2.5709   -0.8910 H   0  0  0  0  0  0  0  0  0  0  0  0
   -0.8406   -2.3699    0.0000 C   0  0  0  0  0  0  0  0  0  0  0  0
    0.1164   -3.1329    0.0000 O   0  0  0  0  0  0  0  0  0  0  0  0
   -0.7136   -1.0459    0.0000 N   0  0  0  0  0  0  0  0  0  0  0  0
   -1.5436   -0.4719    0.0000 H   0  0  0  0  0  0  0  0  0  0  0  0
    0.5724   -0.3469    0.0000 C   0  0  0  0  0  0  0  0  0  0  0  0
    1.3797   -1.0803   -0.0159 H   0  0  0  0  0  0  0  0  0  0  0  0
    0.6485    0.2650   -0.8999 H   0  0  0  0  0  0  0  0  0  0  0  0
    0.7501    0.5547    1.2250 C   0  0  0  0  0  0  0  0  0  0  0  0
    0.0104    0.4320    2.1993 O   0  0  0  0  0  0  0  0  0  0  0  0
    1.7363    1.4585    1.1644 N   0  0  0  0  0  0  0  0  0  0  0  0
    2.2917    1.4852    0.3236 H   0  0  0  0  0  0  0  0  0  0  0  0
    2.0686    2.4100    2.2266 C   0  0  0  0  0  0  0  0  0  0  0  0
    1.3998    2.2835    3.0814 H   0  0  0  0  0  0  0  0  0  0  0  0
    3.0944    2.2495    2.5610 H   0  0  0  0  0  0  0  0  0  0  0  0
    1.9686    3.4307    1.8550 H   0  0  0  0  0  0  0  0  0  0  0  0
  5  6  2  0  0  0  0
  5  7  1  0  0  0  0
  2  3  1  0  0  0  0
  2  4  1  0  0  0  0
  2  5  1  0  0  0  0
  1  2  1  0  0  0  0
 12 13  2  0  0  0  0
 12 14  1  0  0  0  0
  9 10  1  0  0  0  0
  9 11  1  0  0  0  0
  9 12  1  0  0  0  0
  7  8  1  0  0  0  0
  7  9  1  0  0  0  0
 16 17  1  0  0  0  0
 16 18  1  0  0  0  0
 16 19  1  0  0  0  0
 14 15  1  0  0  0  0
 14 16  1  0  0  0  0
M  END
$$$$
default_name
  -OEChem-01062215323D

 19 18  0     0  0  0  0  0  0999 V2000
   -2.2056   -4.0049    0.0000 H   0  0  0  0  0  0  0  0  0  0  0  0
   -2.2496   -2.9169    0.0000 C   0  0  0  0  0  0  0  0  0  0  0  0
   -2.7696   -2.5709    0.8910 H   0  0  0  0  0  0  0  0  0  0  0  0
   -2.7696   -2.5709   -0.8910 H   0  0  0  0  0  0  0  0  0  0  0  0
   -0.8406   -2.3699    0.0000 C   0  0  0  0  0  0  0  0  0  0  0  0
    0.1164   -3.1329    0.0000 O   0  0  0  0  0  0  0  0  0  0  0  0
   -0.7136   -1.0459    0.0000 N   0  0  0  0  0  0  0  0  0  0  0  0
   -1.5436   -0.4719    0.0000 H   0  0  0  0  0  0  0  0  0  0  0  0
    0.5724   -0.3469    0.0000 C   0  0  0  0  0  0  0  0  0  0  0  0
    1.3797   -1.0803   -0.0159 H   0  0  0  0  0  0  0  0  0  0  0  0
    0.6485    0.2650   -0.8999 H   0  0  0  0  0  0  0  0  0  0  0  0
    0.7501    0.5547    1.2250 C   0  0  0  0  0  0  0  0  0  0  0  0
    0.2119    0.2662    2.2920 O   0  0  0  0  0  0  0  0  0  0  0  0
    1.5087    1.6457    1.0597 N   0  0  0  0  0  0  0  0  0  0  0  0
    1.9091    1.7998    0.1475 H   0  0  0  0  0  0  0  0  0  0  0  0
    1.8003    2.6308    2.1031 C   0  0  0  0  0  0  0  0  0  0  0  0
    1.3128    2.3550    3.0414 H   0  0  0  0  0  0  0  0  0  0  0  0
    2.8765    2.6839    2.2729 H   0  0  0  0  0  0  0  0  0  0  0  0
    1.4369    3.6130    1.7980 H   0  0  0  0  0  0  0  0  0  0  0  0
  5  6  2  0  0  0  0
  5  7  1  0  0  0  0
  2  3  1  0  0  0  0
  2  4  1  0  0  0  0
  2  5  1  0  0  0  0
  1  2  1  0  0  0  0
 12 13  2  0  0  0  0
 12 14  1  0  0  0  0
  9 10  1  0  0  0  0
  9 11  1  0  0  0  0
  9 12  1  0  0  0  0
  7  8  1  0  0  0  0
  7  9  1  0  0  0  0
 16 17  1  0  0  0  0
 16 18  1  0  0  0  0
 16 19  1  0  0  0  0
 14 15  1  0  0  0  0
 14 16  1  0  0  0  0
M  END
$$$$
default_name
  -OEChem-01062215323D

 19 18  0     0  0  0  0  0  0999 V2000
   -2.2056   -4.0049    0.0000 H   0  0  0  0  0  0  0  0  0  0  0  0
   -2.2496   -2.9169    0.0000 C   0  0  0  0  0  0  0  0  0  0  0  0
   -2.7696   -2.5709    0.8910 H   0  0  0  0  0  0  0  0  0  0  0  0
   -2.7696   -2.5709   -0.8910 H   0  0  0  0  0  0  0  0  0  0  0  0
   -0.8406   -2.3699    0.0000 C   0  0  0  0  0  0  0  0  0  0  0  0
    0.1164   -3.1329    0.0000 O   0  0  0  0  0  0  0  0  0  0  0  0
   -0.7136   -1.0459    0.0000 N   0  0  0  0  0  0  0  0  0  0  0  0
   -1.5436   -0.4719    0.0000 H   0  0  0  0  0  0  0  0  0  0  0  0
    0.5724   -0.3469    0.0000 C   0  0  0  0  0  0  0  0  0  0  0  0
    1.3797   -1.0803   -0.0159 H   0  0  0  0  0  0  0  0  0  0  0  0
    0.6485    0.2650   -0.8999 H   0  0  0  0  0  0  0  0  0  0  0  0
    0.7501    0.5547    1.2250 C   0  0  0  0  0  0  0  0  0  0  0  0
    0.4551    0.1450    2.3460 O   0  0  0  0  0  0  0  0  0  0  0  0
    1.2342    1.7825    0.9988 N   0  0  0  0  0  0  0  0  0  0  0  0
    1.4477    2.0298    0.0452 H   0  0  0  0  0  0  0  0  0  0  0  0
    1.4766    2.7921    2.0313 C   0  0  0  0  0  0  0  0  0  0  0  0
    1.2079    2.4073    3.0181 H   0  0  0  0  0  0  0  0  0  0  0  0
    2.5321    3.0670    2.0409 H   0  0  0  0  0  0  0  0  0  0  0  0
    0.8768    3.6806    1.8295 H   0  0  0  0  0  0  0  0  0  0  0  0
  5  6  2  0  0  0  0
  5  7  1  0  0  0  0
  2  3  1  0  0  0  0
  2  4  1  0  0  0  0
  2  5  1  0  0  0  0
  1  2  1  0  0  0  0
 12 13  2  0  0  0  0
 12 14  1  0  0  0  0
  9 10  1  0  0  0  0
  9 11  1  0  0  0  0
  9 12  1  0  0  0  0
  7  8  1  0  0  0  0
  7  9  1  0  0  0  0
 16 17  1  0  0  0  0
 16 18  1  0  0  0  0
 16 19  1  0  0  0  0
 14 15  1  0  0  0  0
 14 16  1  0  0  0  0
M  END
$$$$
default_name
  -OEChem-01062215323D

 19 18  0     0  0  0  0  0  0999 V2000
   -2.2056   -4.0049    0.0000 H   0  0  0  0  0  0  0  0  0  0  0  0
   -2.2496   -2.9169    0.0000 C   0  0  0  0  0  0  0  0  0  0  0  0
   -2.7696   -2.5709    0.8910 H   0  0  0  0  0  0  0  0  0  0  0  0
   -2.7696   -2.5709   -0.8910 H   0  0  0  0  0  0  0  0  0  0  0  0
   -0.8406   -2.3699    0.0000 C   0  0  0  0  0  0  0  0  0  0  0  0
    0.1164   -3.1329    0.0000 O   0  0  0  0  0  0  0  0  0  0  0  0
   -0.7136   -1.0459    0.0000 N   0  0  0  0  0  0  0  0  0  0  0  0
   -1.5436   -0.4719    0.0000 H   0  0  0  0  0  0  0  0  0  0  0  0
    0.5724   -0.3469    0.0000 C   0  0  0  0  0  0  0  0  0  0  0  0
    1.3797   -1.0803   -0.0159 H   0  0  0  0  0  0  0  0  0  0  0  0
    0.6485    0.2650   -0.8999 H   0  0  0  0  0  0  0  0  0  0  0  0
    0.7501    0.5547    1.2250 C   0  0  0  0  0  0  0  0  0  0  0  0
    0.7232    0.0767    2.3574 O   0  0  0  0  0  0  0  0  0  0  0  0
    0.9314    1.8597    0.9859 N   0  0  0  0  0  0  0  0  0  0  0  0
    0.9388    2.1596    0.0235 H   0  0  0  0  0  0  0  0  0  0  0  0
    1.1196    2.8831    2.0162 C   0  0  0  0  0  0  0  0  0  0  0  0
    1.0921    2.4368    3.0132 H   0  0  0  0  0  0  0  0  0  0  0  0
    2.0849    3.3727    1.8808 H   0  0  0  0  0  0  0  0  0  0  0  0
    0.3267    3.6291    1.9472 H   0  0  0  0  0  0  0  0  0  0  0  0
  5  6  2  0  0  0  0
  5  7  1  0  0  0  0
  2  3  1  0  0  0  0
  2  4  1  0  0  0  0
  2  5  1  0  0  0  0
  1  2  1  0  0  0  0
 12 13  2  0  0  0  0
 12 14  1  0  0  0  0
  9 10  1  0  0  0  0
  9 11  1  0  0  0  0
  9 12  1  0  0  0  0
  7  8  1  0  0  0  0
  7  9  1  0  0  0  0
 16 17  1  0  0  0  0
 16 18  1  0  0  0  0
 16 19  1  0  0  0  0
 14 15  1  0  0  0  0
 14 16  1  0  0  0  0
M  END
$$$$
default_name
  -OEChem-01062215323D

 19 18  0     0  0  0  0  0  0999 V2000
   -2.2056   -4.0049    0.0000 H   0  0  0  0  0  0  0  0  0  0  0  0
   -2.2496   -2.9169    0.0000 C   0  0  0  0  0  0  0  0  0  0  0  0
   -2.7696   -2.5709    0.8910 H   0  0  0  0  0  0  0  0  0  0  0  0
   -2.7696   -2.5709   -0.8910 H   0  0  0  0  0  0  0  0  0  0  0  0
   -0.8406   -2.3699    0.0000 C   0  0  0  0  0  0  0  0  0  0  0  0
    0.1164   -3.1329    0.0000 O   0  0  0  0  0  0  0  0  0  0  0  0
   -0.7136   -1.0459    0.0000 N   0  0  0  0  0  0  0  0  0  0  0  0
   -1.5436   -0.4719    0.0000 H   0  0  0  0  0  0  0  0  0  0  0  0
    0.5724   -0.3469    0.0000 C   0  0  0  0  0  0  0  0  0  0  0  0
    1.3797   -1.0803   -0.0159 H   0  0  0  0  0  0  0  0  0  0  0  0
    0.6485    0.2650   -0.8999 H   0  0  0  0  0  0  0  0  0  0  0  0
    0.7501    0.5547    1.2250 C   0  0  0  0  0  0  0  0  0  0  0  0
    0.9981    0.0658    2.3254 O   0  0  0  0  0  0  0  0  0  0  0  0
    0.6210    1.8719    1.0219 N   0  0  0  0  0  0  0  0  0  0  0  0
    0.4170    2.1801    0.0841 H   0  0  0  0  0  0  0  0  0  0  0  0
    0.7535    2.8976    2.0586 C   0  0  0  0  0  0  0  0  0  0  0  0
    0.9735    2.4415    3.0270 H   0  0  0  0  0  0  0  0  0  0  0  0
    1.5651    3.5803    1.8035 H   0  0  0  0  0  0  0  0  0  0  0  0
   -0.1761    3.4619    2.1433 H   0  0  0  0  0  0  0  0  0  0  0  0
  5  6  2  0  0  0  0
  5  7  1  0  0  0  0
  2  3  1  0  0  0  0
  2  4  1  0  0  0  0
  2  5  1  0  0  0  0
  1  2  1  0  0  0  0
 12 13  2  0  0  0  0
 12 14  1  0  0  0  0
  9 10  1  0  0  0  0
  9 11  1  0  0  0  0
  9 12  1  0  0  0  0
  7  8  1  0  0  0  0
  7  9  1  0  0  0  0
 16 17  1  0  0  0  0
 16 18  1  0  0  0  0
 16 19  1  0  0  0  0
 14 15  1  0  0  0  0
 14 16  1  0  0  0  0
M  END
$$$$
default_name
  -OEChem-01062215323D

 19 18  0     0  0  0  0  0  0999 V2000
   -2.2056   -4.0049    0.0000 H   0  0  0  0  0  0  0  0  0  0  0  0
   -2.2496   -2.9169    0.0000 C   0  0  0  0  0  0  0  0  0  0  0  0
   -2.7696   -2.5709    0.8910 H   0  0  0  0  0  0  0  0  0  0  0  0
   -2.7696   -2.5709   -0.8910 H   0  0  0  0  0  0  0  0  0  0  0  0
   -0.8406   -2.3699    0.0000 C   0  0  0  0  0  0  0  0  0  0  0  0
    0.1164   -3.1329    0.0000 O   0  0  0  0  0  0  0  0  0  0  0  0
   -0.7136   -1.0459    0.0000 N   0  0  0  0  0  0  0  0  0  0  0  0
   -1.5436   -0.4719    0.0000 H   0  0  0  0  0  0  0  0  0  0  0  0
    0.5724   -0.3469    0.0000 C   0  0  0  0  0  0  0  0  0  0  0  0
    1.3797   -1.0803   -0.0159 H   0  0  0  0  0  0  0  0  0  0  0  0
    0.6485    0.2650   -0.8999 H   0  0  0  0  0  0  0  0  0  0  0  0
    0.7501    0.5547    1.2250 C   0  0  0  0  0  0  0  0  0  0  0  0
    1.2610    0.1132    2.2524 O   0  0  0  0  0  0  0  0  0  0  0  0
    0.3241    1.8184    1.1044 N   0  0  0  0  0  0  0  0  0  0  0  0
   -0.0820    2.0902    0.2227 H   0  0  0  0  0  0  0  0  0  0  0  0
    0.4035    2.8345    2.1559 C   0  0  0  0  0  0  0  0  0  0  0  0
    0.8600    2.4211    3.0585 H   0  0  0  0  0  0  0  0  0  0  0  0
    1.0083    3.6754    1.8142 H   0  0  0  0  0  0  0  0  0  0  0  0
   -0.5973    3.1904    2.4042 H   0  0  0  0  0  0  0  0  0  0  0  0
  5  6  2  0  0  0  0
  5  7  1  0  0  0  0
  2  3  1  0  0  0  0
  2  4  1  0  0  0  0
  2  5  1  0  0  0  0
  1  2  1  0  0  0  0
 12 13  2  0  0  0  0
 12 14  1  0  0  0  0
  9 10  1  0  0  0  0
  9 11  1  0  0  0  0
  9 12  1  0  0  0  0
  7  8  1  0  0  0  0
  7  9  1  0  0  0  0
 16 17  1  0  0  0  0
 16 18  1  0  0  0  0
 16 19  1  0  0  0  0
 14 15  1  0  0  0  0
 14 16  1  0  0  0  0
M  END
$$$$
default_name
  -OEChem-01062215323D

 19 18  0     0  0  0  0  0  0999 V2000
   -2.2056   -4.0049    0.0000 H   0  0  0  0  0  0  0  0  0  0  0  0
   -2.2496   -2.9169    0.0000 C   0  0  0  0  0  0  0  0  0  0  0  0
   -2.7696   -2.5709    0.8910 H   0  0  0  0  0  0  0  0  0  0  0  0
   -2.7696   -2.5709   -0.8910 H   0  0  0  0  0  0  0  0  0  0  0  0
   -0.8406   -2.3699    0.0000 C   0  0  0  0  0  0  0  0  0  0  0  0
    0.1164   -3.1329    0.0000 O   0  0  0  0  0  0  0  0  0  0  0  0
   -0.7136   -1.0459    0.0000 N   0  0  0  0  0  0  0  0  0  0  0  0
   -1.5436   -0.4719    0.0000 H   0  0  0  0  0  0  0  0  0  0  0  0
    0.5724   -0.3469    0.0000 C   0  0  0  0  0  0  0  0  0  0  0  0
    1.3797   -1.0803   -0.0159 H   0  0  0  0  0  0  0  0  0  0  0  0
    0.6485    0.2650   -0.8999 H   0  0  0  0  0  0  0  0  0  0  0  0
    0.7501    0.5547    1.2250 C   0  0  0  0  0  0  0  0  0  0  0  0
    1.4940    0.2156    2.1432 O   0  0  0  0  0  0  0  0  0  0  0  0
    0.0609    1.7028    1.2277 N   0  0  0  0  0  0  0  0  0  0  0  0
   -0.5243    1.8958    0.4300 H   0  0  0  0  0  0  0  0  0  0  0  0
    0.0932    2.6981    2.3013 C   0  0  0  0  0  0  0  0  0  0  0  0
    0.7595    2.3769    3.1056 H   0  0  0  0  0  0  0  0  0  0  0  0
    0.4525    3.6518    1.9123 H   0  0  0  0  0  0  0  0  0  0  0  0
   -0.9081    2.8331    2.7123 H   0  0  0  0  0  0  0  0  0  0  0  0
  5  6  2  0  0  0  0
  5  7  1  0  0  0  0
  2  3  1  0  0  0  0
  2  4  1  0  0  0  0
  2  5  1  0  0  0  0
  1  2  1  0  0  0  0
 12 13  2  0  0  0  0
 12 14  1  0  0  0  0
  9 10  1  0  0  0  0
  9 11  1  0  0  0  0
  9 12  1  0  0  0  0
  7  8  1  0  0  0  0
  7  9  1  0  0  0  0
 16 17  1  0  0  0  0
 16 18  1  0  0  0  0
 16 19  1  0  0  0  0
 14 15  1  0  0  0  0
 14 16  1  0  0  0  0
M  END
$$$$
default_name
  -OEChem-01062215323D

 19 18  0     0  0  0  0  0  0999 V2000
   -2.2056   -4.0049    0.0000 H   0  0  0  0  0  0  0  0  0  0  0  0
   -2.2496   -2.9169    0.0000 C   0  0  0  0  0  0  0  0  0  0  0  0
   -2.7696   -2.5709    0.8910 H   0  0  0  0  0  0  0  0  0  0  0  0
   -2.7696   -2.5709   -0.8910 H   0  0  0  0  0  0  0  0  0  0  0  0
   -0.8406   -2.3699    0.0000 C   0  0  0  0  0  0  0  0  0  0  0  0
    0.1164   -3.1329    0.0000 O   0  0  0  0  0  0  0  0  0  0  0  0
   -0.7136   -1.0459    0.0000 N   0  0  0  0  0  0  0  0  0  0  0  0
   -1.5436   -0.4719    0.0000 H   0  0  0  0  0  0  0  0  0  0  0  0
    0.5724   -0.3469    0.0000 C   0  0  0  0  0  0  0  0  0  0  0  0
    1.3797   -1.0803   -0.0159 H   0  0  0  0  0  0  0  0  0  0  0  0
    0.6485    0.2650   -0.8999 H   0  0  0  0  0  0  0  0  0  0  0  0
    0.7501    0.5547    1.2250 C   0  0  0  0  0  0  0  0  0  0  0  0
    1.6812    0.3661    2.0053 O   0  0  0  0  0  0  0  0  0  0  0  0
   -0.1505    1.5329    1.3834 N   0  0  0  0  0  0  0  0  0  0  0  0
   -0.8796    1.6102    0.6917 H   0  0  0  0  0  0  0  0  0  0  0  0
   -0.1560    2.4978    2.4849 C   0  0  0  0  0  0  0  0  0  0  0  0
    0.6787    2.3119    3.1652 H   0  0  0  0  0  0  0  0  0  0  0  0
   -0.0646    3.5109    2.0910 H   0  0  0  0  0  0  0  0  0  0  0  0
   -1.0875    2.4144    3.0465 H   0  0  0  0  0  0  0  0  0  0  0  0
  5  6  2  0  0  0  0
  5  7  1  0  0  0  0
  2  3  1  0  0  0  0
  2  4  1  0  0  0  0
  2  5  1  0  0  0  0
  1  2  1  0  0  0  0
 12 13  2  0  0  0  0
 12 14  1  0  0  0  0
  9 10  1  0  0  0  0
  9 11  1  0  0  0  0
  9 12  1  0  0  0  0
  7  8  1  0  0  0  0
  7  9  1  0  0  0  0
 16 17  1  0  0  0  0
 16 18  1  0  0  0  0
 16 19  1  0  0  0  0
 14 15  1  0  0  0  0
 14 16  1  0  0  0  0
M  END
$$$$
default_name
  -OEChem-01062215323D

 19 18  0     0  0  0  0  0  0999 V2000
   -2.2056   -4.0049    0.0000 H   0  0  0  0  0  0  0  0  0  0  0  0
   -2.2496   -2.9169    0.0000 C   0  0  0  0  0  0  0  0  0  0  0  0
   -2.7696   -2.5709    0.8910 H   0  0  0  0  0  0  0  0  0  0  0  0
   -2.7696   -2.5709   -0.8910 H   0  0  0  0  0  0  0  0  0  0  0  0
   -0.8406   -2.3699    0.0000 C   0  0  0  0  0  0  0  0  0  0  0  0
    0.1164   -3.1329    0.0000 O   0  0  0  0  0  0  0  0  0  0  0  0
   -0.7136   -1.0459    0.0000 N   0  0  0  0  0  0  0  0  0  0  0  0
   -1.5436   -0.4719    0.0000 H   0  0  0  0  0  0  0  0  0  0  0  0
    0.5724   -0.3469    0.0000 C   0  0  0  0  0  0  0  0  0  0  0  0
    1.3797   -1.0803   -0.0159 H   0  0  0  0  0  0  0  0  0  0  0  0
    0.6485    0.2650   -0.8999 H   0  0  0  0  0  0  0  0  0  0  0  0
    0.7501    0.5547    1.2250 C   0  0  0  0  0  0  0  0  0  0  0  0
    1.8099    0.5543    1.8481 O   0  0  0  0  0  0  0  0  0  0  0  0
   -0.2958    1.3203    1.5610 N   0  0  0  0  0  0  0  0  0  0  0  0
   -1.1239    1.2530    0.9901 H   0  0  0  0  0  0  0  0  0  0  0  0
   -0.3274    2.2472    2.6942 C   0  0  0  0  0  0  0  0  0  0  0  0
    0.6231    2.2307    3.2330 H   0  0  0  0  0  0  0  0  0  0  0  0
   -0.5077    3.2624    2.3382 H   0  0  0  0  0  0  0  0  0  0  0  0
   -1.1231    1.9628    3.3840 H   0  0  0  0  0  0  0  0  0  0  0  0
  5  6  2  0  0  0  0
  5  7  1  0  0  0  0
  2  3  1  0  0  0  0
  2  4  1  0  0  0  0
  2  5  1  0  0  0  0
  1  2  1  0  0  0  0
 12 13  2  0  0  0  0
 12 14  1  0  0  0  0
  9 10  1  0  0  0  0
  9 11  1  0  0  0  0
  9 12  1  0  0  0  0
  7  8  1  0  0  0  0
  7  9  1  0  0  0  0
 16 17  1  0  0  0  0
 16 18  1  0  0  0  0
 16 19  1  0  0  0  0
 14 15  1  0  0  0  0
 14 16  1  0  0  0  0
M  END
$$$$
default_name
  -OEChem-01062215323D

 19 18  0     0  0  0  0  0  0999 V2000
   -2.2056   -4.0049    0.0000 H   0  0  0  0  0  0  0  0  0  0  0  0
   -2.2496   -2.9169    0.0000 C   0  0  0  0  0  0  0  0  0  0  0  0
   -2.7696   -2.5709    0.8910 H   0  0  0  0  0  0  0  0  0  0  0  0
   -2.7696   -2.5709   -0.8910 H   0  0  0  0  0  0  0  0  0  0  0  0
   -0.8406   -2.3699    0.0000 C   0  0  0  0  0  0  0  0  0  0  0  0
    0.1164   -3.1329    0.0000 O   0  0  0  0  0  0  0  0  0  0  0  0
   -0.7136   -1.0459    0.0000 N   0  0  0  0  0  0  0  0  0  0  0  0
   -1.5436   -0.4719    0.0000 H   0  0  0  0  0  0  0  0  0  0  0  0
    0.5724   -0.3469    0.0000 C   0  0  0  0  0  0  0  0  0  0  0  0
    1.3797   -1.0803   -0.0159 H   0  0  0  0  0  0  0  0  0  0  0  0
    0.6485    0.2650   -0.8999 H   0  0  0  0  0  0  0  0  0  0  0  0
    0.7501    0.5547    1.2250 C   0  0  0  0  0  0  0  0  0  0  0  0
    1.8713    0.7675    1.6823 O   0  0  0  0  0  0  0  0  0  0  0  0
   -0.3651    1.0796    1.7482 N   0  0  0  0  0  0  0  0  0  0  0  0
   -1.2404    0.8484    1.3048 H   0  0  0  0  0  0  0  0  0  0  0  0
   -0.4091    1.9633    2.9149 C   0  0  0  0  0  0  0  0  0  0  0  0
    0.5966    2.1387    3.3046 H   0  0  0  0  0  0  0  0  0  0  0  0
   -0.8466    2.9232    2.6371 H   0  0  0  0  0  0  0  0  0  0  0  0
   -1.0125    1.5090    3.7019 H   0  0  0  0  0  0  0  0  0  0  0  0
  5  6  2  0  0  0  0
  5  7  1  0  0  0  0
  2  3  1  0  0  0  0
  2  4  1  0  0  0  0
  2  5  1  0  0  0  0
  1  2  1  0  0  0  0
 12 13  2  0  0  0  0
 12 14  1  0  0  0  0
  9 10  1  0  0  0  0
  9 11  1  0  0  0  0
  9 12  1  0  0  0  0
  7  8  1  0  0  0  0
  7  9  1  0  0  0  0
 16 17  1  0  0  0  0
 16 18  1  0  0  0  0
 16 19  1  0  0  0  0
 14 15  1  0  0  0  0
 14 16  1  0  0  0  0
M  END
$$$$
default_name
  -OEChem-01062215323D

 19 18  0     0  0  0  0  0  0999 V2000
   -2.2056   -4.0049    0.0000 H   0  0  0  0  0  0  0  0  0  0  0  0
   -2.2496   -2.9169    0.0000 C   0  0  0  0  0  0  0  0  0  0  0  0
   -2.7696   -2.5709    0.8910 H   0  0  0  0  0  0  0  0  0  0  0  0
   -2.7696   -2.5709   -0.8910 H   0  0  0  0  0  0  0  0  0  0  0  0
   -0.8406   -2.3699    0.0000 C   0  0  0  0  0  0  0  0  0  0  0  0
    0.1164   -3.1329    0.0000 O   0  0  0  0  0  0  0  0  0  0  0  0
   -0.7136   -1.0459    0.0000 N   0  0  0  0  0  0  0  0  0  0  0  0
   -1.5436   -0.4719    0.0000 H   0  0  0  0  0  0  0  0  0  0  0  0
    0.5724   -0.3469    0.0000 C   0  0  0  0  0  0  0  0  0  0  0  0
    1.3797   -1.0803   -0.0159 H   0  0  0  0  0  0  0  0  0  0  0  0
    0.6485    0.2650   -0.8999 H   0  0  0  0  0  0  0  0  0  0  0  0
    0.7501    0.5547    1.2250 C   0  0  0  0  0  0  0  0  0  0  0  0
    1.8612    0.9911    1.5192 O   0  0  0  0  0  0  0  0  0  0  0  0
   -0.3537    0.8271    1.9324 N   0  0  0  0  0  0  0  0  0  0  0  0
   -1.2212    0.4240    1.6143 H   0  0  0  0  0  0  0  0  0  0  0  0
   -0.3956    1.6656    3.1321 C   0  0  0  0  0  0  0  0  0  0  0  0
    0.6010    2.0422    3.3750 H   0  0  0  0  0  0  0  0  0  0  0  0
   -1.0581    2.5164    2.9671 H   0  0  0  0  0  0  0  0  0  0  0  0
   -0.7634    1.0841    3.9785 H   0  0  0  0  0  0  0  0  0  0  0  0
  5  6  2  0  0  0  0
  5  7  1  0  0  0  0
  2  3  1  0  0  0  0
  2  4  1  0  0  0  0
  2  5  1  0  0  0  0
  1  2  1  0  0  0  0
 12 13  2  0  0  0  0
 12 14  1  0  0  0  0
  9 10  1  0  0  0  0
  9 11  1  0  0  0  0
  9 12  1  0  0  0  0
  7  8  1  0  0  0  0
  7  9  1  0  0  0  0
 16 17  1  0  0  0  0
 16 18  1  0  0  0  0
 16 19  1  0  0  0  0
 14 15  1  0  0  0  0
 14 16  1  0  0  0  0
M  END
$$$$
default_name
  -OEChem-01062215323D

 19 18  0     0  0  0  0  0  0999 V2000
   -2.2056   -4.0049    0.0000 H   0  0  0  0  0  0  0  0  0  0  0  0
   -2.2496   -2.9169    0.0000 C   0  0  0  0  0  0  0  0  0  0  0  0
   -2.7696   -2.5709    0.8910 H   0  0  0  0  0  0  0  0  0  0  0  0
   -2.7696   -2.5709   -0.8910 H   0  0  0  0  0  0  0  0  0  0  0  0
   -0.8406   -2.3699    0.0000 C   0  0  0  0  0  0  0  0  0  0  0  0
    0.1164   -3.1329    0.0000 O   0  0  0  0  0  0  0  0  0  0  0  0
   -0.7136   -1.0459    0.0000 N   0  0  0  0  0  0  0  0  0  0  0  0
   -1.5436   -0.4719    0.0000 H   0  0  0  0  0  0  0  0  0  0  0  0
    0.5724   -0.3469    0.0000 C   0  0  0  0  0  0  0  0  0  0  0  0
    1.3797   -1.0803   -0.0159 H   0  0  0  0  0  0  0  0  0  0  0  0
    0.6485    0.2650   -0.8999 H   0  0  0  0  0  0  0  0  0  0  0  0
    0.7501    0.5547    1.2250 C   0  0  0  0  0  0  0  0  0  0  0  0
    1.7803    1.2099    1.3699 O   0  0  0  0  0  0  0  0  0  0  0  0
   -0.2623    0.5800    2.1010 N   0  0  0  0  0  0  0  0  0  0  0  0
   -1.0676    0.0087    1.8977 H   0  0  0  0  0  0  0  0  0  0  0  0
   -0.2879    1.3743    3.3309 C   0  0  0  0  0  0  0  0  0  0  0  0
    0.6359    1.9478    3.4394 H   0  0  0  0  0  0  0  0  0  0  0  0
   -1.1279    2.0698    3.3060 H   0  0  0  0  0  0  0  0  0  0  0  0
   -0.3926    0.7169    4.1950 H   0  0  0  0  0  0  0  0  0  0  0  0
  5  6  2  0  0  0  0
  5  7  1  0  0  0  0
  2  3  1  0  0  0  0
  2  4  1  0  0  0  0
  2  5  1  0  0  0  0
  1  2  1  0  0  0  0
 12 13  2  0  0  0  0
 12 14  1  0  0  0  0
  9 10  1  0  0  0  0
  9 11  1  0  0  0  0
  9 12  1  0  0  0  0
  7  8  1  0  0  0  0
  7  9  1  0  0  0  0
 16 17  1  0  0  0  0
 16 18  1  0  0  0  0
 16 19  1  0  0  0  0
 14 15  1  0  0  0  0
 14 16  1  0  0  0  0
M  END
$$$$
default_name
  -OEChem-01062215323D

 19 18  0     0  0  0  0  0  0999 V2000
   -2.2056   -4.0049    0.0000 H   0  0  0  0  0  0  0  0  0  0  0  0
   -2.2496   -2.9169    0.0000 C   0  0  0  0  0  0  0  0  0  0  0  0
   -2.7696   -2.5709    0.8910 H   0  0  0  0  0  0  0  0  0  0  0  0
   -2.7696   -2.5709   -0.8910 H   0  0  0  0  0  0  0  0  0  0  0  0
   -0.8406   -2.3699    0.0000 C   0  0  0  0  0  0  0  0  0  0  0  0
    0.1164   -3.1329    0.0000 O   0  0  0  0  0  0  0  0  0  0  0  0
   -0.7136   -1.0459    0.0000 N   0  0  0  0  0  0  0  0  0  0  0  0
   -1.5436   -0.4719    0.0000 H   0  0  0  0  0  0  0  0  0  0  0  0
    0.5724   -0.3469    0.0000 C   0  0  0  0  0  0  0  0  0  0  0  0
    1.3797   -1.0803   -0.0159 H   0  0  0  0  0  0  0  0  0  0  0  0
    0.6485    0.2650   -0.8999 H   0  0  0  0  0  0  0  0  0  0  0  0
    0.7501    0.5547    1.2250 C   0  0  0  0  0  0  0  0  0  0  0  0
    1.6341    1.4089    1.2446 O   0  0  0  0  0  0  0  0  0  0  0  0
   -0.0972    0.3552    2.2425 N   0  0  0  0  0  0  0  0  0  0  0  0
   -0.7901   -0.3691    2.1355 H   0  0  0  0  0  0  0  0  0  0  0  0
   -0.0932    1.1093    3.4977 C   0  0  0  0  0  0  0  0  0  0  0  0
    0.6990    1.8618    3.4935 H   0  0  0  0  0  0  0  0  0  0  0  0
   -1.0512    1.6137    3.6305 H   0  0  0  0  0  0  0  0  0  0  0  0
    0.0746    0.4325    4.3365 H   0  0  0  0  0  0  0  0  0  0  0  0
  5  6  2  0  0  0  0
  5  7  1  0  0  0  0
  2  3  1  0  0  0  0
  2  4  1  0  0  0  0
  2  5  1  0  0  0  0
  1  2  1  0  0  0  0
 12 13  2  0  0  0  0
 12 14  1  0  0  0  0
  9 10  1  0  0  0  0
  9 11  1  0  0  0  0
  9 12  1  0  0  0  0
  7  8  1  0  0  0  0
  7  9  1  0  0  0  0
 16 17  1  0  0  0  0
 16 18  1  0  0  0  0
 16 19  1  0  0  0  0
 14 15  1  0  0  0  0
 14 16  1  0  0  0  0
M  END
$$$$
default_name
  -OEChem-01062215323D

 19 18  0     0  0  0  0  0  0999 V2000
   -2.2056   -4.0049    0.0000 H   0  0  0  0  0  0  0  0  0  0  0  0
   -2.2496   -2.9169    0.0000 C   0  0  0  0  0  0  0  0  0  0  0  0
   -2.7696   -2.5709    0.8910 H   0  0  0  0  0  0  0  0  0  0  0  0
   -2.7696   -2.5709   -0.8910 H   0  0  0  0  0  0  0  0  0  0  0  0
   -0.8406   -2.3699    0.0000 C   0  0  0  0  0  0  0  0  0  0  0  0
    0.1164   -3.1329    0.0000 O   0  0  0  0  0  0  0  0  0  0  0  0
   -0.7136   -1.0459    0.0000 N   0  0  0  0  0  0  0  0  0  0  0  0
   -1.5436   -0.4719    0.0000 H   0  0  0  0  0  0  0  0  0  0  0  0
    0.5724   -0.3469    0.0000 C   0  0  0  0  0  0  0  0  0  0  0  0
    1.3797   -1.0803   -0.0159 H   0  0  0  0  0  0  0  0  0  0  0  0
    0.6485    0.2650   -0.8999 H   0  0  0  0  0  0  0  0  0  0  0  0
    0.7501    0.5547    1.2250 C   0  0  0  0  0  0  0  0  0  0  0  0
    1.4325    1.5747    1.1519 O   0  0  0  0  0  0  0  0  0  0  0  0
    0.1304    0.1680    2.3472 N   0  0  0  0  0  0  0  0  0  0  0  0
   -0.4076   -0.6837    2.3116 H   0  0  0  0  0  0  0  0  0  0  0  0
    0.1751    0.8885    3.6212 C   0  0  0  0  0  0  0  0  0  0  0  0
    0.7860    1.7903    3.5335 H   0  0  0  0  0  0  0  0  0  0  0  0
   -0.8333    1.1793    3.9186 H   0  0  0  0  0  0  0  0  0  0  0  0
    0.6063    0.2502    4.3935 H   0  0  0  0  0  0  0  0  0  0  0  0
  5  6  2  0  0  0  0
  5  7  1  0  0  0  0
  2  3  1  0  0  0  0
  2  4  1  0  0  0  0
  2  5  1  0  0  0  0
  1  2  1  0  0  0  0
 12 13  2  0  0  0  0
 12 14  1  0  0  0  0
  9 10  1  0  0  0  0
  9 11  1  0  0  0  0
  9 12  1  0  0  0  0
  7  8  1  0  0  0  0
  7  9  1  0  0  0  0
 16 17  1  0  0  0  0
 16 18  1  0  0  0  0
 16 19  1  0  0  0  0
 14 15  1  0  0  0  0
 14 16  1  0  0  0  0
M  END
$$$$
default_name
  -OEChem-01062215323D

 19 18  0     0  0  0  0  0  0999 V2000
   -2.2056   -4.0049    0.0000 H   0  0  0  0  0  0  0  0  0  0  0  0
   -2.2496   -2.9169    0.0000 C   0  0  0  0  0  0  0  0  0  0  0  0
   -2.7696   -2.5709    0.8910 H   0  0  0  0  0  0  0  0  0  0  0  0
   -2.7696   -2.5709   -0.8910 H   0  0  0  0  0  0  0  0  0  0  0  0
   -0.8406   -2.3699    0.0000 C   0  0  0  0  0  0  0  0  0  0  0  0
    0.1164   -3.1329    0.0000 O   0  0  0  0  0  0  0  0  0  0  0  0
   -0.7136   -1.0459    0.0000 N   0  0  0  0  0  0  0  0  0  0  0  0
   -1.5436   -0.4719    0.0000 H   0  0  0  0  0  0  0  0  0  0  0  0
    0.5724   -0.3469    0.0000 C   0  0  0  0  0  0  0  0  0  0  0  0
    1.3797   -1.0803   -0.0159 H   0  0  0  0  0  0  0  0  0  0  0  0
    0.6485    0.2650   -0.8999 H   0  0  0  0  0  0  0  0  0  0  0  0
    0.7501    0.5547    1.2250 C   0  0  0  0  0  0  0  0  0  0  0  0
    1.1894    1.6959    1.0980 O   0  0  0  0  0  0  0  0  0  0  0  0
    0.4049    0.0312    2.4081 N   0  0  0  0  0  0  0  0  0  0  0  0
    0.0539   -0.9138    2.4139 H   0  0  0  0  0  0  0  0  0  0  0  0
    0.4988    0.7272    3.6930 C   0  0  0  0  0  0  0  0  0  0  0  0
    0.8909    1.7380    3.5568 H   0  0  0  0  0  0  0  0  0  0  0  0
   -0.4890    0.7962    4.1506 H   0  0  0  0  0  0  0  0  0  0  0  0
    1.1663    0.1825    4.3621 H   0  0  0  0  0  0  0  0  0  0  0  0
  5  6  2  0  0  0  0
  5  7  1  0  0  0  0
  2  3  1  0  0  0  0
  2  4  1  0  0  0  0
  2  5  1  0  0  0  0
  1  2  1  0  0  0  0
 12 13  2  0  0  0  0
 12 14  1  0  0  0  0
  9 10  1  0  0  0  0
  9 11  1  0  0  0  0
  9 12  1  0  0  0  0
  7  8  1  0  0  0  0
  7  9  1  0  0  0  0
 16 17  1  0  0  0  0
 16 18  1  0  0  0  0
 16 19  1  0  0  0  0
 14 15  1  0  0  0  0
 14 16  1  0  0  0  0
M  END
$$$$
default_name
  -OEChem-01062215323D

 19 18  0     0  0  0  0  0  0999 V2000
   -2.2056   -4.0049    0.0000 H   0  0  0  0  0  0  0  0  0  0  0  0
   -2.2496   -2.9169    0.0000 C   0  0  0  0  0  0  0  0  0  0  0  0
   -2.7696   -2.5709    0.8910 H   0  0  0  0  0  0  0  0  0  0  0  0
   -2.7696   -2.5709   -0.8910 H   0  0  0  0  0  0  0  0  0  0  0  0
   -0.8406   -2.3699    0.0000 C   0  0  0  0  0  0  0  0  0  0  0  0
    0.1164   -3.1329    0.0000 O   0  0  0  0  0  0  0  0  0  0  0  0
   -0.7136   -1.0459    0.0000 N   0  0  0  0  0  0  0  0  0  0  0  0
   -1.5436   -0.4719    0.0000 H   0  0  0  0  0  0  0  0  0  0  0  0
    0.5724   -0.3469    0.0000 C   0  0  0  0  0  0  0  0  0  0  0  0
    1.3797   -1.0803   -0.0159 H   0  0  0  0  0  0  0  0  0  0  0  0
    0.6485    0.2650   -0.8999 H   0  0  0  0  0  0  0  0  0  0  0  0
    0.7501    0.5547    1.2250 C   0  0  0  0  0  0  0  0  0  0  0  0
    0.9213    1.7642    1.0866 O   0  0  0  0  0  0  0  0  0  0  0  0
    0.7077   -0.0460    2.4210 N   0  0  0  0  0  0  0  0  0  0  0  0
    0.5628   -1.0435    2.4355 H   0  0  0  0  0  0  0  0  0  0  0  0
    0.8558    0.6362    3.7082 C   0  0  0  0  0  0  0  0  0  0  0  0
    1.0067    1.7085    3.5617 H   0  0  0  0  0  0  0  0  0  0  0  0
   -0.0417    0.4904    4.3107 H   0  0  0  0  0  0  0  0  0  0  0  0
    1.7165    0.2341    4.2443 H   0  0  0  0  0  0  0  0  0  0  0  0
  5  6  2  0  0  0  0
  5  7  1  0  0  0  0
  2  3  1  0  0  0  0
  2  4  1  0  0  0  0
  2  5  1  0  0  0  0
  1  2  1  0  0  0  0
 12 13  2  0  0  0  0
 12 14  1  0  0  0  0
  9 10  1  0  0  0  0
  9 11  1  0  0  0  0
  9 12  1  0  0  0  0
  7  8  1  0  0  0  0
  7  9  1  0  0  0  0
 16 17  1  0  0  0  0
 16 18  1  0  0  0  0
 16 19  1  0  0  0  0
 14 15  1  0  0  0  0
 14 16  1  0  0  0  0
M  END
$$$$
default_name
  -OEChem-01062215323D

 19 18  0     0  0  0  0  0  0999 V2000
   -2.2056   -4.0049    0.0000 H   0  0  0  0  0  0  0  0  0  0  0  0
   -2.2496   -2.9169    0.0000 C   0  0  0  0  0  0  0  0  0  0  0  0
   -2.7696   -2.5709    0.8910 H   0  0  0  0  0  0  0  0  0  0  0  0
   -2.7696   -2.5709   -0.8910 H   0  0  0  0  0  0  0  0  0  0  0  0
   -0.8406   -2.3699    0.0000 C   0  0  0  0  0  0  0  0  0  0  0  0
    0.1164   -3.1329    0.0000 O   0  0  0  0  0  0  0  0  0  0  0  0
   -0.7136   -1.0459    0.0000 N   0  0  0  0  0  0  0  0  0  0  0  0
   -1.5436   -0.4719    0.0000 H   0  0  0  0  0  0  0  0  0  0  0  0
    0.5724   -0.3469    0.0000 C   0  0  0  0  0  0  0  0  0  0  0  0
    1.3797   -1.0803   -0.0159 H   0  0  0  0  0  0  0  0  0  0  0  0
    0.6485    0.2650   -0.8999 H   0  0  0  0  0  0  0  0  0  0  0  0
    0.7501    0.5547    1.2250 C   0  0  0  0  0  0  0  0  0  0  0  0
    0.6464    1.7751    1.1185 O   0  0  0  0  0  0  0  0  0  0  0  0
    1.0181   -0.0583    2.3850 N   0  0  0  0  0  0  0  0  0  0  0  0
    1.0846   -1.0641    2.3750 H   0  0  0  0  0  0  0  0  0  0  0  0
    1.2218    0.6217    3.6657 C   0  0  0  0  0  0  0  0  0  0  0  0
    1.1253    1.7038    3.5479 H   0  0  0  0  0  0  0  0  0  0  0  0
    0.4781    0.2829    4.3881 H   0  0  0  0  0  0  0  0  0  0  0  0
    2.2193    0.4013    4.0483 H   0  0  0  0  0  0  0  0  0  0  0  0
  5  6  2  0  0  0  0
  5  7  1  0  0  0  0
  2  3  1  0  0  0  0
  2  4  1  0  0  0  0
  2  5  1  0  0  0  0
  1  2  1  0  0  0  0
 12 13  2  0  0  0  0
 12 14  1  0  0  0  0
  9 10  1  0  0  0  0
  9 11  1  0  0  0  0
  9 12  1  0  0  0  0
  7  8  1  0  0  0  0
  7  9  1  0  0  0  0
 16 17  1  0  0  0  0
 16 18  1  0  0  0  0
 16 19  1  0  0  0  0
 14 15  1  0  0  0  0
 14 16  1  0  0  0  0
M  END
$$$$
default_name
  -OEChem-01062215323D

 19 18  0     0  0  0  0  0  0999 V2000
   -2.2056   -4.0049    0.0000 H   0  0  0  0  0  0  0  0  0  0  0  0
   -2.2496   -2.9169    0.0000 C   0  0  0  0  0  0  0  0  0  0  0  0
   -2.7696   -2.5709    0.8910 H   0  0  0  0  0  0  0  0  0  0  0  0
   -2.7696   -2.5709   -0.8910 H   0  0  0  0  0  0  0  0  0  0  0  0
   -0.8406   -2.3699    0.0000 C   0  0  0  0  0  0  0  0  0  0  0  0
    0.1164   -3.1329    0.0000 O   0  0  0  0  0  0  0  0  0  0  0  0
   -0.7136   -1.0459    0.0000 N   0  0  0  0  0  0  0  0  0  0  0  0
   -1.5436   -0.4719    0.0000 H   0  0  0  0  0  0  0  0  0  0  0  0
    0.5724   -0.3469    0.0000 C   0  0  0  0  0  0  0  0  0  0  0  0
    1.3797   -1.0803   -0.0159 H   0  0  0  0  0  0  0  0  0  0  0  0
    0.6485    0.2650   -0.8999 H   0  0  0  0  0  0  0  0  0  0  0  0
    0.7501    0.5547    1.2250 C   0  0  0  0  0  0  0  0  0  0  0  0
    0.3835    1.7277    1.1915 O   0  0  0  0  0  0  0  0  0  0  0  0
    1.3150   -0.0047    2.3025 N   0  0  0  0  0  0  0  0  0  0  0  0
    1.5836   -0.9741    2.2363 H   0  0  0  0  0  0  0  0  0  0  0  0
    1.5719    0.6848    3.5684 C   0  0  0  0  0  0  0  0  0  0  0  0
    1.2388    1.7243    3.5164 H   0  0  0  0  0  0  0  0  0  0  0  0
    1.0348    0.1877    4.3773 H   0  0  0  0  0  0  0  0  0  0  0  0
    2.6404    0.6728    3.7874 H   0  0  0  0  0  0  0  0  0  0  0  0
  5  6  2  0  0  0  0
  5  7  1  0  0  0  0
  2  3  1  0  0  0  0
  2  4  1  0  0  0  0
  2  5  1  0  0  0  0
  1  2  1  0  0  0  0
 12 13  2  0  0  0  0
 12 14  1  0  0  0  0
  9 10  1  0  0  0  0
  9 11  1  0  0  0  0
  9 12  1  0  0  0  0
  7  8  1  0  0  0  0
  7  9  1  0  0  0  0
 16 17  1  0  0  0  0
 16 18  1  0  0  0  0
 16 19  1  0  0  0  0
 14 15  1  0  0  0  0
 14 16  1  0  0  0  0
M  END
$$$$
default_name
  -OEChem-01062215323D

 19 18  0     0  0  0  0  0  0999 V2000
   -2.2056   -4.0049    0.0000 H   0  0  0  0  0  0  0  0  0  0  0  0
   -2.2496   -2.9169    0.0000 C   0  0  0  0  0  0  0  0  0  0  0  0
   -2.7696   -2.5709    0.8910 H   0  0  0  0  0  0  0  0  0  0  0  0
   -2.7696   -2.5709   -0.8910 H   0  0  0  0  0  0  0  0  0  0  0  0
   -0.8406   -2.3699    0.0000 C   0  0  0  0  0  0  0  0  0  0  0  0
    0.1164   -3.1329    0.0000 O   0  0  0  0  0  0  0  0  0  0  0  0
   -0.7136   -1.0459    0.0000 N   0  0  0  0  0  0  0  0  0  0  0  0
   -1.5436   -0.4719    0.0000 H   0  0  0  0  0  0  0  0  0  0  0  0
    0.5724   -0.3469    0.0000 C   0  0  0  0  0  0  0  0  0  0  0  0
    1.3797   -1.0803   -0.0159 H   0  0  0  0  0  0  0  0  0  0  0  0
    0.6485    0.2650   -0.8999 H   0  0  0  0  0  0  0  0  0  0  0  0
    0.7501    0.5547    1.2250 C   0  0  0  0  0  0  0  0  0  0  0  0
    0.1505    1.6253    1.3007 O   0  0  0  0  0  0  0  0  0  0  0  0
    1.5782    0.1109    2.1792 N   0  0  0  0  0  0  0  0  0  0  0  0
    2.0258   -0.7797    2.0291 H   0  0  0  0  0  0  0  0  0  0  0  0
    1.8821    0.8212    3.4231 C   0  0  0  0  0  0  0  0  0  0  0  0
    1.3393    1.7685    3.4693 H   0  0  0  0  0  0  0  0  0  0  0  0
    1.5907    0.2114    4.2793 H   0  0  0  0  0  0  0  0  0  0  0  0
    2.9513    1.0300    3.4793 H   0  0  0  0  0  0  0  0  0  0  0  0
  5  6  2  0  0  0  0
  5  7  1  0  0  0  0
  2  3  1  0  0  0  0
  2  4  1  0  0  0  0
  2  5  1  0  0  0  0
  1  2  1  0  0  0  0
 12 13  2  0  0  0  0
 12 14  1  0  0  0  0
  9 10  1  0  0  0  0
  9 11  1  0  0  0  0
  9 12  1  0  0  0  0
  7  8  1  0  0  0  0
  7  9  1  0  0  0  0
 16 17  1  0  0  0  0
 16 18  1  0  0  0  0
 16 19  1  0  0  0  0
 14 15  1  0  0  0  0
 14 16  1  0  0  0  0
M  END
$$$$
default_name
  -OEChem-01062215323D

 19 18  0     0  0  0  0  0  0999 V2000
   -2.2056   -4.0049    0.0000 H   0  0  0  0  0  0  0  0  0  0  0  0
   -2.2496   -2.9169    0.0000 C   0  0  0  0  0  0  0  0  0  0  0  0
   -2.7696   -2.5709    0.8910 H   0  0  0  0  0  0  0  0  0  0  0  0
   -2.7696   -2.5709   -0.8910 H   0  0  0  0  0  0  0  0  0  0  0  0
   -0.8406   -2.3699    0.0000 C   0  0  0  0  0  0  0  0  0  0  0  0
    0.1164   -3.1329    0.0000 O   0  0  0  0  0  0  0  0  0  0  0  0
   -0.7136   -1.0459    0.0000 N   0  0  0  0  0  0  0  0  0  0  0  0
   -1.5436   -0.4719    0.0000 H   0  0  0  0  0  0  0  0  0  0  0  0
    0.5724   -0.3469    0.0000 C   0  0  0  0  0  0  0  0  0  0  0  0
    1.3797   -1.0803   -0.0159 H   0  0  0  0  0  0  0  0  0  0  0  0
    0.6485    0.2650   -0.8999 H   0  0  0  0  0  0  0  0  0  0  0  0
    0.7501    0.5547    1.2250 C   0  0  0  0  0  0  0  0  0  0  0  0
   -0.0368    1.4748    1.4386 O   0  0  0  0  0  0  0  0  0  0  0  0
    1.7896    0.2808    2.0235 N   0  0  0  0  0  0  0  0  0  0  0  0
    2.3812   -0.4942    1.7674 H   0  0  0  0  0  0  0  0  0  0  0  0
    2.1314    1.0215    3.2395 C   0  0  0  0  0  0  0  0  0  0  0  0
    1.4201    1.8334    3.4098 H   0  0  0  0  0  0  0  0  0  0  0  0
    2.1078    0.3523    4.1005 H   0  0  0  0  0  0  0  0  0  0  0  0
    3.1306    1.4488    3.1451 H   0  0  0  0  0  0  0  0  0  0  0  0
  5  6  2  0  0  0  0
  5  7  1  0  0  0  0
  2  3  1  0  0  0  0
  2  4  1  0  0  0  0
  2  5  1  0  0  0  0
  1  2  1  0  0  0  0
 12 13  2  0  0  0  0
 12 14  1  0  0  0  0
  9 10  1  0  0  0  0
  9 11  1  0  0  0  0
  9 12  1  0  0  0  0
  7  8  1  0  0  0  0
  7  9  1  0  0  0  0
 16 17  1  0  0  0  0
 16 18  1  0  0  0  0
 16 19  1  0  0  0  0
 14 15  1  0  0  0  0
 14 16  1  0  0  0  0
M  END
$$$$
default_name
  -OEChem-01062215323D

 19 18  0     0  0  0  0  0  0999 V2000
   -2.2056   -4.0049    0.0000 H   0  0  0  0  0  0  0  0  0  0  0  0
   -2.2496   -2.9169    0.0000 C   0  0  0  0  0  0  0  0  0  0  0  0
   -2.7696   -2.5709    0.8910 H   0  0  0  0  0  0  0  0  0  0  0  0
   -2.7696   -2.5709   -0.8910 H   0  0  0  0  0  0  0  0  0  0  0  0
   -0.8406   -2.3699    0.0000 C   0  0  0  0  0  0  0  0  0  0  0  0
    0.1164   -3.1329    0.0000 O   0  0  0  0  0  0  0  0  0  0  0  0
   -0.7136   -1.0459    0.0000 N   0  0  0  0  0  0  0  0  0  0  0  0
   -1.5436   -0.4719    0.0000 H   0  0  0  0  0  0  0  0  0  0  0  0
    0.5724   -0.3469    0.0000 C   0  0  0  0  0  0  0  0  0  0  0  0
    1.3797   -1.0803   -0.0159 H   0  0  0  0  0  0  0  0  0  0  0  0
    0.6485    0.2650   -0.8999 H   0  0  0  0  0  0  0  0  0  0  0  0
    0.7501    0.5547    1.2250 C   0  0  0  0  0  0  0  0  0  0  0  0
   -0.1654    1.2866    1.5958 O   0  0  0  0  0  0  0  0  0  0  0  0
    1.9349    0.4934    1.8459 N   0  0  0  0  0  0  0  0  0  0  0  0
    2.6254   -0.1369    1.4690 H   0  0  0  0  0  0  0  0  0  0  0  0
    2.3028    1.2721    3.0302 C   0  0  0  0  0  0  0  0  0  0  0  0
    1.4757    1.9146    3.3419 H   0  0  0  0  0  0  0  0  0  0  0  0
    2.5509    0.6008    3.8533 H   0  0  0  0  0  0  0  0  0  0  0  0
    3.1662    1.9004    2.8075 H   0  0  0  0  0  0  0  0  0  0  0  0
  5  6  2  0  0  0  0
  5  7  1  0  0  0  0
  2  3  1  0  0  0  0
  2  4  1  0  0  0  0
  2  5  1  0  0  0  0
  1  2  1  0  0  0  0
 12 13  2  0  0  0  0
 12 14  1  0  0  0  0
  9 10  1  0  0  0  0
  9 11  1  0  0  0  0
  9 12  1  0  0  0  0
  7  8  1  0  0  0  0
  7  9  1  0  0  0  0
 16 17  1  0  0  0  0
 16 18  1  0  0  0  0
 16 19  1  0  0  0  0
 14 15  1  0  0  0  0
 14 16  1  0  0  0  0
M  END
$$$$
default_name
  -OEChem-01062215323D

 19 18  0     0  0  0  0  0  0999 V2000
   -2.2056   -4.0049    0.0000 H   0  0  0  0  0  0  0  0  0  0  0  0
   -2.2496   -2.9169    0.0000 C   0  0  0  0  0  0  0  0  0  0  0  0
   -2.7696   -2.5709    0.8910 H   0  0  0  0  0  0  0  0  0  0  0  0
   -2.7696   -2.5709   -0.8910 H   0  0  0  0  0  0  0  0  0  0  0  0
   -0.8406   -2.3699    0.0000 C   0  0  0  0  0  0  0  0  0  0  0  0
    0.1164   -3.1329    0.0000 O   0  0  0  0  0  0  0  0  0  0  0  0
   -0.7136   -1.0459    0.0000 N   0  0  0  0  0  0  0  0  0  0  0  0
   -1.5436   -0.4719    0.0000 H   0  0  0  0  0  0  0  0  0  0  0  0
    0.5724   -0.3469    0.0000 C   0  0  0  0  0  0  0  0  0  0  0  0
    1.3797   -1.0803   -0.0159 H   0  0  0  0  0  0  0  0  0  0  0  0
    0.6485    0.2650   -0.8999 H   0  0  0  0  0  0  0  0  0  0  0  0
    0.7501    0.5547    1.2250 C   0  0  0  0  0  0  0  0  0  0  0  0
   -0.2268    1.0734    1.7616 O   0  0  0  0  0  0  0  0  0  0  0  0
    2.0042    0.7341    1.6587 N   0  0  0  0  0  0  0  0  0  0  0  0
    2.7419    0.2677    1.1543 H   0  0  0  0  0  0  0  0  0  0  0  0
    2.3845    1.5560    2.8094 C   0  0  0  0  0  0  0  0  0  0  0  0
    1.5022    2.0066    3.2704 H   0  0  0  0  0  0  0  0  0  0  0  0
    2.8897    0.9400    3.5545 H   0  0  0  0  0  0  0  0  0  0  0  0
    3.0557    2.3541    2.4896 H   0  0  0  0  0  0  0  0  0  0  0  0
  5  6  2  0  0  0  0
  5  7  1  0  0  0  0
  2  3  1  0  0  0  0
  2  4  1  0  0  0  0
  2  5  1  0  0  0  0
  1  2  1  0  0  0  0
 12 13  2  0  0  0  0
 12 14  1  0  0  0  0
  9 10  1  0  0  0  0
  9 11  1  0  0  0  0
  9 12  1  0  0  0  0
  7  8  1  0  0  0  0
  7  9  1  0  0  0  0
 16 17  1  0  0  0  0
 16 18  1  0  0  0  0
 16 19  1  0  0  0  0
 14 15  1  0  0  0  0
 14 16  1  0  0  0  0
M  END
$$$$
default_name
  -OEChem-01062215323D

 19 18  0     0  0  0  0  0  0999 V2000
   -2.2056   -4.0049    0.0000 H   0  0  0  0  0  0  0  0  0  0  0  0
   -2.2496   -2.9169    0.0000 C   0  0  0  0  0  0  0  0  0  0  0  0
   -2.7696   -2.5709    0.8910 H   0  0  0  0  0  0  0  0  0  0  0  0
   -2.7696   -2.5709   -0.8910 H   0  0  0  0  0  0  0  0  0  0  0  0
   -0.8406   -2.3699    0.0000 C   0  0  0  0  0  0  0  0  0  0  0  0
    0.1164   -3.1329    0.0000 O   0  0  0  0  0  0  0  0  0  0  0  0
   -0.7136   -1.0459    0.0000 N   0  0  0  0  0  0  0  0  0  0  0  0
   -1.5436   -0.4719    0.0000 H   0  0  0  0  0  0  0  0  0  0  0  0
    0.5724   -0.3469    0.0000 C   0  0  0  0  0  0  0  0  0  0  0  0
    1.3797   -1.0803   -0.0159 H   0  0  0  0  0  0  0  0  0  0  0  0
    0.6485    0.2650   -0.8999 H   0  0  0  0  0  0  0  0  0  0  0  0
    0.7501    0.5547    1.2250 C   0  0  0  0  0  0  0  0  0  0  0  0
   -0.2167    0.8498    1.9247 O   0  0  0  0  0  0  0  0  0  0  0  0
    1.9928    0.9866    1.4745 N   0  0  0  0  0  0  0  0  0  0  0  0
    2.7227    0.6921    0.8447 H   0  0  0  0  0  0  0  0  0  0  0  0
    2.3710    1.8537    2.5922 C   0  0  0  0  0  0  0  0  0  0  0  0
    1.4978    2.1031    3.2000 H   0  0  0  0  0  0  0  0  0  0  0  0
    3.1013    1.3468    3.2244 H   0  0  0  0  0  0  0  0  0  0  0  0
    2.8065    2.7791    2.2130 H   0  0  0  0  0  0  0  0  0  0  0  0
  5  6  2  0  0  0  0
  5  7  1  0  0  0  0
  2  3  1  0  0  0  0
  2  4  1  0  0  0  0
  2  5  1  0  0  0  0
  1  2  1  0  0  0  0
 12 13  2  0  0  0  0
 12 14  1  0  0  0  0
  9 10  1  0  0  0  0
  9 11  1  0  0  0  0
  9 12  1  0  0  0  0
  7  8  1  0  0  0  0
  7  9  1  0  0  0  0
 16 17  1  0  0  0  0
 16 18  1  0  0  0  0
 16 19  1  0  0  0  0
 14 15  1  0  0  0  0
 14 16  1  0  0  0  0
M  END
$$$$
default_name
  -OEChem-01062215323D

 19 18  0     0  0  0  0  0  0999 V2000
   -2.2056   -4.0049    0.0000 H   0  0  0  0  0  0  0  0  0  0  0  0
   -2.2496   -2.9169    0.0000 C   0  0  0  0  0  0  0  0  0  0  0  0
   -2.7696   -2.5709    0.8910 H   0  0  0  0  0  0  0  0  0  0  0  0
   -2.7696   -2.5709   -0.8910 H   0  0  0  0  0  0  0  0  0  0  0  0
   -0.8406   -2.3699    0.0000 C   0  0  0  0  0  0  0  0  0  0  0  0
    0.1164   -3.1329    0.0000 O   0  0  0  0  0  0  0  0  0  0  0  0
   -0.7136   -1.0459    0.0000 N   0  0  0  0  0  0  0  0  0  0  0  0
   -1.5436   -0.4719    0.0000 H   0  0  0  0  0  0  0  0  0  0  0  0
    0.5724   -0.3469    0.0000 C   0  0  0  0  0  0  0  0  0  0  0  0
    1.3610   -1.0458   -0.2819 H   0  0  0  0  0  0  0  0  0  0  0  0
    0.5455    0.4546   -0.7395 H   0  0  0  0  0  0  0  0  0  0  0  0
    0.9130    0.2550    1.3663 C   0  0  0  0  0  0  0  0  0  0  0  0
    0.1400    0.1236    2.3132 O   0  0  0  0  0  0  0  0  0  0  0  0
    2.0751    0.9141    1.4566 N   0  0  0  0  0  0  0  0  0  0  0  0
    2.6438    0.9700    0.6261 H   0  0  0  0  0  0  0  0  0  0  0  0
    2.5816    1.5594    2.6696 C   0  0  0  0  0  0  0  0  0  0  0  0
    1.8799    1.4304    3.4972 H   0  0  0  0  0  0  0  0  0  0  0  0
    3.5381    1.1181    2.9527 H   0  0  0  0  0  0  0  0  0  0  0  0
    2.7180    2.6270    2.4926 H   0  0  0  0  0  0  0  0  0  0  0  0
  5  6  2  0  0  0  0
  5  7  1  0  0  0  0
  2  3  1  0  0  0  0
  2  4  1  0  0  0  0
  2  5  1  0  0  0  0
  1  2  1  0  0  0  0
 12 13  2  0  0  0  0
 12 14  1  0  0  0  0
  9 10  1  0  0  0  0
  9 11  1  0  0  0  0
  9 12  1  0  0  0  0
  7  8  1  0  0  0  0
  7  9  1  0  0  0  0
 16 17  1  0  0  0  0
 16 18  1  0  0  0  0
 16 19  1  0  0  0  0
 14 15  1  0  0  0  0
 14 16  1  0  0  0  0
M  END
$$$$
default_name
  -OEChem-01062215323D

 19 18  0     0  0  0  0  0  0999 V2000
   -2.2056   -4.0049    0.0000 H   0  0  0  0  0  0  0  0  0  0  0  0
   -2.2496   -2.9169    0.0000 C   0  0  0  0  0  0  0  0  0  0  0  0
   -2.7696   -2.5709    0.8910 H   0  0  0  0  0  0  0  0  0  0  0  0
   -2.7696   -2.5709   -0.8910 H   0  0  0  0  0  0  0  0  0  0  0  0
   -0.8406   -2.3699    0.0000 C   0  0  0  0  0  0  0  0  0  0  0  0
    0.1164   -3.1329    0.0000 O   0  0  0  0  0  0  0  0  0  0  0  0
   -0.7136   -1.0459    0.0000 N   0  0  0  0  0  0  0  0  0  0  0  0
   -1.5436   -0.4719    0.0000 H   0  0  0  0  0  0  0  0  0  0  0  0
    0.5724   -0.3469    0.0000 C   0  0  0  0  0  0  0  0  0  0  0  0
    1.3610   -1.0458   -0.2819 H   0  0  0  0  0  0  0  0  0  0  0  0
    0.5455    0.4546   -0.7395 H   0  0  0  0  0  0  0  0  0  0  0  0
    0.9130    0.2550    1.3663 C   0  0  0  0  0  0  0  0  0  0  0  0
    0.2977   -0.0966    2.3709 O   0  0  0  0  0  0  0  0  0  0  0  0
    1.8970    1.1628    1.3914 N   0  0  0  0  0  0  0  0  0  0  0  0
    2.3445    1.3880    0.5166 H   0  0  0  0  0  0  0  0  0  0  0  0
    2.3716    1.8526    2.5927 C   0  0  0  0  0  0  0  0  0  0  0  0
    1.8118    1.5254    3.4723 H   0  0  0  0  0  0  0  0  0  0  0  0
    3.4285    1.6349    2.7524 H   0  0  0  0  0  0  0  0  0  0  0  0
    2.2410    2.9295    2.4783 H   0  0  0  0  0  0  0  0  0  0  0  0
  5  6  2  0  0  0  0
  5  7  1  0  0  0  0
  2  3  1  0  0  0  0
  2  4  1  0  0  0  0
  2  5  1  0  0  0  0
  1  2  1  0  0  0  0
 12 13  2  0  0  0  0
 12 14  1  0  0  0  0
  9 10  1  0  0  0  0
  9 11  1  0  0  0  0
  9 12  1  0  0  0  0
  7  8  1  0  0  0  0
  7  9  1  0  0  0  0
 16 17  1  0  0  0  0
 16 18  1  0  0  0  0
 16 19  1  0  0  0  0
 14 15  1  0  0  0  0
 14 16  1  0  0  0  0
M  END
$$$$
default_name
  -OEChem-01062215323D

 19 18  0     0  0  0  0  0  0999 V2000
   -2.2056   -4.0049    0.0000 H   0  0  0  0  0  0  0  0  0  0  0  0
   -2.2496   -2.9169    0.0000 C   0  0  0  0  0  0  0  0  0  0  0  0
   -2.7696   -2.5709    0.8910 H   0  0  0  0  0  0  0  0  0  0  0  0
   -2.7696   -2.5709   -0.8910 H   0  0  0  0  0  0  0  0  0  0  0  0
   -0.8406   -2.3699    0.0000 C   0  0  0  0  0  0  0  0  0  0  0  0
    0.1164   -3.1329    0.0000 O   0  0  0  0  0  0  0  0  0  0  0  0
   -0.7136   -1.0459    0.0000 N   0  0  0  0  0  0  0  0  0  0  0  0
   -1.5436   -0.4719    0.0000 H   0  0  0  0  0  0  0  0  0  0  0  0
    0.5724   -0.3469    0.0000 C   0  0  0  0  0  0  0  0  0  0  0  0
    1.3610   -1.0458   -0.2819 H   0  0  0  0  0  0  0  0  0  0  0  0
    0.5455    0.4546   -0.7395 H   0  0  0  0  0  0  0  0  0  0  0  0
    0.9130    0.2550    1.3663 C   0  0  0  0  0  0  0  0  0  0  0  0
    0.5068   -0.2763    2.3979 O   0  0  0  0  0  0  0  0  0  0  0  0
    1.6609    1.3657    1.3609 N   0  0  0  0  0  0  0  0  0  0  0  0
    1.9477    1.7289    0.4654 H   0  0  0  0  0  0  0  0  0  0  0  0
    2.0933    2.0918    2.5568 C   0  0  0  0  0  0  0  0  0  0  0  0
    1.7216    1.6029    3.4607 H   0  0  0  0  0  0  0  0  0  0  0  0
    3.1828    2.1202    2.5999 H   0  0  0  0  0  0  0  0  0  0  0  0
    1.7090    3.1123    2.5304 H   0  0  0  0  0  0  0  0  0  0  0  0
  5  6  2  0  0  0  0
  5  7  1  0  0  0  0
  2  3  1  0  0  0  0
  2  4  1  0  0  0  0
  2  5  1  0  0  0  0
  1  2  1  0  0  0  0
 12 13  2  0  0  0  0
 12 14  1  0  0  0  0
  9 10  1  0  0  0  0
  9 11  1  0  0  0  0
  9 12  1  0  0  0  0
  7  8  1  0  0  0  0
  7  9  1  0  0  0  0
 16 17  1  0  0  0  0
 16 18  1  0  0  0  0
 16 19  1  0  0  0  0
 14 15  1  0  0  0  0
 14 16  1  0  0  0  0
M  END
$$$$
default_name
  -OEChem-01062215323D

 19 18  0     0  0  0  0  0  0999 V2000
   -2.2056   -4.0049    0.0000 H   0  0  0  0  0  0  0  0  0  0  0  0
   -2.2496   -2.9169    0.0000 C   0  0  0  0  0  0  0  0  0  0  0  0
   -2.7696   -2.5709    0.8910 H   0  0  0  0  0  0  0  0  0  0  0  0
   -2.7696   -2.5709   -0.8910 H   0  0  0  0  0  0  0  0  0  0  0  0
   -0.8406   -2.3699    0.0000 C   0  0  0  0  0  0  0  0  0  0  0  0
    0.1164   -3.1329    0.0000 O   0  0  0  0  0  0  0  0  0  0  0  0
   -0.7136   -1.0459    0.0000 N   0  0  0  0  0  0  0  0  0  0  0  0
   -1.5436   -0.4719    0.0000 H   0  0  0  0  0  0  0  0  0  0  0  0
    0.5724   -0.3469    0.0000 C   0  0  0  0  0  0  0  0  0  0  0  0
    1.3610   -1.0458   -0.2819 H   0  0  0  0  0  0  0  0  0  0  0  0
    0.5455    0.4546   -0.7395 H   0  0  0  0  0  0  0  0  0  0  0  0
    0.9130    0.2550    1.3663 C   0  0  0  0  0  0  0  0  0  0  0  0
    0.7530   -0.4031    2.3924 O   0  0  0  0  0  0  0  0  0  0  0  0
    1.3829    1.5089    1.3672 N   0  0  0  0  0  0  0  0  0  0  0  0
    1.4805    1.9696    0.4759 H   0  0  0  0  0  0  0  0  0  0  0  0
    1.7655    2.2606    2.5642 C   0  0  0  0  0  0  0  0  0  0  0  0
    1.6154    1.6577    3.4631 H   0  0  0  0  0  0  0  0  0  0  0  0
    2.8180    2.5411    2.5055 H   0  0  0  0  0  0  0  0  0  0  0  0
    1.1582    3.1630    2.6454 H   0  0  0  0  0  0  0  0  0  0  0  0
  5  6  2  0  0  0  0
  5  7  1  0  0  0  0
  2  3  1  0  0  0  0
  2  4  1  0  0  0  0
  2  5  1  0  0  0  0
  1  2  1  0  0  0  0
 12 13  2  0  0  0  0
 12 14  1  0  0  0  0
  9 10  1  0  0  0  0
  9 11  1  0  0  0  0
  9 12  1  0  0  0  0
  7  8  1  0  0  0  0
  7  9  1  0  0  0  0
 16 17  1  0  0  0  0
 16 18  1  0  0  0  0
 16 19  1  0  0  0  0
 14 15  1  0  0  0  0
 14 16  1  0  0  0  0
M  END
$$$$
default_name
  -OEChem-01062215323D

 19 18  0     0  0  0  0  0  0999 V2000
   -2.2056   -4.0049    0.0000 H   0  0  0  0  0  0  0  0  0  0  0  0
   -2.2496   -2.9169    0.0000 C   0  0  0  0  0  0  0  0  0  0  0  0
   -2.7696   -2.5709    0.8910 H   0  0  0  0  0  0  0  0  0  0  0  0
   -2.7696   -2.5709   -0.8910 H   0  0  0  0  0  0  0  0  0  0  0  0
   -0.8406   -2.3699    0.0000 C   0  0  0  0  0  0  0  0  0  0  0  0
    0.1164   -3.1329    0.0000 O   0  0  0  0  0  0  0  0  0  0  0  0
   -0.7136   -1.0459    0.0000 N   0  0  0  0  0  0  0  0  0  0  0  0
   -1.5436   -0.4719    0.0000 H   0  0  0  0  0  0  0  0  0  0  0  0
    0.5724   -0.3469    0.0000 C   0  0  0  0  0  0  0  0  0  0  0  0
    1.3610   -1.0458   -0.2819 H   0  0  0  0  0  0  0  0  0  0  0  0
    0.5455    0.4546   -0.7395 H   0  0  0  0  0  0  0  0  0  0  0  0
    0.9130    0.2550    1.3663 C   0  0  0  0  0  0  0  0  0  0  0  0
    1.0195   -0.4684    2.3547 O   0  0  0  0  0  0  0  0  0  0  0  0
    1.0820    1.5826    1.4097 N   0  0  0  0  0  0  0  0  0  0  0  0
    0.9747    2.0935    0.5474 H   0  0  0  0  0  0  0  0  0  0  0  0
    1.4107    2.3475    2.6143 C   0  0  0  0  0  0  0  0  0  0  0  0
    1.5003    1.6859    3.4793 H   0  0  0  0  0  0  0  0  0  0  0  0
    2.3588    2.8688    2.4756 H   0  0  0  0  0  0  0  0  0  0  0  0
    0.6261    3.0782    2.8154 H   0  0  0  0  0  0  0  0  0  0  0  0
  5  6  2  0  0  0  0
  5  7  1  0  0  0  0
  2  3  1  0  0  0  0
  2  4  1  0  0  0  0
  2  5  1  0  0  0  0
  1  2  1  0  0  0  0
 12 13  2  0  0  0  0
 12 14  1  0  0  0  0
  9 10  1  0  0  0  0
  9 11  1  0  0  0  0
  9 12  1  0  0  0  0
  7  8  1  0  0  0  0
  7  9  1  0  0  0  0
 16 17  1  0  0  0  0
 16 18  1  0  0  0  0
 16 19  1  0  0  0  0
 14 15  1  0  0  0  0
 14 16  1  0  0  0  0
M  END
$$$$
default_name
  -OEChem-01062215323D

 19 18  0     0  0  0  0  0  0999 V2000
   -2.2056   -4.0049    0.0000 H   0  0  0  0  0  0  0  0  0  0  0  0
   -2.2496   -2.9169    0.0000 C   0  0  0  0  0  0  0  0  0  0  0  0
   -2.7696   -2.5709    0.8910 H   0  0  0  0  0  0  0  0  0  0  0  0
   -2.7696   -2.5709   -0.8910 H   0  0  0  0  0  0  0  0  0  0  0  0
   -0.8406   -2.3699    0.0000 C   0  0  0  0  0  0  0  0  0  0  0  0
    0.1164   -3.1329    0.0000 O   0  0  0  0  0  0  0  0  0  0  0  0
   -0.7136   -1.0459    0.0000 N   0  0  0  0  0  0  0  0  0  0  0  0
   -1.5436   -0.4719    0.0000 H   0  0  0  0  0  0  0  0  0  0  0  0
    0.5724   -0.3469    0.0000 C   0  0  0  0  0  0  0  0  0  0  0  0
    1.3610   -1.0458   -0.2819 H   0  0  0  0  0  0  0  0  0  0  0  0
    0.5455    0.4546   -0.7395 H   0  0  0  0  0  0  0  0  0  0  0  0
    0.9130    0.2550    1.3663 C   0  0  0  0  0  0  0  0  0  0  0  0
    1.2881   -0.4677    2.2874 O   0  0  0  0  0  0  0  0  0  0  0  0
    0.7786    1.5819    1.4857 N   0  0  0  0  0  0  0  0  0  0  0  0
    0.4647    2.0923    0.6751 H   0  0  0  0  0  0  0  0  0  0  0  0
    1.0530    2.3467    2.7039 C   0  0  0  0  0  0  0  0  0  0  0  0
    1.3844    1.6856    3.5084 H   0  0  0  0  0  0  0  0  0  0  0  0
    1.8365    3.0811    2.5124 H   0  0  0  0  0  0  0  0  0  0  0  0
    0.1491    2.8637    3.0289 H   0  0  0  0  0  0  0  0  0  0  0  0
  5  6  2  0  0  0  0
  5  7  1  0  0  0  0
  2  3  1  0  0  0  0
  2  4  1  0  0  0  0
  2  5  1  0  0  0  0
  1  2  1  0  0  0  0
 12 13  2  0  0  0  0
 12 14  1  0  0  0  0
  9 10  1  0  0  0  0
  9 11  1  0  0  0  0
  9 12  1  0  0  0  0
  7  8  1  0  0  0  0
  7  9  1  0  0  0  0
 16 17  1  0  0  0  0
 16 18  1  0  0  0  0
 16 19  1  0  0  0  0
 14 15  1  0  0  0  0
 14 16  1  0  0  0  0
M  END
$$$$
default_name
  -OEChem-01062215323D

 19 18  0     0  0  0  0  0  0999 V2000
   -2.2056   -4.0049    0.0000 H   0  0  0  0  0  0  0  0  0  0  0  0
   -2.2496   -2.9169    0.0000 C   0  0  0  0  0  0  0  0  0  0  0  0
   -2.7696   -2.5709    0.8910 H   0  0  0  0  0  0  0  0  0  0  0  0
   -2.7696   -2.5709   -0.8910 H   0  0  0  0  0  0  0  0  0  0  0  0
   -0.8406   -2.3699    0.0000 C   0  0  0  0  0  0  0  0  0  0  0  0
    0.1164   -3.1329    0.0000 O   0  0  0  0  0  0  0  0  0  0  0  0
   -0.7136   -1.0459    0.0000 N   0  0  0  0  0  0  0  0  0  0  0  0
   -1.5436   -0.4719    0.0000 H   0  0  0  0  0  0  0  0  0  0  0  0
    0.5724   -0.3469    0.0000 C   0  0  0  0  0  0  0  0  0  0  0  0
    1.3610   -1.0458   -0.2819 H   0  0  0  0  0  0  0  0  0  0  0  0
    0.5455    0.4546   -0.7395 H   0  0  0  0  0  0  0  0  0  0  0  0
    0.9130    0.2550    1.3663 C   0  0  0  0  0  0  0  0  0  0  0  0
    1.5406   -0.4012    2.1952 O   0  0  0  0  0  0  0  0  0  0  0  0
    0.4935    1.5068    1.5899 N   0  0  0  0  0  0  0  0  0  0  0  0
   -0.0145    1.9661    0.8502 H   0  0  0  0  0  0  0  0  0  0  0  0
    0.7168    2.2581    2.8267 C   0  0  0  0  0  0  0  0  0  0  0  0
    1.2754    1.6569    3.5482 H   0  0  0  0  0  0  0  0  0  0  0  0
    1.2867    3.1633    2.6132 H   0  0  0  0  0  0  0  0  0  0  0  0
   -0.2404    2.5339    3.2712 H   0  0  0  0  0  0  0  0  0  0  0  0
  5  6  2  0  0  0  0
  5  7  1  0  0  0  0
  2  3  1  0  0  0  0
  2  4  1  0  0  0  0
  2  5  1  0  0  0  0
  1  2  1  0  0  0  0
 12 13  2  0  0  0  0
 12 14  1  0  0  0  0
  9 10  1  0  0  0  0
  9 11  1  0  0  0  0
  9 12  1  0  0  0  0
  7  8  1  0  0  0  0
  7  9  1  0  0  0  0
 16 17  1  0  0  0  0
 16 18  1  0  0  0  0
 16 19  1  0  0  0  0
 14 15  1  0  0  0  0
 14 16  1  0  0  0  0
M  END
$$$$
default_name
  -OEChem-01062215323D

 19 18  0     0  0  0  0  0  0999 V2000
   -2.2056   -4.0049    0.0000 H   0  0  0  0  0  0  0  0  0  0  0  0
   -2.2496   -2.9169    0.0000 C   0  0  0  0  0  0  0  0  0  0  0  0
   -2.7696   -2.5709    0.8910 H   0  0  0  0  0  0  0  0  0  0  0  0
   -2.7696   -2.5709   -0.8910 H   0  0  0  0  0  0  0  0  0  0  0  0
   -0.8406   -2.3699    0.0000 C   0  0  0  0  0  0  0  0  0  0  0  0
    0.1164   -3.1329    0.0000 O   0  0  0  0  0  0  0  0  0  0  0  0
   -0.7136   -1.0459    0.0000 N   0  0  0  0  0  0  0  0  0  0  0  0
   -1.5436   -0.4719    0.0000 H   0  0  0  0  0  0  0  0  0  0  0  0
    0.5724   -0.3469    0.0000 C   0  0  0  0  0  0  0  0  0  0  0  0
    1.3610   -1.0458   -0.2819 H   0  0  0  0  0  0  0  0  0  0  0  0
    0.5455    0.4546   -0.7395 H   0  0  0  0  0  0  0  0  0  0  0  0
    0.9130    0.2550    1.3663 C   0  0  0  0  0  0  0  0  0  0  0  0
    1.7598   -0.2733    2.0842 O   0  0  0  0  0  0  0  0  0  0  0  0
    0.2460    1.3624    1.7152 N   0  0  0  0  0  0  0  0  0  0  0  0
   -0.4305    1.7234    1.0608 H   0  0  0  0  0  0  0  0  0  0  0  0
    0.4249    2.0879    2.9745 C   0  0  0  0  0  0  0  0  0  0  0  0
    1.1808    1.6017    3.5961 H   0  0  0  0  0  0  0  0  0  0  0  0
    0.7469    3.1100    2.7713 H   0  0  0  0  0  0  0  0  0  0  0  0
   -0.5159    2.1116    3.5260 H   0  0  0  0  0  0  0  0  0  0  0  0
  5  6  2  0  0  0  0
  5  7  1  0  0  0  0
  2  3  1  0  0  0  0
  2  4  1  0  0  0  0
  2  5  1  0  0  0  0
  1  2  1  0  0  0  0
 12 13  2  0  0  0  0
 12 14  1  0  0  0  0
  9 10  1  0  0  0  0
  9 11  1  0  0  0  0
  9 12  1  0  0  0  0
  7  8  1  0  0  0  0
  7  9  1  0  0  0  0
 16 17  1  0  0  0  0
 16 18  1  0  0  0  0
 16 19  1  0  0  0  0
 14 15  1  0  0  0  0
 14 16  1  0  0  0  0
M  END
$$$$
default_name
  -OEChem-01062215323D

 19 18  0     0  0  0  0  0  0999 V2000
   -2.2056   -4.0049    0.0000 H   0  0  0  0  0  0  0  0  0  0  0  0
   -2.2496   -2.9169    0.0000 C   0  0  0  0  0  0  0  0  0  0  0  0
   -2.7696   -2.5709    0.8910 H   0  0  0  0  0  0  0  0  0  0  0  0
   -2.7696   -2.5709   -0.8910 H   0  0  0  0  0  0  0  0  0  0  0  0
   -0.8406   -2.3699    0.0000 C   0  0  0  0  0  0  0  0  0  0  0  0
    0.1164   -3.1329    0.0000 O   0  0  0  0  0  0  0  0  0  0  0  0
   -0.7136   -1.0459    0.0000 N   0  0  0  0  0  0  0  0  0  0  0  0
   -1.5436   -0.4719    0.0000 H   0  0  0  0  0  0  0  0  0  0  0  0
    0.5724   -0.3469    0.0000 C   0  0  0  0  0  0  0  0  0  0  0  0
    1.3610   -1.0458   -0.2819 H   0  0  0  0  0  0  0  0  0  0  0  0
    0.5455    0.4546   -0.7395 H   0  0  0  0  0  0  0  0  0  0  0  0
    0.9130    0.2550    1.3663 C   0  0  0  0  0  0  0  0  0  0  0  0
    1.9307   -0.0928    1.9621 O   0  0  0  0  0  0  0  0  0  0  0  0
    0.0530    1.1585    1.8531 N   0  0  0  0  0  0  0  0  0  0  0  0
   -0.7549    1.3807    1.2926 H   0  0  0  0  0  0  0  0  0  0  0  0
    0.1974    1.8475    3.1371 C   0  0  0  0  0  0  0  0  0  0  0  0
    1.1071    1.5238    3.6488 H   0  0  0  0  0  0  0  0  0  0  0  0
    0.2539    2.9248    2.9758 H   0  0  0  0  0  0  0  0  0  0  0  0
   -0.6585    1.6253    3.7757 H   0  0  0  0  0  0  0  0  0  0  0  0
  5  6  2  0  0  0  0
  5  7  1  0  0  0  0
  2  3  1  0  0  0  0
  2  4  1  0  0  0  0
  2  5  1  0  0  0  0
  1  2  1  0  0  0  0
 12 13  2  0  0  0  0
 12 14  1  0  0  0  0
  9 10  1  0  0  0  0
  9 11  1  0  0  0  0
  9 12  1  0  0  0  0
  7  8  1  0  0  0  0
  7  9  1  0  0  0  0
 16 17  1  0  0  0  0
 16 18  1  0  0  0  0
 16 19  1  0  0  0  0
 14 15  1  0  0  0  0
 14 16  1  0  0  0  0
M  END
$$$$
default_name
  -OEChem-01062215323D

 19 18  0     0  0  0  0  0  0999 V2000
   -2.2056   -4.0049    0.0000 H   0  0  0  0  0  0  0  0  0  0  0  0
   -2.2496   -2.9169    0.0000 C   0  0  0  0  0  0  0  0  0  0  0  0
   -2.7696   -2.5709    0.8910 H   0  0  0  0  0  0  0  0  0  0  0  0
   -2.7696   -2.5709   -0.8910 H   0  0  0  0  0  0  0  0  0  0  0  0
   -0.8406   -2.3699    0.0000 C   0  0  0  0  0  0  0  0  0  0  0  0
    0.1164   -3.1329    0.0000 O   0  0  0  0  0  0  0  0  0  0  0  0
   -0.7136   -1.0459    0.0000 N   0  0  0  0  0  0  0  0  0  0  0  0
   -1.5436   -0.4719    0.0000 H   0  0  0  0  0  0  0  0  0  0  0  0
    0.5724   -0.3469    0.0000 C   0  0  0  0  0  0  0  0  0  0  0  0
    1.3610   -1.0458   -0.2819 H   0  0  0  0  0  0  0  0  0  0  0  0
    0.5455    0.4546   -0.7395 H   0  0  0  0  0  0  0  0  0  0  0  0
    0.9130    0.2550    1.3663 C   0  0  0  0  0  0  0  0  0  0  0  0
    2.0416    0.1280    1.8371 O   0  0  0  0  0  0  0  0  0  0  0  0
   -0.0723    0.9091    1.9942 N   0  0  0  0  0  0  0  0  0  0  0  0
   -0.9654    0.9615    1.5298 H   0  0  0  0  0  0  0  0  0  0  0  0
    0.0497    1.5534    3.3035 C   0  0  0  0  0  0  0  0  0  0  0  0
    1.0592    1.4284    3.7027 H   0  0  0  0  0  0  0  0  0  0  0  0
   -0.1587    2.6203    3.2128 H   0  0  0  0  0  0  0  0  0  0  0  0
   -0.6586    1.1083    4.0035 H   0  0  0  0  0  0  0  0  0  0  0  0
  5  6  2  0  0  0  0
  5  7  1  0  0  0  0
  2  3  1  0  0  0  0
  2  4  1  0  0  0  0
  2  5  1  0  0  0  0
  1  2  1  0  0  0  0
 12 13  2  0  0  0  0
 12 14  1  0  0  0  0
  9 10  1  0  0  0  0
  9 11  1  0  0  0  0
  9 12  1  0  0  0  0
  7  8  1  0  0  0  0
  7  9  1  0  0  0  0
 16 17  1  0  0  0  0
 16 18  1  0  0  0  0
 16 19  1  0  0  0  0
 14 15  1  0  0  0  0
 14 16  1  0  0  0  0
M  END
$$$$
default_name
  -OEChem-01062215323D

 19 18  0     0  0  0  0  0  0999 V2000
   -2.2056   -4.0049    0.0000 H   0  0  0  0  0  0  0  0  0  0  0  0
   -2.2496   -2.9169    0.0000 C   0  0  0  0  0  0  0  0  0  0  0  0
   -2.7696   -2.5709    0.8910 H   0  0  0  0  0  0  0  0  0  0  0  0
   -2.7696   -2.5709   -0.8910 H   0  0  0  0  0  0  0  0  0  0  0  0
   -0.8406   -2.3699    0.0000 C   0  0  0  0  0  0  0  0  0  0  0  0
    0.1164   -3.1329    0.0000 O   0  0  0  0  0  0  0  0  0  0  0  0
   -0.7136   -1.0459    0.0000 N   0  0  0  0  0  0  0  0  0  0  0  0
   -1.5436   -0.4719    0.0000 H   0  0  0  0  0  0  0  0  0  0  0  0
    0.5724   -0.3469    0.0000 C   0  0  0  0  0  0  0  0  0  0  0  0
    1.3610   -1.0458   -0.2819 H   0  0  0  0  0  0  0  0  0  0  0  0
    0.5455    0.4546   -0.7395 H   0  0  0  0  0  0  0  0  0  0  0  0
    0.9130    0.2550    1.3663 C   0  0  0  0  0  0  0  0  0  0  0  0
    2.0851    0.3742    1.7179 O   0  0  0  0  0  0  0  0  0  0  0  0
   -0.1214    0.6311    2.1289 N   0  0  0  0  0  0  0  0  0  0  0  0
   -1.0479    0.4943    1.7562 H   0  0  0  0  0  0  0  0  0  0  0  0
   -0.0082    1.2257    3.4623 C   0  0  0  0  0  0  0  0  0  0  0  0
    1.0404    1.3222    3.7542 H   0  0  0  0  0  0  0  0  0  0  0  0
   -0.4628    2.2172    3.4662 H   0  0  0  0  0  0  0  0  0  0  0  0
   -0.5161    0.5958    4.1937 H   0  0  0  0  0  0  0  0  0  0  0  0
  5  6  2  0  0  0  0
  5  7  1  0  0  0  0
  2  3  1  0  0  0  0
  2  4  1  0  0  0  0
  2  5  1  0  0  0  0
  1  2  1  0  0  0  0
 12 13  2  0  0  0  0
 12 14  1  0  0  0  0
  9 10  1  0  0  0  0
  9 11  1  0  0  0  0
  9 12  1  0  0  0  0
  7  8  1  0  0  0  0
  7  9  1  0  0  0  0
 16 17  1  0  0  0  0
 16 18  1  0  0  0  0
 16 19  1  0  0  0  0
 14 15  1  0  0  0  0
 14 16  1  0  0  0  0
M  END
$$$$
default_name
  -OEChem-01062215323D

 19 18  0     0  0  0  0  0  0999 V2000
   -2.2056   -4.0049    0.0000 H   0  0  0  0  0  0  0  0  0  0  0  0
   -2.2496   -2.9169    0.0000 C   0  0  0  0  0  0  0  0  0  0  0  0
   -2.7696   -2.5709    0.8910 H   0  0  0  0  0  0  0  0  0  0  0  0
   -2.7696   -2.5709   -0.8910 H   0  0  0  0  0  0  0  0  0  0  0  0
   -0.8406   -2.3699    0.0000 C   0  0  0  0  0  0  0  0  0  0  0  0
    0.1164   -3.1329    0.0000 O   0  0  0  0  0  0  0  0  0  0  0  0
   -0.7136   -1.0459    0.0000 N   0  0  0  0  0  0  0  0  0  0  0  0
   -1.5436   -0.4719    0.0000 H   0  0  0  0  0  0  0  0  0  0  0  0
    0.5724   -0.3469    0.0000 C   0  0  0  0  0  0  0  0  0  0  0  0
    1.3610   -1.0458   -0.2819 H   0  0  0  0  0  0  0  0  0  0  0  0
    0.5455    0.4546   -0.7395 H   0  0  0  0  0  0  0  0  0  0  0  0
    0.9130    0.2550    1.3663 C   0  0  0  0  0  0  0  0  0  0  0  0
    2.0581    0.6289    1.6124 O   0  0  0  0  0  0  0  0  0  0  0  0
   -0.0909    0.3435    2.2480 N   0  0  0  0  0  0  0  0  0  0  0  0
   -0.9967    0.0110    1.9563 H   0  0  0  0  0  0  0  0  0  0  0  0
    0.0278    0.8866    3.6027 C   0  0  0  0  0  0  0  0  0  0  0  0
    1.0521    1.2123    3.7997 H   0  0  0  0  0  0  0  0  0  0  0  0
   -0.6377    1.7430    3.7187 H   0  0  0  0  0  0  0  0  0  0  0  0
   -0.2408    0.1226    4.3335 H   0  0  0  0  0  0  0  0  0  0  0  0
  5  6  2  0  0  0  0
  5  7  1  0  0  0  0
  2  3  1  0  0  0  0
  2  4  1  0  0  0  0
  2  5  1  0  0  0  0
  1  2  1  0  0  0  0
 12 13  2  0  0  0  0
 12 14  1  0  0  0  0
  9 10  1  0  0  0  0
  9 11  1  0  0  0  0
  9 12  1  0  0  0  0
  7  8  1  0  0  0  0
  7  9  1  0  0  0  0
 16 17  1  0  0  0  0
 16 18  1  0  0  0  0
 16 19  1  0  0  0  0
 14 15  1  0  0  0  0
 14 16  1  0  0  0  0
M  END
$$$$
default_name
  -OEChem-01062215323D

 19 18  0     0  0  0  0  0  0999 V2000
   -2.2056   -4.0049    0.0000 H   0  0  0  0  0  0  0  0  0  0  0  0
   -2.2496   -2.9169    0.0000 C   0  0  0  0  0  0  0  0  0  0  0  0
   -2.7696   -2.5709    0.8910 H   0  0  0  0  0  0  0  0  0  0  0  0
   -2.7696   -2.5709   -0.8910 H   0  0  0  0  0  0  0  0  0  0  0  0
   -0.8406   -2.3699    0.0000 C   0  0  0  0  0  0  0  0  0  0  0  0
    0.1164   -3.1329    0.0000 O   0  0  0  0  0  0  0  0  0  0  0  0
   -0.7136   -1.0459    0.0000 N   0  0  0  0  0  0  0  0  0  0  0  0
   -1.5436   -0.4719    0.0000 H   0  0  0  0  0  0  0  0  0  0  0  0
    0.5724   -0.3469    0.0000 C   0  0  0  0  0  0  0  0  0  0  0  0
    1.3610   -1.0458   -0.2819 H   0  0  0  0  0  0  0  0  0  0  0  0
    0.5455    0.4546   -0.7395 H   0  0  0  0  0  0  0  0  0  0  0  0
    0.9130    0.2550    1.3663 C   0  0  0  0  0  0  0  0  0  0  0  0
    1.9625    0.8747    1.5280 O   0  0  0  0  0  0  0  0  0  0  0  0
    0.0171    0.0659    2.3433 N   0  0  0  0  0  0  0  0  0  0  0  0
   -0.8152   -0.4556    2.1166 H   0  0  0  0  0  0  0  0  0  0  0  0
    0.1551    0.5593    3.7151 C   0  0  0  0  0  0  0  0  0  0  0  0
    1.0933    1.1062    3.8361 H   0  0  0  0  0  0  0  0  0  0  0  0
   -0.6715    1.2301    3.9530 H   0  0  0  0  0  0  0  0  0  0  0  0
    0.1487   -0.2788    4.4132 H   0  0  0  0  0  0  0  0  0  0  0  0
  5  6  2  0  0  0  0
  5  7  1  0  0  0  0
  2  3  1  0  0  0  0
  2  4  1  0  0  0  0
  2  5  1  0  0  0  0
  1  2  1  0  0  0  0
 12 13  2  0  0  0  0
 12 14  1  0  0  0  0
  9 10  1  0  0  0  0
  9 11  1  0  0  0  0
  9 12  1  0  0  0  0
  7  8  1  0  0  0  0
  7  9  1  0  0  0  0
 16 17  1  0  0  0  0
 16 18  1  0  0  0  0
 16 19  1  0  0  0  0
 14 15  1  0  0  0  0
 14 16  1  0  0  0  0
M  END
$$$$
default_name
  -OEChem-01062215323D

 19 18  0     0  0  0  0  0  0999 V2000
   -2.2056   -4.0049    0.0000 H   0  0  0  0  0  0  0  0  0  0  0  0
   -2.2496   -2.9169    0.0000 C   0  0  0  0  0  0  0  0  0  0  0  0
   -2.7696   -2.5709    0.8910 H   0  0  0  0  0  0  0  0  0  0  0  0
   -2.7696   -2.5709   -0.8910 H   0  0  0  0  0  0  0  0  0  0  0  0
   -0.8406   -2.3699    0.0000 C   0  0  0  0  0  0  0  0  0  0  0  0
    0.1164   -3.1329    0.0000 O   0  0  0  0  0  0  0  0  0  0  0  0
   -0.7136   -1.0459    0.0000 N   0  0  0  0  0  0  0  0  0  0  0  0
   -1.5436   -0.4719    0.0000 H   0  0  0  0  0  0  0  0  0  0  0  0
    0.5724   -0.3469    0.0000 C   0  0  0  0  0  0  0  0  0  0  0  0
    1.3610   -1.0458   -0.2819 H   0  0  0  0  0  0  0  0  0  0  0  0
    0.5455    0.4546   -0.7395 H   0  0  0  0  0  0  0  0  0  0  0  0
    0.9130    0.2550    1.3663 C   0  0  0  0  0  0  0  0  0  0  0  0
    1.8048    1.0949    1.4703 O   0  0  0  0  0  0  0  0  0  0  0  0
    0.1952   -0.1828    2.4085 N   0  0  0  0  0  0  0  0  0  0  0  0
   -0.5159   -0.8736    2.2261 H   0  0  0  0  0  0  0  0  0  0  0  0
    0.3651    0.2661    3.7919 C   0  0  0  0  0  0  0  0  0  0  0  0
    1.1614    1.0111    3.8610 H   0  0  0  0  0  0  0  0  0  0  0  0
   -0.5619    0.7133    4.1533 H   0  0  0  0  0  0  0  0  0  0  0  0
    0.6256   -0.5813    4.4275 H   0  0  0  0  0  0  0  0  0  0  0  0
  5  6  2  0  0  0  0
  5  7  1  0  0  0  0
  2  3  1  0  0  0  0
  2  4  1  0  0  0  0
  2  5  1  0  0  0  0
  1  2  1  0  0  0  0
 12 13  2  0  0  0  0
 12 14  1  0  0  0  0
  9 10  1  0  0  0  0
  9 11  1  0  0  0  0
  9 12  1  0  0  0  0
  7  8  1  0  0  0  0
  7  9  1  0  0  0  0
 16 17  1  0  0  0  0
 16 18  1  0  0  0  0
 16 19  1  0  0  0  0
 14 15  1  0  0  0  0
 14 16  1  0  0  0  0
M  END
$$$$
default_name
  -OEChem-01062215323D

 19 18  0     0  0  0  0  0  0999 V2000
   -2.2056   -4.0049    0.0000 H   0  0  0  0  0  0  0  0  0  0  0  0
   -2.2496   -2.9169    0.0000 C   0  0  0  0  0  0  0  0  0  0  0  0
   -2.7696   -2.5709    0.8910 H   0  0  0  0  0  0  0  0  0  0  0  0
   -2.7696   -2.5709   -0.8910 H   0  0  0  0  0  0  0  0  0  0  0  0
   -0.8406   -2.3699    0.0000 C   0  0  0  0  0  0  0  0  0  0  0  0
    0.1164   -3.1329    0.0000 O   0  0  0  0  0  0  0  0  0  0  0  0
   -0.7136   -1.0459    0.0000 N   0  0  0  0  0  0  0  0  0  0  0  0
   -1.5436   -0.4719    0.0000 H   0  0  0  0  0  0  0  0  0  0  0  0
    0.5724   -0.3469    0.0000 C   0  0  0  0  0  0  0  0  0  0  0  0
    1.3610   -1.0458   -0.2819 H   0  0  0  0  0  0  0  0  0  0  0  0
    0.5455    0.4546   -0.7395 H   0  0  0  0  0  0  0  0  0  0  0  0
    0.9130    0.2550    1.3663 C   0  0  0  0  0  0  0  0  0  0  0  0
    1.5957    1.2745    1.4433 O   0  0  0  0  0  0  0  0  0  0  0  0
    0.4313   -0.3856    2.4390 N   0  0  0  0  0  0  0  0  0  0  0  0
   -0.1191   -1.2145    2.2773 H   0  0  0  0  0  0  0  0  0  0  0  0
    0.6434    0.0269    3.8279 C   0  0  0  0  0  0  0  0  0  0  0  0
    1.2516    0.9336    3.8727 H   0  0  0  0  0  0  0  0  0  0  0  0
   -0.3162    0.2280    4.3059 H   0  0  0  0  0  0  0  0  0  0  0  0
    1.1576   -0.7641    4.3754 H   0  0  0  0  0  0  0  0  0  0  0  0
  5  6  2  0  0  0  0
  5  7  1  0  0  0  0
  2  3  1  0  0  0  0
  2  4  1  0  0  0  0
  2  5  1  0  0  0  0
  1  2  1  0  0  0  0
 12 13  2  0  0  0  0
 12 14  1  0  0  0  0
  9 10  1  0  0  0  0
  9 11  1  0  0  0  0
  9 12  1  0  0  0  0
  7  8  1  0  0  0  0
  7  9  1  0  0  0  0
 16 17  1  0  0  0  0
 16 18  1  0  0  0  0
 16 19  1  0  0  0  0
 14 15  1  0  0  0  0
 14 16  1  0  0  0  0
M  END
$$$$
default_name
  -OEChem-01062215323D

 19 18  0     0  0  0  0  0  0999 V2000
   -2.2056   -4.0049    0.0000 H   0  0  0  0  0  0  0  0  0  0  0  0
   -2.2496   -2.9169    0.0000 C   0  0  0  0  0  0  0  0  0  0  0  0
   -2.7696   -2.5709    0.8910 H   0  0  0  0  0  0  0  0  0  0  0  0
   -2.7696   -2.5709   -0.8910 H   0  0  0  0  0  0  0  0  0  0  0  0
   -0.8406   -2.3699    0.0000 C   0  0  0  0  0  0  0  0  0  0  0  0
    0.1164   -3.1329    0.0000 O   0  0  0  0  0  0  0  0  0  0  0  0
   -0.7136   -1.0459    0.0000 N   0  0  0  0  0  0  0  0  0  0  0  0
   -1.5436   -0.4719    0.0000 H   0  0  0  0  0  0  0  0  0  0  0  0
    0.5724   -0.3469    0.0000 C   0  0  0  0  0  0  0  0  0  0  0  0
    1.3610   -1.0458   -0.2819 H   0  0  0  0  0  0  0  0  0  0  0  0
    0.5455    0.4546   -0.7395 H   0  0  0  0  0  0  0  0  0  0  0  0
    0.9130    0.2550    1.3663 C   0  0  0  0  0  0  0  0  0  0  0  0
    1.3495    1.4013    1.4488 O   0  0  0  0  0  0  0  0  0  0  0  0
    0.7093   -0.5288    2.4327 N   0  0  0  0  0  0  0  0  0  0  0  0
    0.3482   -1.4552    2.2668 H   0  0  0  0  0  0  0  0  0  0  0  0
    0.9712   -0.1419    3.8205 C   0  0  0  0  0  0  0  0  0  0  0  0
    1.3579    0.8789    3.8703 H   0  0  0  0  0  0  0  0  0  0  0  0
    0.0486   -0.1929    4.4003 H   0  0  0  0  0  0  0  0  0  0  0  0
    1.7084   -0.8148    4.2604 H   0  0  0  0  0  0  0  0  0  0  0  0
  5  6  2  0  0  0  0
  5  7  1  0  0  0  0
  2  3  1  0  0  0  0
  2  4  1  0  0  0  0
  2  5  1  0  0  0  0
  1  2  1  0  0  0  0
 12 13  2  0  0  0  0
 12 14  1  0  0  0  0
  9 10  1  0  0  0  0
  9 11  1  0  0  0  0
  9 12  1  0  0  0  0
  7  8  1  0  0  0  0
  7  9  1  0  0  0  0
 16 17  1  0  0  0  0
 16 18  1  0  0  0  0
 16 19  1  0  0  0  0
 14 15  1  0  0  0  0
 14 16  1  0  0  0  0
M  END
$$$$
default_name
  -OEChem-01062215323D

 19 18  0     0  0  0  0  0  0999 V2000
   -2.2056   -4.0049    0.0000 H   0  0  0  0  0  0  0  0  0  0  0  0
   -2.2496   -2.9169    0.0000 C   0  0  0  0  0  0  0  0  0  0  0  0
   -2.7696   -2.5709    0.8910 H   0  0  0  0  0  0  0  0  0  0  0  0
   -2.7696   -2.5709   -0.8910 H   0  0  0  0  0  0  0  0  0  0  0  0
   -0.8406   -2.3699    0.0000 C   0  0  0  0  0  0  0  0  0  0  0  0
    0.1164   -3.1329    0.0000 O   0  0  0  0  0  0  0  0  0  0  0  0
   -0.7136   -1.0459    0.0000 N   0  0  0  0  0  0  0  0  0  0  0  0
   -1.5436   -0.4719    0.0000 H   0  0  0  0  0  0  0  0  0  0  0  0
    0.5724   -0.3469    0.0000 C   0  0  0  0  0  0  0  0  0  0  0  0
    1.3610   -1.0458   -0.2819 H   0  0  0  0  0  0  0  0  0  0  0  0
    0.5455    0.4546   -0.7395 H   0  0  0  0  0  0  0  0  0  0  0  0
    0.9130    0.2550    1.3663 C   0  0  0  0  0  0  0  0  0  0  0  0
    1.0830    1.4666    1.4865 O   0  0  0  0  0  0  0  0  0  0  0  0
    1.0102   -0.6025    2.3902 N   0  0  0  0  0  0  0  0  0  0  0  0
    0.8540   -1.5791    2.1953 H   0  0  0  0  0  0  0  0  0  0  0  0
    1.3260   -0.2289    3.7703 C   0  0  0  0  0  0  0  0  0  0  0  0
    1.4729    0.8507    3.8540 H   0  0  0  0  0  0  0  0  0  0  0  0
    0.5079   -0.5206    4.4302 H   0  0  0  0  0  0  0  0  0  0  0  0
    2.2405   -0.7300    4.0904 H   0  0  0  0  0  0  0  0  0  0  0  0
  5  6  2  0  0  0  0
  5  7  1  0  0  0  0
  2  3  1  0  0  0  0
  2  4  1  0  0  0  0
  2  5  1  0  0  0  0
  1  2  1  0  0  0  0
 12 13  2  0  0  0  0
 12 14  1  0  0  0  0
  9 10  1  0  0  0  0
  9 11  1  0  0  0  0
  9 12  1  0  0  0  0
  7  8  1  0  0  0  0
  7  9  1  0  0  0  0
 16 17  1  0  0  0  0
 16 18  1  0  0  0  0
 16 19  1  0  0  0  0
 14 15  1  0  0  0  0
 14 16  1  0  0  0  0
M  END
$$$$
default_name
  -OEChem-01062215323D

 19 18  0     0  0  0  0  0  0999 V2000
   -2.2056   -4.0049    0.0000 H   0  0  0  0  0  0  0  0  0  0  0  0
   -2.2496   -2.9169    0.0000 C   0  0  0  0  0  0  0  0  0  0  0  0
   -2.7696   -2.5709    0.8910 H   0  0  0  0  0  0  0  0  0  0  0  0
   -2.7696   -2.5709   -0.8910 H   0  0  0  0  0  0  0  0  0  0  0  0
   -0.8406   -2.3699    0.0000 C   0  0  0  0  0  0  0  0  0  0  0  0
    0.1164   -3.1329    0.0000 O   0  0  0  0  0  0  0  0  0  0  0  0
   -0.7136   -1.0459    0.0000 N   0  0  0  0  0  0  0  0  0  0  0  0
   -1.5436   -0.4719    0.0000 H   0  0  0  0  0  0  0  0  0  0  0  0
    0.5724   -0.3469    0.0000 C   0  0  0  0  0  0  0  0  0  0  0  0
    1.3610   -1.0458   -0.2819 H   0  0  0  0  0  0  0  0  0  0  0  0
    0.5455    0.4546   -0.7395 H   0  0  0  0  0  0  0  0  0  0  0  0
    0.9130    0.2550    1.3663 C   0  0  0  0  0  0  0  0  0  0  0  0
    0.8144    1.4660    1.5538 O   0  0  0  0  0  0  0  0  0  0  0  0
    1.3136   -0.6018    2.3142 N   0  0  0  0  0  0  0  0  0  0  0  0
    1.3639   -1.5779    2.0676 H   0  0  0  0  0  0  0  0  0  0  0  0
    1.6837   -0.2280    3.6808 C   0  0  0  0  0  0  0  0  0  0  0  0
    1.5889    0.8510    3.8250 H   0  0  0  0  0  0  0  0  0  0  0  0
    1.0302   -0.7328    4.3934 H   0  0  0  0  0  0  0  0  0  0  0  0
    2.7175   -0.5154    3.8769 H   0  0  0  0  0  0  0  0  0  0  0  0
  5  6  2  0  0  0  0
  5  7  1  0  0  0  0
  2  3  1  0  0  0  0
  2  4  1  0  0  0  0
  2  5  1  0  0  0  0
  1  2  1  0  0  0  0
 12 13  2  0  0  0  0
 12 14  1  0  0  0  0
  9 10  1  0  0  0  0
  9 11  1  0  0  0  0
  9 12  1  0  0  0  0
  7  8  1  0  0  0  0
  7  9  1  0  0  0  0
 16 17  1  0  0  0  0
 16 18  1  0  0  0  0
 16 19  1  0  0  0  0
 14 15  1  0  0  0  0
 14 16  1  0  0  0  0
M  END
$$$$
default_name
  -OEChem-01062215323D

 19 18  0     0  0  0  0  0  0999 V2000
   -2.2056   -4.0049    0.0000 H   0  0  0  0  0  0  0  0  0  0  0  0
   -2.2496   -2.9169    0.0000 C   0  0  0  0  0  0  0  0  0  0  0  0
   -2.7696   -2.5709    0.8910 H   0  0  0  0  0  0  0  0  0  0  0  0
   -2.7696   -2.5709   -0.8910 H   0  0  0  0  0  0  0  0  0  0  0  0
   -0.8406   -2.3699    0.0000 C   0  0  0  0  0  0  0  0  0  0  0  0
    0.1164   -3.1329    0.0000 O   0  0  0  0  0  0  0  0  0  0  0  0
   -0.7136   -1.0459    0.0000 N   0  0  0  0  0  0  0  0  0  0  0  0
   -1.5436   -0.4719    0.0000 H   0  0  0  0  0  0  0  0  0  0  0  0
    0.5724   -0.3469    0.0000 C   0  0  0  0  0  0  0  0  0  0  0  0
    1.3610   -1.0458   -0.2819 H   0  0  0  0  0  0  0  0  0  0  0  0
    0.5455    0.4546   -0.7395 H   0  0  0  0  0  0  0  0  0  0  0  0
    0.9130    0.2550    1.3663 C   0  0  0  0  0  0  0  0  0  0  0  0
    0.5619    1.3995    1.6460 O   0  0  0  0  0  0  0  0  0  0  0  0
    1.5987   -0.5267    2.2100 N   0  0  0  0  0  0  0  0  0  0  0  0
    1.8432   -1.4517    1.8925 H   0  0  0  0  0  0  0  0  0  0  0  0
    2.0199   -0.1395    3.5579 C   0  0  0  0  0  0  0  0  0  0  0  0
    1.6978    0.8797    3.7852 H   0  0  0  0  0  0  0  0  0  0  0  0
    1.5799   -0.8151    4.2926 H   0  0  0  0  0  0  0  0  0  0  0  0
    3.1071   -0.1857    3.6346 H   0  0  0  0  0  0  0  0  0  0  0  0
  5  6  2  0  0  0  0
  5  7  1  0  0  0  0
  2  3  1  0  0  0  0
  2  4  1  0  0  0  0
  2  5  1  0  0  0  0
  1  2  1  0  0  0  0
 12 13  2  0  0  0  0
 12 14  1  0  0  0  0
  9 10  1  0  0  0  0
  9 11  1  0  0  0  0
  9 12  1  0  0  0  0
  7  8  1  0  0  0  0
  7  9  1  0  0  0  0
 16 17  1  0  0  0  0
 16 18  1  0  0  0  0
 16 19  1  0  0  0  0
 14 15  1  0  0  0  0
 14 16  1  0  0  0  0
M  END
$$$$
default_name
  -OEChem-01062215323D

 19 18  0     0  0  0  0  0  0999 V2000
   -2.2056   -4.0049    0.0000 H   0  0  0  0  0  0  0  0  0  0  0  0
   -2.2496   -2.9169    0.0000 C   0  0  0  0  0  0  0  0  0  0  0  0
   -2.7696   -2.5709    0.8910 H   0  0  0  0  0  0  0  0  0  0  0  0
   -2.7696   -2.5709   -0.8910 H   0  0  0  0  0  0  0  0  0  0  0  0
   -0.8406   -2.3699    0.0000 C   0  0  0  0  0  0  0  0  0  0  0  0
    0.1164   -3.1329    0.0000 O   0  0  0  0  0  0  0  0  0  0  0  0
   -0.7136   -1.0459    0.0000 N   0  0  0  0  0  0  0  0  0  0  0  0
   -1.5436   -0.4719    0.0000 H   0  0  0  0  0  0  0  0  0  0  0  0
    0.5724   -0.3469    0.0000 C   0  0  0  0  0  0  0  0  0  0  0  0
    1.3610   -1.0458   -0.2819 H   0  0  0  0  0  0  0  0  0  0  0  0
    0.5455    0.4546   -0.7395 H   0  0  0  0  0  0  0  0  0  0  0  0
    0.9130    0.2550    1.3663 C   0  0  0  0  0  0  0  0  0  0  0  0
    0.3427    1.2716    1.7570 O   0  0  0  0  0  0  0  0  0  0  0  0
    1.8462   -0.3823    2.0847 N   0  0  0  0  0  0  0  0  0  0  0  0
    2.2591   -1.2090    1.6819 H   0  0  0  0  0  0  0  0  0  0  0  0
    2.3118    0.0308    3.4102 C   0  0  0  0  0  0  0  0  0  0  0  0
    1.7924    0.9349    3.7373 H   0  0  0  0  0  0  0  0  0  0  0  0
    2.1197   -0.7618    4.1345 H   0  0  0  0  0  0  0  0  0  0  0  0
    3.3825    0.2367    3.3798 H   0  0  0  0  0  0  0  0  0  0  0  0
  5  6  2  0  0  0  0
  5  7  1  0  0  0  0
  2  3  1  0  0  0  0
  2  4  1  0  0  0  0
  2  5  1  0  0  0  0
  1  2  1  0  0  0  0
 12 13  2  0  0  0  0
 12 14  1  0  0  0  0
  9 10  1  0  0  0  0
  9 11  1  0  0  0  0
  9 12  1  0  0  0  0
  7  8  1  0  0  0  0
  7  9  1  0  0  0  0
 16 17  1  0  0  0  0
 16 18  1  0  0  0  0
 16 19  1  0  0  0  0
 14 15  1  0  0  0  0
 14 16  1  0  0  0  0
M  END
$$$$
default_name
  -OEChem-01062215323D

 19 18  0     0  0  0  0  0  0999 V2000
   -2.2056   -4.0049    0.0000 H   0  0  0  0  0  0  0  0  0  0  0  0
   -2.2496   -2.9169    0.0000 C   0  0  0  0  0  0  0  0  0  0  0  0
   -2.7696   -2.5709    0.8910 H   0  0  0  0  0  0  0  0  0  0  0  0
   -2.7696   -2.5709   -0.8910 H   0  0  0  0  0  0  0  0  0  0  0  0
   -0.8406   -2.3699    0.0000 C   0  0  0  0  0  0  0  0  0  0  0  0
    0.1164   -3.1329    0.0000 O   0  0  0  0  0  0  0  0  0  0  0  0
   -0.7136   -1.0459    0.0000 N   0  0  0  0  0  0  0  0  0  0  0  0
   -1.5436   -0.4719    0.0000 H   0  0  0  0  0  0  0  0  0  0  0  0
    0.5724   -0.3469    0.0000 C   0  0  0  0  0  0  0  0  0  0  0  0
    1.3610   -1.0458   -0.2819 H   0  0  0  0  0  0  0  0  0  0  0  0
    0.5455    0.4546   -0.7395 H   0  0  0  0  0  0  0  0  0  0  0  0
    0.9130    0.2550    1.3663 C   0  0  0  0  0  0  0  0  0  0  0  0
    0.1718    1.0911    1.8791 O   0  0  0  0  0  0  0  0  0  0  0  0
    2.0392   -0.1784    1.9468 N   0  0  0  0  0  0  0  0  0  0  0  0
    2.5835   -0.8663    1.4501 H   0  0  0  0  0  0  0  0  0  0  0  0
    2.5393    0.2712    3.2476 C   0  0  0  0  0  0  0  0  0  0  0  0
    1.8662    1.0128    3.6846 H   0  0  0  0  0  0  0  0  0  0  0  0
    2.6127   -0.5766    3.9300 H   0  0  0  0  0  0  0  0  0  0  0  0
    3.5252    0.7229    3.1301 H   0  0  0  0  0  0  0  0  0  0  0  0
  5  6  2  0  0  0  0
  5  7  1  0  0  0  0
  2  3  1  0  0  0  0
  2  4  1  0  0  0  0
  2  5  1  0  0  0  0
  1  2  1  0  0  0  0
 12 13  2  0  0  0  0
 12 14  1  0  0  0  0
  9 10  1  0  0  0  0
  9 11  1  0  0  0  0
  9 12  1  0  0  0  0
  7  8  1  0  0  0  0
  7  9  1  0  0  0  0
 16 17  1  0  0  0  0
 16 18  1  0  0  0  0
 16 19  1  0  0  0  0
 14 15  1  0  0  0  0
 14 16  1  0  0  0  0
M  END
$$$$
default_name
  -OEChem-01062215323D

 19 18  0     0  0  0  0  0  0999 V2000
   -2.2056   -4.0049    0.0000 H   0  0  0  0  0  0  0  0  0  0  0  0
   -2.2496   -2.9169    0.0000 C   0  0  0  0  0  0  0  0  0  0  0  0
   -2.7696   -2.5709    0.8910 H   0  0  0  0  0  0  0  0  0  0  0  0
   -2.7696   -2.5709   -0.8910 H   0  0  0  0  0  0  0  0  0  0  0  0
   -0.8406   -2.3699    0.0000 C   0  0  0  0  0  0  0  0  0  0  0  0
    0.1164   -3.1329    0.0000 O   0  0  0  0  0  0  0  0  0  0  0  0
   -0.7136   -1.0459    0.0000 N   0  0  0  0  0  0  0  0  0  0  0  0
   -1.5436   -0.4719    0.0000 H   0  0  0  0  0  0  0  0  0  0  0  0
    0.5724   -0.3469    0.0000 C   0  0  0  0  0  0  0  0  0  0  0  0
    1.3610   -1.0458   -0.2819 H   0  0  0  0  0  0  0  0  0  0  0  0
    0.5455    0.4546   -0.7395 H   0  0  0  0  0  0  0  0  0  0  0  0
    0.9130    0.2550    1.3663 C   0  0  0  0  0  0  0  0  0  0  0  0
    0.0609    0.8702    2.0041 O   0  0  0  0  0  0  0  0  0  0  0  0
    2.1645    0.0710    1.8057 N   0  0  0  0  0  0  0  0  0  0  0  0
    2.7940   -0.4471    1.2129 H   0  0  0  0  0  0  0  0  0  0  0  0
    2.6870    0.5652    3.0812 C   0  0  0  0  0  0  0  0  0  0  0  0
    1.9141    1.1081    3.6307 H   0  0  0  0  0  0  0  0  0  0  0  0
    3.0253   -0.2721    3.6930 H   0  0  0  0  0  0  0  0  0  0  0  0
    3.5252    1.2399    2.9023 H   0  0  0  0  0  0  0  0  0  0  0  0
  5  6  2  0  0  0  0
  5  7  1  0  0  0  0
  2  3  1  0  0  0  0
  2  4  1  0  0  0  0
  2  5  1  0  0  0  0
  1  2  1  0  0  0  0
 12 13  2  0  0  0  0
 12 14  1  0  0  0  0
  9 10  1  0  0  0  0
  9 11  1  0  0  0  0
  9 12  1  0  0  0  0
  7  8  1  0  0  0  0
  7  9  1  0  0  0  0
 16 17  1  0  0  0  0
 16 18  1  0  0  0  0
 16 19  1  0  0  0  0
 14 15  1  0  0  0  0
 14 16  1  0  0  0  0
M  END
$$$$
default_name
  -OEChem-01062215323D

 19 18  0     0  0  0  0  0  0999 V2000
   -2.2056   -4.0049    0.0000 H   0  0  0  0  0  0  0  0  0  0  0  0
   -2.2496   -2.9169    0.0000 C   0  0  0  0  0  0  0  0  0  0  0  0
   -2.7696   -2.5709    0.8910 H   0  0  0  0  0  0  0  0  0  0  0  0
   -2.7696   -2.5709   -0.8910 H   0  0  0  0  0  0  0  0  0  0  0  0
   -0.8406   -2.3699    0.0000 C   0  0  0  0  0  0  0  0  0  0  0  0
    0.1164   -3.1329    0.0000 O   0  0  0  0  0  0  0  0  0  0  0  0
   -0.7136   -1.0459    0.0000 N   0  0  0  0  0  0  0  0  0  0  0  0
   -1.5436   -0.4719    0.0000 H   0  0  0  0  0  0  0  0  0  0  0  0
    0.5724   -0.3469    0.0000 C   0  0  0  0  0  0  0  0  0  0  0  0
    1.3610   -1.0458   -0.2819 H   0  0  0  0  0  0  0  0  0  0  0  0
    0.5455    0.4546   -0.7395 H   0  0  0  0  0  0  0  0  0  0  0  0
    0.9130    0.2550    1.3663 C   0  0  0  0  0  0  0  0  0  0  0  0
    0.0174    0.6241    2.1233 O   0  0  0  0  0  0  0  0  0  0  0  0
    2.2136    0.3489    1.6710 N   0  0  0  0  0  0  0  0  0  0  0  0
    2.8765    0.0200    0.9866 H   0  0  0  0  0  0  0  0  0  0  0  0
    2.7449    0.8930    2.9224 C   0  0  0  0  0  0  0  0  0  0  0  0
    1.9328    1.2144    3.5792 H   0  0  0  0  0  0  0  0  0  0  0  0
    3.3295    0.1310    3.4396 H   0  0  0  0  0  0  0  0  0  0  0  0
    3.3827    1.7525    2.7121 H   0  0  0  0  0  0  0  0  0  0  0  0
  5  6  2  0  0  0  0
  5  7  1  0  0  0  0
  2  3  1  0  0  0  0
  2  4  1  0  0  0  0
  2  5  1  0  0  0  0
  1  2  1  0  0  0  0
 12 13  2  0  0  0  0
 12 14  1  0  0  0  0
  9 10  1  0  0  0  0
  9 11  1  0  0  0  0
  9 12  1  0  0  0  0
  7  8  1  0  0  0  0
  7  9  1  0  0  0  0
 16 17  1  0  0  0  0
 16 18  1  0  0  0  0
 16 19  1  0  0  0  0
 14 15  1  0  0  0  0
 14 16  1  0  0  0  0
M  END
$$$$
default_name
  -OEChem-01062215323D

 19 18  0     0  0  0  0  0  0999 V2000
   -2.2056   -4.0049    0.0000 H   0  0  0  0  0  0  0  0  0  0  0  0
   -2.2496   -2.9169    0.0000 C   0  0  0  0  0  0  0  0  0  0  0  0
   -2.7696   -2.5709    0.8910 H   0  0  0  0  0  0  0  0  0  0  0  0
   -2.7696   -2.5709   -0.8910 H   0  0  0  0  0  0  0  0  0  0  0  0
   -0.8406   -2.3699    0.0000 C   0  0  0  0  0  0  0  0  0  0  0  0
    0.1164   -3.1329    0.0000 O   0  0  0  0  0  0  0  0  0  0  0  0
   -0.7136   -1.0459    0.0000 N   0  0  0  0  0  0  0  0  0  0  0  0
   -1.5436   -0.4719    0.0000 H   0  0  0  0  0  0  0  0  0  0  0  0
    0.5724   -0.3469    0.0000 C   0  0  0  0  0  0  0  0  0  0  0  0
    1.3610   -1.0458   -0.2819 H   0  0  0  0  0  0  0  0  0  0  0  0
    0.5455    0.4546   -0.7395 H   0  0  0  0  0  0  0  0  0  0  0  0
    0.9130    0.2550    1.3663 C   0  0  0  0  0  0  0  0  0  0  0  0
    0.0444    0.3694    2.2288 O   0  0  0  0  0  0  0  0  0  0  0  0
    2.1831    0.6365    1.5519 N   0  0  0  0  0  0  0  0  0  0  0  0
    2.8253    0.5034    0.7864 H   0  0  0  0  0  0  0  0  0  0  0  0
    2.7089    1.2321    2.7820 C   0  0  0  0  0  0  0  0  0  0  0  0
    1.9212    1.3243    3.5337 H   0  0  0  0  0  0  0  0  0  0  0  0
    3.5044    0.6052    3.1871 H   0  0  0  0  0  0  0  0  0  0  0  0
    3.1074    2.2256    2.5723 H   0  0  0  0  0  0  0  0  0  0  0  0
  5  6  2  0  0  0  0
  5  7  1  0  0  0  0
  2  3  1  0  0  0  0
  2  4  1  0  0  0  0
  2  5  1  0  0  0  0
  1  2  1  0  0  0  0
 12 13  2  0  0  0  0
 12 14  1  0  0  0  0
  9 10  1  0  0  0  0
  9 11  1  0  0  0  0
  9 12  1  0  0  0  0
  7  8  1  0  0  0  0
  7  9  1  0  0  0  0
 16 17  1  0  0  0  0
 16 18  1  0  0  0  0
 16 19  1  0  0  0  0
 14 15  1  0  0  0  0
 14 16  1  0  0  0  0
M  END
$$$$
default_name
  -OEChem-01062215323D

 19 18  0     0  0  0  0  0  0999 V2000
   -2.2056   -4.0049    0.0000 H   0  0  0  0  0  0  0  0  0  0  0  0
   -2.2496   -2.9169    0.0000 C   0  0  0  0  0  0  0  0  0  0  0  0
   -2.7696   -2.5709    0.8910 H   0  0  0  0  0  0  0  0  0  0  0  0
   -2.7696   -2.5709   -0.8910 H   0  0  0  0  0  0  0  0  0  0  0  0
   -0.8406   -2.3699    0.0000 C   0  0  0  0  0  0  0  0  0  0  0  0
    0.1164   -3.1329    0.0000 O   0  0  0  0  0  0  0  0  0  0  0  0
   -0.7136   -1.0459    0.0000 N   0  0  0  0  0  0  0  0  0  0  0  0
   -1.5436   -0.4719    0.0000 H   0  0  0  0  0  0  0  0  0  0  0  0
    0.5724   -0.3469    0.0000 C   0  0  0  0  0  0  0  0  0  0  0  0
    1.3101   -0.9521   -0.5287 H   0  0  0  0  0  0  0  0  0  0  0  0
    0.4657    0.6013   -0.5287 H   0  0  0  0  0  0  0  0  0  0  0  0
    1.0879   -0.0667    1.4145 C   0  0  0  0  0  0  0  0  0  0  0  0
    0.4360   -0.4210    2.3948 O   0  0  0  0  0  0  0  0  0  0  0  0
    2.2615    0.5712    1.5079 N   0  0  0  0  0  0  0  0  0  0  0  0
    2.7239    0.8226    0.6482 H   0  0  0  0  0  0  0  0  0  0  0  0
    2.9232    0.9309    2.7637 C   0  0  0  0  0  0  0  0  0  0  0  0
    2.3274    0.6071    3.6206 H   0  0  0  0  0  0  0  0  0  0  0  0
    3.9010    0.4505    2.8187 H   0  0  0  0  0  0  0  0  0  0  0  0
    3.0519    2.0127    2.8187 H   0  0  0  0  0  0  0  0  0  0  0  0
  5  6  2  0  0  0  0
  5  7  1  0  0  0  0
  2  3  1  0  0  0  0
  2  4  1  0  0  0  0
  2  5  1  0  0  0  0
  1  2  1  0  0  0  0
 12 13  2  0  0  0  0
 12 14  1  0  0  0  0
  9 10  1  0  0  0  0
  9 11  1  0  0  0  0
  9 12  1  0  0  0  0
  7  8  1  0  0  0  0
  7  9  1  0  0  0  0
 16 17  1  0  0  0  0
 16 18  1  0  0  0  0
 16 19  1  0  0  0  0
 14 15  1  0  0  0  0
 14 16  1  0  0  0  0
M  END
$$$$
default_name
  -OEChem-01062215323D

 19 18  0     0  0  0  0  0  0999 V2000
   -2.2056   -4.0049    0.0000 H   0  0  0  0  0  0  0  0  0  0  0  0
   -2.2496   -2.9169    0.0000 C   0  0  0  0  0  0  0  0  0  0  0  0
   -2.7696   -2.5709    0.8910 H   0  0  0  0  0  0  0  0  0  0  0  0
   -2.7696   -2.5709   -0.8910 H   0  0  0  0  0  0  0  0  0  0  0  0
   -0.8406   -2.3699    0.0000 C   0  0  0  0  0  0  0  0  0  0  0  0
    0.1164   -3.1329    0.0000 O   0  0  0  0  0  0  0  0  0  0  0  0
   -0.7136   -1.0459    0.0000 N   0  0  0  0  0  0  0  0  0  0  0  0
   -1.5436   -0.4719    0.0000 H   0  0  0  0  0  0  0  0  0  0  0  0
    0.5724   -0.3469    0.0000 C   0  0  0  0  0  0  0  0  0  0  0  0
    1.3101   -0.9521   -0.5287 H   0  0  0  0  0  0  0  0  0  0  0  0
    0.4657    0.6013   -0.5287 H   0  0  0  0  0  0  0  0  0  0  0  0
    1.0879   -0.0667    1.4145 C   0  0  0  0  0  0  0  0  0  0  0  0
    0.5965   -0.6463    2.3810 O   0  0  0  0  0  0  0  0  0  0  0  0
    2.0803    0.8257    1.5236 N   0  0  0  0  0  0  0  0  0  0  0  0
    2.4194    1.2502    0.6745 H   0  0  0  0  0  0  0  0  0  0  0  0
    2.7096    1.2309    2.7822 C   0  0  0  0  0  0  0  0  0  0  0  0
    2.2582    0.7043    3.6266 H   0  0  0  0  0  0  0  0  0  0  0  0
    3.7748    0.9977    2.7563 H   0  0  0  0  0  0  0  0  0  0  0  0
    2.5812    2.3036    2.9326 H   0  0  0  0  0  0  0  0  0  0  0  0
  5  6  2  0  0  0  0
  5  7  1  0  0  0  0
  2  3  1  0  0  0  0
  2  4  1  0  0  0  0
  2  5  1  0  0  0  0
  1  2  1  0  0  0  0
 12 13  2  0  0  0  0
 12 14  1  0  0  0  0
  9 10  1  0  0  0  0
  9 11  1  0  0  0  0
  9 12  1  0  0  0  0
  7  8  1  0  0  0  0
  7  9  1  0  0  0  0
 16 17  1  0  0  0  0
 16 18  1  0  0  0  0
 16 19  1  0  0  0  0
 14 15  1  0  0  0  0
 14 16  1  0  0  0  0
M  END
$$$$
default_name
  -OEChem-01062215323D

 19 18  0     0  0  0  0  0  0999 V2000
   -2.2056   -4.0049    0.0000 H   0  0  0  0  0  0  0  0  0  0  0  0
   -2.2496   -2.9169    0.0000 C   0  0  0  0  0  0  0  0  0  0  0  0
   -2.7696   -2.5709    0.8910 H   0  0  0  0  0  0  0  0  0  0  0  0
   -2.7696   -2.5709   -0.8910 H   0  0  0  0  0  0  0  0  0  0  0  0
   -0.8406   -2.3699    0.0000 C   0  0  0  0  0  0  0  0  0  0  0  0
    0.1164   -3.1329    0.0000 O   0  0  0  0  0  0  0  0  0  0  0  0
   -0.7136   -1.0459    0.0000 N   0  0  0  0  0  0  0  0  0  0  0  0
   -1.5436   -0.4719    0.0000 H   0  0  0  0  0  0  0  0  0  0  0  0
    0.5724   -0.3469    0.0000 C   0  0  0  0  0  0  0  0  0  0  0  0
    1.3101   -0.9521   -0.5287 H   0  0  0  0  0  0  0  0  0  0  0  0
    0.4657    0.6013   -0.5287 H   0  0  0  0  0  0  0  0  0  0  0  0
    1.0879   -0.0667    1.4145 C   0  0  0  0  0  0  0  0  0  0  0  0
    0.8047   -0.8244    2.3404 O   0  0  0  0  0  0  0  0  0  0  0  0
    1.8452    1.0267    1.5694 N   0  0  0  0  0  0  0  0  0  0  0  0
    2.0242    1.5882    0.7516 H   0  0  0  0  0  0  0  0  0  0  0  0
    2.4323    1.4680    2.8362 C   0  0  0  0  0  0  0  0  0  0  0  0
    2.1683    0.7811    3.6441 H   0  0  0  0  0  0  0  0  0  0  0  0
    3.5192    1.5014    2.7497 H   0  0  0  0  0  0  0  0  0  0  0  0
    2.0624    2.4622    3.0903 H   0  0  0  0  0  0  0  0  0  0  0  0
  5  6  2  0  0  0  0
  5  7  1  0  0  0  0
  2  3  1  0  0  0  0
  2  4  1  0  0  0  0
  2  5  1  0  0  0  0
  1  2  1  0  0  0  0
 12 13  2  0  0  0  0
 12 14  1  0  0  0  0
  9 10  1  0  0  0  0
  9 11  1  0  0  0  0
  9 12  1  0  0  0  0
  7  8  1  0  0  0  0
  7  9  1  0  0  0  0
 16 17  1  0  0  0  0
 16 18  1  0  0  0  0
 16 19  1  0  0  0  0
 14 15  1  0  0  0  0
 14 16  1  0  0  0  0
M  END
$$$$
default_name
  -OEChem-01062215323D

 19 18  0     0  0  0  0  0  0999 V2000
   -2.2056   -4.0049    0.0000 H   0  0  0  0  0  0  0  0  0  0  0  0
   -2.2496   -2.9169    0.0000 C   0  0  0  0  0  0  0  0  0  0  0  0
   -2.7696   -2.5709    0.8910 H   0  0  0  0  0  0  0  0  0  0  0  0
   -2.7696   -2.5709   -0.8910 H   0  0  0  0  0  0  0  0  0  0  0  0
   -0.8406   -2.3699    0.0000 C   0  0  0  0  0  0  0  0  0  0  0  0
    0.1164   -3.1329    0.0000 O   0  0  0  0  0  0  0  0  0  0  0  0
   -0.7136   -1.0459    0.0000 N   0  0  0  0  0  0  0  0  0  0  0  0
   -1.5436   -0.4719    0.0000 H   0  0  0  0  0  0  0  0  0  0  0  0
    0.5724   -0.3469    0.0000 C   0  0  0  0  0  0  0  0  0  0  0  0
    1.3101   -0.9521   -0.5287 H   0  0  0  0  0  0  0  0  0  0  0  0
    0.4657    0.6013   -0.5287 H   0  0  0  0  0  0  0  0  0  0  0  0
    1.0879   -0.0667    1.4145 C   0  0  0  0  0  0  0  0  0  0  0  0
    1.0465   -0.9430    2.2758 O   0  0  0  0  0  0  0  0  0  0  0  0
    1.5722    1.1607    1.6424 N   0  0  0  0  0  0  0  0  0  0  0  0
    1.5653    1.8134    0.8742 H   0  0  0  0  0  0  0  0  0  0  0  0
    2.1104    1.6260    2.9222 C   0  0  0  0  0  0  0  0  0  0  0  0
    2.0640    0.8324    3.6720 H   0  0  0  0  0  0  0  0  0  0  0  0
    3.1515    1.9275    2.7993 H   0  0  0  0  0  0  0  0  0  0  0  0
    1.5308    2.4775    3.2810 H   0  0  0  0  0  0  0  0  0  0  0  0
  5  6  2  0  0  0  0
  5  7  1  0  0  0  0
  2  3  1  0  0  0  0
  2  4  1  0  0  0  0
  2  5  1  0  0  0  0
  1  2  1  0  0  0  0
 12 13  2  0  0  0  0
 12 14  1  0  0  0  0
  9 10  1  0  0  0  0
  9 11  1  0  0  0  0
  9 12  1  0  0  0  0
  7  8  1  0  0  0  0
  7  9  1  0  0  0  0
 16 17  1  0  0  0  0
 16 18  1  0  0  0  0
 16 19  1  0  0  0  0
 14 15  1  0  0  0  0
 14 16  1  0  0  0  0
M  END
$$$$
default_name
  -OEChem-01062215323D

 19 18  0     0  0  0  0  0  0999 V2000
   -2.2056   -4.0049    0.0000 H   0  0  0  0  0  0  0  0  0  0  0  0
   -2.2496   -2.9169    0.0000 C   0  0  0  0  0  0  0  0  0  0  0  0
   -2.7696   -2.5709    0.8910 H   0  0  0  0  0  0  0  0  0  0  0  0
   -2.7696   -2.5709   -0.8910 H   0  0  0  0  0  0  0  0  0  0  0  0
   -0.8406   -2.3699    0.0000 C   0  0  0  0  0  0  0  0  0  0  0  0
    0.1164   -3.1329    0.0000 O   0  0  0  0  0  0  0  0  0  0  0  0
   -0.7136   -1.0459    0.0000 N   0  0  0  0  0  0  0  0  0  0  0  0
   -1.5436   -0.4719    0.0000 H   0  0  0  0  0  0  0  0  0  0  0  0
    0.5724   -0.3469    0.0000 C   0  0  0  0  0  0  0  0  0  0  0  0
    1.3101   -0.9521   -0.5287 H   0  0  0  0  0  0  0  0  0  0  0  0
    0.4657    0.6013   -0.5287 H   0  0  0  0  0  0  0  0  0  0  0  0
    1.0879   -0.0667    1.4145 C   0  0  0  0  0  0  0  0  0  0  0  0
    1.3053   -0.9942    2.1916 O   0  0  0  0  0  0  0  0  0  0  0  0
    1.2799    1.2186    1.7375 N   0  0  0  0  0  0  0  0  0  0  0  0
    1.0741    1.9106    1.0340 H   0  0  0  0  0  0  0  0  0  0  0  0
    1.7658    1.6941    3.0343 C   0  0  0  0  0  0  0  0  0  0  0  0
    1.9522    0.8545    3.7083 H   0  0  0  0  0  0  0  0  0  0  0  0
    2.6968    2.2468    2.9017 H   0  0  0  0  0  0  0  0  0  0  0  0
    1.0227    2.3487    3.4917 H   0  0  0  0  0  0  0  0  0  0  0  0
  5  6  2  0  0  0  0
  5  7  1  0  0  0  0
  2  3  1  0  0  0  0
  2  4  1  0  0  0  0
  2  5  1  0  0  0  0
  1  2  1  0  0  0  0
 12 13  2  0  0  0  0
 12 14  1  0  0  0  0
  9 10  1  0  0  0  0
  9 11  1  0  0  0  0
  9 12  1  0  0  0  0
  7  8  1  0  0  0  0
  7  9  1  0  0  0  0
 16 17  1  0  0  0  0
 16 18  1  0  0  0  0
 16 19  1  0  0  0  0
 14 15  1  0  0  0  0
 14 16  1  0  0  0  0
M  END
$$$$
default_name
  -OEChem-01062215323D

 19 18  0     0  0  0  0  0  0999 V2000
   -2.2056   -4.0049    0.0000 H   0  0  0  0  0  0  0  0  0  0  0  0
   -2.2496   -2.9169    0.0000 C   0  0  0  0  0  0  0  0  0  0  0  0
   -2.7696   -2.5709    0.8910 H   0  0  0  0  0  0  0  0  0  0  0  0
   -2.7696   -2.5709   -0.8910 H   0  0  0  0  0  0  0  0  0  0  0  0
   -0.8406   -2.3699    0.0000 C   0  0  0  0  0  0  0  0  0  0  0  0
    0.1164   -3.1329    0.0000 O   0  0  0  0  0  0  0  0  0  0  0  0
   -0.7136   -1.0459    0.0000 N   0  0  0  0  0  0  0  0  0  0  0  0
   -1.5436   -0.4719    0.0000 H   0  0  0  0  0  0  0  0  0  0  0  0
    0.5724   -0.3469    0.0000 C   0  0  0  0  0  0  0  0  0  0  0  0
    1.3101   -0.9521   -0.5287 H   0  0  0  0  0  0  0  0  0  0  0  0
    0.4657    0.6013   -0.5287 H   0  0  0  0  0  0  0  0  0  0  0  0
    1.0879   -0.0667    1.4145 C   0  0  0  0  0  0  0  0  0  0  0  0
    1.5636   -0.9745    2.0936 O   0  0  0  0  0  0  0  0  0  0  0  0
    0.9882    1.1963    1.8482 N   0  0  0  0  0  0  0  0  0  0  0  0
    0.5839    1.8731    1.2201 H   0  0  0  0  0  0  0  0  0  0  0  0
    1.4220    1.6679    3.1649 C   0  0  0  0  0  0  0  0  0  0  0  0
    1.8408    0.8459    3.7506 H   0  0  0  0  0  0  0  0  0  0  0  0
    2.1862    2.4377    3.0500 H   0  0  0  0  0  0  0  0  0  0  0  0
    0.5727    2.0844    3.7080 H   0  0  0  0  0  0  0  0  0  0  0  0
  5  6  2  0  0  0  0
  5  7  1  0  0  0  0
  2  3  1  0  0  0  0
  2  4  1  0  0  0  0
  2  5  1  0  0  0  0
  1  2  1  0  0  0  0
 12 13  2  0  0  0  0
 12 14  1  0  0  0  0
  9 10  1  0  0  0  0
  9 11  1  0  0  0  0
  9 12  1  0  0  0  0
  7  8  1  0  0  0  0
  7  9  1  0  0  0  0
 16 17  1  0  0  0  0
 16 18  1  0  0  0  0
 16 19  1  0  0  0  0
 14 15  1  0  0  0  0
 14 16  1  0  0  0  0
M  END
$$$$
default_name
  -OEChem-01062215323D

 19 18  0     0  0  0  0  0  0999 V2000
   -2.2056   -4.0049    0.0000 H   0  0  0  0  0  0  0  0  0  0  0  0
   -2.2496   -2.9169    0.0000 C   0  0  0  0  0  0  0  0  0  0  0  0
   -2.7696   -2.5709    0.8910 H   0  0  0  0  0  0  0  0  0  0  0  0
   -2.7696   -2.5709   -0.8910 H   0  0  0  0  0  0  0  0  0  0  0  0
   -0.8406   -2.3699    0.0000 C   0  0  0  0  0  0  0  0  0  0  0  0
    0.1164   -3.1329    0.0000 O   0  0  0  0  0  0  0  0  0  0  0  0
   -0.7136   -1.0459    0.0000 N   0  0  0  0  0  0  0  0  0  0  0  0
   -1.5436   -0.4719    0.0000 H   0  0  0  0  0  0  0  0  0  0  0  0
    0.5724   -0.3469    0.0000 C   0  0  0  0  0  0  0  0  0  0  0  0
    1.3101   -0.9521   -0.5287 H   0  0  0  0  0  0  0  0  0  0  0  0
    0.4657    0.6013   -0.5287 H   0  0  0  0  0  0  0  0  0  0  0  0
    1.0879   -0.0667    1.4145 C   0  0  0  0  0  0  0  0  0  0  0  0
    1.8037   -0.8851    1.9884 O   0  0  0  0  0  0  0  0  0  0  0  0
    0.7171    1.0954    1.9670 N   0  0  0  0  0  0  0  0  0  0  0  0
    0.1282    1.7035    1.4197 H   0  0  0  0  0  0  0  0  0  0  0  0
    1.1023    1.5489    3.3049 C   0  0  0  0  0  0  0  0  0  0  0  0
    1.7372    0.8074    3.7960 H   0  0  0  0  0  0  0  0  0  0  0  0
    1.6543    2.4870    3.2341 H   0  0  0  0  0  0  0  0  0  0  0  0
    0.2114    1.7027    3.9153 H   0  0  0  0  0  0  0  0  0  0  0  0
  5  6  2  0  0  0  0
  5  7  1  0  0  0  0
  2  3  1  0  0  0  0
  2  4  1  0  0  0  0
  2  5  1  0  0  0  0
  1  2  1  0  0  0  0
 12 13  2  0  0  0  0
 12 14  1  0  0  0  0
  9 10  1  0  0  0  0
  9 11  1  0  0  0  0
  9 12  1  0  0  0  0
  7  8  1  0  0  0  0
  7  9  1  0  0  0  0
 16 17  1  0  0  0  0
 16 18  1  0  0  0  0
 16 19  1  0  0  0  0
 14 15  1  0  0  0  0
 14 16  1  0  0  0  0
M  END
$$$$
default_name
  -OEChem-01062215323D

 19 18  0     0  0  0  0  0  0999 V2000
   -2.2056   -4.0049    0.0000 H   0  0  0  0  0  0  0  0  0  0  0  0
   -2.2496   -2.9169    0.0000 C   0  0  0  0  0  0  0  0  0  0  0  0
   -2.7696   -2.5709    0.8910 H   0  0  0  0  0  0  0  0  0  0  0  0
   -2.7696   -2.5709   -0.8910 H   0  0  0  0  0  0  0  0  0  0  0  0
   -0.8406   -2.3699    0.0000 C   0  0  0  0  0  0  0  0  0  0  0  0
    0.1164   -3.1329    0.0000 O   0  0  0  0  0  0  0  0  0  0  0  0
   -0.7136   -1.0459    0.0000 N   0  0  0  0  0  0  0  0  0  0  0  0
   -1.5436   -0.4719    0.0000 H   0  0  0  0  0  0  0  0  0  0  0  0
    0.5724   -0.3469    0.0000 C   0  0  0  0  0  0  0  0  0  0  0  0
    1.3101   -0.9521   -0.5287 H   0  0  0  0  0  0  0  0  0  0  0  0
    0.4657    0.6013   -0.5287 H   0  0  0  0  0  0  0  0  0  0  0  0
    1.0879   -0.0667    1.4145 C   0  0  0  0  0  0  0  0  0  0  0  0
    2.0092   -0.7322    1.8831 O   0  0  0  0  0  0  0  0  0  0  0  0
    0.4849    0.9227    2.0858 N   0  0  0  0  0  0  0  0  0  0  0  0
   -0.2620    1.4133    1.6194 H   0  0  0  0  0  0  0  0  0  0  0  0
    0.8285    1.3453    3.4450 C   0  0  0  0  0  0  0  0  0  0  0  0
    1.6484    0.7414    3.8414 H   0  0  0  0  0  0  0  0  0  0  0  0
    1.1375    2.3914    3.4414 H   0  0  0  0  0  0  0  0  0  0  0  0
   -0.0365    1.2295    4.0994 H   0  0  0  0  0  0  0  0  0  0  0  0
  5  6  2  0  0  0  0
  5  7  1  0  0  0  0
  2  3  1  0  0  0  0
  2  4  1  0  0  0  0
  2  5  1  0  0  0  0
  1  2  1  0  0  0  0
 12 13  2  0  0  0  0
 12 14  1  0  0  0  0
  9 10  1  0  0  0  0
  9 11  1  0  0  0  0
  9 12  1  0  0  0  0
  7  8  1  0  0  0  0
  7  9  1  0  0  0  0
 16 17  1  0  0  0  0
 16 18  1  0  0  0  0
 16 19  1  0  0  0  0
 14 15  1  0  0  0  0
 14 16  1  0  0  0  0
M  END
$$$$
default_name
  -OEChem-01062215323D

 19 18  0     0  0  0  0  0  0999 V2000
   -2.2056   -4.0049    0.0000 H   0  0  0  0  0  0  0  0  0  0  0  0
   -2.2496   -2.9169    0.0000 C   0  0  0  0  0  0  0  0  0  0  0  0
   -2.7696   -2.5709    0.8910 H   0  0  0  0  0  0  0  0  0  0  0  0
   -2.7696   -2.5709   -0.8910 H   0  0  0  0  0  0  0  0  0  0  0  0
   -0.8406   -2.3699    0.0000 C   0  0  0  0  0  0  0  0  0  0  0  0
    0.1164   -3.1329    0.0000 O   0  0  0  0  0  0  0  0  0  0  0  0
   -0.7136   -1.0459    0.0000 N   0  0  0  0  0  0  0  0  0  0  0  0
   -1.5436   -0.4719    0.0000 H   0  0  0  0  0  0  0  0  0  0  0  0
    0.5724   -0.3469    0.0000 C   0  0  0  0  0  0  0  0  0  0  0  0
    1.3101   -0.9521   -0.5287 H   0  0  0  0  0  0  0  0  0  0  0  0
    0.4657    0.6013   -0.5287 H   0  0  0  0  0  0  0  0  0  0  0  0
    1.0879   -0.0667    1.4145 C   0  0  0  0  0  0  0  0  0  0  0  0
    2.1663   -0.5263    1.7851 O   0  0  0  0  0  0  0  0  0  0  0  0
    0.3076    0.6901    2.1965 N   0  0  0  0  0  0  0  0  0  0  0  0
   -0.5601    1.0224    1.8055 H   0  0  0  0  0  0  0  0  0  0  0  0
    0.6195    1.0710    3.5756 C   0  0  0  0  0  0  0  0  0  0  0  0
    1.5806    0.6525    3.8838 H   0  0  0  0  0  0  0  0  0  0  0  0
    0.6710    2.1575    3.6577 H   0  0  0  0  0  0  0  0  0  0  0  0
   -0.1541    0.6972    4.2477 H   0  0  0  0  0  0  0  0  0  0  0  0
  5  6  2  0  0  0  0
  5  7  1  0  0  0  0
  2  3  1  0  0  0  0
  2  4  1  0  0  0  0
  2  5  1  0  0  0  0
  1  2  1  0  0  0  0
 12 13  2  0  0  0  0
 12 14  1  0  0  0  0
  9 10  1  0  0  0  0
  9 11  1  0  0  0  0
  9 12  1  0  0  0  0
  7  8  1  0  0  0  0
  7  9  1  0  0  0  0
 16 17  1  0  0  0  0
 16 18  1  0  0  0  0
 16 19  1  0  0  0  0
 14 15  1  0  0  0  0
 14 16  1  0  0  0  0
M  END
$$$$
default_name
  -OEChem-01062215323D

 19 18  0     0  0  0  0  0  0999 V2000
   -2.2056   -4.0049    0.0000 H   0  0  0  0  0  0  0  0  0  0  0  0
   -2.2496   -2.9169    0.0000 C   0  0  0  0  0  0  0  0  0  0  0  0
   -2.7696   -2.5709    0.8910 H   0  0  0  0  0  0  0  0  0  0  0  0
   -2.7696   -2.5709   -0.8910 H   0  0  0  0  0  0  0  0  0  0  0  0
   -0.8406   -2.3699    0.0000 C   0  0  0  0  0  0  0  0  0  0  0  0
    0.1164   -3.1329    0.0000 O   0  0  0  0  0  0  0  0  0  0  0  0
   -0.7136   -1.0459    0.0000 N   0  0  0  0  0  0  0  0  0  0  0  0
   -1.5436   -0.4719    0.0000 H   0  0  0  0  0  0  0  0  0  0  0  0
    0.5724   -0.3469    0.0000 C   0  0  0  0  0  0  0  0  0  0  0  0
    1.3101   -0.9521   -0.5287 H   0  0  0  0  0  0  0  0  0  0  0  0
    0.4657    0.6013   -0.5287 H   0  0  0  0  0  0  0  0  0  0  0  0
    1.0879   -0.0667    1.4145 C   0  0  0  0  0  0  0  0  0  0  0  0
    2.2641   -0.2812    1.7009 O   0  0  0  0  0  0  0  0  0  0  0  0
    0.1972    0.4134    2.2916 N   0  0  0  0  0  0  0  0  0  0  0  0
   -0.7457    0.5573    1.9653 H   0  0  0  0  0  0  0  0  0  0  0  0
    0.4892    0.7448    3.6876 C   0  0  0  0  0  0  0  0  0  0  0  0
    1.5384    0.5467    3.9201 H   0  0  0  0  0  0  0  0  0  0  0  0
    0.2865    1.8012    3.8684 H   0  0  0  0  0  0  0  0  0  0  0  0
   -0.1334    0.1420    4.3501 H   0  0  0  0  0  0  0  0  0  0  0  0
  5  6  2  0  0  0  0
  5  7  1  0  0  0  0
  2  3  1  0  0  0  0
  2  4  1  0  0  0  0
  2  5  1  0  0  0  0
  1  2  1  0  0  0  0
 12 13  2  0  0  0  0
 12 14  1  0  0  0  0
  9 10  1  0  0  0  0
  9 11  1  0  0  0  0
  9 12  1  0  0  0  0
  7  8  1  0  0  0  0
  7  9  1  0  0  0  0
 16 17  1  0  0  0  0
 16 18  1  0  0  0  0
 16 19  1  0  0  0  0
 14 15  1  0  0  0  0
 14 16  1  0  0  0  0
M  END
$$$$
default_name
  -OEChem-01062215323D

 19 18  0     0  0  0  0  0  0999 V2000
   -2.2056   -4.0049    0.0000 H   0  0  0  0  0  0  0  0  0  0  0  0
   -2.2496   -2.9169    0.0000 C   0  0  0  0  0  0  0  0  0  0  0  0
   -2.7696   -2.5709    0.8910 H   0  0  0  0  0  0  0  0  0  0  0  0
   -2.7696   -2.5709   -0.8910 H   0  0  0  0  0  0  0  0  0  0  0  0
   -0.8406   -2.3699    0.0000 C   0  0  0  0  0  0  0  0  0  0  0  0
    0.1164   -3.1329    0.0000 O   0  0  0  0  0  0  0  0  0  0  0  0
   -0.7136   -1.0459    0.0000 N   0  0  0  0  0  0  0  0  0  0  0  0
   -1.5436   -0.4719    0.0000 H   0  0  0  0  0  0  0  0  0  0  0  0
    0.5724   -0.3469    0.0000 C   0  0  0  0  0  0  0  0  0  0  0  0
    1.3101   -0.9521   -0.5287 H   0  0  0  0  0  0  0  0  0  0  0  0
    0.4657    0.6013   -0.5287 H   0  0  0  0  0  0  0  0  0  0  0  0
    1.0879   -0.0667    1.4145 C   0  0  0  0  0  0  0  0  0  0  0  0
    2.2960   -0.0138    1.6363 O   0  0  0  0  0  0  0  0  0  0  0  0
    0.1611    0.1114    2.3645 N   0  0  0  0  0  0  0  0  0  0  0  0
   -0.8062    0.0497    2.0879 H   0  0  0  0  0  0  0  0  0  0  0  0
    0.4468    0.3887    3.7737 C   0  0  0  0  0  0  0  0  0  0  0  0
    1.5247    0.4313    3.9480 H   0  0  0  0  0  0  0  0  0  0  0  0
    0.0103    1.3468    4.0591 H   0  0  0  0  0  0  0  0  0  0  0  0
    0.0242   -0.3983    4.3997 H   0  0  0  0  0  0  0  0  0  0  0  0
  5  6  2  0  0  0  0
  5  7  1  0  0  0  0
  2  3  1  0  0  0  0
  2  4  1  0  0  0  0
  2  5  1  0  0  0  0
  1  2  1  0  0  0  0
 12 13  2  0  0  0  0
 12 14  1  0  0  0  0
  9 10  1  0  0  0  0
  9 11  1  0  0  0  0
  9 12  1  0  0  0  0
  7  8  1  0  0  0  0
  7  9  1  0  0  0  0
 16 17  1  0  0  0  0
 16 18  1  0  0  0  0
 16 19  1  0  0  0  0
 14 15  1  0  0  0  0
 14 16  1  0  0  0  0
M  END
$$$$
default_name
  -OEChem-01062215323D

 19 18  0     0  0  0  0  0  0999 V2000
   -2.2056   -4.0049    0.0000 H   0  0  0  0  0  0  0  0  0  0  0  0
   -2.2496   -2.9169    0.0000 C   0  0  0  0  0  0  0  0  0  0  0  0
   -2.7696   -2.5709    0.8910 H   0  0  0  0  0  0  0  0  0  0  0  0
   -2.7696   -2.5709   -0.8910 H   0  0  0  0  0  0  0  0  0  0  0  0
   -0.8406   -2.3699    0.0000 C   0  0  0  0  0  0  0  0  0  0  0  0
    0.1164   -3.1329    0.0000 O   0  0  0  0  0  0  0  0  0  0  0  0
   -0.7136   -1.0459    0.0000 N   0  0  0  0  0  0  0  0  0  0  0  0
   -1.5436   -0.4719    0.0000 H   0  0  0  0  0  0  0  0  0  0  0  0
    0.5724   -0.3469    0.0000 C   0  0  0  0  0  0  0  0  0  0  0  0
    1.3101   -0.9521   -0.5287 H   0  0  0  0  0  0  0  0  0  0  0  0
    0.4657    0.6013   -0.5287 H   0  0  0  0  0  0  0  0  0  0  0  0
    1.0879   -0.0667    1.4145 C   0  0  0  0  0  0  0  0  0  0  0  0
    2.2598    0.2578    1.5957 O   0  0  0  0  0  0  0  0  0  0  0  0
    0.2020   -0.1953    2.4104 N   0  0  0  0  0  0  0  0  0  0  0  0
   -0.7376   -0.4657    2.1650 H   0  0  0  0  0  0  0  0  0  0  0  0
    0.4949    0.0271    3.8277 C   0  0  0  0  0  0  0  0  0  0  0  0
    1.5403    0.3141    3.9655 H   0  0  0  0  0  0  0  0  0  0  0  0
   -0.1388    0.8251    4.2168 H   0  0  0  0  0  0  0  0  0  0  0  0
    0.3079   -0.8868    4.3931 H   0  0  0  0  0  0  0  0  0  0  0  0
  5  6  2  0  0  0  0
  5  7  1  0  0  0  0
  2  3  1  0  0  0  0
  2  4  1  0  0  0  0
  2  5  1  0  0  0  0
  1  2  1  0  0  0  0
 12 13  2  0  0  0  0
 12 14  1  0  0  0  0
  9 10  1  0  0  0  0
  9 11  1  0  0  0  0
  9 12  1  0  0  0  0
  7  8  1  0  0  0  0
  7  9  1  0  0  0  0
 16 17  1  0  0  0  0
 16 18  1  0  0  0  0
 16 19  1  0  0  0  0
 14 15  1  0  0  0  0
 14 16  1  0  0  0  0
M  END
$$$$
default_name
  -OEChem-01062215323D

 19 18  0     0  0  0  0  0  0999 V2000
   -2.2056   -4.0049    0.0000 H   0  0  0  0  0  0  0  0  0  0  0  0
   -2.2496   -2.9169    0.0000 C   0  0  0  0  0  0  0  0  0  0  0  0
   -2.7696   -2.5709    0.8910 H   0  0  0  0  0  0  0  0  0  0  0  0
   -2.7696   -2.5709   -0.8910 H   0  0  0  0  0  0  0  0  0  0  0  0
   -0.8406   -2.3699    0.0000 C   0  0  0  0  0  0  0  0  0  0  0  0
    0.1164   -3.1329    0.0000 O   0  0  0  0  0  0  0  0  0  0  0  0
   -0.7136   -1.0459    0.0000 N   0  0  0  0  0  0  0  0  0  0  0  0
   -1.5436   -0.4719    0.0000 H   0  0  0  0  0  0  0  0  0  0  0  0
    0.5724   -0.3469    0.0000 C   0  0  0  0  0  0  0  0  0  0  0  0
    1.3101   -0.9521   -0.5287 H   0  0  0  0  0  0  0  0  0  0  0  0
    0.4657    0.6013   -0.5287 H   0  0  0  0  0  0  0  0  0  0  0  0
    1.0879   -0.0667    1.4145 C   0  0  0  0  0  0  0  0  0  0  0  0
    2.1580    0.5150    1.5819 O   0  0  0  0  0  0  0  0  0  0  0  0
    0.3169   -0.4857    2.4260 N   0  0  0  0  0  0  0  0  0  0  0  0
   -0.5444   -0.9539    2.1912 H   0  0  0  0  0  0  0  0  0  0  0  0
    0.6305   -0.3153    3.8462 C   0  0  0  0  0  0  0  0  0  0  0  0
    1.5842    0.2031    3.9715 H   0  0  0  0  0  0  0  0  0  0  0  0
   -0.1507    0.2719    4.3307 H   0  0  0  0  0  0  0  0  0  0  0  0
    0.6984   -1.2902    4.3307 H   0  0  0  0  0  0  0  0  0  0  0  0
  5  6  2  0  0  0  0
  5  7  1  0  0  0  0
  2  3  1  0  0  0  0
  2  4  1  0  0  0  0
  2  5  1  0  0  0  0
  1  2  1  0  0  0  0
 12 13  2  0  0  0  0
 12 14  1  0  0  0  0
  9 10  1  0  0  0  0
  9 11  1  0  0  0  0
  9 12  1  0  0  0  0
  7  8  1  0  0  0  0
  7  9  1  0  0  0  0
 16 17  1  0  0  0  0
 16 18  1  0  0  0  0
 16 19  1  0  0  0  0
 14 15  1  0  0  0  0
 14 16  1  0  0  0  0
M  END
$$$$
default_name
  -OEChem-01062215323D

 19 18  0     0  0  0  0  0  0999 V2000
   -2.2056   -4.0049    0.0000 H   0  0  0  0  0  0  0  0  0  0  0  0
   -2.2496   -2.9169    0.0000 C   0  0  0  0  0  0  0  0  0  0  0  0
   -2.7696   -2.5709    0.8910 H   0  0  0  0  0  0  0  0  0  0  0  0
   -2.7696   -2.5709   -0.8910 H   0  0  0  0  0  0  0  0  0  0  0  0
   -0.8406   -2.3699    0.0000 C   0  0  0  0  0  0  0  0  0  0  0  0
    0.1164   -3.1329    0.0000 O   0  0  0  0  0  0  0  0  0  0  0  0
   -0.7136   -1.0459    0.0000 N   0  0  0  0  0  0  0  0  0  0  0  0
   -1.5436   -0.4719    0.0000 H   0  0  0  0  0  0  0  0  0  0  0  0
    0.5724   -0.3469    0.0000 C   0  0  0  0  0  0  0  0  0  0  0  0
    1.3101   -0.9521   -0.5287 H   0  0  0  0  0  0  0  0  0  0  0  0
    0.4657    0.6013   -0.5287 H   0  0  0  0  0  0  0  0  0  0  0  0
    1.0879   -0.0667    1.4145 C   0  0  0  0  0  0  0  0  0  0  0  0
    1.9975    0.7403    1.5957 O   0  0  0  0  0  0  0  0  0  0  0  0
    0.4982   -0.7402    2.4104 N   0  0  0  0  0  0  0  0  0  0  0  0
   -0.2398   -1.3815    2.1650 H   0  0  0  0  0  0  0  0  0  0  0  0
    0.8441   -0.6153    3.8277 C   0  0  0  0  0  0  0  0  0  0  0  0
    1.6535    0.1059    3.9655 H   0  0  0  0  0  0  0  0  0  0  0  0
   -0.0245   -0.2752    4.3931 H   0  0  0  0  0  0  0  0  0  0  0  0
    1.1691   -1.5812    4.2168 H   0  0  0  0  0  0  0  0  0  0  0  0
  5  6  2  0  0  0  0
  5  7  1  0  0  0  0
  2  3  1  0  0  0  0
  2  4  1  0  0  0  0
  2  5  1  0  0  0  0
  1  2  1  0  0  0  0
 12 13  2  0  0  0  0
 12 14  1  0  0  0  0
  9 10  1  0  0  0  0
  9 11  1  0  0  0  0
  9 12  1  0  0  0  0
  7  8  1  0  0  0  0
  7  9  1  0  0  0  0
 16 17  1  0  0  0  0
 16 18  1  0  0  0  0
 16 19  1  0  0  0  0
 14 15  1  0  0  0  0
 14 16  1  0  0  0  0
M  END
$$$$
default_name
  -OEChem-01062215323D

 19 18  0     0  0  0  0  0  0999 V2000
   -2.2056   -4.0049    0.0000 H   0  0  0  0  0  0  0  0  0  0  0  0
   -2.2496   -2.9169    0.0000 C   0  0  0  0  0  0  0  0  0  0  0  0
   -2.7696   -2.5709    0.8910 H   0  0  0  0  0  0  0  0  0  0  0  0
   -2.7696   -2.5709   -0.8910 H   0  0  0  0  0  0  0  0  0  0  0  0
   -0.8406   -2.3699    0.0000 C   0  0  0  0  0  0  0  0  0  0  0  0
    0.1164   -3.1329    0.0000 O   0  0  0  0  0  0  0  0  0  0  0  0
   -0.7136   -1.0459    0.0000 N   0  0  0  0  0  0  0  0  0  0  0  0
   -1.5436   -0.4719    0.0000 H   0  0  0  0  0  0  0  0  0  0  0  0
    0.5724   -0.3469    0.0000 C   0  0  0  0  0  0  0  0  0  0  0  0
    1.3101   -0.9521   -0.5287 H   0  0  0  0  0  0  0  0  0  0  0  0
    0.4657    0.6013   -0.5287 H   0  0  0  0  0  0  0  0  0  0  0  0
    1.0879   -0.0667    1.4145 C   0  0  0  0  0  0  0  0  0  0  0  0
    1.7893    0.9183    1.6363 O   0  0  0  0  0  0  0  0  0  0  0  0
    0.7333   -0.9412    2.3645 N   0  0  0  0  0  0  0  0  0  0  0  0
    0.1554   -1.7195    2.0879 H   0  0  0  0  0  0  0  0  0  0  0  0
    1.1214   -0.8524    3.7737 C   0  0  0  0  0  0  0  0  0  0  0  0
    1.7433    0.0290    3.9480 H   0  0  0  0  0  0  0  0  0  0  0  0
    0.2311   -0.7790    4.3997 H   0  0  0  0  0  0  0  0  0  0  0  0
    1.6879   -1.7397    4.0591 H   0  0  0  0  0  0  0  0  0  0  0  0
  5  6  2  0  0  0  0
  5  7  1  0  0  0  0
  2  3  1  0  0  0  0
  2  4  1  0  0  0  0
  2  5  1  0  0  0  0
  1  2  1  0  0  0  0
 12 13  2  0  0  0  0
 12 14  1  0  0  0  0
  9 10  1  0  0  0  0
  9 11  1  0  0  0  0
  9 12  1  0  0  0  0
  7  8  1  0  0  0  0
  7  9  1  0  0  0  0
 16 17  1  0  0  0  0
 16 18  1  0  0  0  0
 16 19  1  0  0  0  0
 14 15  1  0  0  0  0
 14 16  1  0  0  0  0
M  END
$$$$
default_name
  -OEChem-01062215323D

 19 18  0     0  0  0  0  0  0999 V2000
   -2.2056   -4.0049    0.0000 H   0  0  0  0  0  0  0  0  0  0  0  0
   -2.2496   -2.9169    0.0000 C   0  0  0  0  0  0  0  0  0  0  0  0
   -2.7696   -2.5709    0.8910 H   0  0  0  0  0  0  0  0  0  0  0  0
   -2.7696   -2.5709   -0.8910 H   0  0  0  0  0  0  0  0  0  0  0  0
   -0.8406   -2.3699    0.0000 C   0  0  0  0  0  0  0  0  0  0  0  0
    0.1164   -3.1329    0.0000 O   0  0  0  0  0  0  0  0  0  0  0  0
   -0.7136   -1.0459    0.0000 N   0  0  0  0  0  0  0  0  0  0  0  0
   -1.5436   -0.4719    0.0000 H   0  0  0  0  0  0  0  0  0  0  0  0
    0.5724   -0.3469    0.0000 C   0  0  0  0  0  0  0  0  0  0  0  0
    1.3101   -0.9521   -0.5287 H   0  0  0  0  0  0  0  0  0  0  0  0
    0.4657    0.6013   -0.5287 H   0  0  0  0  0  0  0  0  0  0  0  0
    1.0879   -0.0667    1.4145 C   0  0  0  0  0  0  0  0  0  0  0  0
    1.5476    1.0370    1.7009 O   0  0  0  0  0  0  0  0  0  0  0  0
    1.0063   -1.0752    2.2916 N   0  0  0  0  0  0  0  0  0  0  0  0
    0.6142   -1.9447    1.9653 H   0  0  0  0  0  0  0  0  0  0  0  0
    1.4432   -1.0104    3.6876 C   0  0  0  0  0  0  0  0  0  0  0  0
    1.8477   -0.0222    3.9201 H   0  0  0  0  0  0  0  0  0  0  0  0
    0.5988   -1.2051    4.3501 H   0  0  0  0  0  0  0  0  0  0  0  0
    2.2195   -1.7551    3.8684 H   0  0  0  0  0  0  0  0  0  0  0  0
  5  6  2  0  0  0  0
  5  7  1  0  0  0  0
  2  3  1  0  0  0  0
  2  4  1  0  0  0  0
  2  5  1  0  0  0  0
  1  2  1  0  0  0  0
 12 13  2  0  0  0  0
 12 14  1  0  0  0  0
  9 10  1  0  0  0  0
  9 11  1  0  0  0  0
  9 12  1  0  0  0  0
  7  8  1  0  0  0  0
  7  9  1  0  0  0  0
 16 17  1  0  0  0  0
 16 18  1  0  0  0  0
 16 19  1  0  0  0  0
 14 15  1  0  0  0  0
 14 16  1  0  0  0  0
M  END
$$$$
default_name
  -OEChem-01062215323D

 19 18  0     0  0  0  0  0  0999 V2000
   -2.2056   -4.0049    0.0000 H   0  0  0  0  0  0  0  0  0  0  0  0
   -2.2496   -2.9169    0.0000 C   0  0  0  0  0  0  0  0  0  0  0  0
   -2.7696   -2.5709    0.8910 H   0  0  0  0  0  0  0  0  0  0  0  0
   -2.7696   -2.5709   -0.8910 H   0  0  0  0  0  0  0  0  0  0  0  0
   -0.8406   -2.3699    0.0000 C   0  0  0  0  0  0  0  0  0  0  0  0
    0.1164   -3.1329    0.0000 O   0  0  0  0  0  0  0  0  0  0  0  0
   -0.7136   -1.0459    0.0000 N   0  0  0  0  0  0  0  0  0  0  0  0
   -1.5436   -0.4719    0.0000 H   0  0  0  0  0  0  0  0  0  0  0  0
    0.5724   -0.3469    0.0000 C   0  0  0  0  0  0  0  0  0  0  0  0
    1.3101   -0.9521   -0.5287 H   0  0  0  0  0  0  0  0  0  0  0  0
    0.4657    0.6013   -0.5287 H   0  0  0  0  0  0  0  0  0  0  0  0
    1.0879   -0.0667    1.4145 C   0  0  0  0  0  0  0  0  0  0  0  0
    1.2887    1.0882    1.7851 O   0  0  0  0  0  0  0  0  0  0  0  0
    1.2986   -1.1331    2.1965 N   0  0  0  0  0  0  0  0  0  0  0  0
    1.1055   -2.0419    1.8055 H   0  0  0  0  0  0  0  0  0  0  0  0
    1.7879   -1.0786    3.5756 C   0  0  0  0  0  0  0  0  0  0  0  0
    1.9594   -0.0443    3.8838 H   0  0  0  0  0  0  0  0  0  0  0  0
    1.0535   -1.5244    4.2477 H   0  0  0  0  0  0  0  0  0  0  0  0
    2.7276   -1.6262    3.6577 H   0  0  0  0  0  0  0  0  0  0  0  0
  5  6  2  0  0  0  0
  5  7  1  0  0  0  0
  2  3  1  0  0  0  0
  2  4  1  0  0  0  0
  2  5  1  0  0  0  0
  1  2  1  0  0  0  0
 12 13  2  0  0  0  0
 12 14  1  0  0  0  0
  9 10  1  0  0  0  0
  9 11  1  0  0  0  0
  9 12  1  0  0  0  0
  7  8  1  0  0  0  0
  7  9  1  0  0  0  0
 16 17  1  0  0  0  0
 16 18  1  0  0  0  0
 16 19  1  0  0  0  0
 14 15  1  0  0  0  0
 14 16  1  0  0  0  0
M  END
$$$$
default_name
  -OEChem-01062215323D

 19 18  0     0  0  0  0  0  0999 V2000
   -2.2056   -4.0049    0.0000 H   0  0  0  0  0  0  0  0  0  0  0  0
   -2.2496   -2.9169    0.0000 C   0  0  0  0  0  0  0  0  0  0  0  0
   -2.7696   -2.5709    0.8910 H   0  0  0  0  0  0  0  0  0  0  0  0
   -2.7696   -2.5709   -0.8910 H   0  0  0  0  0  0  0  0  0  0  0  0
   -0.8406   -2.3699    0.0000 C   0  0  0  0  0  0  0  0  0  0  0  0
    0.1164   -3.1329    0.0000 O   0  0  0  0  0  0  0  0  0  0  0  0
   -0.7136   -1.0459    0.0000 N   0  0  0  0  0  0  0  0  0  0  0  0
   -1.5436   -0.4719    0.0000 H   0  0  0  0  0  0  0  0  0  0  0  0
    0.5724   -0.3469    0.0000 C   0  0  0  0  0  0  0  0  0  0  0  0
    1.3101   -0.9521   -0.5287 H   0  0  0  0  0  0  0  0  0  0  0  0
    0.4657    0.6013   -0.5287 H   0  0  0  0  0  0  0  0  0  0  0  0
    1.0879   -0.0667    1.4145 C   0  0  0  0  0  0  0  0  0  0  0  0
    1.0305    1.0684    1.8831 O   0  0  0  0  0  0  0  0  0  0  0  0
    1.5902   -1.1108    2.0858 N   0  0  0  0  0  0  0  0  0  0  0  0
    1.5957   -2.0044    1.6194 H   0  0  0  0  0  0  0  0  0  0  0  0
    2.1317   -1.0523    3.4450 C   0  0  0  0  0  0  0  0  0  0  0  0
    2.0709   -0.0358    3.8414 H   0  0  0  0  0  0  0  0  0  0  0  0
    1.5641   -1.7152    4.0994 H   0  0  0  0  0  0  0  0  0  0  0  0
    3.1777   -1.3619    3.4413 H   0  0  0  0  0  0  0  0  0  0  0  0
  5  6  2  0  0  0  0
  5  7  1  0  0  0  0
  2  3  1  0  0  0  0
  2  4  1  0  0  0  0
  2  5  1  0  0  0  0
  1  2  1  0  0  0  0
 12 13  2  0  0  0  0
 12 14  1  0  0  0  0
  9 10  1  0  0  0  0
  9 11  1  0  0  0  0
  9 12  1  0  0  0  0
  7  8  1  0  0  0  0
  7  9  1  0  0  0  0
 16 17  1  0  0  0  0
 16 18  1  0  0  0  0
 16 19  1  0  0  0  0
 14 15  1  0  0  0  0
 14 16  1  0  0  0  0
M  END
$$$$
default_name
  -OEChem-01062215323D

 19 18  0     0  0  0  0  0  0999 V2000
   -2.2056   -4.0049    0.0000 H   0  0  0  0  0  0  0  0  0  0  0  0
   -2.2496   -2.9169    0.0000 C   0  0  0  0  0  0  0  0  0  0  0  0
   -2.7696   -2.5709    0.8910 H   0  0  0  0  0  0  0  0  0  0  0  0
   -2.7696   -2.5709   -0.8910 H   0  0  0  0  0  0  0  0  0  0  0  0
   -0.8406   -2.3699    0.0000 C   0  0  0  0  0  0  0  0  0  0  0  0
    0.1164   -3.1329    0.0000 O   0  0  0  0  0  0  0  0  0  0  0  0
   -0.7136   -1.0459    0.0000 N   0  0  0  0  0  0  0  0  0  0  0  0
   -1.5436   -0.4719    0.0000 H   0  0  0  0  0  0  0  0  0  0  0  0
    0.5724   -0.3469    0.0000 C   0  0  0  0  0  0  0  0  0  0  0  0
    1.3101   -0.9521   -0.5287 H   0  0  0  0  0  0  0  0  0  0  0  0
    0.4657    0.6013   -0.5287 H   0  0  0  0  0  0  0  0  0  0  0  0
    1.0879   -0.0667    1.4145 C   0  0  0  0  0  0  0  0  0  0  0  0
    0.7904    0.9791    1.9884 O   0  0  0  0  0  0  0  0  0  0  0  0
    1.8614   -1.0099    1.9670 N   0  0  0  0  0  0  0  0  0  0  0  0
    2.0514   -1.8348    1.4197 H   0  0  0  0  0  0  0  0  0  0  0  0
    2.4514   -0.9333    3.3049 C   0  0  0  0  0  0  0  0  0  0  0  0
    2.1745    0.0028    3.7960 H   0  0  0  0  0  0  0  0  0  0  0  0
    2.0960   -1.7645    3.9153 H   0  0  0  0  0  0  0  0  0  0  0  0
    3.5389   -0.9802    3.2341 H   0  0  0  0  0  0  0  0  0  0  0  0
  5  6  2  0  0  0  0
  5  7  1  0  0  0  0
  2  3  1  0  0  0  0
  2  4  1  0  0  0  0
  2  5  1  0  0  0  0
  1  2  1  0  0  0  0
 12 13  2  0  0  0  0
 12 14  1  0  0  0  0
  9 10  1  0  0  0  0
  9 11  1  0  0  0  0
  9 12  1  0  0  0  0
  7  8  1  0  0  0  0
  7  9  1  0  0  0  0
 16 17  1  0  0  0  0
 16 18  1  0  0  0  0
 16 19  1  0  0  0  0
 14 15  1  0  0  0  0
 14 16  1  0  0  0  0
M  END
$$$$
default_name
  -OEChem-01062215323D

 19 18  0     0  0  0  0  0  0999 V2000
   -2.2056   -4.0049    0.0000 H   0  0  0  0  0  0  0  0  0  0  0  0
   -2.2496   -2.9169    0.0000 C   0  0  0  0  0  0  0  0  0  0  0  0
   -2.7696   -2.5709    0.8910 H   0  0  0  0  0  0  0  0  0  0  0  0
   -2.7696   -2.5709   -0.8910 H   0  0  0  0  0  0  0  0  0  0  0  0
   -0.8406   -2.3699    0.0000 C   0  0  0  0  0  0  0  0  0  0  0  0
    0.1164   -3.1329    0.0000 O   0  0  0  0  0  0  0  0  0  0  0  0
   -0.7136   -1.0459    0.0000 N   0  0  0  0  0  0  0  0  0  0  0  0
   -1.5436   -0.4719    0.0000 H   0  0  0  0  0  0  0  0  0  0  0  0
    0.5724   -0.3469    0.0000 C   0  0  0  0  0  0  0  0  0  0  0  0
    1.3101   -0.9521   -0.5287 H   0  0  0  0  0  0  0  0  0  0  0  0
    0.4657    0.6013   -0.5287 H   0  0  0  0  0  0  0  0  0  0  0  0
    1.0879   -0.0667    1.4145 C   0  0  0  0  0  0  0  0  0  0  0  0
    0.5848    0.8262    2.0936 O   0  0  0  0  0  0  0  0  0  0  0  0
    2.0935   -0.8372    1.8482 N   0  0  0  0  0  0  0  0  0  0  0  0
    2.4416   -1.5446    1.2201 H   0  0  0  0  0  0  0  0  0  0  0  0
    2.7251   -0.7297    3.1649 C   0  0  0  0  0  0  0  0  0  0  0  0
    2.2632    0.0688    3.7506 H   0  0  0  0  0  0  0  0  0  0  0  0
    2.6128   -1.6690    3.7080 H   0  0  0  0  0  0  0  0  0  0  0  0
    3.7868   -0.5071    3.0500 H   0  0  0  0  0  0  0  0  0  0  0  0
  5  6  2  0  0  0  0
  5  7  1  0  0  0  0
  2  3  1  0  0  0  0
  2  4  1  0  0  0  0
  2  5  1  0  0  0  0
  1  2  1  0  0  0  0
 12 13  2  0  0  0  0
 12 14  1  0  0  0  0
  9 10  1  0  0  0  0
  9 11  1  0  0  0  0
  9 12  1  0  0  0  0
  7  8  1  0  0  0  0
  7  9  1  0  0  0  0
 16 17  1  0  0  0  0
 16 18  1  0  0  0  0
 16 19  1  0  0  0  0
 14 15  1  0  0  0  0
 14 16  1  0  0  0  0
M  END
$$$$
default_name
  -OEChem-01062215323D

 19 18  0     0  0  0  0  0  0999 V2000
   -2.2056   -4.0049    0.0000 H   0  0  0  0  0  0  0  0  0  0  0  0
   -2.2496   -2.9169    0.0000 C   0  0  0  0  0  0  0  0  0  0  0  0
   -2.7696   -2.5709    0.8910 H   0  0  0  0  0  0  0  0  0  0  0  0
   -2.7696   -2.5709   -0.8910 H   0  0  0  0  0  0  0  0  0  0  0  0
   -0.8406   -2.3699    0.0000 C   0  0  0  0  0  0  0  0  0  0  0  0
    0.1164   -3.1329    0.0000 O   0  0  0  0  0  0  0  0  0  0  0  0
   -0.7136   -1.0459    0.0000 N   0  0  0  0  0  0  0  0  0  0  0  0
   -1.5436   -0.4719    0.0000 H   0  0  0  0  0  0  0  0  0  0  0  0
    0.5724   -0.3469    0.0000 C   0  0  0  0  0  0  0  0  0  0  0  0
    1.3101   -0.9521   -0.5287 H   0  0  0  0  0  0  0  0  0  0  0  0
    0.4657    0.6013   -0.5287 H   0  0  0  0  0  0  0  0  0  0  0  0
    1.0879   -0.0667    1.4145 C   0  0  0  0  0  0  0  0  0  0  0  0
    0.4278    0.6202    2.1916 O   0  0  0  0  0  0  0  0  0  0  0  0
    2.2708   -0.6046    1.7375 N   0  0  0  0  0  0  0  0  0  0  0  0
    2.7396   -1.1537    1.0340 H   0  0  0  0  0  0  0  0  0  0  0  0
    2.9342   -0.4555    3.0343 C   0  0  0  0  0  0  0  0  0  0  0  0
    2.3310    0.1577    3.7083 H   0  0  0  0  0  0  0  0  0  0  0  0
    3.0793   -1.4351    3.4917 H   0  0  0  0  0  0  0  0  0  0  0  0
    3.9044    0.0252    2.9017 H   0  0  0  0  0  0  0  0  0  0  0  0
  5  6  2  0  0  0  0
  5  7  1  0  0  0  0
  2  3  1  0  0  0  0
  2  4  1  0  0  0  0
  2  5  1  0  0  0  0
  1  2  1  0  0  0  0
 12 13  2  0  0  0  0
 12 14  1  0  0  0  0
  9 10  1  0  0  0  0
  9 11  1  0  0  0  0
  9 12  1  0  0  0  0
  7  8  1  0  0  0  0
  7  9  1  0  0  0  0
 16 17  1  0  0  0  0
 16 18  1  0  0  0  0
 16 19  1  0  0  0  0
 14 15  1  0  0  0  0
 14 16  1  0  0  0  0
M  END
$$$$
default_name
  -OEChem-01062215323D

 19 18  0     0  0  0  0  0  0999 V2000
   -2.2056   -4.0049    0.0000 H   0  0  0  0  0  0  0  0  0  0  0  0
   -2.2496   -2.9169    0.0000 C   0  0  0  0  0  0  0  0  0  0  0  0
   -2.7696   -2.5709    0.8910 H   0  0  0  0  0  0  0  0  0  0  0  0
   -2.7696   -2.5709   -0.8910 H   0  0  0  0  0  0  0  0  0  0  0  0
   -0.8406   -2.3699    0.0000 C   0  0  0  0  0  0  0  0  0  0  0  0
    0.1164   -3.1329    0.0000 O   0  0  0  0  0  0  0  0  0  0  0  0
   -0.7136   -1.0459    0.0000 N   0  0  0  0  0  0  0  0  0  0  0  0
   -1.5436   -0.4719    0.0000 H   0  0  0  0  0  0  0  0  0  0  0  0
    0.5724   -0.3469    0.0000 C   0  0  0  0  0  0  0  0  0  0  0  0
    1.3101   -0.9521   -0.5287 H   0  0  0  0  0  0  0  0  0  0  0  0
    0.4657    0.6013   -0.5287 H   0  0  0  0  0  0  0  0  0  0  0  0
    1.0879   -0.0667    1.4145 C   0  0  0  0  0  0  0  0  0  0  0  0
    0.3300    0.3752    2.2758 O   0  0  0  0  0  0  0  0  0  0  0  0
    2.3813   -0.3279    1.6424 N   0  0  0  0  0  0  0  0  0  0  0  0
    2.9253   -0.6886    0.8742 H   0  0  0  0  0  0  0  0  0  0  0  0
    3.0644   -0.1292    2.9222 C   0  0  0  0  0  0  0  0  0  0  0  0
    2.3732    0.2634    3.6720 H   0  0  0  0  0  0  0  0  0  0  0  0
    3.4638   -1.0788    3.2810 H   0  0  0  0  0  0  0  0  0  0  0  0
    3.8837    0.5804    2.7993 H   0  0  0  0  0  0  0  0  0  0  0  0
  5  6  2  0  0  0  0
  5  7  1  0  0  0  0
  2  3  1  0  0  0  0
  2  4  1  0  0  0  0
  2  5  1  0  0  0  0
  1  2  1  0  0  0  0
 12 13  2  0  0  0  0
 12 14  1  0  0  0  0
  9 10  1  0  0  0  0
  9 11  1  0  0  0  0
  9 12  1  0  0  0  0
  7  8  1  0  0  0  0
  7  9  1  0  0  0  0
 16 17  1  0  0  0  0
 16 18  1  0  0  0  0
 16 19  1  0  0  0  0
 14 15  1  0  0  0  0
 14 16  1  0  0  0  0
M  END
$$$$
default_name
  -OEChem-01062215323D

 19 18  0     0  0  0  0  0  0999 V2000
   -2.2056   -4.0049    0.0000 H   0  0  0  0  0  0  0  0  0  0  0  0
   -2.2496   -2.9169    0.0000 C   0  0  0  0  0  0  0  0  0  0  0  0
   -2.7696   -2.5709    0.8910 H   0  0  0  0  0  0  0  0  0  0  0  0
   -2.7696   -2.5709   -0.8910 H   0  0  0  0  0  0  0  0  0  0  0  0
   -0.8406   -2.3699    0.0000 C   0  0  0  0  0  0  0  0  0  0  0  0
    0.1164   -3.1329    0.0000 O   0  0  0  0  0  0  0  0  0  0  0  0
   -0.7136   -1.0459    0.0000 N   0  0  0  0  0  0  0  0  0  0  0  0
   -1.5436   -0.4719    0.0000 H   0  0  0  0  0  0  0  0  0  0  0  0
    0.5724   -0.3469    0.0000 C   0  0  0  0  0  0  0  0  0  0  0  0
    1.3101   -0.9521   -0.5287 H   0  0  0  0  0  0  0  0  0  0  0  0
    0.4657    0.6013   -0.5287 H   0  0  0  0  0  0  0  0  0  0  0  0
    1.0879   -0.0667    1.4145 C   0  0  0  0  0  0  0  0  0  0  0  0
    0.2981    0.1078    2.3404 O   0  0  0  0  0  0  0  0  0  0  0  0
    2.4173   -0.0259    1.5694 N   0  0  0  0  0  0  0  0  0  0  0  0
    2.9858   -0.1810    0.7516 H   0  0  0  0  0  0  0  0  0  0  0  0
    3.1069    0.2269    2.8362 C   0  0  0  0  0  0  0  0  0  0  0  0
    2.3870    0.3788    3.6441 H   0  0  0  0  0  0  0  0  0  0  0  0
    3.7400   -0.6243    3.0903 H   0  0  0  0  0  0  0  0  0  0  0  0
    3.7261    1.1207    2.7497 H   0  0  0  0  0  0  0  0  0  0  0  0
  5  6  2  0  0  0  0
  5  7  1  0  0  0  0
  2  3  1  0  0  0  0
  2  4  1  0  0  0  0
  2  5  1  0  0  0  0
  1  2  1  0  0  0  0
 12 13  2  0  0  0  0
 12 14  1  0  0  0  0
  9 10  1  0  0  0  0
  9 11  1  0  0  0  0
  9 12  1  0  0  0  0
  7  8  1  0  0  0  0
  7  9  1  0  0  0  0
 16 17  1  0  0  0  0
 16 18  1  0  0  0  0
 16 19  1  0  0  0  0
 14 15  1  0  0  0  0
 14 16  1  0  0  0  0
M  END
$$$$
default_name
  -OEChem-01062215323D

 19 18  0     0  0  0  0  0  0999 V2000
   -2.2056   -4.0049    0.0000 H   0  0  0  0  0  0  0  0  0  0  0  0
   -2.2496   -2.9169    0.0000 C   0  0  0  0  0  0  0  0  0  0  0  0
   -2.7696   -2.5709    0.8910 H   0  0  0  0  0  0  0  0  0  0  0  0
   -2.7696   -2.5709   -0.8910 H   0  0  0  0  0  0  0  0  0  0  0  0
   -0.8406   -2.3699    0.0000 C   0  0  0  0  0  0  0  0  0  0  0  0
    0.1164   -3.1329    0.0000 O   0  0  0  0  0  0  0  0  0  0  0  0
   -0.7136   -1.0459    0.0000 N   0  0  0  0  0  0  0  0  0  0  0  0
   -1.5436   -0.4719    0.0000 H   0  0  0  0  0  0  0  0  0  0  0  0
    0.5724   -0.3469    0.0000 C   0  0  0  0  0  0  0  0  0  0  0  0
    1.3101   -0.9521   -0.5287 H   0  0  0  0  0  0  0  0  0  0  0  0
    0.4657    0.6013   -0.5287 H   0  0  0  0  0  0  0  0  0  0  0  0
    1.0879   -0.0667    1.4145 C   0  0  0  0  0  0  0  0  0  0  0  0
    0.3343   -0.1638    2.3810 O   0  0  0  0  0  0  0  0  0  0  0  0
    2.3765    0.2808    1.5236 N   0  0  0  0  0  0  0  0  0  0  0  0
    2.9171    0.3344    0.6745 H   0  0  0  0  0  0  0  0  0  0  0  0
    3.0587    0.5884    2.7822 C   0  0  0  0  0  0  0  0  0  0  0  0
    2.3713    0.4960    3.6266 H   0  0  0  0  0  0  0  0  0  0  0  0
    3.8891   -0.1027    2.9326 H   0  0  0  0  0  0  0  0  0  0  0  0
    3.4424    1.6092    2.7563 H   0  0  0  0  0  0  0  0  0  0  0  0
  5  6  2  0  0  0  0
  5  7  1  0  0  0  0
  2  3  1  0  0  0  0
  2  4  1  0  0  0  0
  2  5  1  0  0  0  0
  1  2  1  0  0  0  0
 12 13  2  0  0  0  0
 12 14  1  0  0  0  0
  9 10  1  0  0  0  0
  9 11  1  0  0  0  0
  9 12  1  0  0  0  0
  7  8  1  0  0  0  0
  7  9  1  0  0  0  0
 16 17  1  0  0  0  0
 16 18  1  0  0  0  0
 16 19  1  0  0  0  0
 14 15  1  0  0  0  0
 14 16  1  0  0  0  0
M  END
$$$$
default_name
  -OEChem-01062215323D

 19 18  0     0  0  0  0  0  0999 V2000
   -2.2056   -4.0049    0.0000 H   0  0  0  0  0  0  0  0  0  0  0  0
   -2.2496   -2.9169    0.0000 C   0  0  0  0  0  0  0  0  0  0  0  0
   -2.7696   -2.5709    0.8910 H   0  0  0  0  0  0  0  0  0  0  0  0
   -2.7696   -2.5709   -0.8910 H   0  0  0  0  0  0  0  0  0  0  0  0
   -0.8406   -2.3699    0.0000 C   0  0  0  0  0  0  0  0  0  0  0  0
    0.1164   -3.1329    0.0000 O   0  0  0  0  0  0  0  0  0  0  0  0
   -0.7136   -1.0459    0.0000 N   0  0  0  0  0  0  0  0  0  0  0  0
   -1.5436   -0.4719    0.0000 H   0  0  0  0  0  0  0  0  0  0  0  0
    0.5724   -0.3469    0.0000 C   0  0  0  0  0  0  0  0  0  0  0  0
    1.2303   -0.8054   -0.7395 H   0  0  0  0  0  0  0  0  0  0  0  0
    0.4148    0.6950   -0.2819 H   0  0  0  0  0  0  0  0  0  0  0  0
    1.2627   -0.3883    1.3663 C   0  0  0  0  0  0  0  0  0  0  0  0
    0.7320   -0.9656    2.3132 O   0  0  0  0  0  0  0  0  0  0  0  0
    2.4479    0.2283    1.4566 N   0  0  0  0  0  0  0  0  0  0  0  0
    2.8041    0.6752    0.6261 H   0  0  0  0  0  0  0  0  0  0  0  0
    3.2648    0.3024    2.6696 C   0  0  0  0  0  0  0  0  0  0  0  0
    2.7749   -0.2163    3.4972 H   0  0  0  0  0  0  0  0  0  0  0  0
    4.2349   -0.1638    2.4926 H   0  0  0  0  0  0  0  0  0  0  0  0
    3.4148    1.3451    2.9527 H   0  0  0  0  0  0  0  0  0  0  0  0
  5  6  2  0  0  0  0
  5  7  1  0  0  0  0
  2  3  1  0  0  0  0
  2  4  1  0  0  0  0
  2  5  1  0  0  0  0
  1  2  1  0  0  0  0
 12 13  2  0  0  0  0
 12 14  1  0  0  0  0
  9 10  1  0  0  0  0
  9 11  1  0  0  0  0
  9 12  1  0  0  0  0
  7  8  1  0  0  0  0
  7  9  1  0  0  0  0
 16 17  1  0  0  0  0
 16 18  1  0  0  0  0
 16 19  1  0  0  0  0
 14 15  1  0  0  0  0
 14 16  1  0  0  0  0
M  END
$$$$
default_name
  -OEChem-01062215323D

 19 18  0     0  0  0  0  0  0999 V2000
   -2.2056   -4.0049    0.0000 H   0  0  0  0  0  0  0  0  0  0  0  0
   -2.2496   -2.9169    0.0000 C   0  0  0  0  0  0  0  0  0  0  0  0
   -2.7696   -2.5709    0.8910 H   0  0  0  0  0  0  0  0  0  0  0  0
   -2.7696   -2.5709   -0.8910 H   0  0  0  0  0  0  0  0  0  0  0  0
   -0.8406   -2.3699    0.0000 C   0  0  0  0  0  0  0  0  0  0  0  0
    0.1164   -3.1329    0.0000 O   0  0  0  0  0  0  0  0  0  0  0  0
   -0.7136   -1.0459    0.0000 N   0  0  0  0  0  0  0  0  0  0  0  0
   -1.5436   -0.4719    0.0000 H   0  0  0  0  0  0  0  0  0  0  0  0
    0.5724   -0.3469    0.0000 C   0  0  0  0  0  0  0  0  0  0  0  0
    1.2303   -0.8054   -0.7395 H   0  0  0  0  0  0  0  0  0  0  0  0
    0.4148    0.6950   -0.2819 H   0  0  0  0  0  0  0  0  0  0  0  0
    1.2627   -0.3883    1.3663 C   0  0  0  0  0  0  0  0  0  0  0  0
    0.8863   -1.1795    2.2288 O   0  0  0  0  0  0  0  0  0  0  0  0
    2.2737    0.4699    1.5519 N   0  0  0  0  0  0  0  0  0  0  0  0
    2.5112    1.0812    0.7864 H   0  0  0  0  0  0  0  0  0  0  0  0
    3.0594    0.5873    2.7820 C   0  0  0  0  0  0  0  0  0  0  0  0
    2.7083   -0.1239    3.5337 H   0  0  0  0  0  0  0  0  0  0  0  0
    4.1098    0.3813    2.5723 H   0  0  0  0  0  0  0  0  0  0  0  0
    2.9660    1.5957    3.1871 H   0  0  0  0  0  0  0  0  0  0  0  0
  5  6  2  0  0  0  0
  5  7  1  0  0  0  0
  2  3  1  0  0  0  0
  2  4  1  0  0  0  0
  2  5  1  0  0  0  0
  1  2  1  0  0  0  0
 12 13  2  0  0  0  0
 12 14  1  0  0  0  0
  9 10  1  0  0  0  0
  9 11  1  0  0  0  0
  9 12  1  0  0  0  0
  7  8  1  0  0  0  0
  7  9  1  0  0  0  0
 16 17  1  0  0  0  0
 16 18  1  0  0  0  0
 16 19  1  0  0  0  0
 14 15  1  0  0  0  0
 14 16  1  0  0  0  0
M  END
$$$$
default_name
  -OEChem-01062215323D

 19 18  0     0  0  0  0  0  0999 V2000
   -2.2056   -4.0049    0.0000 H   0  0  0  0  0  0  0  0  0  0  0  0
   -2.2496   -2.9169    0.0000 C   0  0  0  0  0  0  0  0  0  0  0  0
   -2.7696   -2.5709    0.8910 H   0  0  0  0  0  0  0  0  0  0  0  0
   -2.7696   -2.5709   -0.8910 H   0  0  0  0  0  0  0  0  0  0  0  0
   -0.8406   -2.3699    0.0000 C   0  0  0  0  0  0  0  0  0  0  0  0
    0.1164   -3.1329    0.0000 O   0  0  0  0  0  0  0  0  0  0  0  0
   -0.7136   -1.0459    0.0000 N   0  0  0  0  0  0  0  0  0  0  0  0
   -1.5436   -0.4719    0.0000 H   0  0  0  0  0  0  0  0  0  0  0  0
    0.5724   -0.3469    0.0000 C   0  0  0  0  0  0  0  0  0  0  0  0
    1.2303   -0.8054   -0.7395 H   0  0  0  0  0  0  0  0  0  0  0  0
    0.4148    0.6950   -0.2819 H   0  0  0  0  0  0  0  0  0  0  0  0
    1.2627   -0.3883    1.3663 C   0  0  0  0  0  0  0  0  0  0  0  0
    1.0854   -1.3407    2.1233 O   0  0  0  0  0  0  0  0  0  0  0  0
    2.0489    0.6519    1.6710 N   0  0  0  0  0  0  0  0  0  0  0  0
    2.1335    1.3871    0.9866 H   0  0  0  0  0  0  0  0  0  0  0  0
    2.7944    0.8019    2.9224 C   0  0  0  0  0  0  0  0  0  0  0  0
    2.6224   -0.0544    3.5792 H   0  0  0  0  0  0  0  0  0  0  0  0
    3.8626    0.8697    2.7121 H   0  0  0  0  0  0  0  0  0  0  0  0
    2.4729    1.7068    3.4396 H   0  0  0  0  0  0  0  0  0  0  0  0
  5  6  2  0  0  0  0
  5  7  1  0  0  0  0
  2  3  1  0  0  0  0
  2  4  1  0  0  0  0
  2  5  1  0  0  0  0
  1  2  1  0  0  0  0
 12 13  2  0  0  0  0
 12 14  1  0  0  0  0
  9 10  1  0  0  0  0
  9 11  1  0  0  0  0
  9 12  1  0  0  0  0
  7  8  1  0  0  0  0
  7  9  1  0  0  0  0
 16 17  1  0  0  0  0
 16 18  1  0  0  0  0
 16 19  1  0  0  0  0
 14 15  1  0  0  0  0
 14 16  1  0  0  0  0
M  END
$$$$
default_name
  -OEChem-01062215323D

 19 18  0     0  0  0  0  0  0999 V2000
   -2.2056   -4.0049    0.0000 H   0  0  0  0  0  0  0  0  0  0  0  0
   -2.2496   -2.9169    0.0000 C   0  0  0  0  0  0  0  0  0  0  0  0
   -2.7696   -2.5709    0.8910 H   0  0  0  0  0  0  0  0  0  0  0  0
   -2.7696   -2.5709   -0.8910 H   0  0  0  0  0  0  0  0  0  0  0  0
   -0.8406   -2.3699    0.0000 C   0  0  0  0  0  0  0  0  0  0  0  0
    0.1164   -3.1329    0.0000 O   0  0  0  0  0  0  0  0  0  0  0  0
   -0.7136   -1.0459    0.0000 N   0  0  0  0  0  0  0  0  0  0  0  0
   -1.5436   -0.4719    0.0000 H   0  0  0  0  0  0  0  0  0  0  0  0
    0.5724   -0.3469    0.0000 C   0  0  0  0  0  0  0  0  0  0  0  0
    1.2303   -0.8054   -0.7395 H   0  0  0  0  0  0  0  0  0  0  0  0
    0.4148    0.6950   -0.2819 H   0  0  0  0  0  0  0  0  0  0  0  0
    1.2627   -0.3883    1.3663 C   0  0  0  0  0  0  0  0  0  0  0  0
    1.3155   -1.4381    2.0041 O   0  0  0  0  0  0  0  0  0  0  0  0
    1.7890    0.7619    1.8057 N   0  0  0  0  0  0  0  0  0  0  0  0
    1.6966    1.5720    1.2129 H   0  0  0  0  0  0  0  0  0  0  0  0
    2.4879    0.9315    3.0812 C   0  0  0  0  0  0  0  0  0  0  0  0
    2.5231   -0.0123    3.6307 H   0  0  0  0  0  0  0  0  0  0  0  0
    3.5100    1.2680    2.9023 H   0  0  0  0  0  0  0  0  0  0  0  0
    1.9693    1.6709    3.6930 H   0  0  0  0  0  0  0  0  0  0  0  0
  5  6  2  0  0  0  0
  5  7  1  0  0  0  0
  2  3  1  0  0  0  0
  2  4  1  0  0  0  0
  2  5  1  0  0  0  0
  1  2  1  0  0  0  0
 12 13  2  0  0  0  0
 12 14  1  0  0  0  0
  9 10  1  0  0  0  0
  9 11  1  0  0  0  0
  9 12  1  0  0  0  0
  7  8  1  0  0  0  0
  7  9  1  0  0  0  0
 16 17  1  0  0  0  0
 16 18  1  0  0  0  0
 16 19  1  0  0  0  0
 14 15  1  0  0  0  0
 14 16  1  0  0  0  0
M  END
$$$$
default_name
  -OEChem-01062215323D

 19 18  0     0  0  0  0  0  0999 V2000
   -2.2056   -4.0049    0.0000 H   0  0  0  0  0  0  0  0  0  0  0  0
   -2.2496   -2.9169    0.0000 C   0  0  0  0  0  0  0  0  0  0  0  0
   -2.7696   -2.5709    0.8910 H   0  0  0  0  0  0  0  0  0  0  0  0
   -2.7696   -2.5709   -0.8910 H   0  0  0  0  0  0  0  0  0  0  0  0
   -0.8406   -2.3699    0.0000 C   0  0  0  0  0  0  0  0  0  0  0  0
    0.1164   -3.1329    0.0000 O   0  0  0  0  0  0  0  0  0  0  0  0
   -0.7136   -1.0459    0.0000 N   0  0  0  0  0  0  0  0  0  0  0  0
   -1.5436   -0.4719    0.0000 H   0  0  0  0  0  0  0  0  0  0  0  0
    0.5724   -0.3469    0.0000 C   0  0  0  0  0  0  0  0  0  0  0  0
    1.2303   -0.8054   -0.7395 H   0  0  0  0  0  0  0  0  0  0  0  0
    0.4148    0.6950   -0.2819 H   0  0  0  0  0  0  0  0  0  0  0  0
    1.2627   -0.3883    1.3663 C   0  0  0  0  0  0  0  0  0  0  0  0
    1.5612   -1.4651    1.8791 O   0  0  0  0  0  0  0  0  0  0  0  0
    1.5115    0.7924    1.9468 N   0  0  0  0  0  0  0  0  0  0  0  0
    1.2303    1.6233    1.4501 H   0  0  0  0  0  0  0  0  0  0  0  0
    2.1608    0.9675    3.2476 C   0  0  0  0  0  0  0  0  0  0  0  0
    2.4171   -0.0007    3.6846 H   0  0  0  0  0  0  0  0  0  0  0  0
    3.0761    1.5491    3.1301 H   0  0  0  0  0  0  0  0  0  0  0  0
    1.4893    1.4902    3.9300 H   0  0  0  0  0  0  0  0  0  0  0  0
  5  6  2  0  0  0  0
  5  7  1  0  0  0  0
  2  3  1  0  0  0  0
  2  4  1  0  0  0  0
  2  5  1  0  0  0  0
  1  2  1  0  0  0  0
 12 13  2  0  0  0  0
 12 14  1  0  0  0  0
  9 10  1  0  0  0  0
  9 11  1  0  0  0  0
  9 12  1  0  0  0  0
  7  8  1  0  0  0  0
  7  9  1  0  0  0  0
 16 17  1  0  0  0  0
 16 18  1  0  0  0  0
 16 19  1  0  0  0  0
 14 15  1  0  0  0  0
 14 16  1  0  0  0  0
M  END
$$$$
default_name
  -OEChem-01062215323D

 19 18  0     0  0  0  0  0  0999 V2000
   -2.2056   -4.0049    0.0000 H   0  0  0  0  0  0  0  0  0  0  0  0
   -2.2496   -2.9169    0.0000 C   0  0  0  0  0  0  0  0  0  0  0  0
   -2.7696   -2.5709    0.8910 H   0  0  0  0  0  0  0  0  0  0  0  0
   -2.7696   -2.5709   -0.8910 H   0  0  0  0  0  0  0  0  0  0  0  0
   -0.8406   -2.3699    0.0000 C   0  0  0  0  0  0  0  0  0  0  0  0
    0.1164   -3.1329    0.0000 O   0  0  0  0  0  0  0  0  0  0  0  0
   -0.7136   -1.0459    0.0000 N   0  0  0  0  0  0  0  0  0  0  0  0
   -1.5436   -0.4719    0.0000 H   0  0  0  0  0  0  0  0  0  0  0  0
    0.5724   -0.3469    0.0000 C   0  0  0  0  0  0  0  0  0  0  0  0
    1.2303   -0.8054   -0.7395 H   0  0  0  0  0  0  0  0  0  0  0  0
    0.4148    0.6950   -0.2819 H   0  0  0  0  0  0  0  0  0  0  0  0
    1.2627   -0.3883    1.3663 C   0  0  0  0  0  0  0  0  0  0  0  0
    1.8056   -1.4199    1.7570 O   0  0  0  0  0  0  0  0  0  0  0  0
    1.2355    0.7413    2.0847 N   0  0  0  0  0  0  0  0  0  0  0  0
    0.7663    1.5374    1.6819 H   0  0  0  0  0  0  0  0  0  0  0  0
    1.8353    0.9073    3.4102 C   0  0  0  0  0  0  0  0  0  0  0  0
    2.3116   -0.0202    3.7373 H   0  0  0  0  0  0  0  0  0  0  0  0
    2.5904    1.6939    3.3798 H   0  0  0  0  0  0  0  0  0  0  0  0
    1.0657    1.1772    4.1345 H   0  0  0  0  0  0  0  0  0  0  0  0
  5  6  2  0  0  0  0
  5  7  1  0  0  0  0
  2  3  1  0  0  0  0
  2  4  1  0  0  0  0
  2  5  1  0  0  0  0
  1  2  1  0  0  0  0
 12 13  2  0  0  0  0
 12 14  1  0  0  0  0
  9 10  1  0  0  0  0
  9 11  1  0  0  0  0
  9 12  1  0  0  0  0
  7  8  1  0  0  0  0
  7  9  1  0  0  0  0
 16 17  1  0  0  0  0
 16 18  1  0  0  0  0
 16 19  1  0  0  0  0
 14 15  1  0  0  0  0
 14 16  1  0  0  0  0
M  END
$$$$
default_name
  -OEChem-01062215323D

 19 18  0     0  0  0  0  0  0999 V2000
   -2.2056   -4.0049    0.0000 H   0  0  0  0  0  0  0  0  0  0  0  0
   -2.2496   -2.9169    0.0000 C   0  0  0  0  0  0  0  0  0  0  0  0
   -2.7696   -2.5709    0.8910 H   0  0  0  0  0  0  0  0  0  0  0  0
   -2.7696   -2.5709   -0.8910 H   0  0  0  0  0  0  0  0  0  0  0  0
   -0.8406   -2.3699    0.0000 C   0  0  0  0  0  0  0  0  0  0  0  0
    0.1164   -3.1329    0.0000 O   0  0  0  0  0  0  0  0  0  0  0  0
   -0.7136   -1.0459    0.0000 N   0  0  0  0  0  0  0  0  0  0  0  0
   -1.5436   -0.4719    0.0000 H   0  0  0  0  0  0  0  0  0  0  0  0
    0.5724   -0.3469    0.0000 C   0  0  0  0  0  0  0  0  0  0  0  0
    1.2303   -0.8054   -0.7395 H   0  0  0  0  0  0  0  0  0  0  0  0
    0.4148    0.6950   -0.2819 H   0  0  0  0  0  0  0  0  0  0  0  0
    1.2627   -0.3883    1.3663 C   0  0  0  0  0  0  0  0  0  0  0  0
    2.0322   -1.3055    1.6460 O   0  0  0  0  0  0  0  0  0  0  0  0
    0.9797    0.6122    2.2100 N   0  0  0  0  0  0  0  0  0  0  0  0
    0.3364    1.3204    1.8925 H   0  0  0  0  0  0  0  0  0  0  0  0
    1.5337    0.7550    3.5579 C   0  0  0  0  0  0  0  0  0  0  0  0
    2.2138   -0.0696    3.7852 H   0  0  0  0  0  0  0  0  0  0  0  0
    2.0862    1.6925    3.6346 H   0  0  0  0  0  0  0  0  0  0  0  0
    0.7274    0.7533    4.2926 H   0  0  0  0  0  0  0  0  0  0  0  0
  5  6  2  0  0  0  0
  5  7  1  0  0  0  0
  2  3  1  0  0  0  0
  2  4  1  0  0  0  0
  2  5  1  0  0  0  0
  1  2  1  0  0  0  0
 12 13  2  0  0  0  0
 12 14  1  0  0  0  0
  9 10  1  0  0  0  0
  9 11  1  0  0  0  0
  9 12  1  0  0  0  0
  7  8  1  0  0  0  0
  7  9  1  0  0  0  0
 16 17  1  0  0  0  0
 16 18  1  0  0  0  0
 16 19  1  0  0  0  0
 14 15  1  0  0  0  0
 14 16  1  0  0  0  0
M  END
$$$$
default_name
  -OEChem-01062215323D

 19 18  0     0  0  0  0  0  0999 V2000
   -2.2056   -4.0049    0.0000 H   0  0  0  0  0  0  0  0  0  0  0  0
   -2.2496   -2.9169    0.0000 C   0  0  0  0  0  0  0  0  0  0  0  0
   -2.7696   -2.5709    0.8910 H   0  0  0  0  0  0  0  0  0  0  0  0
   -2.7696   -2.5709   -0.8910 H   0  0  0  0  0  0  0  0  0  0  0  0
   -0.8406   -2.3699    0.0000 C   0  0  0  0  0  0  0  0  0  0  0  0
    0.1164   -3.1329    0.0000 O   0  0  0  0  0  0  0  0  0  0  0  0
   -0.7136   -1.0459    0.0000 N   0  0  0  0  0  0  0  0  0  0  0  0
   -1.5436   -0.4719    0.0000 H   0  0  0  0  0  0  0  0  0  0  0  0
    0.5724   -0.3469    0.0000 C   0  0  0  0  0  0  0  0  0  0  0  0
    1.2303   -0.8054   -0.7395 H   0  0  0  0  0  0  0  0  0  0  0  0
    0.4148    0.6950   -0.2819 H   0  0  0  0  0  0  0  0  0  0  0  0
    1.2627   -0.3883    1.3663 C   0  0  0  0  0  0  0  0  0  0  0  0
    2.2253   -1.1298    1.5538 O   0  0  0  0  0  0  0  0  0  0  0  0
    0.7616    0.4138    2.3142 N   0  0  0  0  0  0  0  0  0  0  0  0
   -0.0302    0.9868    2.0676 H   0  0  0  0  0  0  0  0  0  0  0  0
    1.2766    0.5211    3.6808 C   0  0  0  0  0  0  0  0  0  0  0  0
    2.1304   -0.1454    3.8250 H   0  0  0  0  0  0  0  0  0  0  0  0
    1.5976    1.5449    3.8769 H   0  0  0  0  0  0  0  0  0  0  0  0
    0.4975    0.2472    4.3934 H   0  0  0  0  0  0  0  0  0  0  0  0
  5  6  2  0  0  0  0
  5  7  1  0  0  0  0
  2  3  1  0  0  0  0
  2  4  1  0  0  0  0
  2  5  1  0  0  0  0
  1  2  1  0  0  0  0
 12 13  2  0  0  0  0
 12 14  1  0  0  0  0
  9 10  1  0  0  0  0
  9 11  1  0  0  0  0
  9 12  1  0  0  0  0
  7  8  1  0  0  0  0
  7  9  1  0  0  0  0
 16 17  1  0  0  0  0
 16 18  1  0  0  0  0
 16 19  1  0  0  0  0
 14 15  1  0  0  0  0
 14 16  1  0  0  0  0
M  END
$$$$
default_name
  -OEChem-01062215323D

 19 18  0     0  0  0  0  0  0999 V2000
   -2.2056   -4.0049    0.0000 H   0  0  0  0  0  0  0  0  0  0  0  0
   -2.2496   -2.9169    0.0000 C   0  0  0  0  0  0  0  0  0  0  0  0
   -2.7696   -2.5709    0.8910 H   0  0  0  0  0  0  0  0  0  0  0  0
   -2.7696   -2.5709   -0.8910 H   0  0  0  0  0  0  0  0  0  0  0  0
   -0.8406   -2.3699    0.0000 C   0  0  0  0  0  0  0  0  0  0  0  0
    0.1164   -3.1329    0.0000 O   0  0  0  0  0  0  0  0  0  0  0  0
   -0.7136   -1.0459    0.0000 N   0  0  0  0  0  0  0  0  0  0  0  0
   -1.5436   -0.4719    0.0000 H   0  0  0  0  0  0  0  0  0  0  0  0
    0.5724   -0.3469    0.0000 C   0  0  0  0  0  0  0  0  0  0  0  0
    1.2303   -0.8054   -0.7395 H   0  0  0  0  0  0  0  0  0  0  0  0
    0.4148    0.6950   -0.2819 H   0  0  0  0  0  0  0  0  0  0  0  0
    1.2627   -0.3883    1.3663 C   0  0  0  0  0  0  0  0  0  0  0  0
    2.3720   -0.9047    1.4865 O   0  0  0  0  0  0  0  0  0  0  0  0
    0.5960    0.1596    2.3902 N   0  0  0  0  0  0  0  0  0  0  0  0
   -0.3085    0.5596    2.1953 H   0  0  0  0  0  0  0  0  0  0  0  0
    1.0813    0.2213    3.7703 C   0  0  0  0  0  0  0  0  0  0  0  0
    2.0671   -0.2425    3.8540 H   0  0  0  0  0  0  0  0  0  0  0  0
    1.1581    1.2613    4.0904 H   0  0  0  0  0  0  0  0  0  0  0  0
    0.3915   -0.3065    4.4302 H   0  0  0  0  0  0  0  0  0  0  0  0
  5  6  2  0  0  0  0
  5  7  1  0  0  0  0
  2  3  1  0  0  0  0
  2  4  1  0  0  0  0
  2  5  1  0  0  0  0
  1  2  1  0  0  0  0
 12 13  2  0  0  0  0
 12 14  1  0  0  0  0
  9 10  1  0  0  0  0
  9 11  1  0  0  0  0
  9 12  1  0  0  0  0
  7  8  1  0  0  0  0
  7  9  1  0  0  0  0
 16 17  1  0  0  0  0
 16 18  1  0  0  0  0
 16 19  1  0  0  0  0
 14 15  1  0  0  0  0
 14 16  1  0  0  0  0
M  END
$$$$
default_name
  -OEChem-01062215323D

 19 18  0     0  0  0  0  0  0999 V2000
   -2.2056   -4.0049    0.0000 H   0  0  0  0  0  0  0  0  0  0  0  0
   -2.2496   -2.9169    0.0000 C   0  0  0  0  0  0  0  0  0  0  0  0
   -2.7696   -2.5709    0.8910 H   0  0  0  0  0  0  0  0  0  0  0  0
   -2.7696   -2.5709   -0.8910 H   0  0  0  0  0  0  0  0  0  0  0  0
   -0.8406   -2.3699    0.0000 C   0  0  0  0  0  0  0  0  0  0  0  0
    0.1164   -3.1329    0.0000 O   0  0  0  0  0  0  0  0  0  0  0  0
   -0.7136   -1.0459    0.0000 N   0  0  0  0  0  0  0  0  0  0  0  0
   -1.5436   -0.4719    0.0000 H   0  0  0  0  0  0  0  0  0  0  0  0
    0.5724   -0.3469    0.0000 C   0  0  0  0  0  0  0  0  0  0  0  0
    1.2303   -0.8054   -0.7395 H   0  0  0  0  0  0  0  0  0  0  0  0
    0.4148    0.6950   -0.2819 H   0  0  0  0  0  0  0  0  0  0  0  0
    1.2627   -0.3883    1.3663 C   0  0  0  0  0  0  0  0  0  0  0  0
    2.4621   -0.6455    1.4488 O   0  0  0  0  0  0  0  0  0  0  0  0
    0.4942   -0.1331    2.4327 N   0  0  0  0  0  0  0  0  0  0  0  0
   -0.4796    0.0677    2.2668 H   0  0  0  0  0  0  0  0  0  0  0  0
    0.9613   -0.1237    3.8205 C   0  0  0  0  0  0  0  0  0  0  0  0
    2.0282   -0.3544    3.8703 H   0  0  0  0  0  0  0  0  0  0  0  0
    0.7976    0.8610    4.2604 H   0  0  0  0  0  0  0  0  0  0  0  0
    0.4168   -0.8701    4.4003 H   0  0  0  0  0  0  0  0  0  0  0  0
  5  6  2  0  0  0  0
  5  7  1  0  0  0  0
  2  3  1  0  0  0  0
  2  4  1  0  0  0  0
  2  5  1  0  0  0  0
  1  2  1  0  0  0  0
 12 13  2  0  0  0  0
 12 14  1  0  0  0  0
  9 10  1  0  0  0  0
  9 11  1  0  0  0  0
  9 12  1  0  0  0  0
  7  8  1  0  0  0  0
  7  9  1  0  0  0  0
 16 17  1  0  0  0  0
 16 18  1  0  0  0  0
 16 19  1  0  0  0  0
 14 15  1  0  0  0  0
 14 16  1  0  0  0  0
M  END
$$$$
default_name
  -OEChem-01062215323D

 19 18  0     0  0  0  0  0  0999 V2000
   -2.2056   -4.0049    0.0000 H   0  0  0  0  0  0  0  0  0  0  0  0
   -2.2496   -2.9169    0.0000 C   0  0  0  0  0  0  0  0  0  0  0  0
   -2.7696   -2.5709    0.8910 H   0  0  0  0  0  0  0  0  0  0  0  0
   -2.7696   -2.5709   -0.8910 H   0  0  0  0  0  0  0  0  0  0  0  0
   -0.8406   -2.3699    0.0000 C   0  0  0  0  0  0  0  0  0  0  0  0
    0.1164   -3.1329    0.0000 O   0  0  0  0  0  0  0  0  0  0  0  0
   -0.7136   -1.0459    0.0000 N   0  0  0  0  0  0  0  0  0  0  0  0
   -1.5436   -0.4719    0.0000 H   0  0  0  0  0  0  0  0  0  0  0  0
    0.5724   -0.3469    0.0000 C   0  0  0  0  0  0  0  0  0  0  0  0
    1.2303   -0.8054   -0.7395 H   0  0  0  0  0  0  0  0  0  0  0  0
    0.4148    0.6950   -0.2819 H   0  0  0  0  0  0  0  0  0  0  0  0
    1.2627   -0.3883    1.3663 C   0  0  0  0  0  0  0  0  0  0  0  0
    2.4896   -0.3700    1.4433 O   0  0  0  0  0  0  0  0  0  0  0  0
    0.4631   -0.4442    2.4390 N   0  0  0  0  0  0  0  0  0  0  0  0
   -0.5318   -0.4552    2.2773 H   0  0  0  0  0  0  0  0  0  0  0  0
    0.9247   -0.4906    3.8279 C   0  0  0  0  0  0  0  0  0  0  0  0
    2.0164   -0.4733    3.8727 H   0  0  0  0  0  0  0  0  0  0  0  0
    0.5406    0.3711    4.3754 H   0  0  0  0  0  0  0  0  0  0  0  0
    0.5715   -1.4052    4.3059 H   0  0  0  0  0  0  0  0  0  0  0  0
  5  6  2  0  0  0  0
  5  7  1  0  0  0  0
  2  3  1  0  0  0  0
  2  4  1  0  0  0  0
  2  5  1  0  0  0  0
  1  2  1  0  0  0  0
 12 13  2  0  0  0  0
 12 14  1  0  0  0  0
  9 10  1  0  0  0  0
  9 11  1  0  0  0  0
  9 12  1  0  0  0  0
  7  8  1  0  0  0  0
  7  9  1  0  0  0  0
 16 17  1  0  0  0  0
 16 18  1  0  0  0  0
 16 19  1  0  0  0  0
 14 15  1  0  0  0  0
 14 16  1  0  0  0  0
M  END
$$$$
default_name
  -OEChem-01062215323D

 19 18  0     0  0  0  0  0  0999 V2000
   -2.2056   -4.0049    0.0000 H   0  0  0  0  0  0  0  0  0  0  0  0
   -2.2496   -2.9169    0.0000 C   0  0  0  0  0  0  0  0  0  0  0  0
   -2.7696   -2.5709    0.8910 H   0  0  0  0  0  0  0  0  0  0  0  0
   -2.7696   -2.5709   -0.8910 H   0  0  0  0  0  0  0  0  0  0  0  0
   -0.8406   -2.3699    0.0000 C   0  0  0  0  0  0  0  0  0  0  0  0
    0.1164   -3.1329    0.0000 O   0  0  0  0  0  0  0  0  0  0  0  0
   -0.7136   -1.0459    0.0000 N   0  0  0  0  0  0  0  0  0  0  0  0
   -1.5436   -0.4719    0.0000 H   0  0  0  0  0  0  0  0  0  0  0  0
    0.5724   -0.3469    0.0000 C   0  0  0  0  0  0  0  0  0  0  0  0
    1.2303   -0.8054   -0.7395 H   0  0  0  0  0  0  0  0  0  0  0  0
    0.4148    0.6950   -0.2819 H   0  0  0  0  0  0  0  0  0  0  0  0
    1.2627   -0.3883    1.3663 C   0  0  0  0  0  0  0  0  0  0  0  0
    2.4525   -0.0969    1.4703 O   0  0  0  0  0  0  0  0  0  0  0  0
    0.5050   -0.7527    2.4085 N   0  0  0  0  0  0  0  0  0  0  0  0
   -0.4615   -0.9736    2.2261 H   0  0  0  0  0  0  0  0  0  0  0  0
    0.9740   -0.8542    3.7919 C   0  0  0  0  0  0  0  0  0  0  0  0
    2.0324   -0.5912    3.8610 H   0  0  0  0  0  0  0  0  0  0  0  0
    0.4047   -0.1747    4.4275 H   0  0  0  0  0  0  0  0  0  0  0  0
    0.8452   -1.8753    4.1533 H   0  0  0  0  0  0  0  0  0  0  0  0
  5  6  2  0  0  0  0
  5  7  1  0  0  0  0
  2  3  1  0  0  0  0
  2  4  1  0  0  0  0
  2  5  1  0  0  0  0
  1  2  1  0  0  0  0
 12 13  2  0  0  0  0
 12 14  1  0  0  0  0
  9 10  1  0  0  0  0
  9 11  1  0  0  0  0
  9 12  1  0  0  0  0
  7  8  1  0  0  0  0
  7  9  1  0  0  0  0
 16 17  1  0  0  0  0
 16 18  1  0  0  0  0
 16 19  1  0  0  0  0
 14 15  1  0  0  0  0
 14 16  1  0  0  0  0
M  END
$$$$
default_name
  -OEChem-01062215323D

 19 18  0     0  0  0  0  0  0999 V2000
   -2.2056   -4.0049    0.0000 H   0  0  0  0  0  0  0  0  0  0  0  0
   -2.2496   -2.9169    0.0000 C   0  0  0  0  0  0  0  0  0  0  0  0
   -2.7696   -2.5709    0.8910 H   0  0  0  0  0  0  0  0  0  0  0  0
   -2.7696   -2.5709   -0.8910 H   0  0  0  0  0  0  0  0  0  0  0  0
   -0.8406   -2.3699    0.0000 C   0  0  0  0  0  0  0  0  0  0  0  0
    0.1164   -3.1329    0.0000 O   0  0  0  0  0  0  0  0  0  0  0  0
   -0.7136   -1.0459    0.0000 N   0  0  0  0  0  0  0  0  0  0  0  0
   -1.5436   -0.4719    0.0000 H   0  0  0  0  0  0  0  0  0  0  0  0
    0.5724   -0.3469    0.0000 C   0  0  0  0  0  0  0  0  0  0  0  0
    1.2303   -0.8054   -0.7395 H   0  0  0  0  0  0  0  0  0  0  0  0
    0.4148    0.6950   -0.2819 H   0  0  0  0  0  0  0  0  0  0  0  0
    1.2627   -0.3883    1.3663 C   0  0  0  0  0  0  0  0  0  0  0  0
    2.3535    0.1552    1.5280 O   0  0  0  0  0  0  0  0  0  0  0  0
    0.6168   -1.0374    2.3433 N   0  0  0  0  0  0  0  0  0  0  0  0
   -0.2735   -1.4522    2.1166 H   0  0  0  0  0  0  0  0  0  0  0  0
    1.1059   -1.1899    3.7151 C   0  0  0  0  0  0  0  0  0  0  0  0
    2.0751   -0.7000    3.8361 H   0  0  0  0  0  0  0  0  0  0  0  0
    0.3990   -0.7395    4.4132 H   0  0  0  0  0  0  0  0  0  0  0  0
    1.2192   -2.2484    3.9530 H   0  0  0  0  0  0  0  0  0  0  0  0
  5  6  2  0  0  0  0
  5  7  1  0  0  0  0
  2  3  1  0  0  0  0
  2  4  1  0  0  0  0
  2  5  1  0  0  0  0
  1  2  1  0  0  0  0
 12 13  2  0  0  0  0
 12 14  1  0  0  0  0
  9 10  1  0  0  0  0
  9 11  1  0  0  0  0
  9 12  1  0  0  0  0
  7  8  1  0  0  0  0
  7  9  1  0  0  0  0
 16 17  1  0  0  0  0
 16 18  1  0  0  0  0
 16 19  1  0  0  0  0
 14 15  1  0  0  0  0
 14 16  1  0  0  0  0
M  END
$$$$
default_name
  -OEChem-01062215323D

 19 18  0     0  0  0  0  0  0999 V2000
   -2.2056   -4.0049    0.0000 H   0  0  0  0  0  0  0  0  0  0  0  0
   -2.2496   -2.9169    0.0000 C   0  0  0  0  0  0  0  0  0  0  0  0
   -2.7696   -2.5709    0.8910 H   0  0  0  0  0  0  0  0  0  0  0  0
   -2.7696   -2.5709   -0.8910 H   0  0  0  0  0  0  0  0  0  0  0  0
   -0.8406   -2.3699    0.0000 C   0  0  0  0  0  0  0  0  0  0  0  0
    0.1164   -3.1329    0.0000 O   0  0  0  0  0  0  0  0  0  0  0  0
   -0.7136   -1.0459    0.0000 N   0  0  0  0  0  0  0  0  0  0  0  0
   -1.5436   -0.4719    0.0000 H   0  0  0  0  0  0  0  0  0  0  0  0
    0.5724   -0.3469    0.0000 C   0  0  0  0  0  0  0  0  0  0  0  0
    1.2303   -0.8054   -0.7395 H   0  0  0  0  0  0  0  0  0  0  0  0
    0.4148    0.6950   -0.2819 H   0  0  0  0  0  0  0  0  0  0  0  0
    1.2627   -0.3883    1.3663 C   0  0  0  0  0  0  0  0  0  0  0  0
    2.1992    0.3692    1.6124 O   0  0  0  0  0  0  0  0  0  0  0  0
    0.7910   -1.2790    2.2480 N   0  0  0  0  0  0  0  0  0  0  0  0
    0.0193   -1.8582    1.9563 H   0  0  0  0  0  0  0  0  0  0  0  0
    1.3113   -1.4748    3.6027 C   0  0  0  0  0  0  0  0  0  0  0  0
    2.1417   -0.7923    3.7997 H   0  0  0  0  0  0  0  0  0  0  0  0
    0.5241   -1.2846    4.3335 H   0  0  0  0  0  0  0  0  0  0  0  0
    1.6680   -2.4990    3.7187 H   0  0  0  0  0  0  0  0  0  0  0  0
  5  6  2  0  0  0  0
  5  7  1  0  0  0  0
  2  3  1  0  0  0  0
  2  4  1  0  0  0  0
  2  5  1  0  0  0  0
  1  2  1  0  0  0  0
 12 13  2  0  0  0  0
 12 14  1  0  0  0  0
  9 10  1  0  0  0  0
  9 11  1  0  0  0  0
  9 12  1  0  0  0  0
  7  8  1  0  0  0  0
  7  9  1  0  0  0  0
 16 17  1  0  0  0  0
 16 18  1  0  0  0  0
 16 19  1  0  0  0  0
 14 15  1  0  0  0  0
 14 16  1  0  0  0  0
M  END
$$$$
default_name
  -OEChem-01062215323D

 19 18  0     0  0  0  0  0  0999 V2000
   -2.2056   -4.0049    0.0000 H   0  0  0  0  0  0  0  0  0  0  0  0
   -2.2496   -2.9169    0.0000 C   0  0  0  0  0  0  0  0  0  0  0  0
   -2.7696   -2.5709    0.8910 H   0  0  0  0  0  0  0  0  0  0  0  0
   -2.7696   -2.5709   -0.8910 H   0  0  0  0  0  0  0  0  0  0  0  0
   -0.8406   -2.3699    0.0000 C   0  0  0  0  0  0  0  0  0  0  0  0
    0.1164   -3.1329    0.0000 O   0  0  0  0  0  0  0  0  0  0  0  0
   -0.7136   -1.0459    0.0000 N   0  0  0  0  0  0  0  0  0  0  0  0
   -1.5436   -0.4719    0.0000 H   0  0  0  0  0  0  0  0  0  0  0  0
    0.5724   -0.3469    0.0000 C   0  0  0  0  0  0  0  0  0  0  0  0
    1.2303   -0.8054   -0.7395 H   0  0  0  0  0  0  0  0  0  0  0  0
    0.4148    0.6950   -0.2819 H   0  0  0  0  0  0  0  0  0  0  0  0
    1.2627   -0.3883    1.3663 C   0  0  0  0  0  0  0  0  0  0  0  0
    2.0002    0.5303    1.7179 O   0  0  0  0  0  0  0  0  0  0  0  0
    1.0158   -1.4610    2.1289 N   0  0  0  0  0  0  0  0  0  0  0  0
    0.3971   -2.1641    1.7562 H   0  0  0  0  0  0  0  0  0  0  0  0
    1.5763   -1.6894    3.4623 C   0  0  0  0  0  0  0  0  0  0  0  0
    2.2276   -0.8619    3.7542 H   0  0  0  0  0  0  0  0  0  0  0  0
    0.7714   -1.7730    4.1937 H   0  0  0  0  0  0  0  0  0  0  0  0
    2.1611   -2.6102    3.4662 H   0  0  0  0  0  0  0  0  0  0  0  0
  5  6  2  0  0  0  0
  5  7  1  0  0  0  0
  2  3  1  0  0  0  0
  2  4  1  0  0  0  0
  2  5  1  0  0  0  0
  1  2  1  0  0  0  0
 12 13  2  0  0  0  0
 12 14  1  0  0  0  0
  9 10  1  0  0  0  0
  9 11  1  0  0  0  0
  9 12  1  0  0  0  0
  7  8  1  0  0  0  0
  7  9  1  0  0  0  0
 16 17  1  0  0  0  0
 16 18  1  0  0  0  0
 16 19  1  0  0  0  0
 14 15  1  0  0  0  0
 14 16  1  0  0  0  0
M  END
$$$$
default_name
  -OEChem-01062215323D

 19 18  0     0  0  0  0  0  0999 V2000
   -2.2056   -4.0049    0.0000 H   0  0  0  0  0  0  0  0  0  0  0  0
   -2.2496   -2.9169    0.0000 C   0  0  0  0  0  0  0  0  0  0  0  0
   -2.7696   -2.5709    0.8910 H   0  0  0  0  0  0  0  0  0  0  0  0
   -2.7696   -2.5709   -0.8910 H   0  0  0  0  0  0  0  0  0  0  0  0
   -0.8406   -2.3699    0.0000 C   0  0  0  0  0  0  0  0  0  0  0  0
    0.1164   -3.1329    0.0000 O   0  0  0  0  0  0  0  0  0  0  0  0
   -0.7136   -1.0459    0.0000 N   0  0  0  0  0  0  0  0  0  0  0  0
   -1.5436   -0.4719    0.0000 H   0  0  0  0  0  0  0  0  0  0  0  0
    0.5724   -0.3469    0.0000 C   0  0  0  0  0  0  0  0  0  0  0  0
    1.2303   -0.8054   -0.7395 H   0  0  0  0  0  0  0  0  0  0  0  0
    0.4148    0.6950   -0.2819 H   0  0  0  0  0  0  0  0  0  0  0  0
    1.2627   -0.3883    1.3663 C   0  0  0  0  0  0  0  0  0  0  0  0
    1.7700    0.6277    1.8371 O   0  0  0  0  0  0  0  0  0  0  0  0
    1.2757   -1.5710    1.9942 N   0  0  0  0  0  0  0  0  0  0  0  0
    0.8340   -2.3490    1.5298 H   0  0  0  0  0  0  0  0  0  0  0  0
    1.8828   -1.8190    3.3035 C   0  0  0  0  0  0  0  0  0  0  0  0
    2.3269   -0.9039    3.7027 H   0  0  0  0  0  0  0  0  0  0  0  0
    1.1240   -2.1713    4.0035 H   0  0  0  0  0  0  0  0  0  0  0  0
    2.6647   -2.5742    3.2128 H   0  0  0  0  0  0  0  0  0  0  0  0
  5  6  2  0  0  0  0
  5  7  1  0  0  0  0
  2  3  1  0  0  0  0
  2  4  1  0  0  0  0
  2  5  1  0  0  0  0
  1  2  1  0  0  0  0
 12 13  2  0  0  0  0
 12 14  1  0  0  0  0
  9 10  1  0  0  0  0
  9 11  1  0  0  0  0
  9 12  1  0  0  0  0
  7  8  1  0  0  0  0
  7  9  1  0  0  0  0
 16 17  1  0  0  0  0
 16 18  1  0  0  0  0
 16 19  1  0  0  0  0
 14 15  1  0  0  0  0
 14 16  1  0  0  0  0
M  END
$$$$
default_name
  -OEChem-01062215323D

 19 18  0     0  0  0  0  0  0999 V2000
   -2.2056   -4.0049    0.0000 H   0  0  0  0  0  0  0  0  0  0  0  0
   -2.2496   -2.9169    0.0000 C   0  0  0  0  0  0  0  0  0  0  0  0
   -2.7696   -2.5709    0.8910 H   0  0  0  0  0  0  0  0  0  0  0  0
   -2.7696   -2.5709   -0.8910 H   0  0  0  0  0  0  0  0  0  0  0  0
   -0.8406   -2.3699    0.0000 C   0  0  0  0  0  0  0  0  0  0  0  0
    0.1164   -3.1329    0.0000 O   0  0  0  0  0  0  0  0  0  0  0  0
   -0.7136   -1.0459    0.0000 N   0  0  0  0  0  0  0  0  0  0  0  0
   -1.5436   -0.4719    0.0000 H   0  0  0  0  0  0  0  0  0  0  0  0
    0.5724   -0.3469    0.0000 C   0  0  0  0  0  0  0  0  0  0  0  0
    1.2303   -0.8054   -0.7395 H   0  0  0  0  0  0  0  0  0  0  0  0
    0.4148    0.6950   -0.2819 H   0  0  0  0  0  0  0  0  0  0  0  0
    1.2627   -0.3883    1.3663 C   0  0  0  0  0  0  0  0  0  0  0  0
    1.5243    0.6548    1.9621 O   0  0  0  0  0  0  0  0  0  0  0  0
    1.5532   -1.6015    1.8531 N   0  0  0  0  0  0  0  0  0  0  0  0
    1.3003   -2.4003    1.2926 H   0  0  0  0  0  0  0  0  0  0  0  0
    2.2099   -1.8550    3.1371 C   0  0  0  0  0  0  0  0  0  0  0  0
    2.4330   -0.9156    3.6488 H   0  0  0  0  0  0  0  0  0  0  0  0
    1.5579   -2.4525    3.7757 H   0  0  0  0  0  0  0  0  0  0  0  0
    3.1447   -2.3935    2.9758 H   0  0  0  0  0  0  0  0  0  0  0  0
  5  6  2  0  0  0  0
  5  7  1  0  0  0  0
  2  3  1  0  0  0  0
  2  4  1  0  0  0  0
  2  5  1  0  0  0  0
  1  2  1  0  0  0  0
 12 13  2  0  0  0  0
 12 14  1  0  0  0  0
  9 10  1  0  0  0  0
  9 11  1  0  0  0  0
  9 12  1  0  0  0  0
  7  8  1  0  0  0  0
  7  9  1  0  0  0  0
 16 17  1  0  0  0  0
 16 18  1  0  0  0  0
 16 19  1  0  0  0  0
 14 15  1  0  0  0  0
 14 16  1  0  0  0  0
M  END
$$$$
default_name
  -OEChem-01062215323D

 19 18  0     0  0  0  0  0  0999 V2000
   -2.2056   -4.0049    0.0000 H   0  0  0  0  0  0  0  0  0  0  0  0
   -2.2496   -2.9169    0.0000 C   0  0  0  0  0  0  0  0  0  0  0  0
   -2.7696   -2.5709    0.8910 H   0  0  0  0  0  0  0  0  0  0  0  0
   -2.7696   -2.5709   -0.8910 H   0  0  0  0  0  0  0  0  0  0  0  0
   -0.8406   -2.3699    0.0000 C   0  0  0  0  0  0  0  0  0  0  0  0
    0.1164   -3.1329    0.0000 O   0  0  0  0  0  0  0  0  0  0  0  0
   -0.7136   -1.0459    0.0000 N   0  0  0  0  0  0  0  0  0  0  0  0
   -1.5436   -0.4719    0.0000 H   0  0  0  0  0  0  0  0  0  0  0  0
    0.5724   -0.3469    0.0000 C   0  0  0  0  0  0  0  0  0  0  0  0
    1.2303   -0.8054   -0.7395 H   0  0  0  0  0  0  0  0  0  0  0  0
    0.4148    0.6950   -0.2819 H   0  0  0  0  0  0  0  0  0  0  0  0
    1.2627   -0.3883    1.3663 C   0  0  0  0  0  0  0  0  0  0  0  0
    1.2799    0.6095    2.0842 O   0  0  0  0  0  0  0  0  0  0  0  0
    1.8292   -1.5504    1.7152 N   0  0  0  0  0  0  0  0  0  0  0  0
    1.7642   -2.3144    1.0608 H   0  0  0  0  0  0  0  0  0  0  0  0
    2.5353   -1.7948    2.9745 C   0  0  0  0  0  0  0  0  0  0  0  0
    2.5385   -0.8961    3.5961 H   0  0  0  0  0  0  0  0  0  0  0  0
    2.0435   -2.5972    3.5260 H   0  0  0  0  0  0  0  0  0  0  0  0
    3.5682   -2.0806    2.7713 H   0  0  0  0  0  0  0  0  0  0  0  0
  5  6  2  0  0  0  0
  5  7  1  0  0  0  0
  2  3  1  0  0  0  0
  2  4  1  0  0  0  0
  2  5  1  0  0  0  0
  1  2  1  0  0  0  0
 12 13  2  0  0  0  0
 12 14  1  0  0  0  0
  9 10  1  0  0  0  0
  9 11  1  0  0  0  0
  9 12  1  0  0  0  0
  7  8  1  0  0  0  0
  7  9  1  0  0  0  0
 16 17  1  0  0  0  0
 16 18  1  0  0  0  0
 16 19  1  0  0  0  0
 14 15  1  0  0  0  0
 14 16  1  0  0  0  0
M  END
$$$$
default_name
  -OEChem-01062215323D

 19 18  0     0  0  0  0  0  0999 V2000
   -2.2056   -4.0049    0.0000 H   0  0  0  0  0  0  0  0  0  0  0  0
   -2.2496   -2.9169    0.0000 C   0  0  0  0  0  0  0  0  0  0  0  0
   -2.7696   -2.5709    0.8910 H   0  0  0  0  0  0  0  0  0  0  0  0
   -2.7696   -2.5709   -0.8910 H   0  0  0  0  0  0  0  0  0  0  0  0
   -0.8406   -2.3699    0.0000 C   0  0  0  0  0  0  0  0  0  0  0  0
    0.1164   -3.1329    0.0000 O   0  0  0  0  0  0  0  0  0  0  0  0
   -0.7136   -1.0459    0.0000 N   0  0  0  0  0  0  0  0  0  0  0  0
   -1.5436   -0.4719    0.0000 H   0  0  0  0  0  0  0  0  0  0  0  0
    0.5724   -0.3469    0.0000 C   0  0  0  0  0  0  0  0  0  0  0  0
    1.2303   -0.8054   -0.7395 H   0  0  0  0  0  0  0  0  0  0  0  0
    0.4148    0.6950   -0.2819 H   0  0  0  0  0  0  0  0  0  0  0  0
    1.2627   -0.3883    1.3663 C   0  0  0  0  0  0  0  0  0  0  0  0
    1.0534    0.4952    2.1952 O   0  0  0  0  0  0  0  0  0  0  0  0
    2.0850   -1.4213    1.5899 N   0  0  0  0  0  0  0  0  0  0  0  0
    2.1941   -2.0974    0.8502 H   0  0  0  0  0  0  0  0  0  0  0  0
    2.8369   -1.6425    2.8267 C   0  0  0  0  0  0  0  0  0  0  0  0
    2.6362   -0.8467    3.5482 H   0  0  0  0  0  0  0  0  0  0  0  0
    2.5478   -2.5958    3.2712 H   0  0  0  0  0  0  0  0  0  0  0  0
    3.9065   -1.6566    2.6132 H   0  0  0  0  0  0  0  0  0  0  0  0
  5  6  2  0  0  0  0
  5  7  1  0  0  0  0
  2  3  1  0  0  0  0
  2  4  1  0  0  0  0
  2  5  1  0  0  0  0
  1  2  1  0  0  0  0
 12 13  2  0  0  0  0
 12 14  1  0  0  0  0
  9 10  1  0  0  0  0
  9 11  1  0  0  0  0
  9 12  1  0  0  0  0
  7  8  1  0  0  0  0
  7  9  1  0  0  0  0
 16 17  1  0  0  0  0
 16 18  1  0  0  0  0
 16 19  1  0  0  0  0
 14 15  1  0  0  0  0
 14 16  1  0  0  0  0
M  END
$$$$
default_name
  -OEChem-01062215323D

 19 18  0     0  0  0  0  0  0999 V2000
   -2.2056   -4.0049    0.0000 H   0  0  0  0  0  0  0  0  0  0  0  0
   -2.2496   -2.9169    0.0000 C   0  0  0  0  0  0  0  0  0  0  0  0
   -2.7696   -2.5709    0.8910 H   0  0  0  0  0  0  0  0  0  0  0  0
   -2.7696   -2.5709   -0.8910 H   0  0  0  0  0  0  0  0  0  0  0  0
   -0.8406   -2.3699    0.0000 C   0  0  0  0  0  0  0  0  0  0  0  0
    0.1164   -3.1329    0.0000 O   0  0  0  0  0  0  0  0  0  0  0  0
   -0.7136   -1.0459    0.0000 N   0  0  0  0  0  0  0  0  0  0  0  0
   -1.5436   -0.4719    0.0000 H   0  0  0  0  0  0  0  0  0  0  0  0
    0.5724   -0.3469    0.0000 C   0  0  0  0  0  0  0  0  0  0  0  0
    1.2303   -0.8054   -0.7395 H   0  0  0  0  0  0  0  0  0  0  0  0
    0.4148    0.6950   -0.2819 H   0  0  0  0  0  0  0  0  0  0  0  0
    1.2627   -0.3883    1.3663 C   0  0  0  0  0  0  0  0  0  0  0  0
    0.8602    0.3195    2.2874 O   0  0  0  0  0  0  0  0  0  0  0  0
    2.3031   -1.2228    1.4857 N   0  0  0  0  0  0  0  0  0  0  0  0
    2.5607   -1.7638    0.6751 H   0  0  0  0  0  0  0  0  0  0  0  0
    3.0941   -1.4086    2.7039 C   0  0  0  0  0  0  0  0  0  0  0  0
    2.7196   -0.7709    3.5084 H   0  0  0  0  0  0  0  0  0  0  0  0
    3.0363   -2.4482    3.0289 H   0  0  0  0  0  0  0  0  0  0  0  0
    4.1365   -1.1505    2.5124 H   0  0  0  0  0  0  0  0  0  0  0  0
  5  6  2  0  0  0  0
  5  7  1  0  0  0  0
  2  3  1  0  0  0  0
  2  4  1  0  0  0  0
  2  5  1  0  0  0  0
  1  2  1  0  0  0  0
 12 13  2  0  0  0  0
 12 14  1  0  0  0  0
  9 10  1  0  0  0  0
  9 11  1  0  0  0  0
  9 12  1  0  0  0  0
  7  8  1  0  0  0  0
  7  9  1  0  0  0  0
 16 17  1  0  0  0  0
 16 18  1  0  0  0  0
 16 19  1  0  0  0  0
 14 15  1  0  0  0  0
 14 16  1  0  0  0  0
M  END
$$$$
default_name
  -OEChem-01062215323D

 19 18  0     0  0  0  0  0  0999 V2000
   -2.2056   -4.0049    0.0000 H   0  0  0  0  0  0  0  0  0  0  0  0
   -2.2496   -2.9169    0.0000 C   0  0  0  0  0  0  0  0  0  0  0  0
   -2.7696   -2.5709    0.8910 H   0  0  0  0  0  0  0  0  0  0  0  0
   -2.7696   -2.5709   -0.8910 H   0  0  0  0  0  0  0  0  0  0  0  0
   -0.8406   -2.3699    0.0000 C   0  0  0  0  0  0  0  0  0  0  0  0
    0.1164   -3.1329    0.0000 O   0  0  0  0  0  0  0  0  0  0  0  0
   -0.7136   -1.0459    0.0000 N   0  0  0  0  0  0  0  0  0  0  0  0
   -1.5436   -0.4719    0.0000 H   0  0  0  0  0  0  0  0  0  0  0  0
    0.5724   -0.3469    0.0000 C   0  0  0  0  0  0  0  0  0  0  0  0
    1.2303   -0.8054   -0.7395 H   0  0  0  0  0  0  0  0  0  0  0  0
    0.4148    0.6950   -0.2819 H   0  0  0  0  0  0  0  0  0  0  0  0
    1.2627   -0.3883    1.3663 C   0  0  0  0  0  0  0  0  0  0  0  0
    0.7136    0.0944    2.3547 O   0  0  0  0  0  0  0  0  0  0  0  0
    2.4687   -0.9686    1.4097 N   0  0  0  0  0  0  0  0  0  0  0  0
    2.8391   -1.3366    0.5474 H   0  0  0  0  0  0  0  0  0  0  0  0
    3.2894   -1.1088    2.6143 C   0  0  0  0  0  0  0  0  0  0  0  0
    2.7829   -0.6737    3.4793 H   0  0  0  0  0  0  0  0  0  0  0  0
    3.4759   -2.1646    2.8154 H   0  0  0  0  0  0  0  0  0  0  0  0
    4.2425   -0.5968    2.4756 H   0  0  0  0  0  0  0  0  0  0  0  0
  5  6  2  0  0  0  0
  5  7  1  0  0  0  0
  2  3  1  0  0  0  0
  2  4  1  0  0  0  0
  2  5  1  0  0  0  0
  1  2  1  0  0  0  0
 12 13  2  0  0  0  0
 12 14  1  0  0  0  0
  9 10  1  0  0  0  0
  9 11  1  0  0  0  0
  9 12  1  0  0  0  0
  7  8  1  0  0  0  0
  7  9  1  0  0  0  0
 16 17  1  0  0  0  0
 16 18  1  0  0  0  0
 16 19  1  0  0  0  0
 14 15  1  0  0  0  0
 14 16  1  0  0  0  0
M  END
$$$$
default_name
  -OEChem-01062215323D

 19 18  0     0  0  0  0  0  0999 V2000
   -2.2056   -4.0049    0.0000 H   0  0  0  0  0  0  0  0  0  0  0  0
   -2.2496   -2.9169    0.0000 C   0  0  0  0  0  0  0  0  0  0  0  0
   -2.7696   -2.5709    0.8910 H   0  0  0  0  0  0  0  0  0  0  0  0
   -2.7696   -2.5709   -0.8910 H   0  0  0  0  0  0  0  0  0  0  0  0
   -0.8406   -2.3699    0.0000 C   0  0  0  0  0  0  0  0  0  0  0  0
    0.1164   -3.1329    0.0000 O   0  0  0  0  0  0  0  0  0  0  0  0
   -0.7136   -1.0459    0.0000 N   0  0  0  0  0  0  0  0  0  0  0  0
   -1.5436   -0.4719    0.0000 H   0  0  0  0  0  0  0  0  0  0  0  0
    0.5724   -0.3469    0.0000 C   0  0  0  0  0  0  0  0  0  0  0  0
    1.2303   -0.8054   -0.7395 H   0  0  0  0  0  0  0  0  0  0  0  0
    0.4148    0.6950   -0.2819 H   0  0  0  0  0  0  0  0  0  0  0  0
    1.2627   -0.3883    1.3663 C   0  0  0  0  0  0  0  0  0  0  0  0
    0.6235   -0.1648    2.3924 O   0  0  0  0  0  0  0  0  0  0  0  0
    2.5705   -0.6760    1.3672 N   0  0  0  0  0  0  0  0  0  0  0  0
    3.0101   -0.8447    0.4759 H   0  0  0  0  0  0  0  0  0  0  0  0
    3.4094   -0.7638    2.5642 C   0  0  0  0  0  0  0  0  0  0  0  0
    2.8218   -0.5619    3.4631 H   0  0  0  0  0  0  0  0  0  0  0  0
    3.8364   -1.7643    2.6454 H   0  0  0  0  0  0  0  0  0  0  0  0
    4.2172   -0.0332    2.5055 H   0  0  0  0  0  0  0  0  0  0  0  0
  5  6  2  0  0  0  0
  5  7  1  0  0  0  0
  2  3  1  0  0  0  0
  2  4  1  0  0  0  0
  2  5  1  0  0  0  0
  1  2  1  0  0  0  0
 12 13  2  0  0  0  0
 12 14  1  0  0  0  0
  9 10  1  0  0  0  0
  9 11  1  0  0  0  0
  9 12  1  0  0  0  0
  7  8  1  0  0  0  0
  7  9  1  0  0  0  0
 16 17  1  0  0  0  0
 16 18  1  0  0  0  0
 16 19  1  0  0  0  0
 14 15  1  0  0  0  0
 14 16  1  0  0  0  0
M  END
$$$$
default_name
  -OEChem-01062215323D

 19 18  0     0  0  0  0  0  0999 V2000
   -2.2056   -4.0049    0.0000 H   0  0  0  0  0  0  0  0  0  0  0  0
   -2.2496   -2.9169    0.0000 C   0  0  0  0  0  0  0  0  0  0  0  0
   -2.7696   -2.5709    0.8910 H   0  0  0  0  0  0  0  0  0  0  0  0
   -2.7696   -2.5709   -0.8910 H   0  0  0  0  0  0  0  0  0  0  0  0
   -0.8406   -2.3699    0.0000 C   0  0  0  0  0  0  0  0  0  0  0  0
    0.1164   -3.1329    0.0000 O   0  0  0  0  0  0  0  0  0  0  0  0
   -0.7136   -1.0459    0.0000 N   0  0  0  0  0  0  0  0  0  0  0  0
   -1.5436   -0.4719    0.0000 H   0  0  0  0  0  0  0  0  0  0  0  0
    0.5724   -0.3469    0.0000 C   0  0  0  0  0  0  0  0  0  0  0  0
    1.2303   -0.8054   -0.7395 H   0  0  0  0  0  0  0  0  0  0  0  0
    0.4148    0.6950   -0.2819 H   0  0  0  0  0  0  0  0  0  0  0  0
    1.2627   -0.3883    1.3663 C   0  0  0  0  0  0  0  0  0  0  0  0
    0.5960   -0.4403    2.3979 O   0  0  0  0  0  0  0  0  0  0  0  0
    2.6015   -0.3648    1.3609 N   0  0  0  0  0  0  0  0  0  0  0  0
    3.0623   -0.3218    0.4654 H   0  0  0  0  0  0  0  0  0  0  0  0
    3.4460   -0.3969    2.5568 C   0  0  0  0  0  0  0  0  0  0  0  0
    2.8337   -0.4430    3.4607 H   0  0  0  0  0  0  0  0  0  0  0  0
    4.0934   -1.2745    2.5304 H   0  0  0  0  0  0  0  0  0  0  0  0
    4.0625    0.5019    2.5999 H   0  0  0  0  0  0  0  0  0  0  0  0
  5  6  2  0  0  0  0
  5  7  1  0  0  0  0
  2  3  1  0  0  0  0
  2  4  1  0  0  0  0
  2  5  1  0  0  0  0
  1  2  1  0  0  0  0
 12 13  2  0  0  0  0
 12 14  1  0  0  0  0
  9 10  1  0  0  0  0
  9 11  1  0  0  0  0
  9 12  1  0  0  0  0
  7  8  1  0  0  0  0
  7  9  1  0  0  0  0
 16 17  1  0  0  0  0
 16 18  1  0  0  0  0
 16 19  1  0  0  0  0
 14 15  1  0  0  0  0
 14 16  1  0  0  0  0
M  END
$$$$
default_name
  -OEChem-01062215323D

 19 18  0     0  0  0  0  0  0999 V2000
   -2.2056   -4.0049    0.0000 H   0  0  0  0  0  0  0  0  0  0  0  0
   -2.2496   -2.9169    0.0000 C   0  0  0  0  0  0  0  0  0  0  0  0
   -2.7696   -2.5709    0.8910 H   0  0  0  0  0  0  0  0  0  0  0  0
   -2.7696   -2.5709   -0.8910 H   0  0  0  0  0  0  0  0  0  0  0  0
   -0.8406   -2.3699    0.0000 C   0  0  0  0  0  0  0  0  0  0  0  0
    0.1164   -3.1329    0.0000 O   0  0  0  0  0  0  0  0  0  0  0  0
   -0.7136   -1.0459    0.0000 N   0  0  0  0  0  0  0  0  0  0  0  0
   -1.5436   -0.4719    0.0000 H   0  0  0  0  0  0  0  0  0  0  0  0
    0.5724   -0.3469    0.0000 C   0  0  0  0  0  0  0  0  0  0  0  0
    1.2303   -0.8054   -0.7395 H   0  0  0  0  0  0  0  0  0  0  0  0
    0.4148    0.6950   -0.2819 H   0  0  0  0  0  0  0  0  0  0  0  0
    1.2627   -0.3883    1.3663 C   0  0  0  0  0  0  0  0  0  0  0  0
    0.6330   -0.7135    2.3709 O   0  0  0  0  0  0  0  0  0  0  0  0
    2.5597   -0.0564    1.3914 N   0  0  0  0  0  0  0  0  0  0  0  0
    2.9920    0.1966    0.5166 H   0  0  0  0  0  0  0  0  0  0  0  0
    3.3967   -0.0333    2.5927 C   0  0  0  0  0  0  0  0  0  0  0  0
    2.8177   -0.3251    3.4723 H   0  0  0  0  0  0  0  0  0  0  0  0
    4.2293   -0.7286    2.4783 H   0  0  0  0  0  0  0  0  0  0  0  0
    3.7888    0.9720    2.7524 H   0  0  0  0  0  0  0  0  0  0  0  0
  5  6  2  0  0  0  0
  5  7  1  0  0  0  0
  2  3  1  0  0  0  0
  2  4  1  0  0  0  0
  2  5  1  0  0  0  0
  1  2  1  0  0  0  0
 12 13  2  0  0  0  0
 12 14  1  0  0  0  0
  9 10  1  0  0  0  0
  9 11  1  0  0  0  0
  9 12  1  0  0  0  0
  7  8  1  0  0  0  0
  7  9  1  0  0  0  0
 16 17  1  0  0  0  0
 16 18  1  0  0  0  0
 16 19  1  0  0  0  0
 14 15  1  0  0  0  0
 14 16  1  0  0  0  0
M  END
$$$$
default_name
  -OEChem-01062215323D

 19 18  0     0  0  0  0  0  0999 V2000
   -2.2056   -4.0049    0.0000 H   0  0  0  0  0  0  0  0  0  0  0  0
   -2.2496   -2.9169    0.0000 C   0  0  0  0  0  0  0  0  0  0  0  0
   -2.7696   -2.5709    0.8910 H   0  0  0  0  0  0  0  0  0  0  0  0
   -2.7696   -2.5709   -0.8910 H   0  0  0  0  0  0  0  0  0  0  0  0
   -0.8406   -2.3699    0.0000 C   0  0  0  0  0  0  0  0  0  0  0  0
    0.1164   -3.1329    0.0000 O   0  0  0  0  0  0  0  0  0  0  0  0
   -0.7136   -1.0459    0.0000 N   0  0  0  0  0  0  0  0  0  0  0  0
   -1.5436   -0.4719    0.0000 H   0  0  0  0  0  0  0  0  0  0  0  0
    0.5724   -0.3469    0.0000 C   0  0  0  0  0  0  0  0  0  0  0  0
    1.1273   -0.6158   -0.8999 H   0  0  0  0  0  0  0  0  0  0  0  0
    0.3961    0.7295   -0.0159 H   0  0  0  0  0  0  0  0  0  0  0  0
    1.4256   -0.6881    1.2250 C   0  0  0  0  0  0  0  0  0  0  0  0
    1.0079   -1.4730    2.0740 O   0  0  0  0  0  0  0  0  0  0  0  0
    2.6216   -0.0912    1.3059 N   0  0  0  0  0  0  0  0  0  0  0  0
    2.8787    0.5378    0.5614 H   0  0  0  0  0  0  0  0  0  0  0  0
    3.5831   -0.2832    2.3935 C   0  0  0  0  0  0  0  0  0  0  0  0
    3.1919   -0.9835    3.1355 H   0  0  0  0  0  0  0  0  0  0  0  0
    4.5172   -0.6831    1.9966 H   0  0  0  0  0  0  0  0  0  0  0  0
    3.7818    0.6698    2.8856 H   0  0  0  0  0  0  0  0  0  0  0  0
  5  6  2  0  0  0  0
  5  7  1  0  0  0  0
  2  3  1  0  0  0  0
  2  4  1  0  0  0  0
  2  5  1  0  0  0  0
  1  2  1  0  0  0  0
 12 13  2  0  0  0  0
 12 14  1  0  0  0  0
  9 10  1  0  0  0  0
  9 11  1  0  0  0  0
  9 12  1  0  0  0  0
  7  8  1  0  0  0  0
  7  9  1  0  0  0  0
 16 17  1  0  0  0  0
 16 18  1  0  0  0  0
 16 19  1  0  0  0  0
 14 15  1  0  0  0  0
 14 16  1  0  0  0  0
M  END
$$$$
default_name
  -OEChem-01062215323D

 19 18  0     0  0  0  0  0  0999 V2000
   -2.2056   -4.0049    0.0000 H   0  0  0  0  0  0  0  0  0  0  0  0
   -2.2496   -2.9169    0.0000 C   0  0  0  0  0  0  0  0  0  0  0  0
   -2.7696   -2.5709    0.8910 H   0  0  0  0  0  0  0  0  0  0  0  0
   -2.7696   -2.5709   -0.8910 H   0  0  0  0  0  0  0  0  0  0  0  0
   -0.8406   -2.3699    0.0000 C   0  0  0  0  0  0  0  0  0  0  0  0
    0.1164   -3.1329    0.0000 O   0  0  0  0  0  0  0  0  0  0  0  0
   -0.7136   -1.0459    0.0000 N   0  0  0  0  0  0  0  0  0  0  0  0
   -1.5436   -0.4719    0.0000 H   0  0  0  0  0  0  0  0  0  0  0  0
    0.5724   -0.3469    0.0000 C   0  0  0  0  0  0  0  0  0  0  0  0
    1.1273   -0.6158   -0.8999 H   0  0  0  0  0  0  0  0  0  0  0  0
    0.3961    0.7295   -0.0159 H   0  0  0  0  0  0  0  0  0  0  0  0
    1.4256   -0.6881    1.2250 C   0  0  0  0  0  0  0  0  0  0  0  0
    1.1475   -1.6599    1.9247 O   0  0  0  0  0  0  0  0  0  0  0  0
    2.4639    0.1198    1.4745 N   0  0  0  0  0  0  0  0  0  0  0  0
    2.6138    0.8925    0.8447 H   0  0  0  0  0  0  0  0  0  0  0  0
    3.3973   -0.0344    2.5922 C   0  0  0  0  0  0  0  0  0  0  0  0
    3.1317   -0.9028    3.2000 H   0  0  0  0  0  0  0  0  0  0  0  0
    4.4107   -0.1722    2.2130 H   0  0  0  0  0  0  0  0  0  0  0  0
    3.3691    0.8541    3.2244 H   0  0  0  0  0  0  0  0  0  0  0  0
  5  6  2  0  0  0  0
  5  7  1  0  0  0  0
  2  3  1  0  0  0  0
  2  4  1  0  0  0  0
  2  5  1  0  0  0  0
  1  2  1  0  0  0  0
 12 13  2  0  0  0  0
 12 14  1  0  0  0  0
  9 10  1  0  0  0  0
  9 11  1  0  0  0  0
  9 12  1  0  0  0  0
  7  8  1  0  0  0  0
  7  9  1  0  0  0  0
 16 17  1  0  0  0  0
 16 18  1  0  0  0  0
 16 19  1  0  0  0  0
 14 15  1  0  0  0  0
 14 16  1  0  0  0  0
M  END
$$$$
default_name
  -OEChem-01062215323D

 19 18  0     0  0  0  0  0  0999 V2000
   -2.2056   -4.0049    0.0000 H   0  0  0  0  0  0  0  0  0  0  0  0
   -2.2496   -2.9169    0.0000 C   0  0  0  0  0  0  0  0  0  0  0  0
   -2.7696   -2.5709    0.8910 H   0  0  0  0  0  0  0  0  0  0  0  0
   -2.7696   -2.5709   -0.8910 H   0  0  0  0  0  0  0  0  0  0  0  0
   -0.8406   -2.3699    0.0000 C   0  0  0  0  0  0  0  0  0  0  0  0
    0.1164   -3.1329    0.0000 O   0  0  0  0  0  0  0  0  0  0  0  0
   -0.7136   -1.0459    0.0000 N   0  0  0  0  0  0  0  0  0  0  0  0
   -1.5436   -0.4719    0.0000 H   0  0  0  0  0  0  0  0  0  0  0  0
    0.5724   -0.3469    0.0000 C   0  0  0  0  0  0  0  0  0  0  0  0
    1.1273   -0.6158   -0.8999 H   0  0  0  0  0  0  0  0  0  0  0  0
    0.3961    0.7295   -0.0159 H   0  0  0  0  0  0  0  0  0  0  0  0
    1.4256   -0.6881    1.2250 C   0  0  0  0  0  0  0  0  0  0  0  0
    1.3296   -1.7900    1.7616 O   0  0  0  0  0  0  0  0  0  0  0  0
    2.2582    0.2668    1.6587 N   0  0  0  0  0  0  0  0  0  0  0  0
    2.2681    1.1395    1.1543 H   0  0  0  0  0  0  0  0  0  0  0  0
    3.1548    0.1389    2.8094 C   0  0  0  0  0  0  0  0  0  0  0  0
    3.0531   -0.8467    3.2704 H   0  0  0  0  0  0  0  0  0  0  0  0
    4.1896    0.2680    2.4896 H   0  0  0  0  0  0  0  0  0  0  0  0
    2.9126    0.8978    3.5545 H   0  0  0  0  0  0  0  0  0  0  0  0
  5  6  2  0  0  0  0
  5  7  1  0  0  0  0
  2  3  1  0  0  0  0
  2  4  1  0  0  0  0
  2  5  1  0  0  0  0
  1  2  1  0  0  0  0
 12 13  2  0  0  0  0
 12 14  1  0  0  0  0
  9 10  1  0  0  0  0
  9 11  1  0  0  0  0
  9 12  1  0  0  0  0
  7  8  1  0  0  0  0
  7  9  1  0  0  0  0
 16 17  1  0  0  0  0
 16 18  1  0  0  0  0
 16 19  1  0  0  0  0
 14 15  1  0  0  0  0
 14 16  1  0  0  0  0
M  END
$$$$
default_name
  -OEChem-01062215323D

 19 18  0     0  0  0  0  0  0999 V2000
   -2.2056   -4.0049    0.0000 H   0  0  0  0  0  0  0  0  0  0  0  0
   -2.2496   -2.9169    0.0000 C   0  0  0  0  0  0  0  0  0  0  0  0
   -2.7696   -2.5709    0.8910 H   0  0  0  0  0  0  0  0  0  0  0  0
   -2.7696   -2.5709   -0.8910 H   0  0  0  0  0  0  0  0  0  0  0  0
   -0.8406   -2.3699    0.0000 C   0  0  0  0  0  0  0  0  0  0  0  0
    0.1164   -3.1329    0.0000 O   0  0  0  0  0  0  0  0  0  0  0  0
   -0.7136   -1.0459    0.0000 N   0  0  0  0  0  0  0  0  0  0  0  0
   -1.5436   -0.4719    0.0000 H   0  0  0  0  0  0  0  0  0  0  0  0
    0.5724   -0.3469    0.0000 C   0  0  0  0  0  0  0  0  0  0  0  0
    1.1273   -0.6158   -0.8999 H   0  0  0  0  0  0  0  0  0  0  0  0
    0.3961    0.7295   -0.0159 H   0  0  0  0  0  0  0  0  0  0  0  0
    1.4256   -0.6881    1.2250 C   0  0  0  0  0  0  0  0  0  0  0  0
    1.5419   -1.8545    1.5958 O   0  0  0  0  0  0  0  0  0  0  0  0
    2.0185    0.3395    1.8459 N   0  0  0  0  0  0  0  0  0  0  0  0
    1.8652    1.2618    1.4690 H   0  0  0  0  0  0  0  0  0  0  0  0
    2.8721    0.2246    3.0302 C   0  0  0  0  0  0  0  0  0  0  0  0
    2.9615   -0.8189    3.3419 H   0  0  0  0  0  0  0  0  0  0  0  0
    3.8690    0.6076    2.8075 H   0  0  0  0  0  0  0  0  0  0  0  0
    2.4437    0.7980    3.8533 H   0  0  0  0  0  0  0  0  0  0  0  0
  5  6  2  0  0  0  0
  5  7  1  0  0  0  0
  2  3  1  0  0  0  0
  2  4  1  0  0  0  0
  2  5  1  0  0  0  0
  1  2  1  0  0  0  0
 12 13  2  0  0  0  0
 12 14  1  0  0  0  0
  9 10  1  0  0  0  0
  9 11  1  0  0  0  0
  9 12  1  0  0  0  0
  7  8  1  0  0  0  0
  7  9  1  0  0  0  0
 16 17  1  0  0  0  0
 16 18  1  0  0  0  0
 16 19  1  0  0  0  0
 14 15  1  0  0  0  0
 14 16  1  0  0  0  0
M  END
$$$$
default_name
  -OEChem-01062215323D

 19 18  0     0  0  0  0  0  0999 V2000
   -2.2056   -4.0049    0.0000 H   0  0  0  0  0  0  0  0  0  0  0  0
   -2.2496   -2.9169    0.0000 C   0  0  0  0  0  0  0  0  0  0  0  0
   -2.7696   -2.5709    0.8910 H   0  0  0  0  0  0  0  0  0  0  0  0
   -2.7696   -2.5709   -0.8910 H   0  0  0  0  0  0  0  0  0  0  0  0
   -0.8406   -2.3699    0.0000 C   0  0  0  0  0  0  0  0  0  0  0  0
    0.1164   -3.1329    0.0000 O   0  0  0  0  0  0  0  0  0  0  0  0
   -0.7136   -1.0459    0.0000 N   0  0  0  0  0  0  0  0  0  0  0  0
   -1.5436   -0.4719    0.0000 H   0  0  0  0  0  0  0  0  0  0  0  0
    0.5724   -0.3469    0.0000 C   0  0  0  0  0  0  0  0  0  0  0  0
    1.1273   -0.6158   -0.8999 H   0  0  0  0  0  0  0  0  0  0  0  0
    0.3961    0.7295   -0.0159 H   0  0  0  0  0  0  0  0  0  0  0  0
    1.4256   -0.6881    1.2250 C   0  0  0  0  0  0  0  0  0  0  0  0
    1.7698   -1.8489    1.4386 O   0  0  0  0  0  0  0  0  0  0  0  0
    1.7611    0.3332    2.0235 N   0  0  0  0  0  0  0  0  0  0  0  0
    1.4325    1.2511    1.7674 H   0  0  0  0  0  0  0  0  0  0  0  0
    2.5686    0.2172    3.2395 C   0  0  0  0  0  0  0  0  0  0  0  0
    2.8631   -0.8213    3.4098 H   0  0  0  0  0  0  0  0  0  0  0  0
    3.4706    0.8233    3.1451 H   0  0  0  0  0  0  0  0  0  0  0  0
    1.9942    0.5613    4.1005 H   0  0  0  0  0  0  0  0  0  0  0  0
  5  6  2  0  0  0  0
  5  7  1  0  0  0  0
  2  3  1  0  0  0  0
  2  4  1  0  0  0  0
  2  5  1  0  0  0  0
  1  2  1  0  0  0  0
 12 13  2  0  0  0  0
 12 14  1  0  0  0  0
  9 10  1  0  0  0  0
  9 11  1  0  0  0  0
  9 12  1  0  0  0  0
  7  8  1  0  0  0  0
  7  9  1  0  0  0  0
 16 17  1  0  0  0  0
 16 18  1  0  0  0  0
 16 19  1  0  0  0  0
 14 15  1  0  0  0  0
 14 16  1  0  0  0  0
M  END
$$$$
default_name
  -OEChem-01062215323D

 19 18  0     0  0  0  0  0  0999 V2000
   -2.2056   -4.0049    0.0000 H   0  0  0  0  0  0  0  0  0  0  0  0
   -2.2496   -2.9169    0.0000 C   0  0  0  0  0  0  0  0  0  0  0  0
   -2.7696   -2.5709    0.8910 H   0  0  0  0  0  0  0  0  0  0  0  0
   -2.7696   -2.5709   -0.8910 H   0  0  0  0  0  0  0  0  0  0  0  0
   -0.8406   -2.3699    0.0000 C   0  0  0  0  0  0  0  0  0  0  0  0
    0.1164   -3.1329    0.0000 O   0  0  0  0  0  0  0  0  0  0  0  0
   -0.7136   -1.0459    0.0000 N   0  0  0  0  0  0  0  0  0  0  0  0
   -1.5436   -0.4719    0.0000 H   0  0  0  0  0  0  0  0  0  0  0  0
    0.5724   -0.3469    0.0000 C   0  0  0  0  0  0  0  0  0  0  0  0
    1.1273   -0.6158   -0.8999 H   0  0  0  0  0  0  0  0  0  0  0  0
    0.3961    0.7295   -0.0159 H   0  0  0  0  0  0  0  0  0  0  0  0
    1.4256   -0.6881    1.2250 C   0  0  0  0  0  0  0  0  0  0  0  0
    1.9979   -1.7736    1.3007 O   0  0  0  0  0  0  0  0  0  0  0  0
    1.5036    0.2481    2.1792 N   0  0  0  0  0  0  0  0  0  0  0  0
    0.9996    1.1082    2.0291 H   0  0  0  0  0  0  0  0  0  0  0  0
    2.2650    0.1169    3.4231 C   0  0  0  0  0  0  0  0  0  0  0  0
    2.7646   -0.8538    3.4693 H   0  0  0  0  0  0  0  0  0  0  0  0
    3.0217    0.9005    3.4793 H   0  0  0  0  0  0  0  0  0  0  0  0
    1.5947    0.2040    4.2793 H   0  0  0  0  0  0  0  0  0  0  0  0
  5  6  2  0  0  0  0
  5  7  1  0  0  0  0
  2  3  1  0  0  0  0
  2  4  1  0  0  0  0
  2  5  1  0  0  0  0
  1  2  1  0  0  0  0
 12 13  2  0  0  0  0
 12 14  1  0  0  0  0
  9 10  1  0  0  0  0
  9 11  1  0  0  0  0
  9 12  1  0  0  0  0
  7  8  1  0  0  0  0
  7  9  1  0  0  0  0
 16 17  1  0  0  0  0
 16 18  1  0  0  0  0
 16 19  1  0  0  0  0
 14 15  1  0  0  0  0
 14 16  1  0  0  0  0
M  END
$$$$
default_name
  -OEChem-01062215323D

 19 18  0     0  0  0  0  0  0999 V2000
   -2.2056   -4.0049    0.0000 H   0  0  0  0  0  0  0  0  0  0  0  0
   -2.2496   -2.9169    0.0000 C   0  0  0  0  0  0  0  0  0  0  0  0
   -2.7696   -2.5709    0.8910 H   0  0  0  0  0  0  0  0  0  0  0  0
   -2.7696   -2.5709   -0.8910 H   0  0  0  0  0  0  0  0  0  0  0  0
   -0.8406   -2.3699    0.0000 C   0  0  0  0  0  0  0  0  0  0  0  0
    0.1164   -3.1329    0.0000 O   0  0  0  0  0  0  0  0  0  0  0  0
   -0.7136   -1.0459    0.0000 N   0  0  0  0  0  0  0  0  0  0  0  0
   -1.5436   -0.4719    0.0000 H   0  0  0  0  0  0  0  0  0  0  0  0
    0.5724   -0.3469    0.0000 C   0  0  0  0  0  0  0  0  0  0  0  0
    1.1273   -0.6158   -0.8999 H   0  0  0  0  0  0  0  0  0  0  0  0
    0.3961    0.7295   -0.0159 H   0  0  0  0  0  0  0  0  0  0  0  0
    1.4256   -0.6881    1.2250 C   0  0  0  0  0  0  0  0  0  0  0  0
    2.2106   -1.6337    1.1915 O   0  0  0  0  0  0  0  0  0  0  0  0
    1.2634    0.0902    2.3025 N   0  0  0  0  0  0  0  0  0  0  0  0
    0.5960    0.8428    2.2363 H   0  0  0  0  0  0  0  0  0  0  0  0
    1.9818   -0.0693    3.5685 C   0  0  0  0  0  0  0  0  0  0  0  0
    2.6729   -0.9141    3.5164 H   0  0  0  0  0  0  0  0  0  0  0  0
    2.5528    0.8340    3.7874 H   0  0  0  0  0  0  0  0  0  0  0  0
    1.2725   -0.2496    4.3773 H   0  0  0  0  0  0  0  0  0  0  0  0
  5  6  2  0  0  0  0
  5  7  1  0  0  0  0
  2  3  1  0  0  0  0
  2  4  1  0  0  0  0
  2  5  1  0  0  0  0
  1  2  1  0  0  0  0
 12 13  2  0  0  0  0
 12 14  1  0  0  0  0
  9 10  1  0  0  0  0
  9 11  1  0  0  0  0
  9 12  1  0  0  0  0
  7  8  1  0  0  0  0
  7  9  1  0  0  0  0
 16 17  1  0  0  0  0
 16 18  1  0  0  0  0
 16 19  1  0  0  0  0
 14 15  1  0  0  0  0
 14 16  1  0  0  0  0
M  END
$$$$
default_name
  -OEChem-01062215323D

 19 18  0     0  0  0  0  0  0999 V2000
   -2.2056   -4.0049    0.0000 H   0  0  0  0  0  0  0  0  0  0  0  0
   -2.2496   -2.9169    0.0000 C   0  0  0  0  0  0  0  0  0  0  0  0
   -2.7696   -2.5709    0.8910 H   0  0  0  0  0  0  0  0  0  0  0  0
   -2.7696   -2.5709   -0.8910 H   0  0  0  0  0  0  0  0  0  0  0  0
   -0.8406   -2.3699    0.0000 C   0  0  0  0  0  0  0  0  0  0  0  0
    0.1164   -3.1329    0.0000 O   0  0  0  0  0  0  0  0  0  0  0  0
   -0.7136   -1.0459    0.0000 N   0  0  0  0  0  0  0  0  0  0  0  0
   -1.5436   -0.4719    0.0000 H   0  0  0  0  0  0  0  0  0  0  0  0
    0.5724   -0.3469    0.0000 C   0  0  0  0  0  0  0  0  0  0  0  0
    1.1273   -0.6158   -0.8999 H   0  0  0  0  0  0  0  0  0  0  0  0
    0.3961    0.7295   -0.0159 H   0  0  0  0  0  0  0  0  0  0  0  0
    1.4256   -0.6881    1.2250 C   0  0  0  0  0  0  0  0  0  0  0  0
    2.3933   -1.4389    1.1185 O   0  0  0  0  0  0  0  0  0  0  0  0
    1.0570   -0.1298    2.3850 N   0  0  0  0  0  0  0  0  0  0  0  0
    0.2491    0.4730    2.3750 H   0  0  0  0  0  0  0  0  0  0  0  0
    1.7384   -0.3287    3.6657 C   0  0  0  0  0  0  0  0  0  0  0  0
    2.5940   -0.9982    3.5479 H   0  0  0  0  0  0  0  0  0  0  0  0
    2.0959    0.6282    4.0483 H   0  0  0  0  0  0  0  0  0  0  0  0
    1.0496   -0.7686    4.3881 H   0  0  0  0  0  0  0  0  0  0  0  0
  5  6  2  0  0  0  0
  5  7  1  0  0  0  0
  2  3  1  0  0  0  0
  2  4  1  0  0  0  0
  2  5  1  0  0  0  0
  1  2  1  0  0  0  0
 12 13  2  0  0  0  0
 12 14  1  0  0  0  0
  9 10  1  0  0  0  0
  9 11  1  0  0  0  0
  9 12  1  0  0  0  0
  7  8  1  0  0  0  0
  7  9  1  0  0  0  0
 16 17  1  0  0  0  0
 16 18  1  0  0  0  0
 16 19  1  0  0  0  0
 14 15  1  0  0  0  0
 14 16  1  0  0  0  0
M  END
$$$$
default_name
  -OEChem-01062215323D

 19 18  0     0  0  0  0  0  0999 V2000
   -2.2056   -4.0049    0.0000 H   0  0  0  0  0  0  0  0  0  0  0  0
   -2.2496   -2.9169    0.0000 C   0  0  0  0  0  0  0  0  0  0  0  0
   -2.7696   -2.5709    0.8910 H   0  0  0  0  0  0  0  0  0  0  0  0
   -2.7696   -2.5709   -0.8910 H   0  0  0  0  0  0  0  0  0  0  0  0
   -0.8406   -2.3699    0.0000 C   0  0  0  0  0  0  0  0  0  0  0  0
    0.1164   -3.1329    0.0000 O   0  0  0  0  0  0  0  0  0  0  0  0
   -0.7136   -1.0459    0.0000 N   0  0  0  0  0  0  0  0  0  0  0  0
   -1.5436   -0.4719    0.0000 H   0  0  0  0  0  0  0  0  0  0  0  0
    0.5724   -0.3469    0.0000 C   0  0  0  0  0  0  0  0  0  0  0  0
    1.1273   -0.6158   -0.8999 H   0  0  0  0  0  0  0  0  0  0  0  0
    0.3961    0.7295   -0.0159 H   0  0  0  0  0  0  0  0  0  0  0  0
    1.4256   -0.6881    1.2250 C   0  0  0  0  0  0  0  0  0  0  0  0
    2.5337   -1.2023    1.0866 O   0  0  0  0  0  0  0  0  0  0  0  0
    0.8985   -0.3970    2.4210 N   0  0  0  0  0  0  0  0  0  0  0  0
   -0.0174    0.0239    2.4355 H   0  0  0  0  0  0  0  0  0  0  0  0
    1.5515   -0.6437    3.7082 C   0  0  0  0  0  0  0  0  0  0  0  0
    2.5334   -1.1003    3.5617 H   0  0  0  0  0  0  0  0  0  0  0  0
    1.6821    0.2972    4.2443 H   0  0  0  0  0  0  0  0  0  0  0  0
    0.9411   -1.3176    4.3107 H   0  0  0  0  0  0  0  0  0  0  0  0
  5  6  2  0  0  0  0
  5  7  1  0  0  0  0
  2  3  1  0  0  0  0
  2  4  1  0  0  0  0
  2  5  1  0  0  0  0
  1  2  1  0  0  0  0
 12 13  2  0  0  0  0
 12 14  1  0  0  0  0
  9 10  1  0  0  0  0
  9 11  1  0  0  0  0
  9 12  1  0  0  0  0
  7  8  1  0  0  0  0
  7  9  1  0  0  0  0
 16 17  1  0  0  0  0
 16 18  1  0  0  0  0
 16 19  1  0  0  0  0
 14 15  1  0  0  0  0
 14 16  1  0  0  0  0
M  END
$$$$
default_name
  -OEChem-01062215323D

 19 18  0     0  0  0  0  0  0999 V2000
   -2.2056   -4.0049    0.0000 H   0  0  0  0  0  0  0  0  0  0  0  0
   -2.2496   -2.9169    0.0000 C   0  0  0  0  0  0  0  0  0  0  0  0
   -2.7696   -2.5709    0.8910 H   0  0  0  0  0  0  0  0  0  0  0  0
   -2.7696   -2.5709   -0.8910 H   0  0  0  0  0  0  0  0  0  0  0  0
   -0.8406   -2.3699    0.0000 C   0  0  0  0  0  0  0  0  0  0  0  0
    0.1164   -3.1329    0.0000 O   0  0  0  0  0  0  0  0  0  0  0  0
   -0.7136   -1.0459    0.0000 N   0  0  0  0  0  0  0  0  0  0  0  0
   -1.5436   -0.4719    0.0000 H   0  0  0  0  0  0  0  0  0  0  0  0
    0.5724   -0.3469    0.0000 C   0  0  0  0  0  0  0  0  0  0  0  0
    1.1273   -0.6158   -0.8999 H   0  0  0  0  0  0  0  0  0  0  0  0
    0.3961    0.7295   -0.0159 H   0  0  0  0  0  0  0  0  0  0  0  0
    1.4256   -0.6881    1.2250 C   0  0  0  0  0  0  0  0  0  0  0  0
    2.6222   -0.9401    1.0980 O   0  0  0  0  0  0  0  0  0  0  0  0
    0.7985   -0.6930    2.4081 N   0  0  0  0  0  0  0  0  0  0  0  0
   -0.1853   -0.4737    2.4139 H   0  0  0  0  0  0  0  0  0  0  0  0
    1.4337   -0.9928    3.6930 C   0  0  0  0  0  0  0  0  0  0  0  0
    2.4952   -1.2135    3.5568 H   0  0  0  0  0  0  0  0  0  0  0  0
    1.3397   -0.1364    4.3621 H   0  0  0  0  0  0  0  0  0  0  0  0
    0.9544   -1.8592    4.1506 H   0  0  0  0  0  0  0  0  0  0  0  0
  5  6  2  0  0  0  0
  5  7  1  0  0  0  0
  2  3  1  0  0  0  0
  2  4  1  0  0  0  0
  2  5  1  0  0  0  0
  1  2  1  0  0  0  0
 12 13  2  0  0  0  0
 12 14  1  0  0  0  0
  9 10  1  0  0  0  0
  9 11  1  0  0  0  0
  9 12  1  0  0  0  0
  7  8  1  0  0  0  0
  7  9  1  0  0  0  0
 16 17  1  0  0  0  0
 16 18  1  0  0  0  0
 16 19  1  0  0  0  0
 14 15  1  0  0  0  0
 14 16  1  0  0  0  0
M  END
$$$$
default_name
  -OEChem-01062215323D

 19 18  0     0  0  0  0  0  0999 V2000
   -2.2056   -4.0049    0.0000 H   0  0  0  0  0  0  0  0  0  0  0  0
   -2.2496   -2.9169    0.0000 C   0  0  0  0  0  0  0  0  0  0  0  0
   -2.7696   -2.5709    0.8910 H   0  0  0  0  0  0  0  0  0  0  0  0
   -2.7696   -2.5709   -0.8910 H   0  0  0  0  0  0  0  0  0  0  0  0
   -0.8406   -2.3699    0.0000 C   0  0  0  0  0  0  0  0  0  0  0  0
    0.1164   -3.1329    0.0000 O   0  0  0  0  0  0  0  0  0  0  0  0
   -0.7136   -1.0459    0.0000 N   0  0  0  0  0  0  0  0  0  0  0  0
   -1.5436   -0.4719    0.0000 H   0  0  0  0  0  0  0  0  0  0  0  0
    0.5724   -0.3469    0.0000 C   0  0  0  0  0  0  0  0  0  0  0  0
    1.1273   -0.6158   -0.8999 H   0  0  0  0  0  0  0  0  0  0  0  0
    0.3961    0.7295   -0.0159 H   0  0  0  0  0  0  0  0  0  0  0  0
    1.4256   -0.6881    1.2250 C   0  0  0  0  0  0  0  0  0  0  0  0
    2.6527   -0.6702    1.1519 O   0  0  0  0  0  0  0  0  0  0  0  0
    0.7641   -0.9979    2.3472 N   0  0  0  0  0  0  0  0  0  0  0  0
   -0.2433   -0.9860    2.3116 H   0  0  0  0  0  0  0  0  0  0  0  0
    1.3930   -1.3522    3.6212 C   0  0  0  0  0  0  0  0  0  0  0  0
    2.4820   -1.3300    3.5335 H   0  0  0  0  0  0  0  0  0  0  0  0
    1.0919   -0.6432    4.3935 H   0  0  0  0  0  0  0  0  0  0  0  0
    1.0886   -2.3566    3.9186 H   0  0  0  0  0  0  0  0  0  0  0  0
  5  6  2  0  0  0  0
  5  7  1  0  0  0  0
  2  3  1  0  0  0  0
  2  4  1  0  0  0  0
  2  5  1  0  0  0  0
  1  2  1  0  0  0  0
 12 13  2  0  0  0  0
 12 14  1  0  0  0  0
  9 10  1  0  0  0  0
  9 11  1  0  0  0  0
  9 12  1  0  0  0  0
  7  8  1  0  0  0  0
  7  9  1  0  0  0  0
 16 17  1  0  0  0  0
 16 18  1  0  0  0  0
 16 19  1  0  0  0  0
 14 15  1  0  0  0  0
 14 16  1  0  0  0  0
M  END
$$$$
default_name
  -OEChem-01062215323D

 19 18  0     0  0  0  0  0  0999 V2000
   -2.2056   -4.0049    0.0000 H   0  0  0  0  0  0  0  0  0  0  0  0
   -2.2496   -2.9169    0.0000 C   0  0  0  0  0  0  0  0  0  0  0  0
   -2.7696   -2.5709    0.8910 H   0  0  0  0  0  0  0  0  0  0  0  0
   -2.7696   -2.5709   -0.8910 H   0  0  0  0  0  0  0  0  0  0  0  0
   -0.8406   -2.3699    0.0000 C   0  0  0  0  0  0  0  0  0  0  0  0
    0.1164   -3.1329    0.0000 O   0  0  0  0  0  0  0  0  0  0  0  0
   -0.7136   -1.0459    0.0000 N   0  0  0  0  0  0  0  0  0  0  0  0
   -1.5436   -0.4719    0.0000 H   0  0  0  0  0  0  0  0  0  0  0  0
    0.5724   -0.3469    0.0000 C   0  0  0  0  0  0  0  0  0  0  0  0
    1.1273   -0.6158   -0.8999 H   0  0  0  0  0  0  0  0  0  0  0  0
    0.3961    0.7295   -0.0159 H   0  0  0  0  0  0  0  0  0  0  0  0
    1.4256   -0.6881    1.2250 C   0  0  0  0  0  0  0  0  0  0  0  0
    2.6232   -0.4109    1.2446 O   0  0  0  0  0  0  0  0  0  0  0  0
    0.7974   -1.2907    2.2425 N   0  0  0  0  0  0  0  0  0  0  0  0
   -0.1873   -1.4781    2.1355 H   0  0  0  0  0  0  0  0  0  0  0  0
    1.4323   -1.6974    3.4977 C   0  0  0  0  0  0  0  0  0  0  0  0
    2.4947   -1.4419    3.4935 H   0  0  0  0  0  0  0  0  0  0  0  0
    0.9557   -1.1885    4.3365 H   0  0  0  0  0  0  0  0  0  0  0  0
    1.3346   -2.7757    3.6305 H   0  0  0  0  0  0  0  0  0  0  0  0
  5  6  2  0  0  0  0
  5  7  1  0  0  0  0
  2  3  1  0  0  0  0
  2  4  1  0  0  0  0
  2  5  1  0  0  0  0
  1  2  1  0  0  0  0
 12 13  2  0  0  0  0
 12 14  1  0  0  0  0
  9 10  1  0  0  0  0
  9 11  1  0  0  0  0
  9 12  1  0  0  0  0
  7  8  1  0  0  0  0
  7  9  1  0  0  0  0
 16 17  1  0  0  0  0
 16 18  1  0  0  0  0
 16 19  1  0  0  0  0
 14 15  1  0  0  0  0
 14 16  1  0  0  0  0
M  END
$$$$
default_name
  -OEChem-01062215323D

 19 18  0     0  0  0  0  0  0999 V2000
   -2.2056   -4.0049    0.0000 H   0  0  0  0  0  0  0  0  0  0  0  0
   -2.2496   -2.9169    0.0000 C   0  0  0  0  0  0  0  0  0  0  0  0
   -2.7696   -2.5709    0.8910 H   0  0  0  0  0  0  0  0  0  0  0  0
   -2.7696   -2.5709   -0.8910 H   0  0  0  0  0  0  0  0  0  0  0  0
   -0.8406   -2.3699    0.0000 C   0  0  0  0  0  0  0  0  0  0  0  0
    0.1164   -3.1329    0.0000 O   0  0  0  0  0  0  0  0  0  0  0  0
   -0.7136   -1.0459    0.0000 N   0  0  0  0  0  0  0  0  0  0  0  0
   -1.5436   -0.4719    0.0000 H   0  0  0  0  0  0  0  0  0  0  0  0
    0.5724   -0.3469    0.0000 C   0  0  0  0  0  0  0  0  0  0  0  0
    1.1273   -0.6158   -0.8999 H   0  0  0  0  0  0  0  0  0  0  0  0
    0.3961    0.7295   -0.0159 H   0  0  0  0  0  0  0  0  0  0  0  0
    1.4256   -0.6881    1.2250 C   0  0  0  0  0  0  0  0  0  0  0  0
    2.5357   -0.1800    1.3699 O   0  0  0  0  0  0  0  0  0  0  0  0
    0.8962   -1.5515    2.1010 N   0  0  0  0  0  0  0  0  0  0  0  0
   -0.0211   -1.9165    1.8977 H   0  0  0  0  0  0  0  0  0  0  0  0
    1.5489   -2.0049    3.3309 C   0  0  0  0  0  0  0  0  0  0  0  0
    2.5325   -1.5416    3.4394 H   0  0  0  0  0  0  0  0  0  0  0  0
    0.9403   -1.7352    4.1950 H   0  0  0  0  0  0  0  0  0  0  0  0
    1.6756   -3.0881    3.3060 H   0  0  0  0  0  0  0  0  0  0  0  0
  5  6  2  0  0  0  0
  5  7  1  0  0  0  0
  2  3  1  0  0  0  0
  2  4  1  0  0  0  0
  2  5  1  0  0  0  0
  1  2  1  0  0  0  0
 12 13  2  0  0  0  0
 12 14  1  0  0  0  0
  9 10  1  0  0  0  0
  9 11  1  0  0  0  0
  9 12  1  0  0  0  0
  7  8  1  0  0  0  0
  7  9  1  0  0  0  0
 16 17  1  0  0  0  0
 16 18  1  0  0  0  0
 16 19  1  0  0  0  0
 14 15  1  0  0  0  0
 14 16  1  0  0  0  0
M  END
$$$$
default_name
  -OEChem-01062215323D

 19 18  0     0  0  0  0  0  0999 V2000
   -2.2056   -4.0049    0.0000 H   0  0  0  0  0  0  0  0  0  0  0  0
   -2.2496   -2.9169    0.0000 C   0  0  0  0  0  0  0  0  0  0  0  0
   -2.7696   -2.5709    0.8910 H   0  0  0  0  0  0  0  0  0  0  0  0
   -2.7696   -2.5709   -0.8910 H   0  0  0  0  0  0  0  0  0  0  0  0
   -0.8406   -2.3699    0.0000 C   0  0  0  0  0  0  0  0  0  0  0  0
    0.1164   -3.1329    0.0000 O   0  0  0  0  0  0  0  0  0  0  0  0
   -0.7136   -1.0459    0.0000 N   0  0  0  0  0  0  0  0  0  0  0  0
   -1.5436   -0.4719    0.0000 H   0  0  0  0  0  0  0  0  0  0  0  0
    0.5724   -0.3469    0.0000 C   0  0  0  0  0  0  0  0  0  0  0  0
    1.1273   -0.6158   -0.8999 H   0  0  0  0  0  0  0  0  0  0  0  0
    0.3961    0.7295   -0.0159 H   0  0  0  0  0  0  0  0  0  0  0  0
    1.4256   -0.6881    1.2250 C   0  0  0  0  0  0  0  0  0  0  0  0
    2.3961    0.0069    1.5192 O   0  0  0  0  0  0  0  0  0  0  0  0
    1.0539   -1.7625    1.9324 N   0  0  0  0  0  0  0  0  0  0  0  0
    0.2438   -2.2712    1.6143 H   0  0  0  0  0  0  0  0  0  0  0  0
    1.7347   -2.2538    3.1321 C   0  0  0  0  0  0  0  0  0  0  0  0
    2.5928   -1.6222    3.3750 H   0  0  0  0  0  0  0  0  0  0  0  0
    1.0467   -2.2461    3.9785 H   0  0  0  0  0  0  0  0  0  0  0  0
    2.0884   -3.2724    2.9671 H   0  0  0  0  0  0  0  0  0  0  0  0
  5  6  2  0  0  0  0
  5  7  1  0  0  0  0
  2  3  1  0  0  0  0
  2  4  1  0  0  0  0
  2  5  1  0  0  0  0
  1  2  1  0  0  0  0
 12 13  2  0  0  0  0
 12 14  1  0  0  0  0
  9 10  1  0  0  0  0
  9 11  1  0  0  0  0
  9 12  1  0  0  0  0
  7  8  1  0  0  0  0
  7  9  1  0  0  0  0
 16 17  1  0  0  0  0
 16 18  1  0  0  0  0
 16 19  1  0  0  0  0
 14 15  1  0  0  0  0
 14 16  1  0  0  0  0
M  END
$$$$
default_name
  -OEChem-01062215323D

 19 18  0     0  0  0  0  0  0999 V2000
   -2.2056   -4.0049    0.0000 H   0  0  0  0  0  0  0  0  0  0  0  0
   -2.2496   -2.9169    0.0000 C   0  0  0  0  0  0  0  0  0  0  0  0
   -2.7696   -2.5709    0.8910 H   0  0  0  0  0  0  0  0  0  0  0  0
   -2.7696   -2.5709   -0.8910 H   0  0  0  0  0  0  0  0  0  0  0  0
   -0.8406   -2.3699    0.0000 C   0  0  0  0  0  0  0  0  0  0  0  0
    0.1164   -3.1329    0.0000 O   0  0  0  0  0  0  0  0  0  0  0  0
   -0.7136   -1.0459    0.0000 N   0  0  0  0  0  0  0  0  0  0  0  0
   -1.5436   -0.4719    0.0000 H   0  0  0  0  0  0  0  0  0  0  0  0
    0.5724   -0.3469    0.0000 C   0  0  0  0  0  0  0  0  0  0  0  0
    1.1273   -0.6158   -0.8999 H   0  0  0  0  0  0  0  0  0  0  0  0
    0.3961    0.7295   -0.0159 H   0  0  0  0  0  0  0  0  0  0  0  0
    1.4256   -0.6881    1.2250 C   0  0  0  0  0  0  0  0  0  0  0  0
    2.2140    0.1370    1.6823 O   0  0  0  0  0  0  0  0  0  0  0  0
    1.2595   -1.9094    1.7482 N   0  0  0  0  0  0  0  0  0  0  0  0
    0.5895   -2.5182    1.3048 H   0  0  0  0  0  0  0  0  0  0  0  0
    1.9772   -2.4270    2.9149 C   0  0  0  0  0  0  0  0  0  0  0  0
    2.6714   -1.6784    3.3046 H   0  0  0  0  0  0  0  0  0  0  0  0
    1.2678   -2.6863    3.7019 H   0  0  0  0  0  0  0  0  0  0  0  0
    2.5448   -3.3161    2.6371 H   0  0  0  0  0  0  0  0  0  0  0  0
  5  6  2  0  0  0  0
  5  7  1  0  0  0  0
  2  3  1  0  0  0  0
  2  4  1  0  0  0  0
  2  5  1  0  0  0  0
  1  2  1  0  0  0  0
 12 13  2  0  0  0  0
 12 14  1  0  0  0  0
  9 10  1  0  0  0  0
  9 11  1  0  0  0  0
  9 12  1  0  0  0  0
  7  8  1  0  0  0  0
  7  9  1  0  0  0  0
 16 17  1  0  0  0  0
 16 18  1  0  0  0  0
 16 19  1  0  0  0  0
 14 15  1  0  0  0  0
 14 16  1  0  0  0  0
M  END
$$$$
default_name
  -OEChem-01062215323D

 19 18  0     0  0  0  0  0  0999 V2000
   -2.2056   -4.0049    0.0000 H   0  0  0  0  0  0  0  0  0  0  0  0
   -2.2496   -2.9169    0.0000 C   0  0  0  0  0  0  0  0  0  0  0  0
   -2.7696   -2.5709    0.8910 H   0  0  0  0  0  0  0  0  0  0  0  0
   -2.7696   -2.5709   -0.8910 H   0  0  0  0  0  0  0  0  0  0  0  0
   -0.8406   -2.3699    0.0000 C   0  0  0  0  0  0  0  0  0  0  0  0
    0.1164   -3.1329    0.0000 O   0  0  0  0  0  0  0  0  0  0  0  0
   -0.7136   -1.0459    0.0000 N   0  0  0  0  0  0  0  0  0  0  0  0
   -1.5436   -0.4719    0.0000 H   0  0  0  0  0  0  0  0  0  0  0  0
    0.5724   -0.3469    0.0000 C   0  0  0  0  0  0  0  0  0  0  0  0
    1.1273   -0.6158   -0.8999 H   0  0  0  0  0  0  0  0  0  0  0  0
    0.3961    0.7295   -0.0159 H   0  0  0  0  0  0  0  0  0  0  0  0
    1.4256   -0.6881    1.2250 C   0  0  0  0  0  0  0  0  0  0  0  0
    2.0017    0.2015    1.8481 O   0  0  0  0  0  0  0  0  0  0  0  0
    1.4993   -1.9822    1.5610 N   0  0  0  0  0  0  0  0  0  0  0  0
    0.9924   -2.6405    0.9901 H   0  0  0  0  0  0  0  0  0  0  0  0
    2.2599   -2.5128    2.6942 C   0  0  0  0  0  0  0  0  0  0  0  0
    2.7630   -1.7062    3.2330 H   0  0  0  0  0  0  0  0  0  0  0  0
    1.5885   -3.0258    3.3840 H   0  0  0  0  0  0  0  0  0  0  0  0
    3.0137   -3.2162    2.3382 H   0  0  0  0  0  0  0  0  0  0  0  0
  5  6  2  0  0  0  0
  5  7  1  0  0  0  0
  2  3  1  0  0  0  0
  2  4  1  0  0  0  0
  2  5  1  0  0  0  0
  1  2  1  0  0  0  0
 12 13  2  0  0  0  0
 12 14  1  0  0  0  0
  9 10  1  0  0  0  0
  9 11  1  0  0  0  0
  9 12  1  0  0  0  0
  7  8  1  0  0  0  0
  7  9  1  0  0  0  0
 16 17  1  0  0  0  0
 16 18  1  0  0  0  0
 16 19  1  0  0  0  0
 14 15  1  0  0  0  0
 14 16  1  0  0  0  0
M  END
$$$$
default_name
  -OEChem-01062215323D

 19 18  0     0  0  0  0  0  0999 V2000
   -2.2056   -4.0049    0.0000 H   0  0  0  0  0  0  0  0  0  0  0  0
   -2.2496   -2.9169    0.0000 C   0  0  0  0  0  0  0  0  0  0  0  0
   -2.7696   -2.5709    0.8910 H   0  0  0  0  0  0  0  0  0  0  0  0
   -2.7696   -2.5709   -0.8910 H   0  0  0  0  0  0  0  0  0  0  0  0
   -0.8406   -2.3699    0.0000 C   0  0  0  0  0  0  0  0  0  0  0  0
    0.1164   -3.1329    0.0000 O   0  0  0  0  0  0  0  0  0  0  0  0
   -0.7136   -1.0459    0.0000 N   0  0  0  0  0  0  0  0  0  0  0  0
   -1.5436   -0.4719    0.0000 H   0  0  0  0  0  0  0  0  0  0  0  0
    0.5724   -0.3469    0.0000 C   0  0  0  0  0  0  0  0  0  0  0  0
    1.1273   -0.6158   -0.8999 H   0  0  0  0  0  0  0  0  0  0  0  0
    0.3961    0.7295   -0.0159 H   0  0  0  0  0  0  0  0  0  0  0  0
    1.4256   -0.6881    1.2250 C   0  0  0  0  0  0  0  0  0  0  0  0
    1.7738    0.1959    2.0053 O   0  0  0  0  0  0  0  0  0  0  0  0
    1.7567   -1.9759    1.3834 N   0  0  0  0  0  0  0  0  0  0  0  0
    1.4250   -2.6298    0.6917 H   0  0  0  0  0  0  0  0  0  0  0  0
    2.5634   -2.5053    2.4849 C   0  0  0  0  0  0  0  0  0  0  0  0
    2.8614   -1.7038    3.1652 H   0  0  0  0  0  0  0  0  0  0  0  0
    1.9868   -3.2416    3.0465 H   0  0  0  0  0  0  0  0  0  0  0  0
    3.4632   -2.9796    2.0910 H   0  0  0  0  0  0  0  0  0  0  0  0
  5  6  2  0  0  0  0
  5  7  1  0  0  0  0
  2  3  1  0  0  0  0
  2  4  1  0  0  0  0
  2  5  1  0  0  0  0
  1  2  1  0  0  0  0
 12 13  2  0  0  0  0
 12 14  1  0  0  0  0
  9 10  1  0  0  0  0
  9 11  1  0  0  0  0
  9 12  1  0  0  0  0
  7  8  1  0  0  0  0
  7  9  1  0  0  0  0
 16 17  1  0  0  0  0
 16 18  1  0  0  0  0
 16 19  1  0  0  0  0
 14 15  1  0  0  0  0
 14 16  1  0  0  0  0
M  END
$$$$
default_name
  -OEChem-01062215323D

 19 18  0     0  0  0  0  0  0999 V2000
   -2.2056   -4.0049    0.0000 H   0  0  0  0  0  0  0  0  0  0  0  0
   -2.2496   -2.9169    0.0000 C   0  0  0  0  0  0  0  0  0  0  0  0
   -2.7696   -2.5709    0.8910 H   0  0  0  0  0  0  0  0  0  0  0  0
   -2.7696   -2.5709   -0.8910 H   0  0  0  0  0  0  0  0  0  0  0  0
   -0.8406   -2.3699    0.0000 C   0  0  0  0  0  0  0  0  0  0  0  0
    0.1164   -3.1329    0.0000 O   0  0  0  0  0  0  0  0  0  0  0  0
   -0.7136   -1.0459    0.0000 N   0  0  0  0  0  0  0  0  0  0  0  0
   -1.5436   -0.4719    0.0000 H   0  0  0  0  0  0  0  0  0  0  0  0
    0.5724   -0.3469    0.0000 C   0  0  0  0  0  0  0  0  0  0  0  0
    1.1273   -0.6158   -0.8999 H   0  0  0  0  0  0  0  0  0  0  0  0
    0.3961    0.7295   -0.0159 H   0  0  0  0  0  0  0  0  0  0  0  0
    1.4256   -0.6881    1.2250 C   0  0  0  0  0  0  0  0  0  0  0  0
    1.5457    0.1206    2.1432 O   0  0  0  0  0  0  0  0  0  0  0  0
    2.0142   -1.8908    1.2277 N   0  0  0  0  0  0  0  0  0  0  0  0
    1.8579   -2.4869    0.4300 H   0  0  0  0  0  0  0  0  0  0  0  0
    2.8670   -2.4051    2.3013 C   0  0  0  0  0  0  0  0  0  0  0  0
    2.9598   -1.6713    3.1056 H   0  0  0  0  0  0  0  0  0  0  0  0
    2.4357   -3.3188    2.7123 H   0  0  0  0  0  0  0  0  0  0  0  0
    3.8627   -2.6223    1.9123 H   0  0  0  0  0  0  0  0  0  0  0  0
  5  6  2  0  0  0  0
  5  7  1  0  0  0  0
  2  3  1  0  0  0  0
  2  4  1  0  0  0  0
  2  5  1  0  0  0  0
  1  2  1  0  0  0  0
 12 13  2  0  0  0  0
 12 14  1  0  0  0  0
  9 10  1  0  0  0  0
  9 11  1  0  0  0  0
  9 12  1  0  0  0  0
  7  8  1  0  0  0  0
  7  9  1  0  0  0  0
 16 17  1  0  0  0  0
 16 18  1  0  0  0  0
 16 19  1  0  0  0  0
 14 15  1  0  0  0  0
 14 16  1  0  0  0  0
M  END
$$$$
default_name
  -OEChem-01062215323D

 19 18  0     0  0  0  0  0  0999 V2000
   -2.2056   -4.0049    0.0000 H   0  0  0  0  0  0  0  0  0  0  0  0
   -2.2496   -2.9169    0.0000 C   0  0  0  0  0  0  0  0  0  0  0  0
   -2.7696   -2.5709    0.8910 H   0  0  0  0  0  0  0  0  0  0  0  0
   -2.7696   -2.5709   -0.8910 H   0  0  0  0  0  0  0  0  0  0  0  0
   -0.8406   -2.3699    0.0000 C   0  0  0  0  0  0  0  0  0  0  0  0
    0.1164   -3.1329    0.0000 O   0  0  0  0  0  0  0  0  0  0  0  0
   -0.7136   -1.0459    0.0000 N   0  0  0  0  0  0  0  0  0  0  0  0
   -1.5436   -0.4719    0.0000 H   0  0  0  0  0  0  0  0  0  0  0  0
    0.5724   -0.3469    0.0000 C   0  0  0  0  0  0  0  0  0  0  0  0
    1.1273   -0.6158   -0.8999 H   0  0  0  0  0  0  0  0  0  0  0  0
    0.3961    0.7295   -0.0159 H   0  0  0  0  0  0  0  0  0  0  0  0
    1.4256   -0.6881    1.2250 C   0  0  0  0  0  0  0  0  0  0  0  0
    1.3330   -0.0193    2.2524 O   0  0  0  0  0  0  0  0  0  0  0  0
    2.2544   -1.7329    1.1044 N   0  0  0  0  0  0  0  0  0  0  0  0
    2.2616   -2.2215    0.2227 H   0  0  0  0  0  0  0  0  0  0  0  0
    3.1502   -2.2189    2.1559 C   0  0  0  0  0  0  0  0  0  0  0  0
    3.0516   -1.6109    3.0585 H   0  0  0  0  0  0  0  0  0  0  0  0
    2.9046   -3.2523    2.4042 H   0  0  0  0  0  0  0  0  0  0  0  0
    4.1849   -2.1687    1.8142 H   0  0  0  0  0  0  0  0  0  0  0  0
  5  6  2  0  0  0  0
  5  7  1  0  0  0  0
  2  3  1  0  0  0  0
  2  4  1  0  0  0  0
  2  5  1  0  0  0  0
  1  2  1  0  0  0  0
 12 13  2  0  0  0  0
 12 14  1  0  0  0  0
  9 10  1  0  0  0  0
  9 11  1  0  0  0  0
  9 12  1  0  0  0  0
  7  8  1  0  0  0  0
  7  9  1  0  0  0  0
 16 17  1  0  0  0  0
 16 18  1  0  0  0  0
 16 19  1  0  0  0  0
 14 15  1  0  0  0  0
 14 16  1  0  0  0  0
M  END
$$$$
default_name
  -OEChem-01062215323D

 19 18  0     0  0  0  0  0  0999 V2000
   -2.2056   -4.0049    0.0000 H   0  0  0  0  0  0  0  0  0  0  0  0
   -2.2496   -2.9169    0.0000 C   0  0  0  0  0  0  0  0  0  0  0  0
   -2.7696   -2.5709    0.8910 H   0  0  0  0  0  0  0  0  0  0  0  0
   -2.7696   -2.5709   -0.8910 H   0  0  0  0  0  0  0  0  0  0  0  0
   -0.8406   -2.3699    0.0000 C   0  0  0  0  0  0  0  0  0  0  0  0
    0.1164   -3.1329    0.0000 O   0  0  0  0  0  0  0  0  0  0  0  0
   -0.7136   -1.0459    0.0000 N   0  0  0  0  0  0  0  0  0  0  0  0
   -1.5436   -0.4719    0.0000 H   0  0  0  0  0  0  0  0  0  0  0  0
    0.5724   -0.3469    0.0000 C   0  0  0  0  0  0  0  0  0  0  0  0
    1.1273   -0.6158   -0.8999 H   0  0  0  0  0  0  0  0  0  0  0  0
    0.3961    0.7295   -0.0159 H   0  0  0  0  0  0  0  0  0  0  0  0
    1.4256   -0.6881    1.2250 C   0  0  0  0  0  0  0  0  0  0  0  0
    1.1503   -0.2141    2.3254 O   0  0  0  0  0  0  0  0  0  0  0  0
    2.4608   -1.5129    1.0219 N   0  0  0  0  0  0  0  0  0  0  0  0
    2.6085   -1.8517    0.0841 H   0  0  0  0  0  0  0  0  0  0  0  0
    3.3935   -1.9594    2.0586 C   0  0  0  0  0  0  0  0  0  0  0  0
    3.1305   -1.5268    3.0270 H   0  0  0  0  0  0  0  0  0  0  0  0
    3.3615   -3.0465    2.1433 H   0  0  0  0  0  0  0  0  0  0  0  0
    4.4078   -1.6497    1.8035 H   0  0  0  0  0  0  0  0  0  0  0  0
  5  6  2  0  0  0  0
  5  7  1  0  0  0  0
  2  3  1  0  0  0  0
  2  4  1  0  0  0  0
  2  5  1  0  0  0  0
  1  2  1  0  0  0  0
 12 13  2  0  0  0  0
 12 14  1  0  0  0  0
  9 10  1  0  0  0  0
  9 11  1  0  0  0  0
  9 12  1  0  0  0  0
  7  8  1  0  0  0  0
  7  9  1  0  0  0  0
 16 17  1  0  0  0  0
 16 18  1  0  0  0  0
 16 19  1  0  0  0  0
 14 15  1  0  0  0  0
 14 16  1  0  0  0  0
M  END
$$$$
default_name
  -OEChem-01062215323D

 19 18  0     0  0  0  0  0  0999 V2000
   -2.2056   -4.0049    0.0000 H   0  0  0  0  0  0  0  0  0  0  0  0
   -2.2496   -2.9169    0.0000 C   0  0  0  0  0  0  0  0  0  0  0  0
   -2.7696   -2.5709    0.8910 H   0  0  0  0  0  0  0  0  0  0  0  0
   -2.7696   -2.5709   -0.8910 H   0  0  0  0  0  0  0  0  0  0  0  0
   -0.8406   -2.3699    0.0000 C   0  0  0  0  0  0  0  0  0  0  0  0
    0.1164   -3.1329    0.0000 O   0  0  0  0  0  0  0  0  0  0  0  0
   -0.7136   -1.0459    0.0000 N   0  0  0  0  0  0  0  0  0  0  0  0
   -1.5436   -0.4719    0.0000 H   0  0  0  0  0  0  0  0  0  0  0  0
    0.5724   -0.3469    0.0000 C   0  0  0  0  0  0  0  0  0  0  0  0
    1.1273   -0.6158   -0.8999 H   0  0  0  0  0  0  0  0  0  0  0  0
    0.3961    0.7295   -0.0159 H   0  0  0  0  0  0  0  0  0  0  0  0
    1.4256   -0.6881    1.2250 C   0  0  0  0  0  0  0  0  0  0  0  0
    1.0099   -0.4507    2.3574 O   0  0  0  0  0  0  0  0  0  0  0  0
    2.6193   -1.2457    0.9859 N   0  0  0  0  0  0  0  0  0  0  0  0
    2.8750   -1.4026    0.0235 H   0  0  0  0  0  0  0  0  0  0  0  0
    3.5805   -1.6445    2.0162 C   0  0  0  0  0  0  0  0  0  0  0  0
    3.1911   -1.4247    3.0132 H   0  0  0  0  0  0  0  0  0  0  0  0
    3.7753   -2.7155    1.9472 H   0  0  0  0  0  0  0  0  0  0  0  0
    4.5164   -1.1007    1.8808 H   0  0  0  0  0  0  0  0  0  0  0  0
  5  6  2  0  0  0  0
  5  7  1  0  0  0  0
  2  3  1  0  0  0  0
  2  4  1  0  0  0  0
  2  5  1  0  0  0  0
  1  2  1  0  0  0  0
 12 13  2  0  0  0  0
 12 14  1  0  0  0  0
  9 10  1  0  0  0  0
  9 11  1  0  0  0  0
  9 12  1  0  0  0  0
  7  8  1  0  0  0  0
  7  9  1  0  0  0  0
 16 17  1  0  0  0  0
 16 18  1  0  0  0  0
 16 19  1  0  0  0  0
 14 15  1  0  0  0  0
 14 16  1  0  0  0  0
M  END
$$$$
default_name
  -OEChem-01062215323D

 19 18  0     0  0  0  0  0  0999 V2000
   -2.2056   -4.0049    0.0000 H   0  0  0  0  0  0  0  0  0  0  0  0
   -2.2496   -2.9169    0.0000 C   0  0  0  0  0  0  0  0  0  0  0  0
   -2.7696   -2.5709    0.8910 H   0  0  0  0  0  0  0  0  0  0  0  0
   -2.7696   -2.5709   -0.8910 H   0  0  0  0  0  0  0  0  0  0  0  0
   -0.8406   -2.3699    0.0000 C   0  0  0  0  0  0  0  0  0  0  0  0
    0.1164   -3.1329    0.0000 O   0  0  0  0  0  0  0  0  0  0  0  0
   -0.7136   -1.0459    0.0000 N   0  0  0  0  0  0  0  0  0  0  0  0
   -1.5436   -0.4719    0.0000 H   0  0  0  0  0  0  0  0  0  0  0  0
    0.5724   -0.3469    0.0000 C   0  0  0  0  0  0  0  0  0  0  0  0
    1.1273   -0.6158   -0.8999 H   0  0  0  0  0  0  0  0  0  0  0  0
    0.3961    0.7295   -0.0159 H   0  0  0  0  0  0  0  0  0  0  0  0
    1.4256   -0.6881    1.2250 C   0  0  0  0  0  0  0  0  0  0  0  0
    0.9214   -0.7129    2.3460 O   0  0  0  0  0  0  0  0  0  0  0  0
    2.7193   -0.9497    0.9988 N   0  0  0  0  0  0  0  0  0  0  0  0
    3.0429   -0.9050    0.0452 H   0  0  0  0  0  0  0  0  0  0  0  0
    3.6983   -1.2954    2.0313 C   0  0  0  0  0  0  0  0  0  0  0  0
    3.2293   -1.3116    3.0181 H   0  0  0  0  0  0  0  0  0  0  0  0
    4.1177   -2.2819    1.8295 H   0  0  0  0  0  0  0  0  0  0  0  0
    4.5031   -0.5590    2.0409 H   0  0  0  0  0  0  0  0  0  0  0  0
  5  6  2  0  0  0  0
  5  7  1  0  0  0  0
  2  3  1  0  0  0  0
  2  4  1  0  0  0  0
  2  5  1  0  0  0  0
  1  2  1  0  0  0  0
 12 13  2  0  0  0  0
 12 14  1  0  0  0  0
  9 10  1  0  0  0  0
  9 11  1  0  0  0  0
  9 12  1  0  0  0  0
  7  8  1  0  0  0  0
  7  9  1  0  0  0  0
 16 17  1  0  0  0  0
 16 18  1  0  0  0  0
 16 19  1  0  0  0  0
 14 15  1  0  0  0  0
 14 16  1  0  0  0  0
M  END
$$$$
default_name
  -OEChem-01062215323D

 19 18  0     0  0  0  0  0  0999 V2000
   -2.2056   -4.0049    0.0000 H   0  0  0  0  0  0  0  0  0  0  0  0
   -2.2496   -2.9169    0.0000 C   0  0  0  0  0  0  0  0  0  0  0  0
   -2.7696   -2.5709    0.8910 H   0  0  0  0  0  0  0  0  0  0  0  0
   -2.7696   -2.5709   -0.8910 H   0  0  0  0  0  0  0  0  0  0  0  0
   -0.8406   -2.3699    0.0000 C   0  0  0  0  0  0  0  0  0  0  0  0
    0.1164   -3.1329    0.0000 O   0  0  0  0  0  0  0  0  0  0  0  0
   -0.7136   -1.0459    0.0000 N   0  0  0  0  0  0  0  0  0  0  0  0
   -1.5436   -0.4719    0.0000 H   0  0  0  0  0  0  0  0  0  0  0  0
    0.5724   -0.3469    0.0000 C   0  0  0  0  0  0  0  0  0  0  0  0
    1.1273   -0.6158   -0.8999 H   0  0  0  0  0  0  0  0  0  0  0  0
    0.3961    0.7295   -0.0159 H   0  0  0  0  0  0  0  0  0  0  0  0
    1.4256   -0.6881    1.2250 C   0  0  0  0  0  0  0  0  0  0  0  0
    0.8908   -0.9828    2.2920 O   0  0  0  0  0  0  0  0  0  0  0  0
    2.7537   -0.6448    1.0597 N   0  0  0  0  0  0  0  0  0  0  0  0
    3.1009   -0.3927    0.1475 H   0  0  0  0  0  0  0  0  0  0  0  0
    3.7390   -0.9359    2.1031 C   0  0  0  0  0  0  0  0  0  0  0  0
    3.2425   -1.1951    3.0414 H   0  0  0  0  0  0  0  0  0  0  0  0
    4.3655   -1.7751    1.7980 H   0  0  0  0  0  0  0  0  0  0  0  0
    4.3688   -0.0617    2.2729 H   0  0  0  0  0  0  0  0  0  0  0  0
  5  6  2  0  0  0  0
  5  7  1  0  0  0  0
  2  3  1  0  0  0  0
  2  4  1  0  0  0  0
  2  5  1  0  0  0  0
  1  2  1  0  0  0  0
 12 13  2  0  0  0  0
 12 14  1  0  0  0  0
  9 10  1  0  0  0  0
  9 11  1  0  0  0  0
  9 12  1  0  0  0  0
  7  8  1  0  0  0  0
  7  9  1  0  0  0  0
 16 17  1  0  0  0  0
 16 18  1  0  0  0  0
 16 19  1  0  0  0  0
 14 15  1  0  0  0  0
 14 16  1  0  0  0  0
M  END
$$$$
default_name
  -OEChem-01062215323D

 19 18  0     0  0  0  0  0  0999 V2000
   -2.2056   -4.0049    0.0000 H   0  0  0  0  0  0  0  0  0  0  0  0
   -2.2496   -2.9169    0.0000 C   0  0  0  0  0  0  0  0  0  0  0  0
   -2.7696   -2.5709    0.8910 H   0  0  0  0  0  0  0  0  0  0  0  0
   -2.7696   -2.5709   -0.8910 H   0  0  0  0  0  0  0  0  0  0  0  0
   -0.8406   -2.3699    0.0000 C   0  0  0  0  0  0  0  0  0  0  0  0
    0.1164   -3.1329    0.0000 O   0  0  0  0  0  0  0  0  0  0  0  0
   -0.7136   -1.0459    0.0000 N   0  0  0  0  0  0  0  0  0  0  0  0
   -1.5436   -0.4719    0.0000 H   0  0  0  0  0  0  0  0  0  0  0  0
    0.5724   -0.3469    0.0000 C   0  0  0  0  0  0  0  0  0  0  0  0
    1.1273   -0.6158   -0.8999 H   0  0  0  0  0  0  0  0  0  0  0  0
    0.3961    0.7295   -0.0159 H   0  0  0  0  0  0  0  0  0  0  0  0
    1.4256   -0.6881    1.2250 C   0  0  0  0  0  0  0  0  0  0  0  0
    0.9203   -1.2421    2.1993 O   0  0  0  0  0  0  0  0  0  0  0  0
    2.7204   -0.3520    1.1644 N   0  0  0  0  0  0  0  0  0  0  0  0
    3.0448    0.0995    0.3236 H   0  0  0  0  0  0  0  0  0  0  0  0
    3.6997   -0.5907    2.2266 C   0  0  0  0  0  0  0  0  0  0  0  0
    3.2297   -1.0832    3.0814 H   0  0  0  0  0  0  0  0  0  0  0  0
    4.5018   -1.2298    1.8550 H   0  0  0  0  0  0  0  0  0  0  0  0
    4.1228    0.3574    2.5610 H   0  0  0  0  0  0  0  0  0  0  0  0
  5  6  2  0  0  0  0
  5  7  1  0  0  0  0
  2  3  1  0  0  0  0
  2  4  1  0  0  0  0
  2  5  1  0  0  0  0
  1  2  1  0  0  0  0
 12 13  2  0  0  0  0
 12 14  1  0  0  0  0
  9 10  1  0  0  0  0
  9 11  1  0  0  0  0
  9 12  1  0  0  0  0
  7  8  1  0  0  0  0
  7  9  1  0  0  0  0
 16 17  1  0  0  0  0
 16 18  1  0  0  0  0
 16 19  1  0  0  0  0
 14 15  1  0  0  0  0
 14 16  1  0  0  0  0
M  END
$$$$
default_name
  -OEChem-01062215323D

 19 18  0     0  0  0  0  0  0999 V2000
   -2.2056   -4.0049    0.0000 H   0  0  0  0  0  0  0  0  0  0  0  0
   -2.2496   -2.9169    0.0000 C   0  0  0  0  0  0  0  0  0  0  0  0
   -2.7696   -2.5709    0.8910 H   0  0  0  0  0  0  0  0  0  0  0  0
   -2.7696   -2.5709   -0.8910 H   0  0  0  0  0  0  0  0  0  0  0  0
   -0.8406   -2.3699    0.0000 C   0  0  0  0  0  0  0  0  0  0  0  0
    0.1164   -3.1329    0.0000 O   0  0  0  0  0  0  0  0  0  0  0  0
   -0.7136   -1.0459    0.0000 N   0  0  0  0  0  0  0  0  0  0  0  0
   -1.5436   -0.4719    0.0000 H   0  0  0  0  0  0  0  0  0  0  0  0
    0.5724   -0.3469    0.0000 C   0  0  0  0  0  0  0  0  0  0  0  0
    1.0079   -0.3961   -0.9989 H   0  0  0  0  0  0  0  0  0  0  0  0
    0.4108    0.7023    0.2512 H   0  0  0  0  0  0  0  0  0  0  0  0
    1.5655   -0.9455    1.0002 C   0  0  0  0  0  0  0  0  0  0  0  0
    1.2447   -1.9088    1.6934 O   0  0  0  0  0  0  0  0  0  0  0  0
    2.7707   -0.3656    1.0663 N   0  0  0  0  0  0  0  0  0  0  0  0
    2.9428    0.4199    0.4584 H   0  0  0  0  0  0  0  0  0  0  0  0
    3.8565   -0.7861    1.9543 C   0  0  0  0  0  0  0  0  0  0  0  0
    3.5500   -1.6423    2.5601 H   0  0  0  0  0  0  0  0  0  0  0  0
    4.7285   -1.0718    1.3645 H   0  0  0  0  0  0  0  0  0  0  0  0
    4.1281    0.0328    2.6217 H   0  0  0  0  0  0  0  0  0  0  0  0
  5  6  2  0  0  0  0
  5  7  1  0  0  0  0
  2  3  1  0  0  0  0
  2  4  1  0  0  0  0
  2  5  1  0  0  0  0
  1  2  1  0  0  0  0
 12 13  2  0  0  0  0
 12 14  1  0  0  0  0
  9 10  1  0  0  0  0
  9 11  1  0  0  0  0
  9 12  1  0  0  0  0
  7  8  1  0  0  0  0
  7  9  1  0  0  0  0
 16 17  1  0  0  0  0
 16 18  1  0  0  0  0
 16 19  1  0  0  0  0
 14 15  1  0  0  0  0
 14 16  1  0  0  0  0
M  END
$$$$
default_name
  -OEChem-01062215323D

 19 18  0     0  0  0  0  0  0999 V2000
   -2.2056   -4.0049    0.0000 H   0  0  0  0  0  0  0  0  0  0  0  0
   -2.2496   -2.9169    0.0000 C   0  0  0  0  0  0  0  0  0  0  0  0
   -2.7696   -2.5709    0.8910 H   0  0  0  0  0  0  0  0  0  0  0  0
   -2.7696   -2.5709   -0.8910 H   0  0  0  0  0  0  0  0  0  0  0  0
   -0.8406   -2.3699    0.0000 C   0  0  0  0  0  0  0  0  0  0  0  0
    0.1164   -3.1329    0.0000 O   0  0  0  0  0  0  0  0  0  0  0  0
   -0.7136   -1.0459    0.0000 N   0  0  0  0  0  0  0  0  0  0  0  0
   -1.5436   -0.4719    0.0000 H   0  0  0  0  0  0  0  0  0  0  0  0
    0.5724   -0.3469    0.0000 C   0  0  0  0  0  0  0  0  0  0  0  0
    1.0079   -0.3961   -0.9989 H   0  0  0  0  0  0  0  0  0  0  0  0
    0.4108    0.7023    0.2512 H   0  0  0  0  0  0  0  0  0  0  0  0
    1.5655   -0.9455    1.0002 C   0  0  0  0  0  0  0  0  0  0  0  0
    1.3621   -2.0549    1.4895 O   0  0  0  0  0  0  0  0  0  0  0  0
    2.6382   -0.2007    1.2966 N   0  0  0  0  0  0  0  0  0  0  0  0
    2.7200    0.6970    0.8455 H   0  0  0  0  0  0  0  0  0  0  0  0
    3.7002   -0.5917    2.2258 C   0  0  0  0  0  0  0  0  0  0  0  0
    3.4994   -1.5793    2.6482 H   0  0  0  0  0  0  0  0  0  0  0  0
    4.6569   -0.6252    1.7029 H   0  0  0  0  0  0  0  0  0  0  0  0
    3.7630    0.1293    3.0420 H   0  0  0  0  0  0  0  0  0  0  0  0
  5  6  2  0  0  0  0
  5  7  1  0  0  0  0
  2  3  1  0  0  0  0
  2  4  1  0  0  0  0
  2  5  1  0  0  0  0
  1  2  1  0  0  0  0
 12 13  2  0  0  0  0
 12 14  1  0  0  0  0
  9 10  1  0  0  0  0
  9 11  1  0  0  0  0
  9 12  1  0  0  0  0
  7  8  1  0  0  0  0
  7  9  1  0  0  0  0
 16 17  1  0  0  0  0
 16 18  1  0  0  0  0
 16 19  1  0  0  0  0
 14 15  1  0  0  0  0
 14 16  1  0  0  0  0
M  END
$$$$
default_name
  -OEChem-01062215323D

 19 18  0     0  0  0  0  0  0999 V2000
   -2.2056   -4.0049    0.0000 H   0  0  0  0  0  0  0  0  0  0  0  0
   -2.2496   -2.9169    0.0000 C   0  0  0  0  0  0  0  0  0  0  0  0
   -2.7696   -2.5709    0.8910 H   0  0  0  0  0  0  0  0  0  0  0  0
   -2.7696   -2.5709   -0.8910 H   0  0  0  0  0  0  0  0  0  0  0  0
   -0.8406   -2.3699    0.0000 C   0  0  0  0  0  0  0  0  0  0  0  0
    0.1164   -3.1329    0.0000 O   0  0  0  0  0  0  0  0  0  0  0  0
   -0.7136   -1.0459    0.0000 N   0  0  0  0  0  0  0  0  0  0  0  0
   -1.5436   -0.4719    0.0000 H   0  0  0  0  0  0  0  0  0  0  0  0
    0.5724   -0.3469    0.0000 C   0  0  0  0  0  0  0  0  0  0  0  0
    1.0079   -0.3961   -0.9989 H   0  0  0  0  0  0  0  0  0  0  0  0
    0.4108    0.7023    0.2512 H   0  0  0  0  0  0  0  0  0  0  0  0
    1.5655   -0.9455    1.0002 C   0  0  0  0  0  0  0  0  0  0  0  0
    1.5208   -2.1418    1.2798 O   0  0  0  0  0  0  0  0  0  0  0  0
    2.4589   -0.1025    1.5333 N   0  0  0  0  0  0  0  0  0  0  0  0
    2.4188    0.8621    1.2434 H   0  0  0  0  0  0  0  0  0  0  0  0
    3.4889   -0.4759    2.5049 C   0  0  0  0  0  0  0  0  0  0  0  0
    3.4309   -1.5417    2.7387 H   0  0  0  0  0  0  0  0  0  0  0  0
    4.4780   -0.2626    2.0975 H   0  0  0  0  0  0  0  0  0  0  0  0
    3.3516    0.0903    3.4272 H   0  0  0  0  0  0  0  0  0  0  0  0
  5  6  2  0  0  0  0
  5  7  1  0  0  0  0
  2  3  1  0  0  0  0
  2  4  1  0  0  0  0
  2  5  1  0  0  0  0
  1  2  1  0  0  0  0
 12 13  2  0  0  0  0
 12 14  1  0  0  0  0
  9 10  1  0  0  0  0
  9 11  1  0  0  0  0
  9 12  1  0  0  0  0
  7  8  1  0  0  0  0
  7  9  1  0  0  0  0
 16 17  1  0  0  0  0
 16 18  1  0  0  0  0
 16 19  1  0  0  0  0
 14 15  1  0  0  0  0
 14 16  1  0  0  0  0
M  END
$$$$
default_name
  -OEChem-01062215323D

 19 18  0     0  0  0  0  0  0999 V2000
   -2.2056   -4.0049    0.0000 H   0  0  0  0  0  0  0  0  0  0  0  0
   -2.2496   -2.9169    0.0000 C   0  0  0  0  0  0  0  0  0  0  0  0
   -2.7696   -2.5709    0.8910 H   0  0  0  0  0  0  0  0  0  0  0  0
   -2.7696   -2.5709   -0.8910 H   0  0  0  0  0  0  0  0  0  0  0  0
   -0.8406   -2.3699    0.0000 C   0  0  0  0  0  0  0  0  0  0  0  0
    0.1164   -3.1329    0.0000 O   0  0  0  0  0  0  0  0  0  0  0  0
   -0.7136   -1.0459    0.0000 N   0  0  0  0  0  0  0  0  0  0  0  0
   -1.5436   -0.4719    0.0000 H   0  0  0  0  0  0  0  0  0  0  0  0
    0.5724   -0.3469    0.0000 C   0  0  0  0  0  0  0  0  0  0  0  0
    1.0079   -0.3961   -0.9989 H   0  0  0  0  0  0  0  0  0  0  0  0
    0.4108    0.7023    0.2512 H   0  0  0  0  0  0  0  0  0  0  0  0
    1.5655   -0.9455    1.0002 C   0  0  0  0  0  0  0  0  0  0  0  0
    1.7100   -2.1638    1.0788 O   0  0  0  0  0  0  0  0  0  0  0  0
    2.2453   -0.0776    1.7604 N   0  0  0  0  0  0  0  0  0  0  0  0
    2.0597    0.9039    1.6250 H   0  0  0  0  0  0  0  0  0  0  0  0
    3.2370   -0.4466    2.7726 C   0  0  0  0  0  0  0  0  0  0  0  0
    3.3492   -1.5322    2.8254 H   0  0  0  0  0  0  0  0  0  0  0  0
    4.2040   -0.0088    2.5214 H   0  0  0  0  0  0  0  0  0  0  0  0
    2.9218   -0.0816    3.7511 H   0  0  0  0  0  0  0  0  0  0  0  0
  5  6  2  0  0  0  0
  5  7  1  0  0  0  0
  2  3  1  0  0  0  0
  2  4  1  0  0  0  0
  2  5  1  0  0  0  0
  1  2  1  0  0  0  0
 12 13  2  0  0  0  0
 12 14  1  0  0  0  0
  9 10  1  0  0  0  0
  9 11  1  0  0  0  0
  9 12  1  0  0  0  0
  7  8  1  0  0  0  0
  7  9  1  0  0  0  0
 16 17  1  0  0  0  0
 16 18  1  0  0  0  0
 16 19  1  0  0  0  0
 14 15  1  0  0  0  0
 14 16  1  0  0  0  0
M  END
$$$$
default_name
  -OEChem-01062215323D

 19 18  0     0  0  0  0  0  0999 V2000
   -2.2056   -4.0049    0.0000 H   0  0  0  0  0  0  0  0  0  0  0  0
   -2.2496   -2.9169    0.0000 C   0  0  0  0  0  0  0  0  0  0  0  0
   -2.7696   -2.5709    0.8910 H   0  0  0  0  0  0  0  0  0  0  0  0
   -2.7696   -2.5709   -0.8910 H   0  0  0  0  0  0  0  0  0  0  0  0
   -0.8406   -2.3699    0.0000 C   0  0  0  0  0  0  0  0  0  0  0  0
    0.1164   -3.1329    0.0000 O   0  0  0  0  0  0  0  0  0  0  0  0
   -0.7136   -1.0459    0.0000 N   0  0  0  0  0  0  0  0  0  0  0  0
   -1.5436   -0.4719    0.0000 H   0  0  0  0  0  0  0  0  0  0  0  0
    0.5724   -0.3469    0.0000 C   0  0  0  0  0  0  0  0  0  0  0  0
    1.0079   -0.3961   -0.9989 H   0  0  0  0  0  0  0  0  0  0  0  0
    0.4108    0.7023    0.2512 H   0  0  0  0  0  0  0  0  0  0  0  0
    1.5655   -0.9455    1.0002 C   0  0  0  0  0  0  0  0  0  0  0  0
    1.9168   -2.1194    0.9000 O   0  0  0  0  0  0  0  0  0  0  0  0
    2.0117   -0.1279    1.9622 N   0  0  0  0  0  0  0  0  0  0  0  0
    1.6672    0.8195    1.9642 H   0  0  0  0  0  0  0  0  0  0  0  0
    2.9616   -0.5058    3.0106 C   0  0  0  0  0  0  0  0  0  0  0  0
    3.2600   -1.5514    2.9026 H   0  0  0  0  0  0  0  0  0  0  0  0
    3.8535    0.1188    2.9458 H   0  0  0  0  0  0  0  0  0  0  0  0
    2.5029   -0.3747    3.9916 H   0  0  0  0  0  0  0  0  0  0  0  0
  5  6  2  0  0  0  0
  5  7  1  0  0  0  0
  2  3  1  0  0  0  0
  2  4  1  0  0  0  0
  2  5  1  0  0  0  0
  1  2  1  0  0  0  0
 12 13  2  0  0  0  0
 12 14  1  0  0  0  0
  9 10  1  0  0  0  0
  9 11  1  0  0  0  0
  9 12  1  0  0  0  0
  7  8  1  0  0  0  0
  7  9  1  0  0  0  0
 16 17  1  0  0  0  0
 16 18  1  0  0  0  0
 16 19  1  0  0  0  0
 14 15  1  0  0  0  0
 14 16  1  0  0  0  0
M  END
$$$$
default_name
  -OEChem-01062215323D

 19 18  0     0  0  0  0  0  0999 V2000
   -2.2056   -4.0049    0.0000 H   0  0  0  0  0  0  0  0  0  0  0  0
   -2.2496   -2.9169    0.0000 C   0  0  0  0  0  0  0  0  0  0  0  0
   -2.7696   -2.5709    0.8910 H   0  0  0  0  0  0  0  0  0  0  0  0
   -2.7696   -2.5709   -0.8910 H   0  0  0  0  0  0  0  0  0  0  0  0
   -0.8406   -2.3699    0.0000 C   0  0  0  0  0  0  0  0  0  0  0  0
    0.1164   -3.1329    0.0000 O   0  0  0  0  0  0  0  0  0  0  0  0
   -0.7136   -1.0459    0.0000 N   0  0  0  0  0  0  0  0  0  0  0  0
   -1.5436   -0.4719    0.0000 H   0  0  0  0  0  0  0  0  0  0  0  0
    0.5724   -0.3469    0.0000 C   0  0  0  0  0  0  0  0  0  0  0  0
    1.0079   -0.3961   -0.9989 H   0  0  0  0  0  0  0  0  0  0  0  0
    0.4108    0.7023    0.2512 H   0  0  0  0  0  0  0  0  0  0  0  0
    1.5655   -0.9455    1.0002 C   0  0  0  0  0  0  0  0  0  0  0  0
    2.1272   -2.0114    0.7558 O   0  0  0  0  0  0  0  0  0  0  0  0
    1.7742   -0.2497    2.1251 N   0  0  0  0  0  0  0  0  0  0  0  0
    1.2679    0.6146    2.2380 H   0  0  0  0  0  0  0  0  0  0  0  0
    2.6815   -0.6495    3.2027 C   0  0  0  0  0  0  0  0  0  0  0  0
    3.1692   -1.5980    2.9648 H   0  0  0  0  0  0  0  0  0  0  0  0
    3.4505    0.1115    3.3417 H   0  0  0  0  0  0  0  0  0  0  0  0
    2.1236   -0.7689    4.1324 H   0  0  0  0  0  0  0  0  0  0  0  0
  5  6  2  0  0  0  0
  5  7  1  0  0  0  0
  2  3  1  0  0  0  0
  2  4  1  0  0  0  0
  2  5  1  0  0  0  0
  1  2  1  0  0  0  0
 12 13  2  0  0  0  0
 12 14  1  0  0  0  0
  9 10  1  0  0  0  0
  9 11  1  0  0  0  0
  9 12  1  0  0  0  0
  7  8  1  0  0  0  0
  7  9  1  0  0  0  0
 16 17  1  0  0  0  0
 16 18  1  0  0  0  0
 16 19  1  0  0  0  0
 14 15  1  0  0  0  0
 14 16  1  0  0  0  0
M  END
$$$$
default_name
  -OEChem-01062215323D

 19 18  0     0  0  0  0  0  0999 V2000
   -2.2056   -4.0049    0.0000 H   0  0  0  0  0  0  0  0  0  0  0  0
   -2.2496   -2.9169    0.0000 C   0  0  0  0  0  0  0  0  0  0  0  0
   -2.7696   -2.5709    0.8910 H   0  0  0  0  0  0  0  0  0  0  0  0
   -2.7696   -2.5709   -0.8910 H   0  0  0  0  0  0  0  0  0  0  0  0
   -0.8406   -2.3699    0.0000 C   0  0  0  0  0  0  0  0  0  0  0  0
    0.1164   -3.1329    0.0000 O   0  0  0  0  0  0  0  0  0  0  0  0
   -0.7136   -1.0459    0.0000 N   0  0  0  0  0  0  0  0  0  0  0  0
   -1.5436   -0.4719    0.0000 H   0  0  0  0  0  0  0  0  0  0  0  0
    0.5724   -0.3469    0.0000 C   0  0  0  0  0  0  0  0  0  0  0  0
    1.0079   -0.3961   -0.9989 H   0  0  0  0  0  0  0  0  0  0  0  0
    0.4108    0.7023    0.2512 H   0  0  0  0  0  0  0  0  0  0  0  0
    1.5655   -0.9455    1.0002 C   0  0  0  0  0  0  0  0  0  0  0  0
    2.3267   -1.8474    0.6558 O   0  0  0  0  0  0  0  0  0  0  0  0
    1.5489   -0.4350    2.2380 N   0  0  0  0  0  0  0  0  0  0  0  0
    0.8892    0.3033    2.4277 H   0  0  0  0  0  0  0  0  0  0  0  0
    2.4159   -0.8679    3.3358 C   0  0  0  0  0  0  0  0  0  0  0  0
    3.0831   -1.6688    3.0080 H   0  0  0  0  0  0  0  0  0  0  0  0
    3.0224   -0.0300    3.6821 H   0  0  0  0  0  0  0  0  0  0  0  0
    1.8095   -1.2375    4.1638 H   0  0  0  0  0  0  0  0  0  0  0  0
  5  6  2  0  0  0  0
  5  7  1  0  0  0  0
  2  3  1  0  0  0  0
  2  4  1  0  0  0  0
  2  5  1  0  0  0  0
  1  2  1  0  0  0  0
 12 13  2  0  0  0  0
 12 14  1  0  0  0  0
  9 10  1  0  0  0  0
  9 11  1  0  0  0  0
  9 12  1  0  0  0  0
  7  8  1  0  0  0  0
  7  9  1  0  0  0  0
 16 17  1  0  0  0  0
 16 18  1  0  0  0  0
 16 19  1  0  0  0  0
 14 15  1  0  0  0  0
 14 16  1  0  0  0  0
M  END
$$$$
default_name
  -OEChem-01062215323D

 19 18  0     0  0  0  0  0  0999 V2000
   -2.2056   -4.0049    0.0000 H   0  0  0  0  0  0  0  0  0  0  0  0
   -2.2496   -2.9169    0.0000 C   0  0  0  0  0  0  0  0  0  0  0  0
   -2.7696   -2.5709    0.8910 H   0  0  0  0  0  0  0  0  0  0  0  0
   -2.7696   -2.5709   -0.8910 H   0  0  0  0  0  0  0  0  0  0  0  0
   -0.8406   -2.3699    0.0000 C   0  0  0  0  0  0  0  0  0  0  0  0
    0.1164   -3.1329    0.0000 O   0  0  0  0  0  0  0  0  0  0  0  0
   -0.7136   -1.0459    0.0000 N   0  0  0  0  0  0  0  0  0  0  0  0
   -1.5436   -0.4719    0.0000 H   0  0  0  0  0  0  0  0  0  0  0  0
    0.5724   -0.3469    0.0000 C   0  0  0  0  0  0  0  0  0  0  0  0
    1.0079   -0.3961   -0.9989 H   0  0  0  0  0  0  0  0  0  0  0  0
    0.4108    0.7023    0.2512 H   0  0  0  0  0  0  0  0  0  0  0  0
    1.5655   -0.9455    1.0002 C   0  0  0  0  0  0  0  0  0  0  0  0
    2.5018   -1.6385    0.6070 O   0  0  0  0  0  0  0  0  0  0  0  0
    1.3511   -0.6709    2.2931 N   0  0  0  0  0  0  0  0  0  0  0  0
    0.5569   -0.0933    2.5204 H   0  0  0  0  0  0  0  0  0  0  0  0
    2.1827   -1.1461    3.4008 C   0  0  0  0  0  0  0  0  0  0  0  0
    3.0075   -1.7590    3.0290 H   0  0  0  0  0  0  0  0  0  0  0  0
    2.5984   -0.2962    3.9438 H   0  0  0  0  0  0  0  0  0  0  0  0
    1.5822   -1.7485    4.0837 H   0  0  0  0  0  0  0  0  0  0  0  0
  5  6  2  0  0  0  0
  5  7  1  0  0  0  0
  2  3  1  0  0  0  0
  2  4  1  0  0  0  0
  2  5  1  0  0  0  0
  1  2  1  0  0  0  0
 12 13  2  0  0  0  0
 12 14  1  0  0  0  0
  9 10  1  0  0  0  0
  9 11  1  0  0  0  0
  9 12  1  0  0  0  0
  7  8  1  0  0  0  0
  7  9  1  0  0  0  0
 16 17  1  0  0  0  0
 16 18  1  0  0  0  0
 16 19  1  0  0  0  0
 14 15  1  0  0  0  0
 14 16  1  0  0  0  0
M  END
$$$$
default_name
  -OEChem-01062215323D

 19 18  0     0  0  0  0  0  0999 V2000
   -2.2056   -4.0049    0.0000 H   0  0  0  0  0  0  0  0  0  0  0  0
   -2.2496   -2.9169    0.0000 C   0  0  0  0  0  0  0  0  0  0  0  0
   -2.7696   -2.5709    0.8910 H   0  0  0  0  0  0  0  0  0  0  0  0
   -2.7696   -2.5709   -0.8910 H   0  0  0  0  0  0  0  0  0  0  0  0
   -0.8406   -2.3699    0.0000 C   0  0  0  0  0  0  0  0  0  0  0  0
    0.1164   -3.1329    0.0000 O   0  0  0  0  0  0  0  0  0  0  0  0
   -0.7136   -1.0459    0.0000 N   0  0  0  0  0  0  0  0  0  0  0  0
   -1.5436   -0.4719    0.0000 H   0  0  0  0  0  0  0  0  0  0  0  0
    0.5724   -0.3469    0.0000 C   0  0  0  0  0  0  0  0  0  0  0  0
    1.0079   -0.3961   -0.9989 H   0  0  0  0  0  0  0  0  0  0  0  0
    0.4108    0.7023    0.2512 H   0  0  0  0  0  0  0  0  0  0  0  0
    1.5655   -0.9455    1.0002 C   0  0  0  0  0  0  0  0  0  0  0  0
    2.6406   -1.3988    0.6126 O   0  0  0  0  0  0  0  0  0  0  0  0
    1.1944   -0.9415    2.2868 N   0  0  0  0  0  0  0  0  0  0  0  0
    0.2935   -0.5481    2.5098 H   0  0  0  0  0  0  0  0  0  0  0  0
    1.9980   -1.4651    3.3933 C   0  0  0  0  0  0  0  0  0  0  0  0
    2.9476   -1.8624    3.0266 H   0  0  0  0  0  0  0  0  0  0  0  0
    2.2073   -0.6690    4.1090 H   0  0  0  0  0  0  0  0  0  0  0  0
    1.4571   -2.2671    3.8976 H   0  0  0  0  0  0  0  0  0  0  0  0
  5  6  2  0  0  0  0
  5  7  1  0  0  0  0
  2  3  1  0  0  0  0
  2  4  1  0  0  0  0
  2  5  1  0  0  0  0
  1  2  1  0  0  0  0
 12 13  2  0  0  0  0
 12 14  1  0  0  0  0
  9 10  1  0  0  0  0
  9 11  1  0  0  0  0
  9 12  1  0  0  0  0
  7  8  1  0  0  0  0
  7  9  1  0  0  0  0
 16 17  1  0  0  0  0
 16 18  1  0  0  0  0
 16 19  1  0  0  0  0
 14 15  1  0  0  0  0
 14 16  1  0  0  0  0
M  END
$$$$
default_name
  -OEChem-01062215323D

 19 18  0     0  0  0  0  0  0999 V2000
   -2.2056   -4.0049    0.0000 H   0  0  0  0  0  0  0  0  0  0  0  0
   -2.2496   -2.9169    0.0000 C   0  0  0  0  0  0  0  0  0  0  0  0
   -2.7696   -2.5709    0.8910 H   0  0  0  0  0  0  0  0  0  0  0  0
   -2.7696   -2.5709   -0.8910 H   0  0  0  0  0  0  0  0  0  0  0  0
   -0.8406   -2.3699    0.0000 C   0  0  0  0  0  0  0  0  0  0  0  0
    0.1164   -3.1329    0.0000 O   0  0  0  0  0  0  0  0  0  0  0  0
   -0.7136   -1.0459    0.0000 N   0  0  0  0  0  0  0  0  0  0  0  0
   -1.5436   -0.4719    0.0000 H   0  0  0  0  0  0  0  0  0  0  0  0
    0.5724   -0.3469    0.0000 C   0  0  0  0  0  0  0  0  0  0  0  0
    1.0079   -0.3961   -0.9989 H   0  0  0  0  0  0  0  0  0  0  0  0
    0.4108    0.7023    0.2512 H   0  0  0  0  0  0  0  0  0  0  0  0
    1.5655   -0.9455    1.0002 C   0  0  0  0  0  0  0  0  0  0  0  0
    2.7335   -1.1449    0.6723 O   0  0  0  0  0  0  0  0  0  0  0  0
    1.0895   -1.2283    2.2194 N   0  0  0  0  0  0  0  0  0  0  0  0
    0.1171   -1.0301    2.3965 H   0  0  0  0  0  0  0  0  0  0  0  0
    1.8742   -1.8033    3.3138 C   0  0  0  0  0  0  0  0  0  0  0  0
    2.9075   -1.9720    3.0009 H   0  0  0  0  0  0  0  0  0  0  0  0
    1.8759   -1.1229    4.1665 H   0  0  0  0  0  0  0  0  0  0  0  0
    1.4428   -2.7578    3.6181 H   0  0  0  0  0  0  0  0  0  0  0  0
  5  6  2  0  0  0  0
  5  7  1  0  0  0  0
  2  3  1  0  0  0  0
  2  4  1  0  0  0  0
  2  5  1  0  0  0  0
  1  2  1  0  0  0  0
 12 13  2  0  0  0  0
 12 14  1  0  0  0  0
  9 10  1  0  0  0  0
  9 11  1  0  0  0  0
  9 12  1  0  0  0  0
  7  8  1  0  0  0  0
  7  9  1  0  0  0  0
 16 17  1  0  0  0  0
 16 18  1  0  0  0  0
 16 19  1  0  0  0  0
 14 15  1  0  0  0  0
 14 16  1  0  0  0  0
M  END
$$$$
default_name
  -OEChem-01062215323D

 19 18  0     0  0  0  0  0  0999 V2000
   -2.2056   -4.0049    0.0000 H   0  0  0  0  0  0  0  0  0  0  0  0
   -2.2496   -2.9169    0.0000 C   0  0  0  0  0  0  0  0  0  0  0  0
   -2.7696   -2.5709    0.8910 H   0  0  0  0  0  0  0  0  0  0  0  0
   -2.7696   -2.5709   -0.8910 H   0  0  0  0  0  0  0  0  0  0  0  0
   -0.8406   -2.3699    0.0000 C   0  0  0  0  0  0  0  0  0  0  0  0
    0.1164   -3.1329    0.0000 O   0  0  0  0  0  0  0  0  0  0  0  0
   -0.7136   -1.0459    0.0000 N   0  0  0  0  0  0  0  0  0  0  0  0
   -1.5436   -0.4719    0.0000 H   0  0  0  0  0  0  0  0  0  0  0  0
    0.5724   -0.3469    0.0000 C   0  0  0  0  0  0  0  0  0  0  0  0
    1.0079   -0.3961   -0.9989 H   0  0  0  0  0  0  0  0  0  0  0  0
    0.4108    0.7023    0.2512 H   0  0  0  0  0  0  0  0  0  0  0  0
    1.5655   -0.9455    1.0002 C   0  0  0  0  0  0  0  0  0  0  0  0
    2.7743   -0.8939    0.7820 O   0  0  0  0  0  0  0  0  0  0  0  0
    1.0434   -1.5118    2.0955 N   0  0  0  0  0  0  0  0  0  0  0  0
    0.0396   -1.5065    2.1883 H   0  0  0  0  0  0  0  0  0  0  0  0
    1.8199   -2.1375    3.1678 C   0  0  0  0  0  0  0  0  0  0  0  0
    2.8899   -2.0803    2.9535 H   0  0  0  0  0  0  0  0  0  0  0  0
    1.6267   -1.6270    4.1122 H   0  0  0  0  0  0  0  0  0  0  0  0
    1.5402   -3.1874    3.2643 H   0  0  0  0  0  0  0  0  0  0  0  0
  5  6  2  0  0  0  0
  5  7  1  0  0  0  0
  2  3  1  0  0  0  0
  2  4  1  0  0  0  0
  2  5  1  0  0  0  0
  1  2  1  0  0  0  0
 12 13  2  0  0  0  0
 12 14  1  0  0  0  0
  9 10  1  0  0  0  0
  9 11  1  0  0  0  0
  9 12  1  0  0  0  0
  7  8  1  0  0  0  0
  7  9  1  0  0  0  0
 16 17  1  0  0  0  0
 16 18  1  0  0  0  0
 16 19  1  0  0  0  0
 14 15  1  0  0  0  0
 14 16  1  0  0  0  0
M  END
$$$$
default_name
  -OEChem-01062215323D

 19 18  0     0  0  0  0  0  0999 V2000
   -2.2056   -4.0049    0.0000 H   0  0  0  0  0  0  0  0  0  0  0  0
   -2.2496   -2.9169    0.0000 C   0  0  0  0  0  0  0  0  0  0  0  0
   -2.7696   -2.5709    0.8910 H   0  0  0  0  0  0  0  0  0  0  0  0
   -2.7696   -2.5709   -0.8910 H   0  0  0  0  0  0  0  0  0  0  0  0
   -0.8406   -2.3699    0.0000 C   0  0  0  0  0  0  0  0  0  0  0  0
    0.1164   -3.1329    0.0000 O   0  0  0  0  0  0  0  0  0  0  0  0
   -0.7136   -1.0459    0.0000 N   0  0  0  0  0  0  0  0  0  0  0  0
   -1.5436   -0.4719    0.0000 H   0  0  0  0  0  0  0  0  0  0  0  0
    0.5724   -0.3469    0.0000 C   0  0  0  0  0  0  0  0  0  0  0  0
    1.0079   -0.3961   -0.9989 H   0  0  0  0  0  0  0  0  0  0  0  0
    0.4108    0.7023    0.2512 H   0  0  0  0  0  0  0  0  0  0  0  0
    1.5655   -0.9455    1.0002 C   0  0  0  0  0  0  0  0  0  0  0  0
    2.7602   -0.6629    0.9342 O   0  0  0  0  0  0  0  0  0  0  0  0
    1.0593   -1.7726    1.9236 N   0  0  0  0  0  0  0  0  0  0  0  0
    0.0664   -1.9449    1.8994 H   0  0  0  0  0  0  0  0  0  0  0  0
    1.8386   -2.4450    2.9651 C   0  0  0  0  0  0  0  0  0  0  0  0
    2.8960   -2.1800    2.8878 H   0  0  0  0  0  0  0  0  0  0  0  0
    1.4767   -2.1470    3.9500 H   0  0  0  0  0  0  0  0  0  0  0  0
    1.7427   -3.5265    2.8603 H   0  0  0  0  0  0  0  0  0  0  0  0
  5  6  2  0  0  0  0
  5  7  1  0  0  0  0
  2  3  1  0  0  0  0
  2  4  1  0  0  0  0
  2  5  1  0  0  0  0
  1  2  1  0  0  0  0
 12 13  2  0  0  0  0
 12 14  1  0  0  0  0
  9 10  1  0  0  0  0
  9 11  1  0  0  0  0
  9 12  1  0  0  0  0
  7  8  1  0  0  0  0
  7  9  1  0  0  0  0
 16 17  1  0  0  0  0
 16 18  1  0  0  0  0
 16 19  1  0  0  0  0
 14 15  1  0  0  0  0
 14 16  1  0  0  0  0
M  END
$$$$
default_name
  -OEChem-01062215323D

 19 18  0     0  0  0  0  0  0999 V2000
   -2.2056   -4.0049    0.0000 H   0  0  0  0  0  0  0  0  0  0  0  0
   -2.2496   -2.9169    0.0000 C   0  0  0  0  0  0  0  0  0  0  0  0
   -2.7696   -2.5709    0.8910 H   0  0  0  0  0  0  0  0  0  0  0  0
   -2.7696   -2.5709   -0.8910 H   0  0  0  0  0  0  0  0  0  0  0  0
   -0.8406   -2.3699    0.0000 C   0  0  0  0  0  0  0  0  0  0  0  0
    0.1164   -3.1329    0.0000 O   0  0  0  0  0  0  0  0  0  0  0  0
   -0.7136   -1.0459    0.0000 N   0  0  0  0  0  0  0  0  0  0  0  0
   -1.5436   -0.4719    0.0000 H   0  0  0  0  0  0  0  0  0  0  0  0
    0.5724   -0.3469    0.0000 C   0  0  0  0  0  0  0  0  0  0  0  0
    1.0079   -0.3961   -0.9989 H   0  0  0  0  0  0  0  0  0  0  0  0
    0.4108    0.7023    0.2512 H   0  0  0  0  0  0  0  0  0  0  0  0
    1.5655   -0.9455    1.0002 C   0  0  0  0  0  0  0  0  0  0  0  0
    2.6922   -0.4678    1.1186 O   0  0  0  0  0  0  0  0  0  0  0  0
    1.1362   -1.9929    1.7154 N   0  0  0  0  0  0  0  0  0  0  0  0
    0.1956   -2.3152    1.5494 H   0  0  0  0  0  0  0  0  0  0  0  0
    1.9293   -2.7048    2.7197 C   0  0  0  0  0  0  0  0  0  0  0  0
    2.9253   -2.2642    2.8083 H   0  0  0  0  0  0  0  0  0  0  0  0
    1.4361   -2.6474    3.6909 H   0  0  0  0  0  0  0  0  0  0  0  0
    2.0365   -3.7520    2.4336 H   0  0  0  0  0  0  0  0  0  0  0  0
  5  6  2  0  0  0  0
  5  7  1  0  0  0  0
  2  3  1  0  0  0  0
  2  4  1  0  0  0  0
  2  5  1  0  0  0  0
  1  2  1  0  0  0  0
 12 13  2  0  0  0  0
 12 14  1  0  0  0  0
  9 10  1  0  0  0  0
  9 11  1  0  0  0  0
  9 12  1  0  0  0  0
  7  8  1  0  0  0  0
  7  9  1  0  0  0  0
 16 17  1  0  0  0  0
 16 18  1  0  0  0  0
 16 19  1  0  0  0  0
 14 15  1  0  0  0  0
 14 16  1  0  0  0  0
M  END
$$$$
default_name
  -OEChem-01062215323D

 19 18  0     0  0  0  0  0  0999 V2000
   -2.2056   -4.0049    0.0000 H   0  0  0  0  0  0  0  0  0  0  0  0
   -2.2496   -2.9169    0.0000 C   0  0  0  0  0  0  0  0  0  0  0  0
   -2.7696   -2.5709    0.8910 H   0  0  0  0  0  0  0  0  0  0  0  0
   -2.7696   -2.5709   -0.8910 H   0  0  0  0  0  0  0  0  0  0  0  0
   -0.8406   -2.3699    0.0000 C   0  0  0  0  0  0  0  0  0  0  0  0
    0.1164   -3.1329    0.0000 O   0  0  0  0  0  0  0  0  0  0  0  0
   -0.7136   -1.0459    0.0000 N   0  0  0  0  0  0  0  0  0  0  0  0
   -1.5436   -0.4719    0.0000 H   0  0  0  0  0  0  0  0  0  0  0  0
    0.5724   -0.3469    0.0000 C   0  0  0  0  0  0  0  0  0  0  0  0
    1.0079   -0.3961   -0.9989 H   0  0  0  0  0  0  0  0  0  0  0  0
    0.4108    0.7023    0.2512 H   0  0  0  0  0  0  0  0  0  0  0  0
    1.5655   -0.9455    1.0002 C   0  0  0  0  0  0  0  0  0  0  0  0
    2.5748   -0.3218    1.3225 O   0  0  0  0  0  0  0  0  0  0  0  0
    1.2687   -2.1578    1.4851 N   0  0  0  0  0  0  0  0  0  0  0  0
    0.4184   -2.5924    1.1623 H   0  0  0  0  0  0  0  0  0  0  0  0
    2.0856   -2.8992    2.4481 C   0  0  0  0  0  0  0  0  0  0  0  0
    2.9760   -2.3273    2.7202 H   0  0  0  0  0  0  0  0  0  0  0  0
    1.5076   -3.0941    3.3525 H   0  0  0  0  0  0  0  0  0  0  0  0
    2.4015   -3.8485    2.0134 H   0  0  0  0  0  0  0  0  0  0  0  0
  5  6  2  0  0  0  0
  5  7  1  0  0  0  0
  2  3  1  0  0  0  0
  2  4  1  0  0  0  0
  2  5  1  0  0  0  0
  1  2  1  0  0  0  0
 12 13  2  0  0  0  0
 12 14  1  0  0  0  0
  9 10  1  0  0  0  0
  9 11  1  0  0  0  0
  9 12  1  0  0  0  0
  7  8  1  0  0  0  0
  7  9  1  0  0  0  0
 16 17  1  0  0  0  0
 16 18  1  0  0  0  0
 16 19  1  0  0  0  0
 14 15  1  0  0  0  0
 14 16  1  0  0  0  0
M  END
$$$$
default_name
  -OEChem-01062215323D

 19 18  0     0  0  0  0  0  0999 V2000
   -2.2056   -4.0049    0.0000 H   0  0  0  0  0  0  0  0  0  0  0  0
   -2.2496   -2.9169    0.0000 C   0  0  0  0  0  0  0  0  0  0  0  0
   -2.7696   -2.5709    0.8910 H   0  0  0  0  0  0  0  0  0  0  0  0
   -2.7696   -2.5709   -0.8910 H   0  0  0  0  0  0  0  0  0  0  0  0
   -0.8406   -2.3699    0.0000 C   0  0  0  0  0  0  0  0  0  0  0  0
    0.1164   -3.1329    0.0000 O   0  0  0  0  0  0  0  0  0  0  0  0
   -0.7136   -1.0459    0.0000 N   0  0  0  0  0  0  0  0  0  0  0  0
   -1.5436   -0.4719    0.0000 H   0  0  0  0  0  0  0  0  0  0  0  0
    0.5724   -0.3469    0.0000 C   0  0  0  0  0  0  0  0  0  0  0  0
    1.0079   -0.3961   -0.9989 H   0  0  0  0  0  0  0  0  0  0  0  0
    0.4108    0.7023    0.2512 H   0  0  0  0  0  0  0  0  0  0  0  0
    1.5655   -0.9455    1.0002 C   0  0  0  0  0  0  0  0  0  0  0  0
    2.4161   -0.2348    1.5321 O   0  0  0  0  0  0  0  0  0  0  0  0
    1.4479   -2.2561    1.2484 N   0  0  0  0  0  0  0  0  0  0  0  0
    0.7196   -2.7575    0.7644 H   0  0  0  0  0  0  0  0  0  0  0  0
    2.2969   -3.0151    2.1690 C   0  0  0  0  0  0  0  0  0  0  0  0
    3.0445   -2.3648    2.6297 H   0  0  0  0  0  0  0  0  0  0  0  0
    1.6865   -3.4566    2.9579 H   0  0  0  0  0  0  0  0  0  0  0  0
    2.8129   -3.8095    1.6282 H   0  0  0  0  0  0  0  0  0  0  0  0
  5  6  2  0  0  0  0
  5  7  1  0  0  0  0
  2  3  1  0  0  0  0
  2  4  1  0  0  0  0
  2  5  1  0  0  0  0
  1  2  1  0  0  0  0
 12 13  2  0  0  0  0
 12 14  1  0  0  0  0
  9 10  1  0  0  0  0
  9 11  1  0  0  0  0
  9 12  1  0  0  0  0
  7  8  1  0  0  0  0
  7  9  1  0  0  0  0
 16 17  1  0  0  0  0
 16 18  1  0  0  0  0
 16 19  1  0  0  0  0
 14 15  1  0  0  0  0
 14 16  1  0  0  0  0
M  END
$$$$
default_name
  -OEChem-01062215323D

 19 18  0     0  0  0  0  0  0999 V2000
   -2.2056   -4.0049    0.0000 H   0  0  0  0  0  0  0  0  0  0  0  0
   -2.2496   -2.9169    0.0000 C   0  0  0  0  0  0  0  0  0  0  0  0
   -2.7696   -2.5709    0.8910 H   0  0  0  0  0  0  0  0  0  0  0  0
   -2.7696   -2.5709   -0.8910 H   0  0  0  0  0  0  0  0  0  0  0  0
   -0.8406   -2.3699    0.0000 C   0  0  0  0  0  0  0  0  0  0  0  0
    0.1164   -3.1329    0.0000 O   0  0  0  0  0  0  0  0  0  0  0  0
   -0.7136   -1.0459    0.0000 N   0  0  0  0  0  0  0  0  0  0  0  0
   -1.5436   -0.4719    0.0000 H   0  0  0  0  0  0  0  0  0  0  0  0
    0.5724   -0.3469    0.0000 C   0  0  0  0  0  0  0  0  0  0  0  0
    1.0079   -0.3961   -0.9989 H   0  0  0  0  0  0  0  0  0  0  0  0
    0.4108    0.7023    0.2512 H   0  0  0  0  0  0  0  0  0  0  0  0
    1.5655   -0.9455    1.0002 C   0  0  0  0  0  0  0  0  0  0  0  0
    2.2269   -0.2128    1.7332 O   0  0  0  0  0  0  0  0  0  0  0  0
    1.6616   -2.2809    1.0214 N   0  0  0  0  0  0  0  0  0  0  0  0
    1.0787   -2.7993    0.3829 H   0  0  0  0  0  0  0  0  0  0  0  0
    2.5488   -3.0444    1.9013 C   0  0  0  0  0  0  0  0  0  0  0  0
    3.1261   -2.3743    2.5430 H   0  0  0  0  0  0  0  0  0  0  0  0
    1.9605   -3.7104    2.5339 H   0  0  0  0  0  0  0  0  0  0  0  0
    3.2427   -3.6376    1.3043 H   0  0  0  0  0  0  0  0  0  0  0  0
  5  6  2  0  0  0  0
  5  7  1  0  0  0  0
  2  3  1  0  0  0  0
  2  4  1  0  0  0  0
  2  5  1  0  0  0  0
  1  2  1  0  0  0  0
 12 13  2  0  0  0  0
 12 14  1  0  0  0  0
  9 10  1  0  0  0  0
  9 11  1  0  0  0  0
  9 12  1  0  0  0  0
  7  8  1  0  0  0  0
  7  9  1  0  0  0  0
 16 17  1  0  0  0  0
 16 18  1  0  0  0  0
 16 19  1  0  0  0  0
 14 15  1  0  0  0  0
 14 16  1  0  0  0  0
M  END
$$$$
default_name
  -OEChem-01062215323D

 19 18  0     0  0  0  0  0  0999 V2000
   -2.2056   -4.0049    0.0000 H   0  0  0  0  0  0  0  0  0  0  0  0
   -2.2496   -2.9169    0.0000 C   0  0  0  0  0  0  0  0  0  0  0  0
   -2.7696   -2.5709    0.8910 H   0  0  0  0  0  0  0  0  0  0  0  0
   -2.7696   -2.5709   -0.8910 H   0  0  0  0  0  0  0  0  0  0  0  0
   -0.8406   -2.3699    0.0000 C   0  0  0  0  0  0  0  0  0  0  0  0
    0.1164   -3.1329    0.0000 O   0  0  0  0  0  0  0  0  0  0  0  0
   -0.7136   -1.0459    0.0000 N   0  0  0  0  0  0  0  0  0  0  0  0
   -1.5436   -0.4719    0.0000 H   0  0  0  0  0  0  0  0  0  0  0  0
    0.5724   -0.3469    0.0000 C   0  0  0  0  0  0  0  0  0  0  0  0
    1.0079   -0.3961   -0.9989 H   0  0  0  0  0  0  0  0  0  0  0  0
    0.4108    0.7023    0.2512 H   0  0  0  0  0  0  0  0  0  0  0  0
    1.5655   -0.9455    1.0002 C   0  0  0  0  0  0  0  0  0  0  0  0
    2.0201   -0.2573    1.9119 O   0  0  0  0  0  0  0  0  0  0  0  0
    1.8952   -2.2307    0.8195 N   0  0  0  0  0  0  0  0  0  0  0  0
    1.4713   -2.7148    0.0436 H   0  0  0  0  0  0  0  0  0  0  0  0
    2.8242   -2.9851    1.6633 C   0  0  0  0  0  0  0  0  0  0  0  0
    3.2154   -2.3551    2.4658 H   0  0  0  0  0  0  0  0  0  0  0  0
    2.3110   -3.8380    2.1096 H   0  0  0  0  0  0  0  0  0  0  0  0
    3.6616   -3.3445    1.0638 H   0  0  0  0  0  0  0  0  0  0  0  0
  5  6  2  0  0  0  0
  5  7  1  0  0  0  0
  2  3  1  0  0  0  0
  2  4  1  0  0  0  0
  2  5  1  0  0  0  0
  1  2  1  0  0  0  0
 12 13  2  0  0  0  0
 12 14  1  0  0  0  0
  9 10  1  0  0  0  0
  9 11  1  0  0  0  0
  9 12  1  0  0  0  0
  7  8  1  0  0  0  0
  7  9  1  0  0  0  0
 16 17  1  0  0  0  0
 16 18  1  0  0  0  0
 16 19  1  0  0  0  0
 14 15  1  0  0  0  0
 14 16  1  0  0  0  0
M  END
$$$$
default_name
  -OEChem-01062215323D

 19 18  0     0  0  0  0  0  0999 V2000
   -2.2056   -4.0049    0.0000 H   0  0  0  0  0  0  0  0  0  0  0  0
   -2.2496   -2.9169    0.0000 C   0  0  0  0  0  0  0  0  0  0  0  0
   -2.7696   -2.5709    0.8910 H   0  0  0  0  0  0  0  0  0  0  0  0
   -2.7696   -2.5709   -0.8910 H   0  0  0  0  0  0  0  0  0  0  0  0
   -0.8406   -2.3699    0.0000 C   0  0  0  0  0  0  0  0  0  0  0  0
    0.1164   -3.1329    0.0000 O   0  0  0  0  0  0  0  0  0  0  0  0
   -0.7136   -1.0459    0.0000 N   0  0  0  0  0  0  0  0  0  0  0  0
   -1.5436   -0.4719    0.0000 H   0  0  0  0  0  0  0  0  0  0  0  0
    0.5724   -0.3469    0.0000 C   0  0  0  0  0  0  0  0  0  0  0  0
    1.0079   -0.3961   -0.9989 H   0  0  0  0  0  0  0  0  0  0  0  0
    0.4108    0.7023    0.2512 H   0  0  0  0  0  0  0  0  0  0  0  0
    1.5655   -0.9455    1.0002 C   0  0  0  0  0  0  0  0  0  0  0  0
    1.8097   -0.3652    2.0562 O   0  0  0  0  0  0  0  0  0  0  0  0
    2.1327   -2.1088    0.6566 N   0  0  0  0  0  0  0  0  0  0  0  0
    1.8705   -2.5100   -0.2302 H   0  0  0  0  0  0  0  0  0  0  0  0
    3.1042   -2.8414    1.4712 C   0  0  0  0  0  0  0  0  0  0  0  0
    3.3062   -2.3085    2.4036 H   0  0  0  0  0  0  0  0  0  0  0  0
    2.7140   -3.8308    1.7137 H   0  0  0  0  0  0  0  0  0  0  0  0
    4.0410   -2.9503    0.9230 H   0  0  0  0  0  0  0  0  0  0  0  0
  5  6  2  0  0  0  0
  5  7  1  0  0  0  0
  2  3  1  0  0  0  0
  2  4  1  0  0  0  0
  2  5  1  0  0  0  0
  1  2  1  0  0  0  0
 12 13  2  0  0  0  0
 12 14  1  0  0  0  0
  9 10  1  0  0  0  0
  9 11  1  0  0  0  0
  9 12  1  0  0  0  0
  7  8  1  0  0  0  0
  7  9  1  0  0  0  0
 16 17  1  0  0  0  0
 16 18  1  0  0  0  0
 16 19  1  0  0  0  0
 14 15  1  0  0  0  0
 14 16  1  0  0  0  0
M  END
$$$$
default_name
  -OEChem-01062215323D

 19 18  0     0  0  0  0  0  0999 V2000
   -2.2056   -4.0049    0.0000 H   0  0  0  0  0  0  0  0  0  0  0  0
   -2.2496   -2.9169    0.0000 C   0  0  0  0  0  0  0  0  0  0  0  0
   -2.7696   -2.5709    0.8910 H   0  0  0  0  0  0  0  0  0  0  0  0
   -2.7696   -2.5709   -0.8910 H   0  0  0  0  0  0  0  0  0  0  0  0
   -0.8406   -2.3699    0.0000 C   0  0  0  0  0  0  0  0  0  0  0  0
    0.1164   -3.1329    0.0000 O   0  0  0  0  0  0  0  0  0  0  0  0
   -0.7136   -1.0459    0.0000 N   0  0  0  0  0  0  0  0  0  0  0  0
   -1.5436   -0.4719    0.0000 H   0  0  0  0  0  0  0  0  0  0  0  0
    0.5724   -0.3469    0.0000 C   0  0  0  0  0  0  0  0  0  0  0  0
    1.0079   -0.3961   -0.9989 H   0  0  0  0  0  0  0  0  0  0  0  0
    0.4108    0.7023    0.2512 H   0  0  0  0  0  0  0  0  0  0  0  0
    1.5655   -0.9455    1.0002 C   0  0  0  0  0  0  0  0  0  0  0  0
    1.6102   -0.5292    2.1561 O   0  0  0  0  0  0  0  0  0  0  0  0
    2.3580   -1.9236    0.5437 N   0  0  0  0  0  0  0  0  0  0  0  0
    2.2492   -2.1987   -0.4199 H   0  0  0  0  0  0  0  0  0  0  0  0
    3.3699   -2.6230    1.3381 C   0  0  0  0  0  0  0  0  0  0  0  0
    3.3923   -2.2377    2.3604 H   0  0  0  0  0  0  0  0  0  0  0  0
    3.1421   -3.6892    1.3733 H   0  0  0  0  0  0  0  0  0  0  0  0
    4.3550   -2.4817    0.8916 H   0  0  0  0  0  0  0  0  0  0  0  0
  5  6  2  0  0  0  0
  5  7  1  0  0  0  0
  2  3  1  0  0  0  0
  2  4  1  0  0  0  0
  2  5  1  0  0  0  0
  1  2  1  0  0  0  0
 12 13  2  0  0  0  0
 12 14  1  0  0  0  0
  9 10  1  0  0  0  0
  9 11  1  0  0  0  0
  9 12  1  0  0  0  0
  7  8  1  0  0  0  0
  7  9  1  0  0  0  0
 16 17  1  0  0  0  0
 16 18  1  0  0  0  0
 16 19  1  0  0  0  0
 14 15  1  0  0  0  0
 14 16  1  0  0  0  0
M  END
$$$$
default_name
  -OEChem-01062215323D

 19 18  0     0  0  0  0  0  0999 V2000
   -2.2056   -4.0049    0.0000 H   0  0  0  0  0  0  0  0  0  0  0  0
   -2.2496   -2.9169    0.0000 C   0  0  0  0  0  0  0  0  0  0  0  0
   -2.7696   -2.5709    0.8910 H   0  0  0  0  0  0  0  0  0  0  0  0
   -2.7696   -2.5709   -0.8910 H   0  0  0  0  0  0  0  0  0  0  0  0
   -0.8406   -2.3699    0.0000 C   0  0  0  0  0  0  0  0  0  0  0  0
    0.1164   -3.1329    0.0000 O   0  0  0  0  0  0  0  0  0  0  0  0
   -0.7136   -1.0459    0.0000 N   0  0  0  0  0  0  0  0  0  0  0  0
   -1.5436   -0.4719    0.0000 H   0  0  0  0  0  0  0  0  0  0  0  0
    0.5724   -0.3469    0.0000 C   0  0  0  0  0  0  0  0  0  0  0  0
    1.0079   -0.3961   -0.9989 H   0  0  0  0  0  0  0  0  0  0  0  0
    0.4108    0.7023    0.2512 H   0  0  0  0  0  0  0  0  0  0  0  0
    1.5655   -0.9455    1.0002 C   0  0  0  0  0  0  0  0  0  0  0  0
    1.4351   -0.7382    2.2050 O   0  0  0  0  0  0  0  0  0  0  0  0
    2.5557   -1.6876    0.4886 N   0  0  0  0  0  0  0  0  0  0  0  0
    2.5815   -1.8021   -0.5126 H   0  0  0  0  0  0  0  0  0  0  0  0
    3.6030   -2.3448    1.2731 C   0  0  0  0  0  0  0  0  0  0  0  0
    3.4679   -2.1476    2.3394 H   0  0  0  0  0  0  0  0  0  0  0  0
    3.5662   -3.4230    1.1116 H   0  0  0  0  0  0  0  0  0  0  0  0
    4.5823   -1.9707    0.9717 H   0  0  0  0  0  0  0  0  0  0  0  0
  5  6  2  0  0  0  0
  5  7  1  0  0  0  0
  2  3  1  0  0  0  0
  2  4  1  0  0  0  0
  2  5  1  0  0  0  0
  1  2  1  0  0  0  0
 12 13  2  0  0  0  0
 12 14  1  0  0  0  0
  9 10  1  0  0  0  0
  9 11  1  0  0  0  0
  9 12  1  0  0  0  0
  7  8  1  0  0  0  0
  7  9  1  0  0  0  0
 16 17  1  0  0  0  0
 16 18  1  0  0  0  0
 16 19  1  0  0  0  0
 14 15  1  0  0  0  0
 14 16  1  0  0  0  0
M  END
$$$$
default_name
  -OEChem-01062215323D

 19 18  0     0  0  0  0  0  0999 V2000
   -2.2056   -4.0049    0.0000 H   0  0  0  0  0  0  0  0  0  0  0  0
   -2.2496   -2.9169    0.0000 C   0  0  0  0  0  0  0  0  0  0  0  0
   -2.7696   -2.5709    0.8910 H   0  0  0  0  0  0  0  0  0  0  0  0
   -2.7696   -2.5709   -0.8910 H   0  0  0  0  0  0  0  0  0  0  0  0
   -0.8406   -2.3699    0.0000 C   0  0  0  0  0  0  0  0  0  0  0  0
    0.1164   -3.1329    0.0000 O   0  0  0  0  0  0  0  0  0  0  0  0
   -0.7136   -1.0459    0.0000 N   0  0  0  0  0  0  0  0  0  0  0  0
   -1.5436   -0.4719    0.0000 H   0  0  0  0  0  0  0  0  0  0  0  0
    0.5724   -0.3469    0.0000 C   0  0  0  0  0  0  0  0  0  0  0  0
    1.0079   -0.3961   -0.9989 H   0  0  0  0  0  0  0  0  0  0  0  0
    0.4108    0.7023    0.2512 H   0  0  0  0  0  0  0  0  0  0  0  0
    1.5655   -0.9455    1.0002 C   0  0  0  0  0  0  0  0  0  0  0  0
    1.2963   -0.9778    2.1994 O   0  0  0  0  0  0  0  0  0  0  0  0
    2.7124   -1.4170    0.4949 N   0  0  0  0  0  0  0  0  0  0  0  0
    2.8449   -1.3473   -0.5019 H   0  0  0  0  0  0  0  0  0  0  0  0
    3.7878   -2.0258    1.2806 C   0  0  0  0  0  0  0  0  0  0  0  0
    3.5278   -2.0441    2.3418 H   0  0  0  0  0  0  0  0  0  0  0  0
    3.9572   -3.0502    0.9464 H   0  0  0  0  0  0  0  0  0  0  0  0
    4.7074   -1.4522    1.1578 H   0  0  0  0  0  0  0  0  0  0  0  0
  5  6  2  0  0  0  0
  5  7  1  0  0  0  0
  2  3  1  0  0  0  0
  2  4  1  0  0  0  0
  2  5  1  0  0  0  0
  1  2  1  0  0  0  0
 12 13  2  0  0  0  0
 12 14  1  0  0  0  0
  9 10  1  0  0  0  0
  9 11  1  0  0  0  0
  9 12  1  0  0  0  0
  7  8  1  0  0  0  0
  7  9  1  0  0  0  0
 16 17  1  0  0  0  0
 16 18  1  0  0  0  0
 16 19  1  0  0  0  0
 14 15  1  0  0  0  0
 14 16  1  0  0  0  0
M  END
$$$$
default_name
  -OEChem-01062215323D

 19 18  0     0  0  0  0  0  0999 V2000
   -2.2056   -4.0049    0.0000 H   0  0  0  0  0  0  0  0  0  0  0  0
   -2.2496   -2.9169    0.0000 C   0  0  0  0  0  0  0  0  0  0  0  0
   -2.7696   -2.5709    0.8910 H   0  0  0  0  0  0  0  0  0  0  0  0
   -2.7696   -2.5709   -0.8910 H   0  0  0  0  0  0  0  0  0  0  0  0
   -0.8406   -2.3699    0.0000 C   0  0  0  0  0  0  0  0  0  0  0  0
    0.1164   -3.1329    0.0000 O   0  0  0  0  0  0  0  0  0  0  0  0
   -0.7136   -1.0459    0.0000 N   0  0  0  0  0  0  0  0  0  0  0  0
   -1.5436   -0.4719    0.0000 H   0  0  0  0  0  0  0  0  0  0  0  0
    0.5724   -0.3469    0.0000 C   0  0  0  0  0  0  0  0  0  0  0  0
    1.0079   -0.3961   -0.9989 H   0  0  0  0  0  0  0  0  0  0  0  0
    0.4108    0.7023    0.2512 H   0  0  0  0  0  0  0  0  0  0  0  0
    1.5655   -0.9455    1.0002 C   0  0  0  0  0  0  0  0  0  0  0  0
    1.2034   -1.2317    2.1397 O   0  0  0  0  0  0  0  0  0  0  0  0
    2.8174   -1.1302    0.5623 N   0  0  0  0  0  0  0  0  0  0  0  0
    3.0213   -0.8653   -0.3887 H   0  0  0  0  0  0  0  0  0  0  0  0
    3.9115   -1.6876    1.3601 C   0  0  0  0  0  0  0  0  0  0  0  0
    3.5679   -1.9345    2.3675 H   0  0  0  0  0  0  0  0  0  0  0  0
    4.2886   -2.5963    0.8889 H   0  0  0  0  0  0  0  0  0  0  0  0
    4.7217   -0.9614    1.4373 H   0  0  0  0  0  0  0  0  0  0  0  0
  5  6  2  0  0  0  0
  5  7  1  0  0  0  0
  2  3  1  0  0  0  0
  2  4  1  0  0  0  0
  2  5  1  0  0  0  0
  1  2  1  0  0  0  0
 12 13  2  0  0  0  0
 12 14  1  0  0  0  0
  9 10  1  0  0  0  0
  9 11  1  0  0  0  0
  9 12  1  0  0  0  0
  7  8  1  0  0  0  0
  7  9  1  0  0  0  0
 16 17  1  0  0  0  0
 16 18  1  0  0  0  0
 16 19  1  0  0  0  0
 14 15  1  0  0  0  0
 14 16  1  0  0  0  0
M  END
$$$$
default_name
  -OEChem-01062215323D

 19 18  0     0  0  0  0  0  0999 V2000
   -2.2056   -4.0049    0.0000 H   0  0  0  0  0  0  0  0  0  0  0  0
   -2.2496   -2.9169    0.0000 C   0  0  0  0  0  0  0  0  0  0  0  0
   -2.7696   -2.5709    0.8910 H   0  0  0  0  0  0  0  0  0  0  0  0
   -2.7696   -2.5709   -0.8910 H   0  0  0  0  0  0  0  0  0  0  0  0
   -0.8406   -2.3699    0.0000 C   0  0  0  0  0  0  0  0  0  0  0  0
    0.1164   -3.1329    0.0000 O   0  0  0  0  0  0  0  0  0  0  0  0
   -0.7136   -1.0459    0.0000 N   0  0  0  0  0  0  0  0  0  0  0  0
   -1.5436   -0.4719    0.0000 H   0  0  0  0  0  0  0  0  0  0  0  0
    0.5724   -0.3469    0.0000 C   0  0  0  0  0  0  0  0  0  0  0  0
    1.0079   -0.3961   -0.9989 H   0  0  0  0  0  0  0  0  0  0  0  0
    0.4108    0.7023    0.2512 H   0  0  0  0  0  0  0  0  0  0  0  0
    1.5655   -0.9455    1.0002 C   0  0  0  0  0  0  0  0  0  0  0  0
    1.1626   -1.4827    2.0300 O   0  0  0  0  0  0  0  0  0  0  0  0
    2.8635   -0.8468    0.6862 N   0  0  0  0  0  0  0  0  0  0  0  0
    3.0988   -0.3888   -0.1805 H   0  0  0  0  0  0  0  0  0  0  0  0
    3.9659   -1.3534    1.5061 C   0  0  0  0  0  0  0  0  0  0  0  0
    3.5855   -1.8262    2.4149 H   0  0  0  0  0  0  0  0  0  0  0  0
    4.5379   -2.0922    0.9432 H   0  0  0  0  0  0  0  0  0  0  0  0
    4.6243   -0.5318    1.7911 H   0  0  0  0  0  0  0  0  0  0  0  0
  5  6  2  0  0  0  0
  5  7  1  0  0  0  0
  2  3  1  0  0  0  0
  2  4  1  0  0  0  0
  2  5  1  0  0  0  0
  1  2  1  0  0  0  0
 12 13  2  0  0  0  0
 12 14  1  0  0  0  0
  9 10  1  0  0  0  0
  9 11  1  0  0  0  0
  9 12  1  0  0  0  0
  7  8  1  0  0  0  0
  7  9  1  0  0  0  0
 16 17  1  0  0  0  0
 16 18  1  0  0  0  0
 16 19  1  0  0  0  0
 14 15  1  0  0  0  0
 14 16  1  0  0  0  0
M  END
$$$$
default_name
  -OEChem-01062215323D

 19 18  0     0  0  0  0  0  0999 V2000
   -2.2056   -4.0049    0.0000 H   0  0  0  0  0  0  0  0  0  0  0  0
   -2.2496   -2.9169    0.0000 C   0  0  0  0  0  0  0  0  0  0  0  0
   -2.7696   -2.5709    0.8910 H   0  0  0  0  0  0  0  0  0  0  0  0
   -2.7696   -2.5709   -0.8910 H   0  0  0  0  0  0  0  0  0  0  0  0
   -0.8406   -2.3699    0.0000 C   0  0  0  0  0  0  0  0  0  0  0  0
    0.1164   -3.1329    0.0000 O   0  0  0  0  0  0  0  0  0  0  0  0
   -0.7136   -1.0459    0.0000 N   0  0  0  0  0  0  0  0  0  0  0  0
   -1.5436   -0.4719    0.0000 H   0  0  0  0  0  0  0  0  0  0  0  0
    0.5724   -0.3469    0.0000 C   0  0  0  0  0  0  0  0  0  0  0  0
    1.0079   -0.3961   -0.9989 H   0  0  0  0  0  0  0  0  0  0  0  0
    0.4108    0.7023    0.2512 H   0  0  0  0  0  0  0  0  0  0  0  0
    1.5655   -0.9455    1.0002 C   0  0  0  0  0  0  0  0  0  0  0  0
    1.1767   -1.7137    1.8778 O   0  0  0  0  0  0  0  0  0  0  0  0
    2.8476   -0.5860    0.8581 N   0  0  0  0  0  0  0  0  0  0  0  0
    3.0720    0.0495    0.1084 H   0  0  0  0  0  0  0  0  0  0  0  0
    3.9471   -1.0459    1.7088 C   0  0  0  0  0  0  0  0  0  0  0  0
    3.5794   -1.7265    2.4806 H   0  0  0  0  0  0  0  0  0  0  0  0
    4.6879   -1.5722    1.1054 H   0  0  0  0  0  0  0  0  0  0  0  0
    4.4219   -0.1927    2.1951 H   0  0  0  0  0  0  0  0  0  0  0  0
  5  6  2  0  0  0  0
  5  7  1  0  0  0  0
  2  3  1  0  0  0  0
  2  4  1  0  0  0  0
  2  5  1  0  0  0  0
  1  2  1  0  0  0  0
 12 13  2  0  0  0  0
 12 14  1  0  0  0  0
  9 10  1  0  0  0  0
  9 11  1  0  0  0  0
  9 12  1  0  0  0  0
  7  8  1  0  0  0  0
  7  9  1  0  0  0  0
 16 17  1  0  0  0  0
 16 18  1  0  0  0  0
 16 19  1  0  0  0  0
 14 15  1  0  0  0  0
 14 16  1  0  0  0  0
M  END
$$$$
default_name
  -OEChem-01062215323D

 19 18  0     0  0  0  0  0  0999 V2000
   -2.2056   -4.0049    0.0000 H   0  0  0  0  0  0  0  0  0  0  0  0
   -2.2496   -2.9169    0.0000 C   0  0  0  0  0  0  0  0  0  0  0  0
   -2.7696   -2.5709    0.8910 H   0  0  0  0  0  0  0  0  0  0  0  0
   -2.7696   -2.5709   -0.8910 H   0  0  0  0  0  0  0  0  0  0  0  0
   -0.8406   -2.3699    0.0000 C   0  0  0  0  0  0  0  0  0  0  0  0
    0.1164   -3.1329    0.0000 O   0  0  0  0  0  0  0  0  0  0  0  0
   -0.7136   -1.0459    0.0000 N   0  0  0  0  0  0  0  0  0  0  0  0
   -1.5436   -0.4719    0.0000 H   0  0  0  0  0  0  0  0  0  0  0  0
    0.5724   -0.3469    0.0000 C   0  0  0  0  0  0  0  0  0  0  0  0
    0.8803   -0.1615   -1.0299 H   0  0  0  0  0  0  0  0  0  0  0  0
    0.4582    0.6152    0.5012 H   0  0  0  0  0  0  0  0  0  0  0  0
    1.6729   -1.1430    0.7073 C   0  0  0  0  0  0  0  0  0  0  0  0
    1.4265   -2.2432    1.1974 O   0  0  0  0  0  0  0  0  0  0  0  0
    2.8852   -0.5762    0.7540 N   0  0  0  0  0  0  0  0  0  0  0  0
    2.9920    0.3293    0.3241 H   0  0  0  0  0  0  0  0  0  0  0  0
    4.0662   -1.1720    1.3819 C   0  0  0  0  0  0  0  0  0  0  0  0
    3.8248   -2.1478    1.8103 H   0  0  0  0  0  0  0  0  0  0  0  0
    4.8545   -1.3036    0.6394 H   0  0  0  0  0  0  0  0  0  0  0  0
    4.4299   -0.5226    2.1792 H   0  0  0  0  0  0  0  0  0  0  0  0
  5  6  2  0  0  0  0
  5  7  1  0  0  0  0
  2  3  1  0  0  0  0
  2  4  1  0  0  0  0
  2  5  1  0  0  0  0
  1  2  1  0  0  0  0
 12 13  2  0  0  0  0
 12 14  1  0  0  0  0
  9 10  1  0  0  0  0
  9 11  1  0  0  0  0
  9 12  1  0  0  0  0
  7  8  1  0  0  0  0
  7  9  1  0  0  0  0
 16 17  1  0  0  0  0
 16 18  1  0  0  0  0
 16 19  1  0  0  0  0
 14 15  1  0  0  0  0
 14 16  1  0  0  0  0
M  END
$$$$
default_name
  -OEChem-01062215323D

 19 18  0     0  0  0  0  0  0999 V2000
   -2.2056   -4.0049    0.0000 H   0  0  0  0  0  0  0  0  0  0  0  0
   -2.2496   -2.9169    0.0000 C   0  0  0  0  0  0  0  0  0  0  0  0
   -2.7696   -2.5709    0.8910 H   0  0  0  0  0  0  0  0  0  0  0  0
   -2.7696   -2.5709   -0.8910 H   0  0  0  0  0  0  0  0  0  0  0  0
   -0.8406   -2.3699    0.0000 C   0  0  0  0  0  0  0  0  0  0  0  0
    0.1164   -3.1329    0.0000 O   0  0  0  0  0  0  0  0  0  0  0  0
   -0.7136   -1.0459    0.0000 N   0  0  0  0  0  0  0  0  0  0  0  0
   -1.5436   -0.4719    0.0000 H   0  0  0  0  0  0  0  0  0  0  0  0
    0.5724   -0.3469    0.0000 C   0  0  0  0  0  0  0  0  0  0  0  0
    0.8803   -0.1615   -1.0299 H   0  0  0  0  0  0  0  0  0  0  0  0
    0.4582    0.6152    0.5012 H   0  0  0  0  0  0  0  0  0  0  0  0
    1.6729   -1.1430    0.7073 C   0  0  0  0  0  0  0  0  0  0  0  0
    1.5157   -2.3373    0.9527 O   0  0  0  0  0  0  0  0  0  0  0  0
    2.7845   -0.4698    1.0303 N   0  0  0  0  0  0  0  0  0  0  0  0
    2.8228    0.5080    0.7886 H   0  0  0  0  0  0  0  0  0  0  0  0
    3.9475   -1.0467    1.7077 C   0  0  0  0  0  0  0  0  0  0  0  0
    3.7863   -2.1072    1.9159 H   0  0  0  0  0  0  0  0  0  0  0  0
    4.8317   -0.9467    1.0767 H   0  0  0  0  0  0  0  0  0  0  0  0
    4.1210   -0.5294    2.6522 H   0  0  0  0  0  0  0  0  0  0  0  0
  5  6  2  0  0  0  0
  5  7  1  0  0  0  0
  2  3  1  0  0  0  0
  2  4  1  0  0  0  0
  2  5  1  0  0  0  0
  1  2  1  0  0  0  0
 12 13  2  0  0  0  0
 12 14  1  0  0  0  0
  9 10  1  0  0  0  0
  9 11  1  0  0  0  0
  9 12  1  0  0  0  0
  7  8  1  0  0  0  0
  7  9  1  0  0  0  0
 16 17  1  0  0  0  0
 16 18  1  0  0  0  0
 16 19  1  0  0  0  0
 14 15  1  0  0  0  0
 14 16  1  0  0  0  0
M  END
$$$$
default_name
  -OEChem-01062215323D

 19 18  0     0  0  0  0  0  0999 V2000
   -2.2056   -4.0049    0.0000 H   0  0  0  0  0  0  0  0  0  0  0  0
   -2.2496   -2.9169    0.0000 C   0  0  0  0  0  0  0  0  0  0  0  0
   -2.7696   -2.5709    0.8910 H   0  0  0  0  0  0  0  0  0  0  0  0
   -2.7696   -2.5709   -0.8910 H   0  0  0  0  0  0  0  0  0  0  0  0
   -0.8406   -2.3699    0.0000 C   0  0  0  0  0  0  0  0  0  0  0  0
    0.1164   -3.1329    0.0000 O   0  0  0  0  0  0  0  0  0  0  0  0
   -0.7136   -1.0459    0.0000 N   0  0  0  0  0  0  0  0  0  0  0  0
   -1.5436   -0.4719    0.0000 H   0  0  0  0  0  0  0  0  0  0  0  0
    0.5724   -0.3469    0.0000 C   0  0  0  0  0  0  0  0  0  0  0  0
    0.8803   -0.1615   -1.0299 H   0  0  0  0  0  0  0  0  0  0  0  0
    0.4582    0.6152    0.5012 H   0  0  0  0  0  0  0  0  0  0  0  0
    1.6729   -1.1430    0.7073 C   0  0  0  0  0  0  0  0  0  0  0  0
    1.6460   -2.3721    0.7108 O   0  0  0  0  0  0  0  0  0  0  0  0
    2.6373   -0.4306    1.3035 N   0  0  0  0  0  0  0  0  0  0  0  0
    2.5754    0.5740    1.2477 H   0  0  0  0  0  0  0  0  0  0  0  0
    3.7740   -1.0004    2.0298 C   0  0  0  0  0  0  0  0  0  0  0  0
    3.7301   -2.0922    2.0203 H   0  0  0  0  0  0  0  0  0  0  0  0
    4.7081   -0.6859    1.5625 H   0  0  0  0  0  0  0  0  0  0  0  0
    3.7599   -0.6608    3.0663 H   0  0  0  0  0  0  0  0  0  0  0  0
  5  6  2  0  0  0  0
  5  7  1  0  0  0  0
  2  3  1  0  0  0  0
  2  4  1  0  0  0  0
  2  5  1  0  0  0  0
  1  2  1  0  0  0  0
 12 13  2  0  0  0  0
 12 14  1  0  0  0  0
  9 10  1  0  0  0  0
  9 11  1  0  0  0  0
  9 12  1  0  0  0  0
  7  8  1  0  0  0  0
  7  9  1  0  0  0  0
 16 17  1  0  0  0  0
 16 18  1  0  0  0  0
 16 19  1  0  0  0  0
 14 15  1  0  0  0  0
 14 16  1  0  0  0  0
M  END
$$$$
default_name
  -OEChem-01062215323D

 19 18  0     0  0  0  0  0  0999 V2000
   -2.2056   -4.0049    0.0000 H   0  0  0  0  0  0  0  0  0  0  0  0
   -2.2496   -2.9169    0.0000 C   0  0  0  0  0  0  0  0  0  0  0  0
   -2.7696   -2.5709    0.8910 H   0  0  0  0  0  0  0  0  0  0  0  0
   -2.7696   -2.5709   -0.8910 H   0  0  0  0  0  0  0  0  0  0  0  0
   -0.8406   -2.3699    0.0000 C   0  0  0  0  0  0  0  0  0  0  0  0
    0.1164   -3.1329    0.0000 O   0  0  0  0  0  0  0  0  0  0  0  0
   -0.7136   -1.0459    0.0000 N   0  0  0  0  0  0  0  0  0  0  0  0
   -1.5436   -0.4719    0.0000 H   0  0  0  0  0  0  0  0  0  0  0  0
    0.5724   -0.3469    0.0000 C   0  0  0  0  0  0  0  0  0  0  0  0
    0.8803   -0.1615   -1.0299 H   0  0  0  0  0  0  0  0  0  0  0  0
    0.4582    0.6152    0.5012 H   0  0  0  0  0  0  0  0  0  0  0  0
    1.6729   -1.1430    0.7073 C   0  0  0  0  0  0  0  0  0  0  0  0
    1.8086   -2.3451    0.4882 O   0  0  0  0  0  0  0  0  0  0  0  0
    2.4537   -0.4611    1.5548 N   0  0  0  0  0  0  0  0  0  0  0  0
    2.2669    0.5227    1.6702 H   0  0  0  0  0  0  0  0  0  0  0  0
    3.5575   -1.0363    2.3261 C   0  0  0  0  0  0  0  0  0  0  0  0
    3.6599   -2.1038    2.1164 H   0  0  0  0  0  0  0  0  0  0  0  0
    4.4923   -0.5392    2.0635 H   0  0  0  0  0  0  0  0  0  0  0  0
    3.3710   -0.9080    3.3932 H   0  0  0  0  0  0  0  0  0  0  0  0
  5  6  2  0  0  0  0
  5  7  1  0  0  0  0
  2  3  1  0  0  0  0
  2  4  1  0  0  0  0
  2  5  1  0  0  0  0
  1  2  1  0  0  0  0
 12 13  2  0  0  0  0
 12 14  1  0  0  0  0
  9 10  1  0  0  0  0
  9 11  1  0  0  0  0
  9 12  1  0  0  0  0
  7  8  1  0  0  0  0
  7  9  1  0  0  0  0
 16 17  1  0  0  0  0
 16 18  1  0  0  0  0
 16 19  1  0  0  0  0
 14 15  1  0  0  0  0
 14 16  1  0  0  0  0
M  END
$$$$
default_name
  -OEChem-01062215323D

 19 18  0     0  0  0  0  0  0999 V2000
   -2.2056   -4.0049    0.0000 H   0  0  0  0  0  0  0  0  0  0  0  0
   -2.2496   -2.9169    0.0000 C   0  0  0  0  0  0  0  0  0  0  0  0
   -2.7696   -2.5709    0.8910 H   0  0  0  0  0  0  0  0  0  0  0  0
   -2.7696   -2.5709   -0.8910 H   0  0  0  0  0  0  0  0  0  0  0  0
   -0.8406   -2.3699    0.0000 C   0  0  0  0  0  0  0  0  0  0  0  0
    0.1164   -3.1329    0.0000 O   0  0  0  0  0  0  0  0  0  0  0  0
   -0.7136   -1.0459    0.0000 N   0  0  0  0  0  0  0  0  0  0  0  0
   -1.5436   -0.4719    0.0000 H   0  0  0  0  0  0  0  0  0  0  0  0
    0.5724   -0.3469    0.0000 C   0  0  0  0  0  0  0  0  0  0  0  0
    0.8803   -0.1615   -1.0299 H   0  0  0  0  0  0  0  0  0  0  0  0
    0.4582    0.6152    0.5012 H   0  0  0  0  0  0  0  0  0  0  0  0
    1.6729   -1.1430    0.7073 C   0  0  0  0  0  0  0  0  0  0  0  0
    1.9923   -2.2582    0.3001 O   0  0  0  0  0  0  0  0  0  0  0  0
    2.2462   -0.5592    1.7673 N   0  0  0  0  0  0  0  0  0  0  0  0
    1.9181    0.3578    2.0272 H   0  0  0  0  0  0  0  0  0  0  0  0
    3.3129   -1.1521    2.5766 C   0  0  0  0  0  0  0  0  0  0  0  0
    3.5806   -2.1414    2.1976 H   0  0  0  0  0  0  0  0  0  0  0  0
    4.1988   -0.5164    2.5458 H   0  0  0  0  0  0  0  0  0  0  0  0
    2.9809   -1.2540    3.6106 H   0  0  0  0  0  0  0  0  0  0  0  0
  5  6  2  0  0  0  0
  5  7  1  0  0  0  0
  2  3  1  0  0  0  0
  2  4  1  0  0  0  0
  2  5  1  0  0  0  0
  1  2  1  0  0  0  0
 12 13  2  0  0  0  0
 12 14  1  0  0  0  0
  9 10  1  0  0  0  0
  9 11  1  0  0  0  0
  9 12  1  0  0  0  0
  7  8  1  0  0  0  0
  7  9  1  0  0  0  0
 16 17  1  0  0  0  0
 16 18  1  0  0  0  0
 16 19  1  0  0  0  0
 14 15  1  0  0  0  0
 14 16  1  0  0  0  0
M  END
$$$$
default_name
  -OEChem-01062215323D

 19 18  0     0  0  0  0  0  0999 V2000
   -2.2056   -4.0049    0.0000 H   0  0  0  0  0  0  0  0  0  0  0  0
   -2.2496   -2.9169    0.0000 C   0  0  0  0  0  0  0  0  0  0  0  0
   -2.7696   -2.5709    0.8910 H   0  0  0  0  0  0  0  0  0  0  0  0
   -2.7696   -2.5709   -0.8910 H   0  0  0  0  0  0  0  0  0  0  0  0
   -0.8406   -2.3699    0.0000 C   0  0  0  0  0  0  0  0  0  0  0  0
    0.1164   -3.1329    0.0000 O   0  0  0  0  0  0  0  0  0  0  0  0
   -0.7136   -1.0459    0.0000 N   0  0  0  0  0  0  0  0  0  0  0  0
   -1.5436   -0.4719    0.0000 H   0  0  0  0  0  0  0  0  0  0  0  0
    0.5724   -0.3469    0.0000 C   0  0  0  0  0  0  0  0  0  0  0  0
    0.8803   -0.1615   -1.0299 H   0  0  0  0  0  0  0  0  0  0  0  0
    0.4582    0.6152    0.5012 H   0  0  0  0  0  0  0  0  0  0  0  0
    1.6729   -1.1430    0.7073 C   0  0  0  0  0  0  0  0  0  0  0  0
    2.1847   -2.1173    0.1593 O   0  0  0  0  0  0  0  0  0  0  0  0
    2.0289   -0.7184    1.9263 N   0  0  0  0  0  0  0  0  0  0  0  0
    1.5529    0.0903    2.2944 H   0  0  0  0  0  0  0  0  0  0  0  0
    3.0567   -1.3397    2.7641 C   0  0  0  0  0  0  0  0  0  0  0  0
    3.4976   -2.2022    2.2583 H   0  0  0  0  0  0  0  0  0  0  0  0
    3.8478   -0.6193    2.9763 H   0  0  0  0  0  0  0  0  0  0  0  0
    2.6162   -1.6754    3.7038 H   0  0  0  0  0  0  0  0  0  0  0  0
  5  6  2  0  0  0  0
  5  7  1  0  0  0  0
  2  3  1  0  0  0  0
  2  4  1  0  0  0  0
  2  5  1  0  0  0  0
  1  2  1  0  0  0  0
 12 13  2  0  0  0  0
 12 14  1  0  0  0  0
  9 10  1  0  0  0  0
  9 11  1  0  0  0  0
  9 12  1  0  0  0  0
  7  8  1  0  0  0  0
  7  9  1  0  0  0  0
 16 17  1  0  0  0  0
 16 18  1  0  0  0  0
 16 19  1  0  0  0  0
 14 15  1  0  0  0  0
 14 16  1  0  0  0  0
M  END
$$$$
default_name
  -OEChem-01062215323D

 19 18  0     0  0  0  0  0  0999 V2000
   -2.2056   -4.0049    0.0000 H   0  0  0  0  0  0  0  0  0  0  0  0
   -2.2496   -2.9169    0.0000 C   0  0  0  0  0  0  0  0  0  0  0  0
   -2.7696   -2.5709    0.8910 H   0  0  0  0  0  0  0  0  0  0  0  0
   -2.7696   -2.5709   -0.8910 H   0  0  0  0  0  0  0  0  0  0  0  0
   -0.8406   -2.3699    0.0000 C   0  0  0  0  0  0  0  0  0  0  0  0
    0.1164   -3.1329    0.0000 O   0  0  0  0  0  0  0  0  0  0  0  0
   -0.7136   -1.0459    0.0000 N   0  0  0  0  0  0  0  0  0  0  0  0
   -1.5436   -0.4719    0.0000 H   0  0  0  0  0  0  0  0  0  0  0  0
    0.5724   -0.3469    0.0000 C   0  0  0  0  0  0  0  0  0  0  0  0
    0.8803   -0.1615   -1.0299 H   0  0  0  0  0  0  0  0  0  0  0  0
    0.4582    0.6152    0.5012 H   0  0  0  0  0  0  0  0  0  0  0  0
    1.6729   -1.1430    0.7073 C   0  0  0  0  0  0  0  0  0  0  0  0
    2.3727   -1.9320    0.0754 O   0  0  0  0  0  0  0  0  0  0  0  0
    1.8167   -0.9276    2.0210 N   0  0  0  0  0  0  0  0  0  0  0  0
    1.1961   -0.2613    2.4537 H   0  0  0  0  0  0  0  0  0  0  0  0
    2.8064   -1.5864    2.8758 C   0  0  0  0  0  0  0  0  0  0  0  0
    3.4164   -2.2821    2.2946 H   0  0  0  0  0  0  0  0  0  0  0  0
    3.4630   -0.8406    3.3258 H   0  0  0  0  0  0  0  0  0  0  0  0
    2.3018   -2.1432    3.6664 H   0  0  0  0  0  0  0  0  0  0  0  0
  5  6  2  0  0  0  0
  5  7  1  0  0  0  0
  2  3  1  0  0  0  0
  2  4  1  0  0  0  0
  2  5  1  0  0  0  0
  1  2  1  0  0  0  0
 12 13  2  0  0  0  0
 12 14  1  0  0  0  0
  9 10  1  0  0  0  0
  9 11  1  0  0  0  0
  9 12  1  0  0  0  0
  7  8  1  0  0  0  0
  7  9  1  0  0  0  0
 16 17  1  0  0  0  0
 16 18  1  0  0  0  0
 16 19  1  0  0  0  0
 14 15  1  0  0  0  0
 14 16  1  0  0  0  0
M  END
$$$$
default_name
  -OEChem-01062215323D

 19 18  0     0  0  0  0  0  0999 V2000
   -2.2056   -4.0049    0.0000 H   0  0  0  0  0  0  0  0  0  0  0  0
   -2.2496   -2.9169    0.0000 C   0  0  0  0  0  0  0  0  0  0  0  0
   -2.7696   -2.5709    0.8910 H   0  0  0  0  0  0  0  0  0  0  0  0
   -2.7696   -2.5709   -0.8910 H   0  0  0  0  0  0  0  0  0  0  0  0
   -0.8406   -2.3699    0.0000 C   0  0  0  0  0  0  0  0  0  0  0  0
    0.1164   -3.1329    0.0000 O   0  0  0  0  0  0  0  0  0  0  0  0
   -0.7136   -1.0459    0.0000 N   0  0  0  0  0  0  0  0  0  0  0  0
   -1.5436   -0.4719    0.0000 H   0  0  0  0  0  0  0  0  0  0  0  0
    0.5724   -0.3469    0.0000 C   0  0  0  0  0  0  0  0  0  0  0  0
    0.8803   -0.1615   -1.0299 H   0  0  0  0  0  0  0  0  0  0  0  0
    0.4582    0.6152    0.5012 H   0  0  0  0  0  0  0  0  0  0  0  0
    1.6729   -1.1430    0.7073 C   0  0  0  0  0  0  0  0  0  0  0  0
    2.5434   -1.7149    0.0541 O   0  0  0  0  0  0  0  0  0  0  0  0
    1.6239   -1.1727    2.0451 N   0  0  0  0  0  0  0  0  0  0  0  0
    0.8722   -0.6733    2.4941 H   0  0  0  0  0  0  0  0  0  0  0  0
    2.5791   -1.8754    2.9041 C   0  0  0  0  0  0  0  0  0  0  0  0
    3.3428   -2.3758    2.3037 H   0  0  0  0  0  0  0  0  0  0  0  0
    3.0708   -1.1654    3.5705 H   0  0  0  0  0  0  0  0  0  0  0  0
    2.0591   -2.6258    3.5010 H   0  0  0  0  0  0  0  0  0  0  0  0
  5  6  2  0  0  0  0
  5  7  1  0  0  0  0
  2  3  1  0  0  0  0
  2  4  1  0  0  0  0
  2  5  1  0  0  0  0
  1  2  1  0  0  0  0
 12 13  2  0  0  0  0
 12 14  1  0  0  0  0
  9 10  1  0  0  0  0
  9 11  1  0  0  0  0
  9 12  1  0  0  0  0
  7  8  1  0  0  0  0
  7  9  1  0  0  0  0
 16 17  1  0  0  0  0
 16 18  1  0  0  0  0
 16 19  1  0  0  0  0
 14 15  1  0  0  0  0
 14 16  1  0  0  0  0
M  END
$$$$
default_name
  -OEChem-01062215323D

 19 18  0     0  0  0  0  0  0999 V2000
   -2.2056   -4.0049    0.0000 H   0  0  0  0  0  0  0  0  0  0  0  0
   -2.2496   -2.9169    0.0000 C   0  0  0  0  0  0  0  0  0  0  0  0
   -2.7696   -2.5709    0.8910 H   0  0  0  0  0  0  0  0  0  0  0  0
   -2.7696   -2.5709   -0.8910 H   0  0  0  0  0  0  0  0  0  0  0  0
   -0.8406   -2.3699    0.0000 C   0  0  0  0  0  0  0  0  0  0  0  0
    0.1164   -3.1329    0.0000 O   0  0  0  0  0  0  0  0  0  0  0  0
   -0.7136   -1.0459    0.0000 N   0  0  0  0  0  0  0  0  0  0  0  0
   -1.5436   -0.4719    0.0000 H   0  0  0  0  0  0  0  0  0  0  0  0
    0.5724   -0.3469    0.0000 C   0  0  0  0  0  0  0  0  0  0  0  0
    0.8803   -0.1615   -1.0299 H   0  0  0  0  0  0  0  0  0  0  0  0
    0.4582    0.6152    0.5012 H   0  0  0  0  0  0  0  0  0  0  0  0
    1.6729   -1.1430    0.7073 C   0  0  0  0  0  0  0  0  0  0  0  0
    2.6852   -1.4809    0.0969 O   0  0  0  0  0  0  0  0  0  0  0  0
    1.4638   -1.4370    1.9968 N   0  0  0  0  0  0  0  0  0  0  0  0
    0.6030   -1.1175    2.4130 H   0  0  0  0  0  0  0  0  0  0  0  0
    2.3903   -2.1870    2.8472 C   0  0  0  0  0  0  0  0  0  0  0  0
    3.2816   -2.4768    2.2853 H   0  0  0  0  0  0  0  0  0  0  0  0
    2.6979   -1.5715    3.6937 H   0  0  0  0  0  0  0  0  0  0  0  0
    1.9045   -3.0902    3.2187 H   0  0  0  0  0  0  0  0  0  0  0  0
  5  6  2  0  0  0  0
  5  7  1  0  0  0  0
  2  3  1  0  0  0  0
  2  4  1  0  0  0  0
  2  5  1  0  0  0  0
  1  2  1  0  0  0  0
 12 13  2  0  0  0  0
 12 14  1  0  0  0  0
  9 10  1  0  0  0  0
  9 11  1  0  0  0  0
  9 12  1  0  0  0  0
  7  8  1  0  0  0  0
  7  9  1  0  0  0  0
 16 17  1  0  0  0  0
 16 18  1  0  0  0  0
 16 19  1  0  0  0  0
 14 15  1  0  0  0  0
 14 16  1  0  0  0  0
M  END
$$$$
default_name
  -OEChem-01062215323D

 19 18  0     0  0  0  0  0  0999 V2000
   -2.2056   -4.0049    0.0000 H   0  0  0  0  0  0  0  0  0  0  0  0
   -2.2496   -2.9169    0.0000 C   0  0  0  0  0  0  0  0  0  0  0  0
   -2.7696   -2.5709    0.8910 H   0  0  0  0  0  0  0  0  0  0  0  0
   -2.7696   -2.5709   -0.8910 H   0  0  0  0  0  0  0  0  0  0  0  0
   -0.8406   -2.3699    0.0000 C   0  0  0  0  0  0  0  0  0  0  0  0
    0.1164   -3.1329    0.0000 O   0  0  0  0  0  0  0  0  0  0  0  0
   -0.7136   -1.0459    0.0000 N   0  0  0  0  0  0  0  0  0  0  0  0
   -1.5436   -0.4719    0.0000 H   0  0  0  0  0  0  0  0  0  0  0  0
    0.5724   -0.3469    0.0000 C   0  0  0  0  0  0  0  0  0  0  0  0
    0.8803   -0.1615   -1.0299 H   0  0  0  0  0  0  0  0  0  0  0  0
    0.4582    0.6152    0.5012 H   0  0  0  0  0  0  0  0  0  0  0  0
    1.6729   -1.1430    0.7073 C   0  0  0  0  0  0  0  0  0  0  0  0
    2.7884   -1.2459    0.2008 O   0  0  0  0  0  0  0  0  0  0  0  0
    1.3472   -1.7024    1.8794 N   0  0  0  0  0  0  0  0  0  0  0  0
    0.4071   -1.5636    2.2157 H   0  0  0  0  0  0  0  0  0  0  0  0
    2.2529   -2.4999    2.7088 C   0  0  0  0  0  0  0  0  0  0  0  0
    3.2370   -2.5783    2.2404 H   0  0  0  0  0  0  0  0  0  0  0  0
    2.3697   -2.0313    3.6869 H   0  0  0  0  0  0  0  0  0  0  0  0
    1.8488   -3.5047    2.8390 H   0  0  0  0  0  0  0  0  0  0  0  0
  5  6  2  0  0  0  0
  5  7  1  0  0  0  0
  2  3  1  0  0  0  0
  2  4  1  0  0  0  0
  2  5  1  0  0  0  0
  1  2  1  0  0  0  0
 12 13  2  0  0  0  0
 12 14  1  0  0  0  0
  9 10  1  0  0  0  0
  9 11  1  0  0  0  0
  9 12  1  0  0  0  0
  7  8  1  0  0  0  0
  7  9  1  0  0  0  0
 16 17  1  0  0  0  0
 16 18  1  0  0  0  0
 16 19  1  0  0  0  0
 14 15  1  0  0  0  0
 14 16  1  0  0  0  0
M  END
$$$$
default_name
  -OEChem-01062215323D

 19 18  0     0  0  0  0  0  0999 V2000
   -2.2056   -4.0049    0.0000 H   0  0  0  0  0  0  0  0  0  0  0  0
   -2.2496   -2.9169    0.0000 C   0  0  0  0  0  0  0  0  0  0  0  0
   -2.7696   -2.5709    0.8910 H   0  0  0  0  0  0  0  0  0  0  0  0
   -2.7696   -2.5709   -0.8910 H   0  0  0  0  0  0  0  0  0  0  0  0
   -0.8406   -2.3699    0.0000 C   0  0  0  0  0  0  0  0  0  0  0  0
    0.1164   -3.1329    0.0000 O   0  0  0  0  0  0  0  0  0  0  0  0
   -0.7136   -1.0459    0.0000 N   0  0  0  0  0  0  0  0  0  0  0  0
   -1.5436   -0.4719    0.0000 H   0  0  0  0  0  0  0  0  0  0  0  0
    0.5724   -0.3469    0.0000 C   0  0  0  0  0  0  0  0  0  0  0  0
    0.8803   -0.1615   -1.0299 H   0  0  0  0  0  0  0  0  0  0  0  0
    0.4582    0.6152    0.5012 H   0  0  0  0  0  0  0  0  0  0  0  0
    1.6729   -1.1430    0.7073 C   0  0  0  0  0  0  0  0  0  0  0  0
    2.8461   -1.0258    0.3588 O   0  0  0  0  0  0  0  0  0  0  0  0
    1.2821   -1.9509    1.7010 N   0  0  0  0  0  0  0  0  0  0  0  0
    0.2977   -1.9812    1.9159 H   0  0  0  0  0  0  0  0  0  0  0  0
    2.1761   -2.7929    2.4985 C   0  0  0  0  0  0  0  0  0  0  0  0
    3.2121   -2.6732    2.1723 H   0  0  0  0  0  0  0  0  0  0  0  0
    2.1085   -2.5134    3.5507 H   0  0  0  0  0  0  0  0  0  0  0  0
    1.8955   -3.8411    2.3875 H   0  0  0  0  0  0  0  0  0  0  0  0
  5  6  2  0  0  0  0
  5  7  1  0  0  0  0
  2  3  1  0  0  0  0
  2  4  1  0  0  0  0
  2  5  1  0  0  0  0
  1  2  1  0  0  0  0
 12 13  2  0  0  0  0
 12 14  1  0  0  0  0
  9 10  1  0  0  0  0
  9 11  1  0  0  0  0
  9 12  1  0  0  0  0
  7  8  1  0  0  0  0
  7  9  1  0  0  0  0
 16 17  1  0  0  0  0
 16 18  1  0  0  0  0
 16 19  1  0  0  0  0
 14 15  1  0  0  0  0
 14 16  1  0  0  0  0
M  END
$$$$
default_name
  -OEChem-01062215323D

 19 18  0     0  0  0  0  0  0999 V2000
   -2.2056   -4.0049    0.0000 H   0  0  0  0  0  0  0  0  0  0  0  0
   -2.2496   -2.9169    0.0000 C   0  0  0  0  0  0  0  0  0  0  0  0
   -2.7696   -2.5709    0.8910 H   0  0  0  0  0  0  0  0  0  0  0  0
   -2.7696   -2.5709   -0.8910 H   0  0  0  0  0  0  0  0  0  0  0  0
   -0.8406   -2.3699    0.0000 C   0  0  0  0  0  0  0  0  0  0  0  0
    0.1164   -3.1329    0.0000 O   0  0  0  0  0  0  0  0  0  0  0  0
   -0.7136   -1.0459    0.0000 N   0  0  0  0  0  0  0  0  0  0  0  0
   -1.5436   -0.4719    0.0000 H   0  0  0  0  0  0  0  0  0  0  0  0
    0.5724   -0.3469    0.0000 C   0  0  0  0  0  0  0  0  0  0  0  0
    0.8803   -0.1615   -1.0299 H   0  0  0  0  0  0  0  0  0  0  0  0
    0.4582    0.6152    0.5012 H   0  0  0  0  0  0  0  0  0  0  0  0
    1.6729   -1.1430    0.7073 C   0  0  0  0  0  0  0  0  0  0  0  0
    2.8542   -0.8358    0.5601 O   0  0  0  0  0  0  0  0  0  0  0  0
    1.2729   -2.1655    1.4737 N   0  0  0  0  0  0  0  0  0  0  0  0
    0.2823   -2.3420    1.5338 H   0  0  0  0  0  0  0  0  0  0  0  0
    2.1653   -3.0460    2.2305 C   0  0  0  0  0  0  0  0  0  0  0  0
    3.2086   -2.7553    2.0854 H   0  0  0  0  0  0  0  0  0  0  0  0
    1.9321   -2.9849    3.2943 H   0  0  0  0  0  0  0  0  0  0  0  0
    2.0417   -4.0765    1.8952 H   0  0  0  0  0  0  0  0  0  0  0  0
  5  6  2  0  0  0  0
  5  7  1  0  0  0  0
  2  3  1  0  0  0  0
  2  4  1  0  0  0  0
  2  5  1  0  0  0  0
  1  2  1  0  0  0  0
 12 13  2  0  0  0  0
 12 14  1  0  0  0  0
  9 10  1  0  0  0  0
  9 11  1  0  0  0  0
  9 12  1  0  0  0  0
  7  8  1  0  0  0  0
  7  9  1  0  0  0  0
 16 17  1  0  0  0  0
 16 18  1  0  0  0  0
 16 19  1  0  0  0  0
 14 15  1  0  0  0  0
 14 16  1  0  0  0  0
M  END
$$$$
default_name
  -OEChem-01062215323D

 19 18  0     0  0  0  0  0  0999 V2000
   -2.2056   -4.0049    0.0000 H   0  0  0  0  0  0  0  0  0  0  0  0
   -2.2496   -2.9169    0.0000 C   0  0  0  0  0  0  0  0  0  0  0  0
   -2.7696   -2.5709    0.8910 H   0  0  0  0  0  0  0  0  0  0  0  0
   -2.7696   -2.5709   -0.8910 H   0  0  0  0  0  0  0  0  0  0  0  0
   -0.8406   -2.3699    0.0000 C   0  0  0  0  0  0  0  0  0  0  0  0
    0.1164   -3.1329    0.0000 O   0  0  0  0  0  0  0  0  0  0  0  0
   -0.7136   -1.0459    0.0000 N   0  0  0  0  0  0  0  0  0  0  0  0
   -1.5436   -0.4719    0.0000 H   0  0  0  0  0  0  0  0  0  0  0  0
    0.5724   -0.3469    0.0000 C   0  0  0  0  0  0  0  0  0  0  0  0
    0.8803   -0.1615   -1.0299 H   0  0  0  0  0  0  0  0  0  0  0  0
    0.4582    0.6152    0.5012 H   0  0  0  0  0  0  0  0  0  0  0  0
    1.6729   -1.1430    0.7073 C   0  0  0  0  0  0  0  0  0  0  0  0
    2.8122   -0.6887    0.7909 O   0  0  0  0  0  0  0  0  0  0  0  0
    1.3203   -2.3317    1.2130 N   0  0  0  0  0  0  0  0  0  0  0  0
    0.3619   -2.6212    1.0956 H   0  0  0  0  0  0  0  0  0  0  0  0
    2.2212   -3.2418    1.9231 C   0  0  0  0  0  0  0  0  0  0  0  0
    3.2267   -2.8188    1.9857 H   0  0  0  0  0  0  0  0  0  0  0  0
    1.8527   -3.4138    2.9352 H   0  0  0  0  0  0  0  0  0  0  0  0
    2.2772   -4.1949    1.3955 H   0  0  0  0  0  0  0  0  0  0  0  0
  5  6  2  0  0  0  0
  5  7  1  0  0  0  0
  2  3  1  0  0  0  0
  2  4  1  0  0  0  0
  2  5  1  0  0  0  0
  1  2  1  0  0  0  0
 12 13  2  0  0  0  0
 12 14  1  0  0  0  0
  9 10  1  0  0  0  0
  9 11  1  0  0  0  0
  9 12  1  0  0  0  0
  7  8  1  0  0  0  0
  7  9  1  0  0  0  0
 16 17  1  0  0  0  0
 16 18  1  0  0  0  0
 16 19  1  0  0  0  0
 14 15  1  0  0  0  0
 14 16  1  0  0  0  0
M  END
$$$$
default_name
  -OEChem-01062215323D

 19 18  0     0  0  0  0  0  0999 V2000
   -2.2056   -4.0049    0.0000 H   0  0  0  0  0  0  0  0  0  0  0  0
   -2.2496   -2.9169    0.0000 C   0  0  0  0  0  0  0  0  0  0  0  0
   -2.7696   -2.5709    0.8910 H   0  0  0  0  0  0  0  0  0  0  0  0
   -2.7696   -2.5709   -0.8910 H   0  0  0  0  0  0  0  0  0  0  0  0
   -0.8406   -2.3699    0.0000 C   0  0  0  0  0  0  0  0  0  0  0  0
    0.1164   -3.1329    0.0000 O   0  0  0  0  0  0  0  0  0  0  0  0
   -0.7136   -1.0459    0.0000 N   0  0  0  0  0  0  0  0  0  0  0  0
   -1.5436   -0.4719    0.0000 H   0  0  0  0  0  0  0  0  0  0  0  0
    0.5724   -0.3469    0.0000 C   0  0  0  0  0  0  0  0  0  0  0  0
    0.8803   -0.1615   -1.0299 H   0  0  0  0  0  0  0  0  0  0  0  0
    0.4582    0.6152    0.5012 H   0  0  0  0  0  0  0  0  0  0  0  0
    1.6729   -1.1430    0.7073 C   0  0  0  0  0  0  0  0  0  0  0  0
    2.7230   -0.5945    1.0357 O   0  0  0  0  0  0  0  0  0  0  0  0
    1.4210   -2.4380    0.9366 N   0  0  0  0  0  0  0  0  0  0  0  0
    0.5311   -2.7999    0.6311 H   0  0  0  0  0  0  0  0  0  0  0  0
    2.3399   -3.3672    1.5972 C   0  0  0  0  0  0  0  0  0  0  0  0
    3.2652   -2.8594    1.8801 H   0  0  0  0  0  0  0  0  0  0  0  0
    1.8755   -3.7708    2.4979 H   0  0  0  0  0  0  0  0  0  0  0  0
    2.5861   -4.1881    0.9225 H   0  0  0  0  0  0  0  0  0  0  0  0
  5  6  2  0  0  0  0
  5  7  1  0  0  0  0
  2  3  1  0  0  0  0
  2  4  1  0  0  0  0
  2  5  1  0  0  0  0
  1  2  1  0  0  0  0
 12 13  2  0  0  0  0
 12 14  1  0  0  0  0
  9 10  1  0  0  0  0
  9 11  1  0  0  0  0
  9 12  1  0  0  0  0
  7  8  1  0  0  0  0
  7  9  1  0  0  0  0
 16 17  1  0  0  0  0
 16 18  1  0  0  0  0
 16 19  1  0  0  0  0
 14 15  1  0  0  0  0
 14 16  1  0  0  0  0
M  END
$$$$
default_name
  -OEChem-01062215323D

 19 18  0     0  0  0  0  0  0999 V2000
   -2.2056   -4.0049    0.0000 H   0  0  0  0  0  0  0  0  0  0  0  0
   -2.2496   -2.9169    0.0000 C   0  0  0  0  0  0  0  0  0  0  0  0
   -2.7696   -2.5709    0.8910 H   0  0  0  0  0  0  0  0  0  0  0  0
   -2.7696   -2.5709   -0.8910 H   0  0  0  0  0  0  0  0  0  0  0  0
   -0.8406   -2.3699    0.0000 C   0  0  0  0  0  0  0  0  0  0  0  0
    0.1164   -3.1329    0.0000 O   0  0  0  0  0  0  0  0  0  0  0  0
   -0.7136   -1.0459    0.0000 N   0  0  0  0  0  0  0  0  0  0  0  0
   -1.5436   -0.4719    0.0000 H   0  0  0  0  0  0  0  0  0  0  0  0
    0.5724   -0.3469    0.0000 C   0  0  0  0  0  0  0  0  0  0  0  0
    0.8803   -0.1615   -1.0299 H   0  0  0  0  0  0  0  0  0  0  0  0
    0.4582    0.6152    0.5012 H   0  0  0  0  0  0  0  0  0  0  0  0
    1.6729   -1.1430    0.7073 C   0  0  0  0  0  0  0  0  0  0  0  0
    2.5927   -0.5598    1.2775 O   0  0  0  0  0  0  0  0  0  0  0  0
    1.5682   -2.4772    0.6635 N   0  0  0  0  0  0  0  0  0  0  0  0
    0.7785   -2.8658    0.1720 H   0  0  0  0  0  0  0  0  0  0  0  0
    2.5134   -3.4134    1.2752 C   0  0  0  0  0  0  0  0  0  0  0  0
    3.3215   -2.8744    1.7757 H   0  0  0  0  0  0  0  0  0  0  0  0
    1.9990   -4.0315    2.0122 H   0  0  0  0  0  0  0  0  0  0  0  0
    2.9473   -4.0566    0.5084 H   0  0  0  0  0  0  0  0  0  0  0  0
  5  6  2  0  0  0  0
  5  7  1  0  0  0  0
  2  3  1  0  0  0  0
  2  4  1  0  0  0  0
  2  5  1  0  0  0  0
  1  2  1  0  0  0  0
 12 13  2  0  0  0  0
 12 14  1  0  0  0  0
  9 10  1  0  0  0  0
  9 11  1  0  0  0  0
  9 12  1  0  0  0  0
  7  8  1  0  0  0  0
  7  9  1  0  0  0  0
 16 17  1  0  0  0  0
 16 18  1  0  0  0  0
 16 19  1  0  0  0  0
 14 15  1  0  0  0  0
 14 16  1  0  0  0  0
M  END
$$$$
default_name
  -OEChem-01062215323D

 19 18  0     0  0  0  0  0  0999 V2000
   -2.2056   -4.0049    0.0000 H   0  0  0  0  0  0  0  0  0  0  0  0
   -2.2496   -2.9169    0.0000 C   0  0  0  0  0  0  0  0  0  0  0  0
   -2.7696   -2.5709    0.8910 H   0  0  0  0  0  0  0  0  0  0  0  0
   -2.7696   -2.5709   -0.8910 H   0  0  0  0  0  0  0  0  0  0  0  0
   -0.8406   -2.3699    0.0000 C   0  0  0  0  0  0  0  0  0  0  0  0
    0.1164   -3.1329    0.0000 O   0  0  0  0  0  0  0  0  0  0  0  0
   -0.7136   -1.0459    0.0000 N   0  0  0  0  0  0  0  0  0  0  0  0
   -1.5436   -0.4719    0.0000 H   0  0  0  0  0  0  0  0  0  0  0  0
    0.5724   -0.3469    0.0000 C   0  0  0  0  0  0  0  0  0  0  0  0
    0.8803   -0.1615   -1.0299 H   0  0  0  0  0  0  0  0  0  0  0  0
    0.4582    0.6152    0.5012 H   0  0  0  0  0  0  0  0  0  0  0  0
    1.6729   -1.1430    0.7073 C   0  0  0  0  0  0  0  0  0  0  0  0
    2.4302   -0.5868    1.5001 O   0  0  0  0  0  0  0  0  0  0  0  0
    1.7517   -2.4467    0.4121 N   0  0  0  0  0  0  0  0  0  0  0  0
    1.0870   -2.8146   -0.2504 H   0  0  0  0  0  0  0  0  0  0  0  0
    2.7299   -3.3775    0.9788 C   0  0  0  0  0  0  0  0  0  0  0  0
    3.3916   -2.8627    1.6796 H   0  0  0  0  0  0  0  0  0  0  0  0
    2.2149   -4.1783    1.5112 H   0  0  0  0  0  0  0  0  0  0  0  0
    3.3362   -3.8094    0.1815 H   0  0  0  0  0  0  0  0  0  0  0  0
  5  6  2  0  0  0  0
  5  7  1  0  0  0  0
  2  3  1  0  0  0  0
  2  4  1  0  0  0  0
  2  5  1  0  0  0  0
  1  2  1  0  0  0  0
 12 13  2  0  0  0  0
 12 14  1  0  0  0  0
  9 10  1  0  0  0  0
  9 11  1  0  0  0  0
  9 12  1  0  0  0  0
  7  8  1  0  0  0  0
  7  9  1  0  0  0  0
 16 17  1  0  0  0  0
 16 18  1  0  0  0  0
 16 19  1  0  0  0  0
 14 15  1  0  0  0  0
 14 16  1  0  0  0  0
M  END
$$$$
default_name
  -OEChem-01062215323D

 19 18  0     0  0  0  0  0  0999 V2000
   -2.2056   -4.0049    0.0000 H   0  0  0  0  0  0  0  0  0  0  0  0
   -2.2496   -2.9169    0.0000 C   0  0  0  0  0  0  0  0  0  0  0  0
   -2.7696   -2.5709    0.8910 H   0  0  0  0  0  0  0  0  0  0  0  0
   -2.7696   -2.5709   -0.8910 H   0  0  0  0  0  0  0  0  0  0  0  0
   -0.8406   -2.3699    0.0000 C   0  0  0  0  0  0  0  0  0  0  0  0
    0.1164   -3.1329    0.0000 O   0  0  0  0  0  0  0  0  0  0  0  0
   -0.7136   -1.0459    0.0000 N   0  0  0  0  0  0  0  0  0  0  0  0
   -1.5436   -0.4719    0.0000 H   0  0  0  0  0  0  0  0  0  0  0  0
    0.5724   -0.3469    0.0000 C   0  0  0  0  0  0  0  0  0  0  0  0
    0.8803   -0.1615   -1.0299 H   0  0  0  0  0  0  0  0  0  0  0  0
    0.4582    0.6152    0.5012 H   0  0  0  0  0  0  0  0  0  0  0  0
    1.6729   -1.1430    0.7073 C   0  0  0  0  0  0  0  0  0  0  0  0
    2.2464   -0.6737    1.6882 O   0  0  0  0  0  0  0  0  0  0  0  0
    1.9592   -2.3486    0.1997 N   0  0  0  0  0  0  0  0  0  0  0  0
    1.4358   -2.6496   -0.6075 H   0  0  0  0  0  0  0  0  0  0  0  0
    2.9745   -3.2618    0.7284 C   0  0  0  0  0  0  0  0  0  0  0  0
    3.4709   -2.8252    1.5985 H   0  0  0  0  0  0  0  0  0  0  0  0
    2.5083   -4.2010    1.0289 H   0  0  0  0  0  0  0  0  0  0  0  0
    3.7262   -3.4634   -0.0359 H   0  0  0  0  0  0  0  0  0  0  0  0
  5  6  2  0  0  0  0
  5  7  1  0  0  0  0
  2  3  1  0  0  0  0
  2  4  1  0  0  0  0
  2  5  1  0  0  0  0
  1  2  1  0  0  0  0
 12 13  2  0  0  0  0
 12 14  1  0  0  0  0
  9 10  1  0  0  0  0
  9 11  1  0  0  0  0
  9 12  1  0  0  0  0
  7  8  1  0  0  0  0
  7  9  1  0  0  0  0
 16 17  1  0  0  0  0
 16 18  1  0  0  0  0
 16 19  1  0  0  0  0
 14 15  1  0  0  0  0
 14 16  1  0  0  0  0
M  END
$$$$
default_name
  -OEChem-01062215323D

 19 18  0     0  0  0  0  0  0999 V2000
   -2.2056   -4.0049    0.0000 H   0  0  0  0  0  0  0  0  0  0  0  0
   -2.2496   -2.9169    0.0000 C   0  0  0  0  0  0  0  0  0  0  0  0
   -2.7696   -2.5709    0.8910 H   0  0  0  0  0  0  0  0  0  0  0  0
   -2.7696   -2.5709   -0.8910 H   0  0  0  0  0  0  0  0  0  0  0  0
   -0.8406   -2.3699    0.0000 C   0  0  0  0  0  0  0  0  0  0  0  0
    0.1164   -3.1329    0.0000 O   0  0  0  0  0  0  0  0  0  0  0  0
   -0.7136   -1.0459    0.0000 N   0  0  0  0  0  0  0  0  0  0  0  0
   -1.5436   -0.4719    0.0000 H   0  0  0  0  0  0  0  0  0  0  0  0
    0.5724   -0.3469    0.0000 C   0  0  0  0  0  0  0  0  0  0  0  0
    0.8803   -0.1615   -1.0299 H   0  0  0  0  0  0  0  0  0  0  0  0
    0.4582    0.6152    0.5012 H   0  0  0  0  0  0  0  0  0  0  0  0
    1.6729   -1.1430    0.7073 C   0  0  0  0  0  0  0  0  0  0  0  0
    2.0540   -0.8146    1.8290 O   0  0  0  0  0  0  0  0  0  0  0  0
    2.1765   -2.1894    0.0407 N   0  0  0  0  0  0  0  0  0  0  0  0
    1.8010   -2.3822   -0.8747 H   0  0  0  0  0  0  0  0  0  0  0  0
    3.2307   -3.0742    0.5409 C   0  0  0  0  0  0  0  0  0  0  0  0
    3.5540   -2.7644    1.5377 H   0  0  0  0  0  0  0  0  0  0  0  0
    2.8594   -4.0982    0.5984 H   0  0  0  0  0  0  0  0  0  0  0  0
    4.0909   -3.0421   -0.1292 H   0  0  0  0  0  0  0  0  0  0  0  0
  5  6  2  0  0  0  0
  5  7  1  0  0  0  0
  2  3  1  0  0  0  0
  2  4  1  0  0  0  0
  2  5  1  0  0  0  0
  1  2  1  0  0  0  0
 12 13  2  0  0  0  0
 12 14  1  0  0  0  0
  9 10  1  0  0  0  0
  9 11  1  0  0  0  0
  9 12  1  0  0  0  0
  7  8  1  0  0  0  0
  7  9  1  0  0  0  0
 16 17  1  0  0  0  0
 16 18  1  0  0  0  0
 16 19  1  0  0  0  0
 14 15  1  0  0  0  0
 14 16  1  0  0  0  0
M  END
$$$$
default_name
  -OEChem-01062215323D

 19 18  0     0  0  0  0  0  0999 V2000
   -2.2056   -4.0049    0.0000 H   0  0  0  0  0  0  0  0  0  0  0  0
   -2.2496   -2.9169    0.0000 C   0  0  0  0  0  0  0  0  0  0  0  0
   -2.7696   -2.5709    0.8910 H   0  0  0  0  0  0  0  0  0  0  0  0
   -2.7696   -2.5709   -0.8910 H   0  0  0  0  0  0  0  0  0  0  0  0
   -0.8406   -2.3699    0.0000 C   0  0  0  0  0  0  0  0  0  0  0  0
    0.1164   -3.1329    0.0000 O   0  0  0  0  0  0  0  0  0  0  0  0
   -0.7136   -1.0459    0.0000 N   0  0  0  0  0  0  0  0  0  0  0  0
   -1.5436   -0.4719    0.0000 H   0  0  0  0  0  0  0  0  0  0  0  0
    0.5724   -0.3469    0.0000 C   0  0  0  0  0  0  0  0  0  0  0  0
    0.8803   -0.1615   -1.0299 H   0  0  0  0  0  0  0  0  0  0  0  0
    0.4582    0.6152    0.5012 H   0  0  0  0  0  0  0  0  0  0  0  0
    1.6729   -1.1430    0.7073 C   0  0  0  0  0  0  0  0  0  0  0  0
    1.8660   -0.9999    1.9129 O   0  0  0  0  0  0  0  0  0  0  0  0
    2.3888   -1.9802   -0.0541 N   0  0  0  0  0  0  0  0  0  0  0  0
    2.1578   -2.0305   -1.0340 H   0  0  0  0  0  0  0  0  0  0  0  0
    3.4810   -2.8274    0.4292 C   0  0  0  0  0  0  0  0  0  0  0  0
    3.6351   -2.6844    1.5015 H   0  0  0  0  0  0  0  0  0  0  0  0
    3.2441   -3.8768    0.2489 H   0  0  0  0  0  0  0  0  0  0  0  0
    4.4053   -2.5742   -0.0918 H   0  0  0  0  0  0  0  0  0  0  0  0
  5  6  2  0  0  0  0
  5  7  1  0  0  0  0
  2  3  1  0  0  0  0
  2  4  1  0  0  0  0
  2  5  1  0  0  0  0
  1  2  1  0  0  0  0
 12 13  2  0  0  0  0
 12 14  1  0  0  0  0
  9 10  1  0  0  0  0
  9 11  1  0  0  0  0
  9 12  1  0  0  0  0
  7  8  1  0  0  0  0
  7  9  1  0  0  0  0
 16 17  1  0  0  0  0
 16 18  1  0  0  0  0
 16 19  1  0  0  0  0
 14 15  1  0  0  0  0
 14 16  1  0  0  0  0
M  END
$$$$
default_name
  -OEChem-01062215323D

 19 18  0     0  0  0  0  0  0999 V2000
   -2.2056   -4.0049    0.0000 H   0  0  0  0  0  0  0  0  0  0  0  0
   -2.2496   -2.9169    0.0000 C   0  0  0  0  0  0  0  0  0  0  0  0
   -2.7696   -2.5709    0.8910 H   0  0  0  0  0  0  0  0  0  0  0  0
   -2.7696   -2.5709   -0.8910 H   0  0  0  0  0  0  0  0  0  0  0  0
   -0.8406   -2.3699    0.0000 C   0  0  0  0  0  0  0  0  0  0  0  0
    0.1164   -3.1329    0.0000 O   0  0  0  0  0  0  0  0  0  0  0  0
   -0.7136   -1.0459    0.0000 N   0  0  0  0  0  0  0  0  0  0  0  0
   -1.5436   -0.4719    0.0000 H   0  0  0  0  0  0  0  0  0  0  0  0
    0.5724   -0.3469    0.0000 C   0  0  0  0  0  0  0  0  0  0  0  0
    0.8803   -0.1615   -1.0299 H   0  0  0  0  0  0  0  0  0  0  0  0
    0.4582    0.6152    0.5012 H   0  0  0  0  0  0  0  0  0  0  0  0
    1.6729   -1.1430    0.7073 C   0  0  0  0  0  0  0  0  0  0  0  0
    1.6953   -1.2169    1.9342 O   0  0  0  0  0  0  0  0  0  0  0  0
    2.5816   -1.7351   -0.0781 N   0  0  0  0  0  0  0  0  0  0  0  0
    2.4817   -1.6185   -1.0744 H   0  0  0  0  0  0  0  0  0  0  0  0
    3.7083   -2.5385    0.4008 C   0  0  0  0  0  0  0  0  0  0  0  0
    3.7088   -2.5908    1.4923 H   0  0  0  0  0  0  0  0  0  0  0  0
    3.6363   -3.5520    0.0042 H   0  0  0  0  0  0  0  0  0  0  0  0
    4.6481   -2.0916    0.0737 H   0  0  0  0  0  0  0  0  0  0  0  0
  5  6  2  0  0  0  0
  5  7  1  0  0  0  0
  2  3  1  0  0  0  0
  2  4  1  0  0  0  0
  2  5  1  0  0  0  0
  1  2  1  0  0  0  0
 12 13  2  0  0  0  0
 12 14  1  0  0  0  0
  9 10  1  0  0  0  0
  9 11  1  0  0  0  0
  9 12  1  0  0  0  0
  7  8  1  0  0  0  0
  7  9  1  0  0  0  0
 16 17  1  0  0  0  0
 16 18  1  0  0  0  0
 16 19  1  0  0  0  0
 14 15  1  0  0  0  0
 14 16  1  0  0  0  0
M  END
$$$$
default_name
  -OEChem-01062215323D

 19 18  0     0  0  0  0  0  0999 V2000
   -2.2056   -4.0049    0.0000 H   0  0  0  0  0  0  0  0  0  0  0  0
   -2.2496   -2.9169    0.0000 C   0  0  0  0  0  0  0  0  0  0  0  0
   -2.7696   -2.5709    0.8910 H   0  0  0  0  0  0  0  0  0  0  0  0
   -2.7696   -2.5709   -0.8910 H   0  0  0  0  0  0  0  0  0  0  0  0
   -0.8406   -2.3699    0.0000 C   0  0  0  0  0  0  0  0  0  0  0  0
    0.1164   -3.1329    0.0000 O   0  0  0  0  0  0  0  0  0  0  0  0
   -0.7136   -1.0459    0.0000 N   0  0  0  0  0  0  0  0  0  0  0  0
   -1.5436   -0.4719    0.0000 H   0  0  0  0  0  0  0  0  0  0  0  0
    0.5724   -0.3469    0.0000 C   0  0  0  0  0  0  0  0  0  0  0  0
    0.8803   -0.1615   -1.0299 H   0  0  0  0  0  0  0  0  0  0  0  0
    0.4582    0.6152    0.5012 H   0  0  0  0  0  0  0  0  0  0  0  0
    1.6729   -1.1430    0.7073 C   0  0  0  0  0  0  0  0  0  0  0  0
    1.5535   -1.4510    1.8915 O   0  0  0  0  0  0  0  0  0  0  0  0
    2.7417   -1.4708   -0.0298 N   0  0  0  0  0  0  0  0  0  0  0  0
    2.7509   -1.1744   -0.9932 H   0  0  0  0  0  0  0  0  0  0  0  0
    3.8971   -2.2269    0.4577 C   0  0  0  0  0  0  0  0  0  0  0  0
    3.7700   -2.4898    1.5107 H   0  0  0  0  0  0  0  0  0  0  0  0
    4.0092   -3.1459   -0.1190 H   0  0  0  0  0  0  0  0  0  0  0  0
    4.8026   -1.6273    0.3559 H   0  0  0  0  0  0  0  0  0  0  0  0
  5  6  2  0  0  0  0
  5  7  1  0  0  0  0
  2  3  1  0  0  0  0
  2  4  1  0  0  0  0
  2  5  1  0  0  0  0
  1  2  1  0  0  0  0
 12 13  2  0  0  0  0
 12 14  1  0  0  0  0
  9 10  1  0  0  0  0
  9 11  1  0  0  0  0
  9 12  1  0  0  0  0
  7  8  1  0  0  0  0
  7  9  1  0  0  0  0
 16 17  1  0  0  0  0
 16 18  1  0  0  0  0
 16 19  1  0  0  0  0
 14 15  1  0  0  0  0
 14 16  1  0  0  0  0
M  END
$$$$
default_name
  -OEChem-01062215323D

 19 18  0     0  0  0  0  0  0999 V2000
   -2.2056   -4.0049    0.0000 H   0  0  0  0  0  0  0  0  0  0  0  0
   -2.2496   -2.9169    0.0000 C   0  0  0  0  0  0  0  0  0  0  0  0
   -2.7696   -2.5709    0.8910 H   0  0  0  0  0  0  0  0  0  0  0  0
   -2.7696   -2.5709   -0.8910 H   0  0  0  0  0  0  0  0  0  0  0  0
   -0.8406   -2.3699    0.0000 C   0  0  0  0  0  0  0  0  0  0  0  0
    0.1164   -3.1329    0.0000 O   0  0  0  0  0  0  0  0  0  0  0  0
   -0.7136   -1.0459    0.0000 N   0  0  0  0  0  0  0  0  0  0  0  0
   -1.5436   -0.4719    0.0000 H   0  0  0  0  0  0  0  0  0  0  0  0
    0.5724   -0.3469    0.0000 C   0  0  0  0  0  0  0  0  0  0  0  0
    0.8803   -0.1615   -1.0299 H   0  0  0  0  0  0  0  0  0  0  0  0
    0.4582    0.6152    0.5012 H   0  0  0  0  0  0  0  0  0  0  0  0
    1.6729   -1.1430    0.7073 C   0  0  0  0  0  0  0  0  0  0  0  0
    1.4503   -1.6860    1.7876 O   0  0  0  0  0  0  0  0  0  0  0  0
    2.8583   -1.2054    0.0875 N   0  0  0  0  0  0  0  0  0  0  0  0
    2.9468   -0.7282   -0.7960 H   0  0  0  0  0  0  0  0  0  0  0  0
    4.0345   -1.9139    0.5961 C   0  0  0  0  0  0  0  0  0  0  0  0
    3.8145   -2.3883    1.5556 H   0  0  0  0  0  0  0  0  0  0  0  0
    4.3375   -2.6861   -0.1122 H   0  0  0  0  0  0  0  0  0  0  0  0
    4.8584   -1.2127    0.7357 H   0  0  0  0  0  0  0  0  0  0  0  0
  5  6  2  0  0  0  0
  5  7  1  0  0  0  0
  2  3  1  0  0  0  0
  2  4  1  0  0  0  0
  2  5  1  0  0  0  0
  1  2  1  0  0  0  0
 12 13  2  0  0  0  0
 12 14  1  0  0  0  0
  9 10  1  0  0  0  0
  9 11  1  0  0  0  0
  9 12  1  0  0  0  0
  7  8  1  0  0  0  0
  7  9  1  0  0  0  0
 16 17  1  0  0  0  0
 16 18  1  0  0  0  0
 16 19  1  0  0  0  0
 14 15  1  0  0  0  0
 14 16  1  0  0  0  0
M  END
$$$$
default_name
  -OEChem-01062215323D

 19 18  0     0  0  0  0  0  0999 V2000
   -2.2056   -4.0049    0.0000 H   0  0  0  0  0  0  0  0  0  0  0  0
   -2.2496   -2.9169    0.0000 C   0  0  0  0  0  0  0  0  0  0  0  0
   -2.7696   -2.5709    0.8910 H   0  0  0  0  0  0  0  0  0  0  0  0
   -2.7696   -2.5709   -0.8910 H   0  0  0  0  0  0  0  0  0  0  0  0
   -0.8406   -2.3699    0.0000 C   0  0  0  0  0  0  0  0  0  0  0  0
    0.1164   -3.1329    0.0000 O   0  0  0  0  0  0  0  0  0  0  0  0
   -0.7136   -1.0459    0.0000 N   0  0  0  0  0  0  0  0  0  0  0  0
   -1.5436   -0.4719    0.0000 H   0  0  0  0  0  0  0  0  0  0  0  0
    0.5724   -0.3469    0.0000 C   0  0  0  0  0  0  0  0  0  0  0  0
    0.8803   -0.1615   -1.0299 H   0  0  0  0  0  0  0  0  0  0  0  0
    0.4582    0.6152    0.5012 H   0  0  0  0  0  0  0  0  0  0  0  0
    1.6729   -1.1430    0.7073 C   0  0  0  0  0  0  0  0  0  0  0  0
    1.3927   -1.9060    1.6296 O   0  0  0  0  0  0  0  0  0  0  0  0
    2.9234   -0.9569    0.2660 N   0  0  0  0  0  0  0  0  0  0  0  0
    3.0562   -0.3106   -0.4961 H   0  0  0  0  0  0  0  0  0  0  0  0
    4.1113   -1.6209    0.8065 C   0  0  0  0  0  0  0  0  0  0  0  0
    3.8394   -2.2933    1.6238 H   0  0  0  0  0  0  0  0  0  0  0  0
    4.5987   -2.2041    0.0240 H   0  0  0  0  0  0  0  0  0  0  0  0
    4.8116   -0.8763    1.1872 H   0  0  0  0  0  0  0  0  0  0  0  0
  5  6  2  0  0  0  0
  5  7  1  0  0  0  0
  2  3  1  0  0  0  0
  2  4  1  0  0  0  0
  2  5  1  0  0  0  0
  1  2  1  0  0  0  0
 12 13  2  0  0  0  0
 12 14  1  0  0  0  0
  9 10  1  0  0  0  0
  9 11  1  0  0  0  0
  9 12  1  0  0  0  0
  7  8  1  0  0  0  0
  7  9  1  0  0  0  0
 16 17  1  0  0  0  0
 16 18  1  0  0  0  0
 16 19  1  0  0  0  0
 14 15  1  0  0  0  0
 14 16  1  0  0  0  0
M  END
$$$$
default_name
  -OEChem-01062215323D

 19 18  0     0  0  0  0  0  0999 V2000
   -2.2056   -4.0049    0.0000 H   0  0  0  0  0  0  0  0  0  0  0  0
   -2.2496   -2.9169    0.0000 C   0  0  0  0  0  0  0  0  0  0  0  0
   -2.7696   -2.5709    0.8910 H   0  0  0  0  0  0  0  0  0  0  0  0
   -2.7696   -2.5709   -0.8910 H   0  0  0  0  0  0  0  0  0  0  0  0
   -0.8406   -2.3699    0.0000 C   0  0  0  0  0  0  0  0  0  0  0  0
    0.1164   -3.1329    0.0000 O   0  0  0  0  0  0  0  0  0  0  0  0
   -0.7136   -1.0459    0.0000 N   0  0  0  0  0  0  0  0  0  0  0  0
   -1.5436   -0.4719    0.0000 H   0  0  0  0  0  0  0  0  0  0  0  0
    0.5724   -0.3469    0.0000 C   0  0  0  0  0  0  0  0  0  0  0  0
    0.8803   -0.1615   -1.0299 H   0  0  0  0  0  0  0  0  0  0  0  0
    0.4582    0.6152    0.5012 H   0  0  0  0  0  0  0  0  0  0  0  0
    1.6729   -1.1430    0.7073 C   0  0  0  0  0  0  0  0  0  0  0  0
    1.3845   -2.0961    1.4283 O   0  0  0  0  0  0  0  0  0  0  0  0
    2.9325   -0.7423    0.4933 N   0  0  0  0  0  0  0  0  0  0  0  0
    3.0717    0.0501   -0.1141 H   0  0  0  0  0  0  0  0  0  0  0  0
    4.1221   -1.3679    1.0745 C   0  0  0  0  0  0  0  0  0  0  0  0
    3.8429   -2.2113    1.7107 H   0  0  0  0  0  0  0  0  0  0  0  0
    4.7750   -1.7325    0.2804 H   0  0  0  0  0  0  0  0  0  0  0  0
    4.6655   -0.6409    1.6795 H   0  0  0  0  0  0  0  0  0  0  0  0
  5  6  2  0  0  0  0
  5  7  1  0  0  0  0
  2  3  1  0  0  0  0
  2  4  1  0  0  0  0
  2  5  1  0  0  0  0
  1  2  1  0  0  0  0
 12 13  2  0  0  0  0
 12 14  1  0  0  0  0
  9 10  1  0  0  0  0
  9 11  1  0  0  0  0
  9 12  1  0  0  0  0
  7  8  1  0  0  0  0
  7  9  1  0  0  0  0
 16 17  1  0  0  0  0
 16 18  1  0  0  0  0
 16 19  1  0  0  0  0
 14 15  1  0  0  0  0
 14 16  1  0  0  0  0
M  END
$$$$
default_name
  -OEChem-01062215323D

 19 18  0     0  0  0  0  0  0999 V2000
   -2.2056   -4.0049    0.0000 H   0  0  0  0  0  0  0  0  0  0  0  0
   -2.2496   -2.9169    0.0000 C   0  0  0  0  0  0  0  0  0  0  0  0
   -2.7696   -2.5709    0.8910 H   0  0  0  0  0  0  0  0  0  0  0  0
   -2.7696   -2.5709   -0.8910 H   0  0  0  0  0  0  0  0  0  0  0  0
   -0.8406   -2.3699    0.0000 C   0  0  0  0  0  0  0  0  0  0  0  0
    0.1164   -3.1329    0.0000 O   0  0  0  0  0  0  0  0  0  0  0  0
   -0.7136   -1.0459    0.0000 N   0  0  0  0  0  0  0  0  0  0  0  0
   -1.5436   -0.4719    0.0000 H   0  0  0  0  0  0  0  0  0  0  0  0
    0.5724   -0.3469    0.0000 C   0  0  0  0  0  0  0  0  0  0  0  0
    0.7533    0.0723   -0.9907 H   0  0  0  0  0  0  0  0  0  0  0  0
    0.5348    0.4743    0.7170 H   0  0  0  0  0  0  0  0  0  0  0  0
    1.7404   -1.2671    0.3661 C   0  0  0  0  0  0  0  0  0  0  0  0
    1.5407   -2.4534    0.6198 O   0  0  0  0  0  0  0  0  0  0  0  0
    2.9571   -0.7085    0.3903 N   0  0  0  0  0  0  0  0  0  0  0  0
    3.0229    0.2725    0.1678 H   0  0  0  0  0  0  0  0  0  0  0  0
    4.1981   -1.4146    0.7153 C   0  0  0  0  0  0  0  0  0  0  0  0
    3.9975   -2.4656    0.9371 H   0  0  0  0  0  0  0  0  0  0  0  0
    4.8866   -1.3627   -0.1292 H   0  0  0  0  0  0  0  0  0  0  0  0
    4.6668   -0.9584    1.5882 H   0  0  0  0  0  0  0  0  0  0  0  0
  5  6  2  0  0  0  0
  5  7  1  0  0  0  0
  2  3  1  0  0  0  0
  2  4  1  0  0  0  0
  2  5  1  0  0  0  0
  1  2  1  0  0  0  0
 12 13  2  0  0  0  0
 12 14  1  0  0  0  0
  9 10  1  0  0  0  0
  9 11  1  0  0  0  0
  9 12  1  0  0  0  0
  7  8  1  0  0  0  0
  7  9  1  0  0  0  0
 16 17  1  0  0  0  0
 16 18  1  0  0  0  0
 16 19  1  0  0  0  0
 14 15  1  0  0  0  0
 14 16  1  0  0  0  0
M  END
$$$$
default_name
  -OEChem-01062215323D

 19 18  0     0  0  0  0  0  0999 V2000
   -2.2056   -4.0049    0.0000 H   0  0  0  0  0  0  0  0  0  0  0  0
   -2.2496   -2.9169    0.0000 C   0  0  0  0  0  0  0  0  0  0  0  0
   -2.7696   -2.5709    0.8910 H   0  0  0  0  0  0  0  0  0  0  0  0
   -2.7696   -2.5709   -0.8910 H   0  0  0  0  0  0  0  0  0  0  0  0
   -0.8406   -2.3699    0.0000 C   0  0  0  0  0  0  0  0  0  0  0  0
    0.1164   -3.1329    0.0000 O   0  0  0  0  0  0  0  0  0  0  0  0
   -0.7136   -1.0459    0.0000 N   0  0  0  0  0  0  0  0  0  0  0  0
   -1.5436   -0.4719    0.0000 H   0  0  0  0  0  0  0  0  0  0  0  0
    0.5724   -0.3469    0.0000 C   0  0  0  0  0  0  0  0  0  0  0  0
    0.7533    0.0723   -0.9907 H   0  0  0  0  0  0  0  0  0  0  0  0
    0.5348    0.4743    0.7170 H   0  0  0  0  0  0  0  0  0  0  0  0
    1.7404   -1.2671    0.3661 C   0  0  0  0  0  0  0  0  0  0  0  0
    1.5976   -2.4881    0.3510 O   0  0  0  0  0  0  0  0  0  0  0  0
    2.8929   -0.6693    0.6938 N   0  0  0  0  0  0  0  0  0  0  0  0
    2.9150    0.3384    0.6780 H   0  0  0  0  0  0  0  0  0  0  0  0
    4.1223   -1.3683    1.0732 C   0  0  0  0  0  0  0  0  0  0  0  0
    3.9730   -2.4506    1.0531 H   0  0  0  0  0  0  0  0  0  0  0  0
    4.9231   -1.1149    0.3772 H   0  0  0  0  0  0  0  0  0  0  0  0
    4.4187   -1.0769    2.0817 H   0  0  0  0  0  0  0  0  0  0  0  0
  5  6  2  0  0  0  0
  5  7  1  0  0  0  0
  2  3  1  0  0  0  0
  2  4  1  0  0  0  0
  2  5  1  0  0  0  0
  1  2  1  0  0  0  0
 12 13  2  0  0  0  0
 12 14  1  0  0  0  0
  9 10  1  0  0  0  0
  9 11  1  0  0  0  0
  9 12  1  0  0  0  0
  7  8  1  0  0  0  0
  7  9  1  0  0  0  0
 16 17  1  0  0  0  0
 16 18  1  0  0  0  0
 16 19  1  0  0  0  0
 14 15  1  0  0  0  0
 14 16  1  0  0  0  0
M  END
$$$$
default_name
  -OEChem-01062215323D

 19 18  0     0  0  0  0  0  0999 V2000
   -2.2056   -4.0049    0.0000 H   0  0  0  0  0  0  0  0  0  0  0  0
   -2.2496   -2.9169    0.0000 C   0  0  0  0  0  0  0  0  0  0  0  0
   -2.7696   -2.5709    0.8910 H   0  0  0  0  0  0  0  0  0  0  0  0
   -2.7696   -2.5709   -0.8910 H   0  0  0  0  0  0  0  0  0  0  0  0
   -0.8406   -2.3699    0.0000 C   0  0  0  0  0  0  0  0  0  0  0  0
    0.1164   -3.1329    0.0000 O   0  0  0  0  0  0  0  0  0  0  0  0
   -0.7136   -1.0459    0.0000 N   0  0  0  0  0  0  0  0  0  0  0  0
   -1.5436   -0.4719    0.0000 H   0  0  0  0  0  0  0  0  0  0  0  0
    0.5724   -0.3469    0.0000 C   0  0  0  0  0  0  0  0  0  0  0  0
    0.7533    0.0723   -0.9907 H   0  0  0  0  0  0  0  0  0  0  0  0
    0.5348    0.4743    0.7170 H   0  0  0  0  0  0  0  0  0  0  0  0
    1.7404   -1.2671    0.3661 C   0  0  0  0  0  0  0  0  0  0  0  0
    1.6965   -2.4651    0.0934 O   0  0  0  0  0  0  0  0  0  0  0  0
    2.7812   -0.6953    0.9848 N   0  0  0  0  0  0  0  0  0  0  0  0
    2.7273    0.2947    1.1670 H   0  0  0  0  0  0  0  0  0  0  0  0
    3.9906   -1.3990    1.4163 C   0  0  0  0  0  0  0  0  0  0  0  0
    3.9303   -2.4606    1.1643 H   0  0  0  0  0  0  0  0  0  0  0  0
    4.8643   -0.9732    0.9210 H   0  0  0  0  0  0  0  0  0  0  0  0
    4.1096   -1.3043    2.4964 H   0  0  0  0  0  0  0  0  0  0  0  0
  5  6  2  0  0  0  0
  5  7  1  0  0  0  0
  2  3  1  0  0  0  0
  2  4  1  0  0  0  0
  2  5  1  0  0  0  0
  1  2  1  0  0  0  0
 12 13  2  0  0  0  0
 12 14  1  0  0  0  0
  9 10  1  0  0  0  0
  9 11  1  0  0  0  0
  9 12  1  0  0  0  0
  7  8  1  0  0  0  0
  7  9  1  0  0  0  0
 16 17  1  0  0  0  0
 16 18  1  0  0  0  0
 16 19  1  0  0  0  0
 14 15  1  0  0  0  0
 14 16  1  0  0  0  0
M  END
$$$$
default_name
  -OEChem-01062215323D

 19 18  0     0  0  0  0  0  0999 V2000
   -2.2056   -4.0049    0.0000 H   0  0  0  0  0  0  0  0  0  0  0  0
   -2.2496   -2.9169    0.0000 C   0  0  0  0  0  0  0  0  0  0  0  0
   -2.7696   -2.5709    0.8910 H   0  0  0  0  0  0  0  0  0  0  0  0
   -2.7696   -2.5709   -0.8910 H   0  0  0  0  0  0  0  0  0  0  0  0
   -0.8406   -2.3699    0.0000 C   0  0  0  0  0  0  0  0  0  0  0  0
    0.1164   -3.1329    0.0000 O   0  0  0  0  0  0  0  0  0  0  0  0
   -0.7136   -1.0459    0.0000 N   0  0  0  0  0  0  0  0  0  0  0  0
   -1.5436   -0.4719    0.0000 H   0  0  0  0  0  0  0  0  0  0  0  0
    0.5724   -0.3469    0.0000 C   0  0  0  0  0  0  0  0  0  0  0  0
    0.7533    0.0723   -0.9907 H   0  0  0  0  0  0  0  0  0  0  0  0
    0.5348    0.4743    0.7170 H   0  0  0  0  0  0  0  0  0  0  0  0
    1.7404   -1.2671    0.3661 C   0  0  0  0  0  0  0  0  0  0  0  0
    1.8307   -2.3859   -0.1356 O   0  0  0  0  0  0  0  0  0  0  0  0
    2.6296   -0.7848    1.2434 N   0  0  0  0  0  0  0  0  0  0  0  0
    2.4726    0.1443    1.6016 H   0  0  0  0  0  0  0  0  0  0  0  0
    3.8120   -1.5045    1.7211 C   0  0  0  0  0  0  0  0  0  0  0  0
    3.8724   -2.4948    1.2631 H   0  0  0  0  0  0  0  0  0  0  0  0
    4.7141   -0.9473    1.4650 H   0  0  0  0  0  0  0  0  0  0  0  0
    3.7606   -1.6248    2.8041 H   0  0  0  0  0  0  0  0  0  0  0  0
  5  6  2  0  0  0  0
  5  7  1  0  0  0  0
  2  3  1  0  0  0  0
  2  4  1  0  0  0  0
  2  5  1  0  0  0  0
  1  2  1  0  0  0  0
 12 13  2  0  0  0  0
 12 14  1  0  0  0  0
  9 10  1  0  0  0  0
  9 11  1  0  0  0  0
  9 12  1  0  0  0  0
  7  8  1  0  0  0  0
  7  9  1  0  0  0  0
 16 17  1  0  0  0  0
 16 18  1  0  0  0  0
 16 19  1  0  0  0  0
 14 15  1  0  0  0  0
 14 16  1  0  0  0  0
M  END
$$$$
default_name
  -OEChem-01062215323D

 19 18  0     0  0  0  0  0  0999 V2000
   -2.2056   -4.0049    0.0000 H   0  0  0  0  0  0  0  0  0  0  0  0
   -2.2496   -2.9169    0.0000 C   0  0  0  0  0  0  0  0  0  0  0  0
   -2.7696   -2.5709    0.8910 H   0  0  0  0  0  0  0  0  0  0  0  0
   -2.7696   -2.5709   -0.8910 H   0  0  0  0  0  0  0  0  0  0  0  0
   -0.8406   -2.3699    0.0000 C   0  0  0  0  0  0  0  0  0  0  0  0
    0.1164   -3.1329    0.0000 O   0  0  0  0  0  0  0  0  0  0  0  0
   -0.7136   -1.0459    0.0000 N   0  0  0  0  0  0  0  0  0  0  0  0
   -1.5436   -0.4719    0.0000 H   0  0  0  0  0  0  0  0  0  0  0  0
    0.5724   -0.3469    0.0000 C   0  0  0  0  0  0  0  0  0  0  0  0
    0.7533    0.0723   -0.9907 H   0  0  0  0  0  0  0  0  0  0  0  0
    0.5348    0.4743    0.7170 H   0  0  0  0  0  0  0  0  0  0  0  0
    1.7404   -1.2671    0.3661 C   0  0  0  0  0  0  0  0  0  0  0  0
    1.9910   -2.2559   -0.3202 O   0  0  0  0  0  0  0  0  0  0  0  0
    2.4486   -0.9316    1.4519 N   0  0  0  0  0  0  0  0  0  0  0  0
    2.1683   -0.1025    1.9520 H   0  0  0  0  0  0  0  0  0  0  0  0
    3.5985   -1.6776    1.9670 C   0  0  0  0  0  0  0  0  0  0  0  0
    3.8032   -2.5509    1.3428 H   0  0  0  0  0  0  0  0  0  0  0  0
    4.4829   -1.0390    1.9722 H   0  0  0  0  0  0  0  0  0  0  0  0
    3.3955   -2.0168    2.9836 H   0  0  0  0  0  0  0  0  0  0  0  0
  5  6  2  0  0  0  0
  5  7  1  0  0  0  0
  2  3  1  0  0  0  0
  2  4  1  0  0  0  0
  2  5  1  0  0  0  0
  1  2  1  0  0  0  0
 12 13  2  0  0  0  0
 12 14  1  0  0  0  0
  9 10  1  0  0  0  0
  9 11  1  0  0  0  0
  9 12  1  0  0  0  0
  7  8  1  0  0  0  0
  7  9  1  0  0  0  0
 16 17  1  0  0  0  0
 16 18  1  0  0  0  0
 16 19  1  0  0  0  0
 14 15  1  0  0  0  0
 14 16  1  0  0  0  0
M  END
$$$$
default_name
  -OEChem-01062215323D

 19 18  0     0  0  0  0  0  0999 V2000
   -2.2056   -4.0049    0.0000 H   0  0  0  0  0  0  0  0  0  0  0  0
   -2.2496   -2.9169    0.0000 C   0  0  0  0  0  0  0  0  0  0  0  0
   -2.7696   -2.5709    0.8910 H   0  0  0  0  0  0  0  0  0  0  0  0
   -2.7696   -2.5709   -0.8910 H   0  0  0  0  0  0  0  0  0  0  0  0
   -0.8406   -2.3699    0.0000 C   0  0  0  0  0  0  0  0  0  0  0  0
    0.1164   -3.1329    0.0000 O   0  0  0  0  0  0  0  0  0  0  0  0
   -0.7136   -1.0459    0.0000 N   0  0  0  0  0  0  0  0  0  0  0  0
   -1.5436   -0.4719    0.0000 H   0  0  0  0  0  0  0  0  0  0  0  0
    0.5724   -0.3469    0.0000 C   0  0  0  0  0  0  0  0  0  0  0  0
    0.7533    0.0723   -0.9907 H   0  0  0  0  0  0  0  0  0  0  0  0
    0.5348    0.4743    0.7170 H   0  0  0  0  0  0  0  0  0  0  0  0
    1.7404   -1.2671    0.3661 C   0  0  0  0  0  0  0  0  0  0  0  0
    2.1666   -2.0839   -0.4480 O   0  0  0  0  0  0  0  0  0  0  0  0
    2.2504   -1.1258    1.5961 N   0  0  0  0  0  0  0  0  0  0  0  0
    1.8351   -0.4289    2.1945 H   0  0  0  0  0  0  0  0  0  0  0  0
    3.3648   -1.9066    2.1371 C   0  0  0  0  0  0  0  0  0  0  0  0
    3.7274   -2.6251    1.3979 H   0  0  0  0  0  0  0  0  0  0  0  0
    4.1863   -1.2421    2.4081 H   0  0  0  0  0  0  0  0  0  0  0  0
    3.0392   -2.4534    3.0229 H   0  0  0  0  0  0  0  0  0  0  0  0
  5  6  2  0  0  0  0
  5  7  1  0  0  0  0
  2  3  1  0  0  0  0
  2  4  1  0  0  0  0
  2  5  1  0  0  0  0
  1  2  1  0  0  0  0
 12 13  2  0  0  0  0
 12 14  1  0  0  0  0
  9 10  1  0  0  0  0
  9 11  1  0  0  0  0
  9 12  1  0  0  0  0
  7  8  1  0  0  0  0
  7  9  1  0  0  0  0
 16 17  1  0  0  0  0
 16 18  1  0  0  0  0
 16 19  1  0  0  0  0
 14 15  1  0  0  0  0
 14 16  1  0  0  0  0
M  END
$$$$
default_name
  -OEChem-01062215323D

 19 18  0     0  0  0  0  0  0999 V2000
   -2.2056   -4.0049    0.0000 H   0  0  0  0  0  0  0  0  0  0  0  0
   -2.2496   -2.9169    0.0000 C   0  0  0  0  0  0  0  0  0  0  0  0
   -2.7696   -2.5709    0.8910 H   0  0  0  0  0  0  0  0  0  0  0  0
   -2.7696   -2.5709   -0.8910 H   0  0  0  0  0  0  0  0  0  0  0  0
   -0.8406   -2.3699    0.0000 C   0  0  0  0  0  0  0  0  0  0  0  0
    0.1164   -3.1329    0.0000 O   0  0  0  0  0  0  0  0  0  0  0  0
   -0.7136   -1.0459    0.0000 N   0  0  0  0  0  0  0  0  0  0  0  0
   -1.5436   -0.4719    0.0000 H   0  0  0  0  0  0  0  0  0  0  0  0
    0.5724   -0.3469    0.0000 C   0  0  0  0  0  0  0  0  0  0  0  0
    0.7533    0.0723   -0.9907 H   0  0  0  0  0  0  0  0  0  0  0  0
    0.5348    0.4743    0.7170 H   0  0  0  0  0  0  0  0  0  0  0  0
    1.7404   -1.2671    0.3661 C   0  0  0  0  0  0  0  0  0  0  0  0
    2.3453   -1.8817   -0.5101 O   0  0  0  0  0  0  0  0  0  0  0  0
    2.0485   -1.3541    1.6663 N   0  0  0  0  0  0  0  0  0  0  0  0
    1.4958   -0.8126    2.3124 H   0  0  0  0  0  0  0  0  0  0  0  0
    3.1268   -2.1758    2.2198 C   0  0  0  0  0  0  0  0  0  0  0  0
    3.6503   -2.7124    1.4248 H   0  0  0  0  0  0  0  0  0  0  0  0
    3.8446   -1.5426    2.7429 H   0  0  0  0  0  0  0  0  0  0  0  0
    2.7159   -2.9050    2.9193 H   0  0  0  0  0  0  0  0  0  0  0  0
  5  6  2  0  0  0  0
  5  7  1  0  0  0  0
  2  3  1  0  0  0  0
  2  4  1  0  0  0  0
  2  5  1  0  0  0  0
  1  2  1  0  0  0  0
 12 13  2  0  0  0  0
 12 14  1  0  0  0  0
  9 10  1  0  0  0  0
  9 11  1  0  0  0  0
  9 12  1  0  0  0  0
  7  8  1  0  0  0  0
  7  9  1  0  0  0  0
 16 17  1  0  0  0  0
 16 18  1  0  0  0  0
 16 19  1  0  0  0  0
 14 15  1  0  0  0  0
 14 16  1  0  0  0  0
M  END
$$$$
default_name
  -OEChem-01062215323D

 19 18  0     0  0  0  0  0  0999 V2000
   -2.2056   -4.0049    0.0000 H   0  0  0  0  0  0  0  0  0  0  0  0
   -2.2496   -2.9169    0.0000 C   0  0  0  0  0  0  0  0  0  0  0  0
   -2.7696   -2.5709    0.8910 H   0  0  0  0  0  0  0  0  0  0  0  0
   -2.7696   -2.5709   -0.8910 H   0  0  0  0  0  0  0  0  0  0  0  0
   -0.8406   -2.3699    0.0000 C   0  0  0  0  0  0  0  0  0  0  0  0
    0.1164   -3.1329    0.0000 O   0  0  0  0  0  0  0  0  0  0  0  0
   -0.7136   -1.0459    0.0000 N   0  0  0  0  0  0  0  0  0  0  0  0
   -1.5436   -0.4719    0.0000 H   0  0  0  0  0  0  0  0  0  0  0  0
    0.5724   -0.3469    0.0000 C   0  0  0  0  0  0  0  0  0  0  0  0
    0.7533    0.0723   -0.9907 H   0  0  0  0  0  0  0  0  0  0  0  0
    0.5348    0.4743    0.7170 H   0  0  0  0  0  0  0  0  0  0  0  0
    1.7404   -1.2671    0.3661 C   0  0  0  0  0  0  0  0  0  0  0  0
    2.5152   -1.6631   -0.5024 O   0  0  0  0  0  0  0  0  0  0  0  0
    1.8567   -1.6010    1.6576 N   0  0  0  0  0  0  0  0  0  0  0  0
    1.1734   -1.2276    2.2979 H   0  0  0  0  0  0  0  0  0  0  0  0
    2.9006   -2.4669    2.2096 C   0  0  0  0  0  0  0  0  0  0  0  0
    3.5770   -2.8067    1.4215 H   0  0  0  0  0  0  0  0  0  0  0  0
    3.4810   -1.9201    2.9539 H   0  0  0  0  0  0  0  0  0  0  0  0
    2.4477   -3.3407    2.6797 H   0  0  0  0  0  0  0  0  0  0  0  0
  5  6  2  0  0  0  0
  5  7  1  0  0  0  0
  2  3  1  0  0  0  0
  2  4  1  0  0  0  0
  2  5  1  0  0  0  0
  1  2  1  0  0  0  0
 12 13  2  0  0  0  0
 12 14  1  0  0  0  0
  9 10  1  0  0  0  0
  9 11  1  0  0  0  0
  9 12  1  0  0  0  0
  7  8  1  0  0  0  0
  7  9  1  0  0  0  0
 16 17  1  0  0  0  0
 16 18  1  0  0  0  0
 16 19  1  0  0  0  0
 14 15  1  0  0  0  0
 14 16  1  0  0  0  0
M  END
$$$$
default_name
  -OEChem-01062215323D

 19 18  0     0  0  0  0  0  0999 V2000
   -2.2056   -4.0049    0.0000 H   0  0  0  0  0  0  0  0  0  0  0  0
   -2.2496   -2.9169    0.0000 C   0  0  0  0  0  0  0  0  0  0  0  0
   -2.7696   -2.5709    0.8910 H   0  0  0  0  0  0  0  0  0  0  0  0
   -2.7696   -2.5709   -0.8910 H   0  0  0  0  0  0  0  0  0  0  0  0
   -0.8406   -2.3699    0.0000 C   0  0  0  0  0  0  0  0  0  0  0  0
    0.1164   -3.1329    0.0000 O   0  0  0  0  0  0  0  0  0  0  0  0
   -0.7136   -1.0459    0.0000 N   0  0  0  0  0  0  0  0  0  0  0  0
   -1.5436   -0.4719    0.0000 H   0  0  0  0  0  0  0  0  0  0  0  0
    0.5724   -0.3469    0.0000 C   0  0  0  0  0  0  0  0  0  0  0  0
    0.7533    0.0723   -0.9907 H   0  0  0  0  0  0  0  0  0  0  0  0
    0.5348    0.4743    0.7170 H   0  0  0  0  0  0  0  0  0  0  0  0
    1.7404   -1.2671    0.3661 C   0  0  0  0  0  0  0  0  0  0  0  0
    2.6645   -1.4429   -0.4254 O   0  0  0  0  0  0  0  0  0  0  0  0
    1.6881   -1.8496    1.5707 N   0  0  0  0  0  0  0  0  0  0  0  0
    0.8900   -1.6455    2.1517 H   0  0  0  0  0  0  0  0  0  0  0  0
    2.7018   -2.7600    2.1071 C   0  0  0  0  0  0  0  0  0  0  0  0
    3.5125   -2.9017    1.3882 H   0  0  0  0  0  0  0  0  0  0  0  0
    3.1204   -2.3489    3.0266 H   0  0  0  0  0  0  0  0  0  0  0  0
    2.2528   -3.7309    2.3206 H   0  0  0  0  0  0  0  0  0  0  0  0
  5  6  2  0  0  0  0
  5  7  1  0  0  0  0
  2  3  1  0  0  0  0
  2  4  1  0  0  0  0
  2  5  1  0  0  0  0
  1  2  1  0  0  0  0
 12 13  2  0  0  0  0
 12 14  1  0  0  0  0
  9 10  1  0  0  0  0
  9 11  1  0  0  0  0
  9 12  1  0  0  0  0
  7  8  1  0  0  0  0
  7  9  1  0  0  0  0
 16 17  1  0  0  0  0
 16 18  1  0  0  0  0
 16 19  1  0  0  0  0
 14 15  1  0  0  0  0
 14 16  1  0  0  0  0
M  END
$$$$
default_name
  -OEChem-01062215323D

 19 18  0     0  0  0  0  0  0999 V2000
   -2.2056   -4.0049    0.0000 H   0  0  0  0  0  0  0  0  0  0  0  0
   -2.2496   -2.9169    0.0000 C   0  0  0  0  0  0  0  0  0  0  0  0
   -2.7696   -2.5709    0.8910 H   0  0  0  0  0  0  0  0  0  0  0  0
   -2.7696   -2.5709   -0.8910 H   0  0  0  0  0  0  0  0  0  0  0  0
   -0.8406   -2.3699    0.0000 C   0  0  0  0  0  0  0  0  0  0  0  0
    0.1164   -3.1329    0.0000 O   0  0  0  0  0  0  0  0  0  0  0  0
   -0.7136   -1.0459    0.0000 N   0  0  0  0  0  0  0  0  0  0  0  0
   -1.5436   -0.4719    0.0000 H   0  0  0  0  0  0  0  0  0  0  0  0
    0.5724   -0.3469    0.0000 C   0  0  0  0  0  0  0  0  0  0  0  0
    0.7533    0.0723   -0.9907 H   0  0  0  0  0  0  0  0  0  0  0  0
    0.5348    0.4743    0.7170 H   0  0  0  0  0  0  0  0  0  0  0  0
    1.7404   -1.2671    0.3661 C   0  0  0  0  0  0  0  0  0  0  0  0
    2.7832   -1.2362   -0.2844 O   0  0  0  0  0  0  0  0  0  0  0  0
    1.5541   -2.0831    1.4114 N   0  0  0  0  0  0  0  0  0  0  0  0
    0.6648   -2.0378    1.8840 H   0  0  0  0  0  0  0  0  0  0  0  0
    2.5438   -3.0352    1.9192 C   0  0  0  0  0  0  0  0  0  0  0  0
    3.4613   -2.9910    1.3273 H   0  0  0  0  0  0  0  0  0  0  0  0
    2.7873   -2.7997    2.9561 H   0  0  0  0  0  0  0  0  0  0  0  0
    2.1446   -4.0490    1.8664 H   0  0  0  0  0  0  0  0  0  0  0  0
  5  6  2  0  0  0  0
  5  7  1  0  0  0  0
  2  3  1  0  0  0  0
  2  4  1  0  0  0  0
  2  5  1  0  0  0  0
  1  2  1  0  0  0  0
 12 13  2  0  0  0  0
 12 14  1  0  0  0  0
  9 10  1  0  0  0  0
  9 11  1  0  0  0  0
  9 12  1  0  0  0  0
  7  8  1  0  0  0  0
  7  9  1  0  0  0  0
 16 17  1  0  0  0  0
 16 18  1  0  0  0  0
 16 19  1  0  0  0  0
 14 15  1  0  0  0  0
 14 16  1  0  0  0  0
M  END
$$$$
default_name
  -OEChem-01062215323D

 19 18  0     0  0  0  0  0  0999 V2000
   -2.2056   -4.0049    0.0000 H   0  0  0  0  0  0  0  0  0  0  0  0
   -2.2496   -2.9169    0.0000 C   0  0  0  0  0  0  0  0  0  0  0  0
   -2.7696   -2.5709    0.8910 H   0  0  0  0  0  0  0  0  0  0  0  0
   -2.7696   -2.5709   -0.8910 H   0  0  0  0  0  0  0  0  0  0  0  0
   -0.8406   -2.3699    0.0000 C   0  0  0  0  0  0  0  0  0  0  0  0
    0.1164   -3.1329    0.0000 O   0  0  0  0  0  0  0  0  0  0  0  0
   -0.7136   -1.0459    0.0000 N   0  0  0  0  0  0  0  0  0  0  0  0
   -1.5436   -0.4719    0.0000 H   0  0  0  0  0  0  0  0  0  0  0  0
    0.5724   -0.3469    0.0000 C   0  0  0  0  0  0  0  0  0  0  0  0
    0.7533    0.0723   -0.9907 H   0  0  0  0  0  0  0  0  0  0  0  0
    0.5348    0.4743    0.7170 H   0  0  0  0  0  0  0  0  0  0  0  0
    1.7404   -1.2671    0.3661 C   0  0  0  0  0  0  0  0  0  0  0  0
    2.8630   -1.0571   -0.0889 O   0  0  0  0  0  0  0  0  0  0  0  0
    1.4639   -2.2854    1.1906 N   0  0  0  0  0  0  0  0  0  0  0  0
    0.5132   -2.3778    1.5129 H   0  0  0  0  0  0  0  0  0  0  0  0
    2.4375   -3.2738    1.6589 C   0  0  0  0  0  0  0  0  0  0  0  0
    3.4268   -3.0683    1.2430 H   0  0  0  0  0  0  0  0  0  0  0  0
    2.5044   -3.2419    2.7472 H   0  0  0  0  0  0  0  0  0  0  0  0
    2.1304   -4.2732    1.3480 H   0  0  0  0  0  0  0  0  0  0  0  0
  5  6  2  0  0  0  0
  5  7  1  0  0  0  0
  2  3  1  0  0  0  0
  2  4  1  0  0  0  0
  2  5  1  0  0  0  0
  1  2  1  0  0  0  0
 12 13  2  0  0  0  0
 12 14  1  0  0  0  0
  9 10  1  0  0  0  0
  9 11  1  0  0  0  0
  9 12  1  0  0  0  0
  7  8  1  0  0  0  0
  7  9  1  0  0  0  0
 16 17  1  0  0  0  0
 16 18  1  0  0  0  0
 16 19  1  0  0  0  0
 14 15  1  0  0  0  0
 14 16  1  0  0  0  0
M  END
$$$$
default_name
  -OEChem-01062215323D

 19 18  0     0  0  0  0  0  0999 V2000
   -2.2056   -4.0049    0.0000 H   0  0  0  0  0  0  0  0  0  0  0  0
   -2.2496   -2.9169    0.0000 C   0  0  0  0  0  0  0  0  0  0  0  0
   -2.7696   -2.5709    0.8910 H   0  0  0  0  0  0  0  0  0  0  0  0
   -2.7696   -2.5709   -0.8910 H   0  0  0  0  0  0  0  0  0  0  0  0
   -0.8406   -2.3699    0.0000 C   0  0  0  0  0  0  0  0  0  0  0  0
    0.1164   -3.1329    0.0000 O   0  0  0  0  0  0  0  0  0  0  0  0
   -0.7136   -1.0459    0.0000 N   0  0  0  0  0  0  0  0  0  0  0  0
   -1.5436   -0.4719    0.0000 H   0  0  0  0  0  0  0  0  0  0  0  0
    0.5724   -0.3469    0.0000 C   0  0  0  0  0  0  0  0  0  0  0  0
    0.7533    0.0723   -0.9907 H   0  0  0  0  0  0  0  0  0  0  0  0
    0.5348    0.4743    0.7170 H   0  0  0  0  0  0  0  0  0  0  0  0
    1.7404   -1.2671    0.3661 C   0  0  0  0  0  0  0  0  0  0  0  0
    2.8987   -0.9177    0.1478 O   0  0  0  0  0  0  0  0  0  0  0  0
    1.4236   -2.4428    0.9234 N   0  0  0  0  0  0  0  0  0  0  0  0
    0.4456   -2.6424    1.0637 H   0  0  0  0  0  0  0  0  0  0  0  0
    2.3900   -3.4594    1.3438 C   0  0  0  0  0  0  0  0  0  0  0  0
    3.4115   -3.1284    1.1408 H   0  0  0  0  0  0  0  0  0  0  0  0
    2.2910   -3.6452    2.4141 H   0  0  0  0  0  0  0  0  0  0  0  0
    2.2112   -4.3884    0.8009 H   0  0  0  0  0  0  0  0  0  0  0  0
  5  6  2  0  0  0  0
  5  7  1  0  0  0  0
  2  3  1  0  0  0  0
  2  4  1  0  0  0  0
  2  5  1  0  0  0  0
  1  2  1  0  0  0  0
 12 13  2  0  0  0  0
 12 14  1  0  0  0  0
  9 10  1  0  0  0  0
  9 11  1  0  0  0  0
  9 12  1  0  0  0  0
  7  8  1  0  0  0  0
  7  9  1  0  0  0  0
 16 17  1  0  0  0  0
 16 18  1  0  0  0  0
 16 19  1  0  0  0  0
 14 15  1  0  0  0  0
 14 16  1  0  0  0  0
M  END
$$$$
default_name
  -OEChem-01062215323D

 19 18  0     0  0  0  0  0  0999 V2000
   -2.2056   -4.0049    0.0000 H   0  0  0  0  0  0  0  0  0  0  0  0
   -2.2496   -2.9169    0.0000 C   0  0  0  0  0  0  0  0  0  0  0  0
   -2.7696   -2.5709    0.8910 H   0  0  0  0  0  0  0  0  0  0  0  0
   -2.7696   -2.5709   -0.8910 H   0  0  0  0  0  0  0  0  0  0  0  0
   -0.8406   -2.3699    0.0000 C   0  0  0  0  0  0  0  0  0  0  0  0
    0.1164   -3.1329    0.0000 O   0  0  0  0  0  0  0  0  0  0  0  0
   -0.7136   -1.0459    0.0000 N   0  0  0  0  0  0  0  0  0  0  0  0
   -1.5436   -0.4719    0.0000 H   0  0  0  0  0  0  0  0  0  0  0  0
    0.5724   -0.3469    0.0000 C   0  0  0  0  0  0  0  0  0  0  0  0
    0.7533    0.0723   -0.9907 H   0  0  0  0  0  0  0  0  0  0  0  0
    0.5348    0.4743    0.7170 H   0  0  0  0  0  0  0  0  0  0  0  0
    1.7404   -1.2671    0.3661 C   0  0  0  0  0  0  0  0  0  0  0  0
    2.8877   -0.8275    0.4094 O   0  0  0  0  0  0  0  0  0  0  0  0
    1.4360   -2.5446    0.6279 N   0  0  0  0  0  0  0  0  0  0  0  0
    0.4664   -2.8135    0.5671 H   0  0  0  0  0  0  0  0  0  0  0  0
    2.4047   -3.5794    0.9955 C   0  0  0  0  0  0  0  0  0  0  0  0
    3.4162   -3.1673    1.0279 H   0  0  0  0  0  0  0  0  0  0  0  0
    2.1617   -3.9823    1.9796 H   0  0  0  0  0  0  0  0  0  0  0  0
    2.3814   -4.3866    0.2622 H   0  0  0  0  0  0  0  0  0  0  0  0
  5  6  2  0  0  0  0
  5  7  1  0  0  0  0
  2  3  1  0  0  0  0
  2  4  1  0  0  0  0
  2  5  1  0  0  0  0
  1  2  1  0  0  0  0
 12 13  2  0  0  0  0
 12 14  1  0  0  0  0
  9 10  1  0  0  0  0
  9 11  1  0  0  0  0
  9 12  1  0  0  0  0
  7  8  1  0  0  0  0
  7  9  1  0  0  0  0
 16 17  1  0  0  0  0
 16 18  1  0  0  0  0
 16 19  1  0  0  0  0
 14 15  1  0  0  0  0
 14 16  1  0  0  0  0
M  END
$$$$
default_name
  -OEChem-01062215323D

 19 18  0     0  0  0  0  0  0999 V2000
   -2.2056   -4.0049    0.0000 H   0  0  0  0  0  0  0  0  0  0  0  0
   -2.2496   -2.9169    0.0000 C   0  0  0  0  0  0  0  0  0  0  0  0
   -2.7696   -2.5709    0.8910 H   0  0  0  0  0  0  0  0  0  0  0  0
   -2.7696   -2.5709   -0.8910 H   0  0  0  0  0  0  0  0  0  0  0  0
   -0.8406   -2.3699    0.0000 C   0  0  0  0  0  0  0  0  0  0  0  0
    0.1164   -3.1329    0.0000 O   0  0  0  0  0  0  0  0  0  0  0  0
   -0.7136   -1.0459    0.0000 N   0  0  0  0  0  0  0  0  0  0  0  0
   -1.5436   -0.4719    0.0000 H   0  0  0  0  0  0  0  0  0  0  0  0
    0.5724   -0.3469    0.0000 C   0  0  0  0  0  0  0  0  0  0  0  0
    0.7533    0.0723   -0.9907 H   0  0  0  0  0  0  0  0  0  0  0  0
    0.5348    0.4743    0.7170 H   0  0  0  0  0  0  0  0  0  0  0  0
    1.7404   -1.2671    0.3661 C   0  0  0  0  0  0  0  0  0  0  0  0
    2.8308   -0.7928    0.6782 O   0  0  0  0  0  0  0  0  0  0  0  0
    1.5003   -2.5838    0.3243 N   0  0  0  0  0  0  0  0  0  0  0  0
    0.5744   -2.8794    0.0569 H   0  0  0  0  0  0  0  0  0  0  0  0
    2.4804   -3.6257    0.6375 C   0  0  0  0  0  0  0  0  0  0  0  0
    3.4408   -3.1823    0.9119 H   0  0  0  0  0  0  0  0  0  0  0  0
    2.1251   -4.2301    1.4732 H   0  0  0  0  0  0  0  0  0  0  0  0
    2.6295   -4.2680   -0.2314 H   0  0  0  0  0  0  0  0  0  0  0  0
  5  6  2  0  0  0  0
  5  7  1  0  0  0  0
  2  3  1  0  0  0  0
  2  4  1  0  0  0  0
  2  5  1  0  0  0  0
  1  2  1  0  0  0  0
 12 13  2  0  0  0  0
 12 14  1  0  0  0  0
  9 10  1  0  0  0  0
  9 11  1  0  0  0  0
  9 12  1  0  0  0  0
  7  8  1  0  0  0  0
  7  9  1  0  0  0  0
 16 17  1  0  0  0  0
 16 18  1  0  0  0  0
 16 19  1  0  0  0  0
 14 15  1  0  0  0  0
 14 16  1  0  0  0  0
M  END
$$$$
default_name
  -OEChem-01062215323D

 19 18  0     0  0  0  0  0  0999 V2000
   -2.2056   -4.0049    0.0000 H   0  0  0  0  0  0  0  0  0  0  0  0
   -2.2496   -2.9169    0.0000 C   0  0  0  0  0  0  0  0  0  0  0  0
   -2.7696   -2.5709    0.8910 H   0  0  0  0  0  0  0  0  0  0  0  0
   -2.7696   -2.5709   -0.8910 H   0  0  0  0  0  0  0  0  0  0  0  0
   -0.8406   -2.3699    0.0000 C   0  0  0  0  0  0  0  0  0  0  0  0
    0.1164   -3.1329    0.0000 O   0  0  0  0  0  0  0  0  0  0  0  0
   -0.7136   -1.0459    0.0000 N   0  0  0  0  0  0  0  0  0  0  0  0
   -1.5436   -0.4719    0.0000 H   0  0  0  0  0  0  0  0  0  0  0  0
    0.5724   -0.3469    0.0000 C   0  0  0  0  0  0  0  0  0  0  0  0
    0.7533    0.0723   -0.9907 H   0  0  0  0  0  0  0  0  0  0  0  0
    0.5348    0.4743    0.7170 H   0  0  0  0  0  0  0  0  0  0  0  0
    1.7404   -1.2671    0.3661 C   0  0  0  0  0  0  0  0  0  0  0  0
    2.7319   -0.8158    0.9359 O   0  0  0  0  0  0  0  0  0  0  0  0
    1.6120   -2.5578    0.0334 N   0  0  0  0  0  0  0  0  0  0  0  0
    0.7621   -2.8357   -0.4321 H   0  0  0  0  0  0  0  0  0  0  0  0
    2.6121   -3.5950    0.2945 C   0  0  0  0  0  0  0  0  0  0  0  0
    3.4834   -3.1724    0.8007 H   0  0  0  0  0  0  0  0  0  0  0  0
    2.1840   -4.3718    0.9294 H   0  0  0  0  0  0  0  0  0  0  0  0
    2.9386   -4.0407   -0.6460 H   0  0  0  0  0  0  0  0  0  0  0  0
  5  6  2  0  0  0  0
  5  7  1  0  0  0  0
  2  3  1  0  0  0  0
  2  4  1  0  0  0  0
  2  5  1  0  0  0  0
  1  2  1  0  0  0  0
 12 13  2  0  0  0  0
 12 14  1  0  0  0  0
  9 10  1  0  0  0  0
  9 11  1  0  0  0  0
  9 12  1  0  0  0  0
  7  8  1  0  0  0  0
  7  9  1  0  0  0  0
 16 17  1  0  0  0  0
 16 18  1  0  0  0  0
 16 19  1  0  0  0  0
 14 15  1  0  0  0  0
 14 16  1  0  0  0  0
M  END
$$$$
default_name
  -OEChem-01062215323D

 19 18  0     0  0  0  0  0  0999 V2000
   -2.2056   -4.0049    0.0000 H   0  0  0  0  0  0  0  0  0  0  0  0
   -2.2496   -2.9169    0.0000 C   0  0  0  0  0  0  0  0  0  0  0  0
   -2.7696   -2.5709    0.8910 H   0  0  0  0  0  0  0  0  0  0  0  0
   -2.7696   -2.5709   -0.8910 H   0  0  0  0  0  0  0  0  0  0  0  0
   -0.8406   -2.3699    0.0000 C   0  0  0  0  0  0  0  0  0  0  0  0
    0.1164   -3.1329    0.0000 O   0  0  0  0  0  0  0  0  0  0  0  0
   -0.7136   -1.0459    0.0000 N   0  0  0  0  0  0  0  0  0  0  0  0
   -1.5436   -0.4719    0.0000 H   0  0  0  0  0  0  0  0  0  0  0  0
    0.5724   -0.3469    0.0000 C   0  0  0  0  0  0  0  0  0  0  0  0
    0.7533    0.0723   -0.9907 H   0  0  0  0  0  0  0  0  0  0  0  0
    0.5348    0.4743    0.7170 H   0  0  0  0  0  0  0  0  0  0  0  0
    1.7404   -1.2671    0.3661 C   0  0  0  0  0  0  0  0  0  0  0  0
    2.5977   -0.8950    1.1648 O   0  0  0  0  0  0  0  0  0  0  0  0
    1.7635   -2.4683   -0.2252 N   0  0  0  0  0  0  0  0  0  0  0  0
    1.0168   -2.6854   -0.8667 H   0  0  0  0  0  0  0  0  0  0  0  0
    2.7908   -3.4895   -0.0104 C   0  0  0  0  0  0  0  0  0  0  0  0
    3.5414   -3.1382    0.7019 H   0  0  0  0  0  0  0  0  0  0  0  0
    2.3341   -4.3976    0.3854 H   0  0  0  0  0  0  0  0  0  0  0  0
    3.2876   -3.7201   -0.9537 H   0  0  0  0  0  0  0  0  0  0  0  0
  5  6  2  0  0  0  0
  5  7  1  0  0  0  0
  2  3  1  0  0  0  0
  2  4  1  0  0  0  0
  2  5  1  0  0  0  0
  1  2  1  0  0  0  0
 12 13  2  0  0  0  0
 12 14  1  0  0  0  0
  9 10  1  0  0  0  0
  9 11  1  0  0  0  0
  9 12  1  0  0  0  0
  7  8  1  0  0  0  0
  7  9  1  0  0  0  0
 16 17  1  0  0  0  0
 16 18  1  0  0  0  0
 16 19  1  0  0  0  0
 14 15  1  0  0  0  0
 14 16  1  0  0  0  0
M  END
$$$$
default_name
  -OEChem-01062215323D

 19 18  0     0  0  0  0  0  0999 V2000
   -2.2056   -4.0049    0.0000 H   0  0  0  0  0  0  0  0  0  0  0  0
   -2.2496   -2.9169    0.0000 C   0  0  0  0  0  0  0  0  0  0  0  0
   -2.7696   -2.5709    0.8910 H   0  0  0  0  0  0  0  0  0  0  0  0
   -2.7696   -2.5709   -0.8910 H   0  0  0  0  0  0  0  0  0  0  0  0
   -0.8406   -2.3699    0.0000 C   0  0  0  0  0  0  0  0  0  0  0  0
    0.1164   -3.1329    0.0000 O   0  0  0  0  0  0  0  0  0  0  0  0
   -0.7136   -1.0459    0.0000 N   0  0  0  0  0  0  0  0  0  0  0  0
   -1.5436   -0.4719    0.0000 H   0  0  0  0  0  0  0  0  0  0  0  0
    0.5724   -0.3469    0.0000 C   0  0  0  0  0  0  0  0  0  0  0  0
    0.7533    0.0723   -0.9907 H   0  0  0  0  0  0  0  0  0  0  0  0
    0.5348    0.4743    0.7170 H   0  0  0  0  0  0  0  0  0  0  0  0
    1.7404   -1.2671    0.3661 C   0  0  0  0  0  0  0  0  0  0  0  0
    2.4374   -1.0251    1.3495 O   0  0  0  0  0  0  0  0  0  0  0  0
    1.9445   -2.3215   -0.4337 N   0  0  0  0  0  0  0  0  0  0  0  0
    1.3211   -2.4386   -1.2171 H   0  0  0  0  0  0  0  0  0  0  0  0
    3.0042   -3.3164   -0.2562 C   0  0  0  0  0  0  0  0  0  0  0  0
    3.6106   -3.0821    0.6222 H   0  0  0  0  0  0  0  0  0  0  0  0
    2.5654   -4.3059   -0.1218 H   0  0  0  0  0  0  0  0  0  0  0  0
    3.6527   -3.3282   -1.1332 H   0  0  0  0  0  0  0  0  0  0  0  0
  5  6  2  0  0  0  0
  5  7  1  0  0  0  0
  2  3  1  0  0  0  0
  2  4  1  0  0  0  0
  2  5  1  0  0  0  0
  1  2  1  0  0  0  0
 12 13  2  0  0  0  0
 12 14  1  0  0  0  0
  9 10  1  0  0  0  0
  9 11  1  0  0  0  0
  9 12  1  0  0  0  0
  7  8  1  0  0  0  0
  7  9  1  0  0  0  0
 16 17  1  0  0  0  0
 16 18  1  0  0  0  0
 16 19  1  0  0  0  0
 14 15  1  0  0  0  0
 14 16  1  0  0  0  0
M  END
$$$$
default_name
  -OEChem-01062215323D

 19 18  0     0  0  0  0  0  0999 V2000
   -2.2056   -4.0049    0.0000 H   0  0  0  0  0  0  0  0  0  0  0  0
   -2.2496   -2.9169    0.0000 C   0  0  0  0  0  0  0  0  0  0  0  0
   -2.7696   -2.5709    0.8910 H   0  0  0  0  0  0  0  0  0  0  0  0
   -2.7696   -2.5709   -0.8910 H   0  0  0  0  0  0  0  0  0  0  0  0
   -0.8406   -2.3699    0.0000 C   0  0  0  0  0  0  0  0  0  0  0  0
    0.1164   -3.1329    0.0000 O   0  0  0  0  0  0  0  0  0  0  0  0
   -0.7136   -1.0459    0.0000 N   0  0  0  0  0  0  0  0  0  0  0  0
   -1.5436   -0.4719    0.0000 H   0  0  0  0  0  0  0  0  0  0  0  0
    0.5724   -0.3469    0.0000 C   0  0  0  0  0  0  0  0  0  0  0  0
    0.7533    0.0723   -0.9907 H   0  0  0  0  0  0  0  0  0  0  0  0
    0.5348    0.4743    0.7170 H   0  0  0  0  0  0  0  0  0  0  0  0
    1.7404   -1.2671    0.3661 C   0  0  0  0  0  0  0  0  0  0  0  0
    2.2619   -1.1970    1.4772 O   0  0  0  0  0  0  0  0  0  0  0  0
    2.1428   -2.1273   -0.5780 N   0  0  0  0  0  0  0  0  0  0  0  0
    1.6543   -2.1122   -1.4596 H   0  0  0  0  0  0  0  0  0  0  0  0
    3.2379   -3.0874   -0.4263 C   0  0  0  0  0  0  0  0  0  0  0  0
    3.6863   -3.0079    0.5670 H   0  0  0  0  0  0  0  0  0  0  0  0
    2.8619   -4.1029   -0.5577 H   0  0  0  0  0  0  0  0  0  0  0  0
    4.0090   -2.8915   -1.1725 H   0  0  0  0  0  0  0  0  0  0  0  0
  5  6  2  0  0  0  0
  5  7  1  0  0  0  0
  2  3  1  0  0  0  0
  2  4  1  0  0  0  0
  2  5  1  0  0  0  0
  1  2  1  0  0  0  0
 12 13  2  0  0  0  0
 12 14  1  0  0  0  0
  9 10  1  0  0  0  0
  9 11  1  0  0  0  0
  9 12  1  0  0  0  0
  7  8  1  0  0  0  0
  7  9  1  0  0  0  0
 16 17  1  0  0  0  0
 16 18  1  0  0  0  0
 16 19  1  0  0  0  0
 14 15  1  0  0  0  0
 14 16  1  0  0  0  0
M  END
$$$$
default_name
  -OEChem-01062215323D

 19 18  0     0  0  0  0  0  0999 V2000
   -2.2056   -4.0049    0.0000 H   0  0  0  0  0  0  0  0  0  0  0  0
   -2.2496   -2.9169    0.0000 C   0  0  0  0  0  0  0  0  0  0  0  0
   -2.7696   -2.5709    0.8910 H   0  0  0  0  0  0  0  0  0  0  0  0
   -2.7696   -2.5709   -0.8910 H   0  0  0  0  0  0  0  0  0  0  0  0
   -0.8406   -2.3699    0.0000 C   0  0  0  0  0  0  0  0  0  0  0  0
    0.1164   -3.1329    0.0000 O   0  0  0  0  0  0  0  0  0  0  0  0
   -0.7136   -1.0459    0.0000 N   0  0  0  0  0  0  0  0  0  0  0  0
   -1.5436   -0.4719    0.0000 H   0  0  0  0  0  0  0  0  0  0  0  0
    0.5724   -0.3469    0.0000 C   0  0  0  0  0  0  0  0  0  0  0  0
    0.7533    0.0723   -0.9907 H   0  0  0  0  0  0  0  0  0  0  0  0
    0.5348    0.4743    0.7170 H   0  0  0  0  0  0  0  0  0  0  0  0
    1.7404   -1.2671    0.3661 C   0  0  0  0  0  0  0  0  0  0  0  0
    2.0831   -1.3992    1.5394 O   0  0  0  0  0  0  0  0  0  0  0  0
    2.3446   -1.8990   -0.6481 N   0  0  0  0  0  0  0  0  0  0  0  0
    1.9936   -1.7284   -1.5775 H   0  0  0  0  0  0  0  0  0  0  0  0
    3.4760   -2.8182   -0.5090 C   0  0  0  0  0  0  0  0  0  0  0  0
    3.7635   -2.9206    0.5402 H   0  0  0  0  0  0  0  0  0  0  0  0
    3.2036   -3.8024   -0.8925 H   0  0  0  0  0  0  0  0  0  0  0  0
    4.3323   -2.4399   -1.0689 H   0  0  0  0  0  0  0  0  0  0  0  0
  5  6  2  0  0  0  0
  5  7  1  0  0  0  0
  2  3  1  0  0  0  0
  2  4  1  0  0  0  0
  2  5  1  0  0  0  0
  1  2  1  0  0  0  0
 12 13  2  0  0  0  0
 12 14  1  0  0  0  0
  9 10  1  0  0  0  0
  9 11  1  0  0  0  0
  9 12  1  0  0  0  0
  7  8  1  0  0  0  0
  7  9  1  0  0  0  0
 16 17  1  0  0  0  0
 16 18  1  0  0  0  0
 16 19  1  0  0  0  0
 14 15  1  0  0  0  0
 14 16  1  0  0  0  0
M  END
$$$$
default_name
  -OEChem-01062215323D

 19 18  0     0  0  0  0  0  0999 V2000
   -2.2056   -4.0049    0.0000 H   0  0  0  0  0  0  0  0  0  0  0  0
   -2.2496   -2.9169    0.0000 C   0  0  0  0  0  0  0  0  0  0  0  0
   -2.7696   -2.5709    0.8910 H   0  0  0  0  0  0  0  0  0  0  0  0
   -2.7696   -2.5709   -0.8910 H   0  0  0  0  0  0  0  0  0  0  0  0
   -0.8406   -2.3699    0.0000 C   0  0  0  0  0  0  0  0  0  0  0  0
    0.1164   -3.1329    0.0000 O   0  0  0  0  0  0  0  0  0  0  0  0
   -0.7136   -1.0459    0.0000 N   0  0  0  0  0  0  0  0  0  0  0  0
   -1.5436   -0.4719    0.0000 H   0  0  0  0  0  0  0  0  0  0  0  0
    0.5724   -0.3469    0.0000 C   0  0  0  0  0  0  0  0  0  0  0  0
    0.7533    0.0723   -0.9907 H   0  0  0  0  0  0  0  0  0  0  0  0
    0.5348    0.4743    0.7170 H   0  0  0  0  0  0  0  0  0  0  0  0
    1.7404   -1.2671    0.3661 C   0  0  0  0  0  0  0  0  0  0  0  0
    1.9132   -1.6178    1.5317 O   0  0  0  0  0  0  0  0  0  0  0  0
    2.5364   -1.6521   -0.6395 N   0  0  0  0  0  0  0  0  0  0  0  0
    2.3159   -1.3135   -1.5629 H   0  0  0  0  0  0  0  0  0  0  0  0
    3.7021   -2.5271   -0.4988 C   0  0  0  0  0  0  0  0  0  0  0  0
    3.8368   -2.8262    0.5435 H   0  0  0  0  0  0  0  0  0  0  0  0
    3.5672   -3.4249   -1.1035 H   0  0  0  0  0  0  0  0  0  0  0  0
    4.6005   -2.0042   -0.8293 H   0  0  0  0  0  0  0  0  0  0  0  0
  5  6  2  0  0  0  0
  5  7  1  0  0  0  0
  2  3  1  0  0  0  0
  2  4  1  0  0  0  0
  2  5  1  0  0  0  0
  1  2  1  0  0  0  0
 12 13  2  0  0  0  0
 12 14  1  0  0  0  0
  9 10  1  0  0  0  0
  9 11  1  0  0  0  0
  9 12  1  0  0  0  0
  7  8  1  0  0  0  0
  7  9  1  0  0  0  0
 16 17  1  0  0  0  0
 16 18  1  0  0  0  0
 16 19  1  0  0  0  0
 14 15  1  0  0  0  0
 14 16  1  0  0  0  0
M  END
$$$$
default_name
  -OEChem-01062215323D

 19 18  0     0  0  0  0  0  0999 V2000
   -2.2056   -4.0049    0.0000 H   0  0  0  0  0  0  0  0  0  0  0  0
   -2.2496   -2.9169    0.0000 C   0  0  0  0  0  0  0  0  0  0  0  0
   -2.7696   -2.5709    0.8910 H   0  0  0  0  0  0  0  0  0  0  0  0
   -2.7696   -2.5709   -0.8910 H   0  0  0  0  0  0  0  0  0  0  0  0
   -0.8406   -2.3699    0.0000 C   0  0  0  0  0  0  0  0  0  0  0  0
    0.1164   -3.1329    0.0000 O   0  0  0  0  0  0  0  0  0  0  0  0
   -0.7136   -1.0459    0.0000 N   0  0  0  0  0  0  0  0  0  0  0  0
   -1.5436   -0.4719    0.0000 H   0  0  0  0  0  0  0  0  0  0  0  0
    0.5724   -0.3469    0.0000 C   0  0  0  0  0  0  0  0  0  0  0  0
    0.7533    0.0723   -0.9907 H   0  0  0  0  0  0  0  0  0  0  0  0
    0.5348    0.4743    0.7170 H   0  0  0  0  0  0  0  0  0  0  0  0
    1.7404   -1.2671    0.3661 C   0  0  0  0  0  0  0  0  0  0  0  0
    1.7639   -1.8380    1.4547 O   0  0  0  0  0  0  0  0  0  0  0  0
    2.7051   -1.4035   -0.5525 N   0  0  0  0  0  0  0  0  0  0  0  0
    2.5994   -0.8956   -1.4168 H   0  0  0  0  0  0  0  0  0  0  0  0
    3.9009   -2.2340   -0.3963 C   0  0  0  0  0  0  0  0  0  0  0  0
    3.9012   -2.7312    0.5768 H   0  0  0  0  0  0  0  0  0  0  0  0
    3.9278   -2.9961   -1.1762 H   0  0  0  0  0  0  0  0  0  0  0  0
    4.7954   -1.6140   -0.4702 H   0  0  0  0  0  0  0  0  0  0  0  0
  5  6  2  0  0  0  0
  5  7  1  0  0  0  0
  2  3  1  0  0  0  0
  2  4  1  0  0  0  0
  2  5  1  0  0  0  0
  1  2  1  0  0  0  0
 12 13  2  0  0  0  0
 12 14  1  0  0  0  0
  9 10  1  0  0  0  0
  9 11  1  0  0  0  0
  9 12  1  0  0  0  0
  7  8  1  0  0  0  0
  7  9  1  0  0  0  0
 16 17  1  0  0  0  0
 16 18  1  0  0  0  0
 16 19  1  0  0  0  0
 14 15  1  0  0  0  0
 14 16  1  0  0  0  0
M  END
$$$$
default_name
  -OEChem-01062215323D

 19 18  0     0  0  0  0  0  0999 V2000
   -2.2056   -4.0049    0.0000 H   0  0  0  0  0  0  0  0  0  0  0  0
   -2.2496   -2.9169    0.0000 C   0  0  0  0  0  0  0  0  0  0  0  0
   -2.7696   -2.5709    0.8910 H   0  0  0  0  0  0  0  0  0  0  0  0
   -2.7696   -2.5709   -0.8910 H   0  0  0  0  0  0  0  0  0  0  0  0
   -0.8406   -2.3699    0.0000 C   0  0  0  0  0  0  0  0  0  0  0  0
    0.1164   -3.1329    0.0000 O   0  0  0  0  0  0  0  0  0  0  0  0
   -0.7136   -1.0459    0.0000 N   0  0  0  0  0  0  0  0  0  0  0  0
   -1.5436   -0.4719    0.0000 H   0  0  0  0  0  0  0  0  0  0  0  0
    0.5724   -0.3469    0.0000 C   0  0  0  0  0  0  0  0  0  0  0  0
    0.7533    0.0723   -0.9907 H   0  0  0  0  0  0  0  0  0  0  0  0
    0.5348    0.4743    0.7170 H   0  0  0  0  0  0  0  0  0  0  0  0
    1.7404   -1.2671    0.3661 C   0  0  0  0  0  0  0  0  0  0  0  0
    1.6453   -2.0447    1.3136 O   0  0  0  0  0  0  0  0  0  0  0  0
    2.8390   -1.1700   -0.3932 N   0  0  0  0  0  0  0  0  0  0  0  0
    2.8245   -0.5033   -1.1491 H   0  0  0  0  0  0  0  0  0  0  0  0
    4.0589   -1.9587   -0.2085 C   0  0  0  0  0  0  0  0  0  0  0  0
    3.9524   -2.6420    0.6376 H   0  0  0  0  0  0  0  0  0  0  0  0
    4.2609   -2.5453   -1.1057 H   0  0  0  0  0  0  0  0  0  0  0  0
    4.9036   -1.2960   -0.0160 H   0  0  0  0  0  0  0  0  0  0  0  0
  5  6  2  0  0  0  0
  5  7  1  0  0  0  0
  2  3  1  0  0  0  0
  2  4  1  0  0  0  0
  2  5  1  0  0  0  0
  1  2  1  0  0  0  0
 12 13  2  0  0  0  0
 12 14  1  0  0  0  0
  9 10  1  0  0  0  0
  9 11  1  0  0  0  0
  9 12  1  0  0  0  0
  7  8  1  0  0  0  0
  7  9  1  0  0  0  0
 16 17  1  0  0  0  0
 16 18  1  0  0  0  0
 16 19  1  0  0  0  0
 14 15  1  0  0  0  0
 14 16  1  0  0  0  0
M  END
$$$$
default_name
  -OEChem-01062215323D

 19 18  0     0  0  0  0  0  0999 V2000
   -2.2056   -4.0049    0.0000 H   0  0  0  0  0  0  0  0  0  0  0  0
   -2.2496   -2.9169    0.0000 C   0  0  0  0  0  0  0  0  0  0  0  0
   -2.7696   -2.5709    0.8910 H   0  0  0  0  0  0  0  0  0  0  0  0
   -2.7696   -2.5709   -0.8910 H   0  0  0  0  0  0  0  0  0  0  0  0
   -0.8406   -2.3699    0.0000 C   0  0  0  0  0  0  0  0  0  0  0  0
    0.1164   -3.1329    0.0000 O   0  0  0  0  0  0  0  0  0  0  0  0
   -0.7136   -1.0459    0.0000 N   0  0  0  0  0  0  0  0  0  0  0  0
   -1.5436   -0.4719    0.0000 H   0  0  0  0  0  0  0  0  0  0  0  0
    0.5724   -0.3469    0.0000 C   0  0  0  0  0  0  0  0  0  0  0  0
    0.7533    0.0723   -0.9907 H   0  0  0  0  0  0  0  0  0  0  0  0
    0.5348    0.4743    0.7170 H   0  0  0  0  0  0  0  0  0  0  0  0
    1.7404   -1.2671    0.3661 C   0  0  0  0  0  0  0  0  0  0  0  0
    1.5654   -2.2239    1.1181 O   0  0  0  0  0  0  0  0  0  0  0  0
    2.9292   -0.9677   -0.1724 N   0  0  0  0  0  0  0  0  0  0  0  0
    2.9761   -0.1632   -0.7780 H   0  0  0  0  0  0  0  0  0  0  0  0
    4.1652   -1.7202    0.0519 C   0  0  0  0  0  0  0  0  0  0  0  0
    3.9869   -2.5647    0.7220 H   0  0  0  0  0  0  0  0  0  0  0  0
    4.5438   -2.1031   -0.8968 H   0  0  0  0  0  0  0  0  0  0  0  0
    4.9178   -1.0717    0.5024 H   0  0  0  0  0  0  0  0  0  0  0  0
  5  6  2  0  0  0  0
  5  7  1  0  0  0  0
  2  3  1  0  0  0  0
  2  4  1  0  0  0  0
  2  5  1  0  0  0  0
  1  2  1  0  0  0  0
 12 13  2  0  0  0  0
 12 14  1  0  0  0  0
  9 10  1  0  0  0  0
  9 11  1  0  0  0  0
  9 12  1  0  0  0  0
  7  8  1  0  0  0  0
  7  9  1  0  0  0  0
 16 17  1  0  0  0  0
 16 18  1  0  0  0  0
 16 19  1  0  0  0  0
 14 15  1  0  0  0  0
 14 16  1  0  0  0  0
M  END
$$$$
default_name
  -OEChem-01062215323D

 19 18  0     0  0  0  0  0  0999 V2000
   -2.2056   -4.0049    0.0000 H   0  0  0  0  0  0  0  0  0  0  0  0
   -2.2496   -2.9169    0.0000 C   0  0  0  0  0  0  0  0  0  0  0  0
   -2.7696   -2.5709    0.8910 H   0  0  0  0  0  0  0  0  0  0  0  0
   -2.7696   -2.5709   -0.8910 H   0  0  0  0  0  0  0  0  0  0  0  0
   -0.8406   -2.3699    0.0000 C   0  0  0  0  0  0  0  0  0  0  0  0
    0.1164   -3.1329    0.0000 O   0  0  0  0  0  0  0  0  0  0  0  0
   -0.7136   -1.0459    0.0000 N   0  0  0  0  0  0  0  0  0  0  0  0
   -1.5436   -0.4719    0.0000 H   0  0  0  0  0  0  0  0  0  0  0  0
    0.5724   -0.3469    0.0000 C   0  0  0  0  0  0  0  0  0  0  0  0
    0.7533    0.0723   -0.9907 H   0  0  0  0  0  0  0  0  0  0  0  0
    0.5348    0.4743    0.7170 H   0  0  0  0  0  0  0  0  0  0  0  0
    1.7404   -1.2671    0.3661 C   0  0  0  0  0  0  0  0  0  0  0  0
    1.5298   -2.3633    0.8815 O   0  0  0  0  0  0  0  0  0  0  0  0
    2.9695   -0.8103    0.0948 N   0  0  0  0  0  0  0  0  0  0  0  0
    3.0438    0.1014   -0.3288 H   0  0  0  0  0  0  0  0  0  0  0  0
    4.2127   -1.5346    0.3669 C   0  0  0  0  0  0  0  0  0  0  0  0
    4.0023   -2.5045    0.8242 H   0  0  0  0  0  0  0  0  0  0  0  0
    4.7572   -1.6997   -0.5637 H   0  0  0  0  0  0  0  0  0  0  0  0
    4.8370   -0.9566    1.0495 H   0  0  0  0  0  0  0  0  0  0  0  0
  5  6  2  0  0  0  0
  5  7  1  0  0  0  0
  2  3  1  0  0  0  0
  2  4  1  0  0  0  0
  2  5  1  0  0  0  0
  1  2  1  0  0  0  0
 12 13  2  0  0  0  0
 12 14  1  0  0  0  0
  9 10  1  0  0  0  0
  9 11  1  0  0  0  0
  9 12  1  0  0  0  0
  7  8  1  0  0  0  0
  7  9  1  0  0  0  0
 16 17  1  0  0  0  0
 16 18  1  0  0  0  0
 16 19  1  0  0  0  0
 14 15  1  0  0  0  0
 14 16  1  0  0  0  0
M  END
$$$$
default_name
  -OEChem-01062215323D

 19 18  0     0  0  0  0  0  0999 V2000
   -2.2056   -4.0049    0.0000 H   0  0  0  0  0  0  0  0  0  0  0  0
   -2.2496   -2.9169    0.0000 C   0  0  0  0  0  0  0  0  0  0  0  0
   -2.7696   -2.5709    0.8910 H   0  0  0  0  0  0  0  0  0  0  0  0
   -2.7696   -2.5709   -0.8910 H   0  0  0  0  0  0  0  0  0  0  0  0
   -0.8406   -2.3699    0.0000 C   0  0  0  0  0  0  0  0  0  0  0  0
    0.1164   -3.1329    0.0000 O   0  0  0  0  0  0  0  0  0  0  0  0
   -0.7136   -1.0459    0.0000 N   0  0  0  0  0  0  0  0  0  0  0  0
   -1.5436   -0.4719    0.0000 H   0  0  0  0  0  0  0  0  0  0  0  0
    0.5724   -0.3469    0.0000 C   0  0  0  0  0  0  0  0  0  0  0  0
    0.6354    0.2891   -0.8840 H   0  0  0  0  0  0  0  0  0  0  0  0
    0.6354    0.2891    0.8840 H   0  0  0  0  0  0  0  0  0  0  0  0
    1.7634   -1.3095    0.0000 C   0  0  0  0  0  0  0  0  0  0  0  0
    1.5797   -2.5251   -0.0000 O   0  0  0  0  0  0  0  0  0  0  0  0
    2.9816   -0.7537    0.0000 N   0  0  0  0  0  0  0  0  0  0  0  0
    3.0335    0.2530    0.0000 H   0  0  0  0  0  0  0  0  0  0  0  0
    4.2431   -1.4973    0.0000 C   0  0  0  0  0  0  0  0  0  0  0  0
    4.0565   -2.5740   -0.0000 H   0  0  0  0  0  0  0  0  0  0  0  0
    4.8225   -1.2449   -0.8890 H   0  0  0  0  0  0  0  0  0  0  0  0
    4.8225   -1.2449    0.8890 H   0  0  0  0  0  0  0  0  0  0  0  0
  5  6  2  0  0  0  0
  5  7  1  0  0  0  0
  2  3  1  0  0  0  0
  2  4  1  0  0  0  0
  2  5  1  0  0  0  0
  1  2  1  0  0  0  0
 12 13  2  0  0  0  0
 12 14  1  0  0  0  0
  9 10  1  0  0  0  0
  9 11  1  0  0  0  0
  9 12  1  0  0  0  0
  7  8  1  0  0  0  0
  7  9  1  0  0  0  0
 16 17  1  0  0  0  0
 16 18  1  0  0  0  0
 16 19  1  0  0  0  0
 14 15  1  0  0  0  0
 14 16  1  0  0  0  0
M  END
$$$$
default_name
  -OEChem-01062215323D

 19 18  0     0  0  0  0  0  0999 V2000
   -2.2056   -4.0049    0.0000 H   0  0  0  0  0  0  0  0  0  0  0  0
   -2.2496   -2.9169    0.0000 C   0  0  0  0  0  0  0  0  0  0  0  0
   -2.7696   -2.5709    0.8910 H   0  0  0  0  0  0  0  0  0  0  0  0
   -2.7696   -2.5709   -0.8910 H   0  0  0  0  0  0  0  0  0  0  0  0
   -0.8406   -2.3699    0.0000 C   0  0  0  0  0  0  0  0  0  0  0  0
    0.1164   -3.1329    0.0000 O   0  0  0  0  0  0  0  0  0  0  0  0
   -0.7136   -1.0459    0.0000 N   0  0  0  0  0  0  0  0  0  0  0  0
   -1.5436   -0.4719    0.0000 H   0  0  0  0  0  0  0  0  0  0  0  0
    0.5724   -0.3469    0.0000 C   0  0  0  0  0  0  0  0  0  0  0  0
    0.6354    0.2891   -0.8840 H   0  0  0  0  0  0  0  0  0  0  0  0
    0.6354    0.2891    0.8840 H   0  0  0  0  0  0  0  0  0  0  0  0
    1.7634   -1.3095    0.0000 C   0  0  0  0  0  0  0  0  0  0  0  0
    1.6024   -2.4970   -0.2746 O   0  0  0  0  0  0  0  0  0  0  0  0
    2.9560   -0.7854    0.3101 N   0  0  0  0  0  0  0  0  0  0  0  0
    2.9904    0.1997    0.5212 H   0  0  0  0  0  0  0  0  0  0  0  0
    4.2128   -1.5348    0.3656 C   0  0  0  0  0  0  0  0  0  0  0  0
    4.0467   -2.5861    0.1185 H   0  0  0  0  0  0  0  0  0  0  0  0
    4.9249   -1.1182   -0.3480 H   0  0  0  0  0  0  0  0  0  0  0  0
    4.6357   -1.4761    1.3694 H   0  0  0  0  0  0  0  0  0  0  0  0
  5  6  2  0  0  0  0
  5  7  1  0  0  0  0
  2  3  1  0  0  0  0
  2  4  1  0  0  0  0
  2  5  1  0  0  0  0
  1  2  1  0  0  0  0
 12 13  2  0  0  0  0
 12 14  1  0  0  0  0
  9 10  1  0  0  0  0
  9 11  1  0  0  0  0
  9 12  1  0  0  0  0
  7  8  1  0  0  0  0
  7  9  1  0  0  0  0
 16 17  1  0  0  0  0
 16 18  1  0  0  0  0
 16 19  1  0  0  0  0
 14 15  1  0  0  0  0
 14 16  1  0  0  0  0
M  END
$$$$
default_name
  -OEChem-01062215323D

 19 18  0     0  0  0  0  0  0999 V2000
   -2.2056   -4.0049    0.0000 H   0  0  0  0  0  0  0  0  0  0  0  0
   -2.2496   -2.9169    0.0000 C   0  0  0  0  0  0  0  0  0  0  0  0
   -2.7696   -2.5709    0.8910 H   0  0  0  0  0  0  0  0  0  0  0  0
   -2.7696   -2.5709   -0.8910 H   0  0  0  0  0  0  0  0  0  0  0  0
   -0.8406   -2.3699    0.0000 C   0  0  0  0  0  0  0  0  0  0  0  0
    0.1164   -3.1329    0.0000 O   0  0  0  0  0  0  0  0  0  0  0  0
   -0.7136   -1.0459    0.0000 N   0  0  0  0  0  0  0  0  0  0  0  0
   -1.5436   -0.4719    0.0000 H   0  0  0  0  0  0  0  0  0  0  0  0
    0.5724   -0.3469    0.0000 C   0  0  0  0  0  0  0  0  0  0  0  0
    0.6354    0.2891   -0.8840 H   0  0  0  0  0  0  0  0  0  0  0  0
    0.6354    0.2891    0.8840 H   0  0  0  0  0  0  0  0  0  0  0  0
    1.7634   -1.3095    0.0000 C   0  0  0  0  0  0  0  0  0  0  0  0
    1.6691   -2.4146   -0.5304 O   0  0  0  0  0  0  0  0  0  0  0  0
    2.8807   -0.8785    0.5990 N   0  0  0  0  0  0  0  0  0  0  0  0
    2.8639    0.0432    1.0068 H   0  0  0  0  0  0  0  0  0  0  0  0
    4.1241   -1.6445    0.7063 C   0  0  0  0  0  0  0  0  0  0  0  0
    4.0179   -2.6217    0.2289 H   0  0  0  0  0  0  0  0  0  0  0  0
    4.9358   -1.1048    0.2167 H   0  0  0  0  0  0  0  0  0  0  0  0
    4.3770   -1.7962    1.7565 H   0  0  0  0  0  0  0  0  0  0  0  0
  5  6  2  0  0  0  0
  5  7  1  0  0  0  0
  2  3  1  0  0  0  0
  2  4  1  0  0  0  0
  2  5  1  0  0  0  0
  1  2  1  0  0  0  0
 12 13  2  0  0  0  0
 12 14  1  0  0  0  0
  9 10  1  0  0  0  0
  9 11  1  0  0  0  0
  9 12  1  0  0  0  0
  7  8  1  0  0  0  0
  7  9  1  0  0  0  0
 16 17  1  0  0  0  0
 16 18  1  0  0  0  0
 16 19  1  0  0  0  0
 14 15  1  0  0  0  0
 14 16  1  0  0  0  0
M  END
$$$$
default_name
  -OEChem-01062215323D

 19 18  0     0  0  0  0  0  0999 V2000
   -2.2056   -4.0049    0.0000 H   0  0  0  0  0  0  0  0  0  0  0  0
   -2.2496   -2.9169    0.0000 C   0  0  0  0  0  0  0  0  0  0  0  0
   -2.7696   -2.5709    0.8910 H   0  0  0  0  0  0  0  0  0  0  0  0
   -2.7696   -2.5709   -0.8910 H   0  0  0  0  0  0  0  0  0  0  0  0
   -0.8406   -2.3699    0.0000 C   0  0  0  0  0  0  0  0  0  0  0  0
    0.1164   -3.1329    0.0000 O   0  0  0  0  0  0  0  0  0  0  0  0
   -0.7136   -1.0459    0.0000 N   0  0  0  0  0  0  0  0  0  0  0  0
   -1.5436   -0.4719    0.0000 H   0  0  0  0  0  0  0  0  0  0  0  0
    0.5724   -0.3469    0.0000 C   0  0  0  0  0  0  0  0  0  0  0  0
    0.6354    0.2891   -0.8840 H   0  0  0  0  0  0  0  0  0  0  0  0
    0.6354    0.2891    0.8840 H   0  0  0  0  0  0  0  0  0  0  0  0
    1.7634   -1.3095    0.0000 C   0  0  0  0  0  0  0  0  0  0  0  0
    1.7750   -2.2834   -0.7502 O   0  0  0  0  0  0  0  0  0  0  0  0
    2.7611   -1.0266    0.8471 N   0  0  0  0  0  0  0  0  0  0  0  0
    2.6628   -0.2056    1.4238 H   0  0  0  0  0  0  0  0  0  0  0  0
    3.9830   -1.8191    0.9988 C   0  0  0  0  0  0  0  0  0  0  0  0
    3.9722   -2.6783    0.3238 H   0  0  0  0  0  0  0  0  0  0  0  0
    4.8544   -1.2055    0.7666 H   0  0  0  0  0  0  0  0  0  0  0  0
    4.0641   -2.1833    2.0238 H   0  0  0  0  0  0  0  0  0  0  0  0
  5  6  2  0  0  0  0
  5  7  1  0  0  0  0
  2  3  1  0  0  0  0
  2  4  1  0  0  0  0
  2  5  1  0  0  0  0
  1  2  1  0  0  0  0
 12 13  2  0  0  0  0
 12 14  1  0  0  0  0
  9 10  1  0  0  0  0
  9 11  1  0  0  0  0
  9 12  1  0  0  0  0
  7  8  1  0  0  0  0
  7  9  1  0  0  0  0
 16 17  1  0  0  0  0
 16 18  1  0  0  0  0
 16 19  1  0  0  0  0
 14 15  1  0  0  0  0
 14 16  1  0  0  0  0
M  END
$$$$
default_name
  -OEChem-01062215323D

 19 18  0     0  0  0  0  0  0999 V2000
   -2.2056   -4.0049    0.0000 H   0  0  0  0  0  0  0  0  0  0  0  0
   -2.2496   -2.9169    0.0000 C   0  0  0  0  0  0  0  0  0  0  0  0
   -2.7696   -2.5709    0.8910 H   0  0  0  0  0  0  0  0  0  0  0  0
   -2.7696   -2.5709   -0.8910 H   0  0  0  0  0  0  0  0  0  0  0  0
   -0.8406   -2.3699    0.0000 C   0  0  0  0  0  0  0  0  0  0  0  0
    0.1164   -3.1329    0.0000 O   0  0  0  0  0  0  0  0  0  0  0  0
   -0.7136   -1.0459    0.0000 N   0  0  0  0  0  0  0  0  0  0  0  0
   -1.5436   -0.4719    0.0000 H   0  0  0  0  0  0  0  0  0  0  0  0
    0.5724   -0.3469    0.0000 C   0  0  0  0  0  0  0  0  0  0  0  0
    0.6354    0.2891   -0.8840 H   0  0  0  0  0  0  0  0  0  0  0  0
    0.6354    0.2891    0.8840 H   0  0  0  0  0  0  0  0  0  0  0  0
    1.7634   -1.3095    0.0000 C   0  0  0  0  0  0  0  0  0  0  0  0
    1.9131   -2.1125   -0.9188 O   0  0  0  0  0  0  0  0  0  0  0  0
    2.6051   -1.2195    1.0375 N   0  0  0  0  0  0  0  0  0  0  0  0
    2.4006   -0.5300    1.7438 H   0  0  0  0  0  0  0  0  0  0  0  0
    3.7991   -2.0466    1.2233 C   0  0  0  0  0  0  0  0  0  0  0  0
    3.9126   -2.7521    0.3965 H   0  0  0  0  0  0  0  0  0  0  0  0
    4.6864   -1.4134    1.2643 H   0  0  0  0  0  0  0  0  0  0  0  0
    3.7185   -2.6110    2.1533 H   0  0  0  0  0  0  0  0  0  0  0  0
  5  6  2  0  0  0  0
  5  7  1  0  0  0  0
  2  3  1  0  0  0  0
  2  4  1  0  0  0  0
  2  5  1  0  0  0  0
  1  2  1  0  0  0  0
 12 13  2  0  0  0  0
 12 14  1  0  0  0  0
  9 10  1  0  0  0  0
  9 11  1  0  0  0  0
  9 12  1  0  0  0  0
  7  8  1  0  0  0  0
  7  9  1  0  0  0  0
 16 17  1  0  0  0  0
 16 18  1  0  0  0  0
 16 19  1  0  0  0  0
 14 15  1  0  0  0  0
 14 16  1  0  0  0  0
M  END
$$$$
default_name
  -OEChem-01062215323D

 19 18  0     0  0  0  0  0  0999 V2000
   -2.2056   -4.0049    0.0000 H   0  0  0  0  0  0  0  0  0  0  0  0
   -2.2496   -2.9169    0.0000 C   0  0  0  0  0  0  0  0  0  0  0  0
   -2.7696   -2.5709    0.8910 H   0  0  0  0  0  0  0  0  0  0  0  0
   -2.7696   -2.5709   -0.8910 H   0  0  0  0  0  0  0  0  0  0  0  0
   -0.8406   -2.3699    0.0000 C   0  0  0  0  0  0  0  0  0  0  0  0
    0.1164   -3.1329    0.0000 O   0  0  0  0  0  0  0  0  0  0  0  0
   -0.7136   -1.0459    0.0000 N   0  0  0  0  0  0  0  0  0  0  0  0
   -1.5436   -0.4719    0.0000 H   0  0  0  0  0  0  0  0  0  0  0  0
    0.5724   -0.3469    0.0000 C   0  0  0  0  0  0  0  0  0  0  0  0
    0.6354    0.2891   -0.8840 H   0  0  0  0  0  0  0  0  0  0  0  0
    0.6354    0.2891    0.8840 H   0  0  0  0  0  0  0  0  0  0  0  0
    1.7634   -1.3095    0.0000 C   0  0  0  0  0  0  0  0  0  0  0  0
    2.0740   -1.9135   -1.0247 O   0  0  0  0  0  0  0  0  0  0  0  0
    2.4235   -1.4443    1.1572 N   0  0  0  0  0  0  0  0  0  0  0  0
    2.0954   -0.9077    1.9450 H   0  0  0  0  0  0  0  0  0  0  0  0
    3.5850   -2.3116    1.3644 C   0  0  0  0  0  0  0  0  0  0  0  0
    3.8431   -2.8380    0.4423 H   0  0  0  0  0  0  0  0  0  0  0  0
    4.4430   -1.7145    1.6758 H   0  0  0  0  0  0  0  0  0  0  0  0
    3.3635   -3.0502    2.1360 H   0  0  0  0  0  0  0  0  0  0  0  0
  5  6  2  0  0  0  0
  5  7  1  0  0  0  0
  2  3  1  0  0  0  0
  2  4  1  0  0  0  0
  2  5  1  0  0  0  0
  1  2  1  0  0  0  0
 12 13  2  0  0  0  0
 12 14  1  0  0  0  0
  9 10  1  0  0  0  0
  9 11  1  0  0  0  0
  9 12  1  0  0  0  0
  7  8  1  0  0  0  0
  7  9  1  0  0  0  0
 16 17  1  0  0  0  0
 16 18  1  0  0  0  0
 16 19  1  0  0  0  0
 14 15  1  0  0  0  0
 14 16  1  0  0  0  0
M  END
$$$$
default_name
  -OEChem-01062215323D

 19 18  0     0  0  0  0  0  0999 V2000
   -2.2056   -4.0049    0.0000 H   0  0  0  0  0  0  0  0  0  0  0  0
   -2.2496   -2.9169    0.0000 C   0  0  0  0  0  0  0  0  0  0  0  0
   -2.7696   -2.5709    0.8910 H   0  0  0  0  0  0  0  0  0  0  0  0
   -2.7696   -2.5709   -0.8910 H   0  0  0  0  0  0  0  0  0  0  0  0
   -0.8406   -2.3699    0.0000 C   0  0  0  0  0  0  0  0  0  0  0  0
    0.1164   -3.1329    0.0000 O   0  0  0  0  0  0  0  0  0  0  0  0
   -0.7136   -1.0459    0.0000 N   0  0  0  0  0  0  0  0  0  0  0  0
   -1.5436   -0.4719    0.0000 H   0  0  0  0  0  0  0  0  0  0  0  0
    0.5724   -0.3469    0.0000 C   0  0  0  0  0  0  0  0  0  0  0  0
    0.6354    0.2891   -0.8840 H   0  0  0  0  0  0  0  0  0  0  0  0
    0.6354    0.2891    0.8840 H   0  0  0  0  0  0  0  0  0  0  0  0
    1.7634   -1.3095    0.0000 C   0  0  0  0  0  0  0  0  0  0  0  0
    2.2466   -1.7000   -1.0609 O   0  0  0  0  0  0  0  0  0  0  0  0
    2.2286   -1.6854    1.1980 N   0  0  0  0  0  0  0  0  0  0  0  0
    1.7678   -1.3130    2.0136 H   0  0  0  0  0  0  0  0  0  0  0  0
    3.3551   -2.5959    1.4126 C   0  0  0  0  0  0  0  0  0  0  0  0
    3.7686   -2.9301    0.4579 H   0  0  0  0  0  0  0  0  0  0  0  0
    4.1411   -2.0881    1.9731 H   0  0  0  0  0  0  0  0  0  0  0  0
    3.0235   -3.4709    1.9731 H   0  0  0  0  0  0  0  0  0  0  0  0
  5  6  2  0  0  0  0
  5  7  1  0  0  0  0
  2  3  1  0  0  0  0
  2  4  1  0  0  0  0
  2  5  1  0  0  0  0
  1  2  1  0  0  0  0
 12 13  2  0  0  0  0
 12 14  1  0  0  0  0
  9 10  1  0  0  0  0
  9 11  1  0  0  0  0
  9 12  1  0  0  0  0
  7  8  1  0  0  0  0
  7  9  1  0  0  0  0
 16 17  1  0  0  0  0
 16 18  1  0  0  0  0
 16 19  1  0  0  0  0
 14 15  1  0  0  0  0
 14 16  1  0  0  0  0
M  END
$$$$
default_name
  -OEChem-01062215323D

 19 18  0     0  0  0  0  0  0999 V2000
   -2.2056   -4.0049    0.0000 H   0  0  0  0  0  0  0  0  0  0  0  0
   -2.2496   -2.9169    0.0000 C   0  0  0  0  0  0  0  0  0  0  0  0
   -2.7696   -2.5709    0.8910 H   0  0  0  0  0  0  0  0  0  0  0  0
   -2.7696   -2.5709   -0.8910 H   0  0  0  0  0  0  0  0  0  0  0  0
   -0.8406   -2.3699    0.0000 C   0  0  0  0  0  0  0  0  0  0  0  0
    0.1164   -3.1329    0.0000 O   0  0  0  0  0  0  0  0  0  0  0  0
   -0.7136   -1.0459    0.0000 N   0  0  0  0  0  0  0  0  0  0  0  0
   -1.5436   -0.4719    0.0000 H   0  0  0  0  0  0  0  0  0  0  0  0
    0.5724   -0.3469    0.0000 C   0  0  0  0  0  0  0  0  0  0  0  0
    0.6354    0.2891   -0.8840 H   0  0  0  0  0  0  0  0  0  0  0  0
    0.6354    0.2891    0.8840 H   0  0  0  0  0  0  0  0  0  0  0  0
    1.7634   -1.3095    0.0000 C   0  0  0  0  0  0  0  0  0  0  0  0
    2.4192   -1.4864   -1.0247 O   0  0  0  0  0  0  0  0  0  0  0  0
    2.0337   -1.9266    1.1572 N   0  0  0  0  0  0  0  0  0  0  0  0
    1.4402   -1.7184    1.9450 H   0  0  0  0  0  0  0  0  0  0  0  0
    3.1253   -2.8803    1.3644 C   0  0  0  0  0  0  0  0  0  0  0  0
    3.6942   -3.0223    0.4423 H   0  0  0  0  0  0  0  0  0  0  0  0
    3.8010   -2.5088    2.1360 H   0  0  0  0  0  0  0  0  0  0  0  0
    2.7215   -3.8445    1.6758 H   0  0  0  0  0  0  0  0  0  0  0  0
  5  6  2  0  0  0  0
  5  7  1  0  0  0  0
  2  3  1  0  0  0  0
  2  4  1  0  0  0  0
  2  5  1  0  0  0  0
  1  2  1  0  0  0  0
 12 13  2  0  0  0  0
 12 14  1  0  0  0  0
  9 10  1  0  0  0  0
  9 11  1  0  0  0  0
  9 12  1  0  0  0  0
  7  8  1  0  0  0  0
  7  9  1  0  0  0  0
 16 17  1  0  0  0  0
 16 18  1  0  0  0  0
 16 19  1  0  0  0  0
 14 15  1  0  0  0  0
 14 16  1  0  0  0  0
M  END
$$$$
default_name
  -OEChem-01062215323D

 19 18  0     0  0  0  0  0  0999 V2000
   -2.2056   -4.0049    0.0000 H   0  0  0  0  0  0  0  0  0  0  0  0
   -2.2496   -2.9169    0.0000 C   0  0  0  0  0  0  0  0  0  0  0  0
   -2.7696   -2.5709    0.8910 H   0  0  0  0  0  0  0  0  0  0  0  0
   -2.7696   -2.5709   -0.8910 H   0  0  0  0  0  0  0  0  0  0  0  0
   -0.8406   -2.3699    0.0000 C   0  0  0  0  0  0  0  0  0  0  0  0
    0.1164   -3.1329    0.0000 O   0  0  0  0  0  0  0  0  0  0  0  0
   -0.7136   -1.0459    0.0000 N   0  0  0  0  0  0  0  0  0  0  0  0
   -1.5436   -0.4719    0.0000 H   0  0  0  0  0  0  0  0  0  0  0  0
    0.5724   -0.3469    0.0000 C   0  0  0  0  0  0  0  0  0  0  0  0
    0.6354    0.2891   -0.8840 H   0  0  0  0  0  0  0  0  0  0  0  0
    0.6354    0.2891    0.8840 H   0  0  0  0  0  0  0  0  0  0  0  0
    1.7634   -1.3095    0.0000 C   0  0  0  0  0  0  0  0  0  0  0  0
    2.5800   -1.2874   -0.9188 O   0  0  0  0  0  0  0  0  0  0  0  0
    1.8520   -2.1513    1.0375 N   0  0  0  0  0  0  0  0  0  0  0  0
    1.1349   -2.0961    1.7438 H   0  0  0  0  0  0  0  0  0  0  0  0
    2.9112   -3.1452    1.2233 C   0  0  0  0  0  0  0  0  0  0  0  0
    3.6247   -3.1082    0.3965 H   0  0  0  0  0  0  0  0  0  0  0  0
    3.4461   -2.9480    2.1533 H   0  0  0  0  0  0  0  0  0  0  0  0
    2.4782   -4.1456    1.2643 H   0  0  0  0  0  0  0  0  0  0  0  0
  5  6  2  0  0  0  0
  5  7  1  0  0  0  0
  2  3  1  0  0  0  0
  2  4  1  0  0  0  0
  2  5  1  0  0  0  0
  1  2  1  0  0  0  0
 12 13  2  0  0  0  0
 12 14  1  0  0  0  0
  9 10  1  0  0  0  0
  9 11  1  0  0  0  0
  9 12  1  0  0  0  0
  7  8  1  0  0  0  0
  7  9  1  0  0  0  0
 16 17  1  0  0  0  0
 16 18  1  0  0  0  0
 16 19  1  0  0  0  0
 14 15  1  0  0  0  0
 14 16  1  0  0  0  0
M  END
$$$$
default_name
  -OEChem-01062215323D

 19 18  0     0  0  0  0  0  0999 V2000
   -2.2056   -4.0049    0.0000 H   0  0  0  0  0  0  0  0  0  0  0  0
   -2.2496   -2.9169    0.0000 C   0  0  0  0  0  0  0  0  0  0  0  0
   -2.7696   -2.5709    0.8910 H   0  0  0  0  0  0  0  0  0  0  0  0
   -2.7696   -2.5709   -0.8910 H   0  0  0  0  0  0  0  0  0  0  0  0
   -0.8406   -2.3699    0.0000 C   0  0  0  0  0  0  0  0  0  0  0  0
    0.1164   -3.1329    0.0000 O   0  0  0  0  0  0  0  0  0  0  0  0
   -0.7136   -1.0459    0.0000 N   0  0  0  0  0  0  0  0  0  0  0  0
   -1.5436   -0.4719    0.0000 H   0  0  0  0  0  0  0  0  0  0  0  0
    0.5724   -0.3469    0.0000 C   0  0  0  0  0  0  0  0  0  0  0  0
    0.6354    0.2891   -0.8840 H   0  0  0  0  0  0  0  0  0  0  0  0
    0.6354    0.2891    0.8840 H   0  0  0  0  0  0  0  0  0  0  0  0
    1.7634   -1.3095    0.0000 C   0  0  0  0  0  0  0  0  0  0  0  0
    2.7181   -1.1165   -0.7502 O   0  0  0  0  0  0  0  0  0  0  0  0
    1.6961   -2.3443    0.8471 N   0  0  0  0  0  0  0  0  0  0  0  0
    0.8728   -2.4204    1.4238 H   0  0  0  0  0  0  0  0  0  0  0  0
    2.7273   -3.3728    0.9988 C   0  0  0  0  0  0  0  0  0  0  0  0
    3.5651   -3.1819    0.3238 H   0  0  0  0  0  0  0  0  0  0  0  0
    3.1004   -3.3757    2.0238 H   0  0  0  0  0  0  0  0  0  0  0  0
    2.3101   -4.3535    0.7666 H   0  0  0  0  0  0  0  0  0  0  0  0
  5  6  2  0  0  0  0
  5  7  1  0  0  0  0
  2  3  1  0  0  0  0
  2  4  1  0  0  0  0
  2  5  1  0  0  0  0
  1  2  1  0  0  0  0
 12 13  2  0  0  0  0
 12 14  1  0  0  0  0
  9 10  1  0  0  0  0
  9 11  1  0  0  0  0
  9 12  1  0  0  0  0
  7  8  1  0  0  0  0
  7  9  1  0  0  0  0
 16 17  1  0  0  0  0
 16 18  1  0  0  0  0
 16 19  1  0  0  0  0
 14 15  1  0  0  0  0
 14 16  1  0  0  0  0
M  END
$$$$
default_name
  -OEChem-01062215323D

 19 18  0     0  0  0  0  0  0999 V2000
   -2.2056   -4.0049    0.0000 H   0  0  0  0  0  0  0  0  0  0  0  0
   -2.2496   -2.9169    0.0000 C   0  0  0  0  0  0  0  0  0  0  0  0
   -2.7696   -2.5709    0.8910 H   0  0  0  0  0  0  0  0  0  0  0  0
   -2.7696   -2.5709   -0.8910 H   0  0  0  0  0  0  0  0  0  0  0  0
   -0.8406   -2.3699    0.0000 C   0  0  0  0  0  0  0  0  0  0  0  0
    0.1164   -3.1329    0.0000 O   0  0  0  0  0  0  0  0  0  0  0  0
   -0.7136   -1.0459    0.0000 N   0  0  0  0  0  0  0  0  0  0  0  0
   -1.5436   -0.4719    0.0000 H   0  0  0  0  0  0  0  0  0  0  0  0
    0.5724   -0.3469    0.0000 C   0  0  0  0  0  0  0  0  0  0  0  0
    0.6354    0.2891   -0.8840 H   0  0  0  0  0  0  0  0  0  0  0  0
    0.6354    0.2891    0.8840 H   0  0  0  0  0  0  0  0  0  0  0  0
    1.7634   -1.3095    0.0000 C   0  0  0  0  0  0  0  0  0  0  0  0
    2.8241   -0.9854   -0.5304 O   0  0  0  0  0  0  0  0  0  0  0  0
    1.5764   -2.4924    0.5990 N   0  0  0  0  0  0  0  0  0  0  0  0
    0.6717   -2.6693    1.0068 H   0  0  0  0  0  0  0  0  0  0  0  0
    2.5862   -3.5474    0.7063 C   0  0  0  0  0  0  0  0  0  0  0  0
    3.5194   -3.2385    0.2289 H   0  0  0  0  0  0  0  0  0  0  0  0
    2.7876   -3.7628    1.7565 H   0  0  0  0  0  0  0  0  0  0  0  0
    2.2288   -4.4542    0.2167 H   0  0  0  0  0  0  0  0  0  0  0  0
  5  6  2  0  0  0  0
  5  7  1  0  0  0  0
  2  3  1  0  0  0  0
  2  4  1  0  0  0  0
  2  5  1  0  0  0  0
  1  2  1  0  0  0  0
 12 13  2  0  0  0  0
 12 14  1  0  0  0  0
  9 10  1  0  0  0  0
  9 11  1  0  0  0  0
  9 12  1  0  0  0  0
  7  8  1  0  0  0  0
  7  9  1  0  0  0  0
 16 17  1  0  0  0  0
 16 18  1  0  0  0  0
 16 19  1  0  0  0  0
 14 15  1  0  0  0  0
 14 16  1  0  0  0  0
M  END
$$$$
default_name
  -OEChem-01062215323D

 19 18  0     0  0  0  0  0  0999 V2000
   -2.2056   -4.0049    0.0000 H   0  0  0  0  0  0  0  0  0  0  0  0
   -2.2496   -2.9169    0.0000 C   0  0  0  0  0  0  0  0  0  0  0  0
   -2.7696   -2.5709    0.8910 H   0  0  0  0  0  0  0  0  0  0  0  0
   -2.7696   -2.5709   -0.8910 H   0  0  0  0  0  0  0  0  0  0  0  0
   -0.8406   -2.3699    0.0000 C   0  0  0  0  0  0  0  0  0  0  0  0
    0.1164   -3.1329    0.0000 O   0  0  0  0  0  0  0  0  0  0  0  0
   -0.7136   -1.0459    0.0000 N   0  0  0  0  0  0  0  0  0  0  0  0
   -1.5436   -0.4719    0.0000 H   0  0  0  0  0  0  0  0  0  0  0  0
    0.5724   -0.3469    0.0000 C   0  0  0  0  0  0  0  0  0  0  0  0
    0.6354    0.2891   -0.8840 H   0  0  0  0  0  0  0  0  0  0  0  0
    0.6354    0.2891    0.8840 H   0  0  0  0  0  0  0  0  0  0  0  0
    1.7634   -1.3095    0.0000 C   0  0  0  0  0  0  0  0  0  0  0  0
    2.8907   -0.9030   -0.2746 O   0  0  0  0  0  0  0  0  0  0  0  0
    1.5012   -2.5855    0.3101 N   0  0  0  0  0  0  0  0  0  0  0  0
    0.5452   -2.8258    0.5212 H   0  0  0  0  0  0  0  0  0  0  0  0
    2.4975   -3.6571    0.3656 C   0  0  0  0  0  0  0  0  0  0  0  0
    3.4906   -3.2741    0.1185 H   0  0  0  0  0  0  0  0  0  0  0  0
    2.5289   -4.0829    1.3694 H   0  0  0  0  0  0  0  0  0  0  0  0
    2.2396   -4.4408   -0.3480 H   0  0  0  0  0  0  0  0  0  0  0  0
  5  6  2  0  0  0  0
  5  7  1  0  0  0  0
  2  3  1  0  0  0  0
  2  4  1  0  0  0  0
  2  5  1  0  0  0  0
  1  2  1  0  0  0  0
 12 13  2  0  0  0  0
 12 14  1  0  0  0  0
  9 10  1  0  0  0  0
  9 11  1  0  0  0  0
  9 12  1  0  0  0  0
  7  8  1  0  0  0  0
  7  9  1  0  0  0  0
 16 17  1  0  0  0  0
 16 18  1  0  0  0  0
 16 19  1  0  0  0  0
 14 15  1  0  0  0  0
 14 16  1  0  0  0  0
M  END
$$$$
default_name
  -OEChem-01062215323D

 19 18  0     0  0  0  0  0  0999 V2000
   -2.2056   -4.0049    0.0000 H   0  0  0  0  0  0  0  0  0  0  0  0
   -2.2496   -2.9169    0.0000 C   0  0  0  0  0  0  0  0  0  0  0  0
   -2.7696   -2.5709    0.8910 H   0  0  0  0  0  0  0  0  0  0  0  0
   -2.7696   -2.5709   -0.8910 H   0  0  0  0  0  0  0  0  0  0  0  0
   -0.8406   -2.3699    0.0000 C   0  0  0  0  0  0  0  0  0  0  0  0
    0.1164   -3.1329    0.0000 O   0  0  0  0  0  0  0  0  0  0  0  0
   -0.7136   -1.0459    0.0000 N   0  0  0  0  0  0  0  0  0  0  0  0
   -1.5436   -0.4719    0.0000 H   0  0  0  0  0  0  0  0  0  0  0  0
    0.5724   -0.3469    0.0000 C   0  0  0  0  0  0  0  0  0  0  0  0
    0.6354    0.2891   -0.8840 H   0  0  0  0  0  0  0  0  0  0  0  0
    0.6354    0.2891    0.8840 H   0  0  0  0  0  0  0  0  0  0  0  0
    1.7634   -1.3095    0.0000 C   0  0  0  0  0  0  0  0  0  0  0  0
    2.9134   -0.8749    0.0000 O   0  0  0  0  0  0  0  0  0  0  0  0
    1.4755   -2.6172    0.0000 N   0  0  0  0  0  0  0  0  0  0  0  0
    0.5021   -2.8791   -0.0000 H   0  0  0  0  0  0  0  0  0  0  0  0
    2.4672   -3.6946   -0.0000 C   0  0  0  0  0  0  0  0  0  0  0  0
    3.4808   -3.2862    0.0000 H   0  0  0  0  0  0  0  0  0  0  0  0
    2.3420   -4.3141    0.8890 H   0  0  0  0  0  0  0  0  0  0  0  0
    2.3420   -4.3141   -0.8890 H   0  0  0  0  0  0  0  0  0  0  0  0
  5  6  2  0  0  0  0
  5  7  1  0  0  0  0
  2  3  1  0  0  0  0
  2  4  1  0  0  0  0
  2  5  1  0  0  0  0
  1  2  1  0  0  0  0
 12 13  2  0  0  0  0
 12 14  1  0  0  0  0
  9 10  1  0  0  0  0
  9 11  1  0  0  0  0
  9 12  1  0  0  0  0
  7  8  1  0  0  0  0
  7  9  1  0  0  0  0
 16 17  1  0  0  0  0
 16 18  1  0  0  0  0
 16 19  1  0  0  0  0
 14 15  1  0  0  0  0
 14 16  1  0  0  0  0
M  END
$$$$
default_name
  -OEChem-01062215323D

 19 18  0     0  0  0  0  0  0999 V2000
   -2.2056   -4.0049    0.0000 H   0  0  0  0  0  0  0  0  0  0  0  0
   -2.2496   -2.9169    0.0000 C   0  0  0  0  0  0  0  0  0  0  0  0
   -2.7696   -2.5709    0.8910 H   0  0  0  0  0  0  0  0  0  0  0  0
   -2.7696   -2.5709   -0.8910 H   0  0  0  0  0  0  0  0  0  0  0  0
   -0.8406   -2.3699    0.0000 C   0  0  0  0  0  0  0  0  0  0  0  0
    0.1164   -3.1329    0.0000 O   0  0  0  0  0  0  0  0  0  0  0  0
   -0.7136   -1.0459    0.0000 N   0  0  0  0  0  0  0  0  0  0  0  0
   -1.5436   -0.4719    0.0000 H   0  0  0  0  0  0  0  0  0  0  0  0
    0.5724   -0.3469    0.0000 C   0  0  0  0  0  0  0  0  0  0  0  0
    0.6354    0.2891   -0.8840 H   0  0  0  0  0  0  0  0  0  0  0  0
    0.6354    0.2891    0.8840 H   0  0  0  0  0  0  0  0  0  0  0  0
    1.7634   -1.3095    0.0000 C   0  0  0  0  0  0  0  0  0  0  0  0
    2.8907   -0.9030    0.2746 O   0  0  0  0  0  0  0  0  0  0  0  0
    1.5012   -2.5855   -0.3101 N   0  0  0  0  0  0  0  0  0  0  0  0
    0.5452   -2.8258   -0.5212 H   0  0  0  0  0  0  0  0  0  0  0  0
    2.4975   -3.6571   -0.3656 C   0  0  0  0  0  0  0  0  0  0  0  0
    3.4906   -3.2741   -0.1185 H   0  0  0  0  0  0  0  0  0  0  0  0
    2.2396   -4.4408    0.3480 H   0  0  0  0  0  0  0  0  0  0  0  0
    2.5289   -4.0829   -1.3694 H   0  0  0  0  0  0  0  0  0  0  0  0
  5  6  2  0  0  0  0
  5  7  1  0  0  0  0
  2  3  1  0  0  0  0
  2  4  1  0  0  0  0
  2  5  1  0  0  0  0
  1  2  1  0  0  0  0
 12 13  2  0  0  0  0
 12 14  1  0  0  0  0
  9 10  1  0  0  0  0
  9 11  1  0  0  0  0
  9 12  1  0  0  0  0
  7  8  1  0  0  0  0
  7  9  1  0  0  0  0
 16 17  1  0  0  0  0
 16 18  1  0  0  0  0
 16 19  1  0  0  0  0
 14 15  1  0  0  0  0
 14 16  1  0  0  0  0
M  END
$$$$
default_name
  -OEChem-01062215323D

 19 18  0     0  0  0  0  0  0999 V2000
   -2.2056   -4.0049    0.0000 H   0  0  0  0  0  0  0  0  0  0  0  0
   -2.2496   -2.9169    0.0000 C   0  0  0  0  0  0  0  0  0  0  0  0
   -2.7696   -2.5709    0.8910 H   0  0  0  0  0  0  0  0  0  0  0  0
   -2.7696   -2.5709   -0.8910 H   0  0  0  0  0  0  0  0  0  0  0  0
   -0.8406   -2.3699    0.0000 C   0  0  0  0  0  0  0  0  0  0  0  0
    0.1164   -3.1329    0.0000 O   0  0  0  0  0  0  0  0  0  0  0  0
   -0.7136   -1.0459    0.0000 N   0  0  0  0  0  0  0  0  0  0  0  0
   -1.5436   -0.4719    0.0000 H   0  0  0  0  0  0  0  0  0  0  0  0
    0.5724   -0.3469    0.0000 C   0  0  0  0  0  0  0  0  0  0  0  0
    0.6354    0.2891   -0.8840 H   0  0  0  0  0  0  0  0  0  0  0  0
    0.6354    0.2891    0.8840 H   0  0  0  0  0  0  0  0  0  0  0  0
    1.7634   -1.3095    0.0000 C   0  0  0  0  0  0  0  0  0  0  0  0
    2.8241   -0.9854    0.5304 O   0  0  0  0  0  0  0  0  0  0  0  0
    1.5764   -2.4924   -0.5990 N   0  0  0  0  0  0  0  0  0  0  0  0
    0.6717   -2.6693   -1.0068 H   0  0  0  0  0  0  0  0  0  0  0  0
    2.5862   -3.5474   -0.7063 C   0  0  0  0  0  0  0  0  0  0  0  0
    3.5194   -3.2385   -0.2289 H   0  0  0  0  0  0  0  0  0  0  0  0
    2.2288   -4.4542   -0.2167 H   0  0  0  0  0  0  0  0  0  0  0  0
    2.7876   -3.7628   -1.7565 H   0  0  0  0  0  0  0  0  0  0  0  0
  5  6  2  0  0  0  0
  5  7  1  0  0  0  0
  2  3  1  0  0  0  0
  2  4  1  0  0  0  0
  2  5  1  0  0  0  0
  1  2  1  0  0  0  0
 12 13  2  0  0  0  0
 12 14  1  0  0  0  0
  9 10  1  0  0  0  0
  9 11  1  0  0  0  0
  9 12  1  0  0  0  0
  7  8  1  0  0  0  0
  7  9  1  0  0  0  0
 16 17  1  0  0  0  0
 16 18  1  0  0  0  0
 16 19  1  0  0  0  0
 14 15  1  0  0  0  0
 14 16  1  0  0  0  0
M  END
$$$$
default_name
  -OEChem-01062215323D

 19 18  0     0  0  0  0  0  0999 V2000
   -2.2056   -4.0049    0.0000 H   0  0  0  0  0  0  0  0  0  0  0  0
   -2.2496   -2.9169    0.0000 C   0  0  0  0  0  0  0  0  0  0  0  0
   -2.7696   -2.5709    0.8910 H   0  0  0  0  0  0  0  0  0  0  0  0
   -2.7696   -2.5709   -0.8910 H   0  0  0  0  0  0  0  0  0  0  0  0
   -0.8406   -2.3699    0.0000 C   0  0  0  0  0  0  0  0  0  0  0  0
    0.1164   -3.1329    0.0000 O   0  0  0  0  0  0  0  0  0  0  0  0
   -0.7136   -1.0459    0.0000 N   0  0  0  0  0  0  0  0  0  0  0  0
   -1.5436   -0.4719    0.0000 H   0  0  0  0  0  0  0  0  0  0  0  0
    0.5724   -0.3469    0.0000 C   0  0  0  0  0  0  0  0  0  0  0  0
    0.6354    0.2891   -0.8840 H   0  0  0  0  0  0  0  0  0  0  0  0
    0.6354    0.2891    0.8840 H   0  0  0  0  0  0  0  0  0  0  0  0
    1.7634   -1.3095    0.0000 C   0  0  0  0  0  0  0  0  0  0  0  0
    2.7181   -1.1165    0.7502 O   0  0  0  0  0  0  0  0  0  0  0  0
    1.6961   -2.3443   -0.8471 N   0  0  0  0  0  0  0  0  0  0  0  0
    0.8728   -2.4204   -1.4238 H   0  0  0  0  0  0  0  0  0  0  0  0
    2.7273   -3.3728   -0.9988 C   0  0  0  0  0  0  0  0  0  0  0  0
    3.5651   -3.1819   -0.3238 H   0  0  0  0  0  0  0  0  0  0  0  0
    2.3101   -4.3535   -0.7666 H   0  0  0  0  0  0  0  0  0  0  0  0
    3.1004   -3.3757   -2.0238 H   0  0  0  0  0  0  0  0  0  0  0  0
  5  6  2  0  0  0  0
  5  7  1  0  0  0  0
  2  3  1  0  0  0  0
  2  4  1  0  0  0  0
  2  5  1  0  0  0  0
  1  2  1  0  0  0  0
 12 13  2  0  0  0  0
 12 14  1  0  0  0  0
  9 10  1  0  0  0  0
  9 11  1  0  0  0  0
  9 12  1  0  0  0  0
  7  8  1  0  0  0  0
  7  9  1  0  0  0  0
 16 17  1  0  0  0  0
 16 18  1  0  0  0  0
 16 19  1  0  0  0  0
 14 15  1  0  0  0  0
 14 16  1  0  0  0  0
M  END
$$$$
default_name
  -OEChem-01062215323D

 19 18  0     0  0  0  0  0  0999 V2000
   -2.2056   -4.0049    0.0000 H   0  0  0  0  0  0  0  0  0  0  0  0
   -2.2496   -2.9169    0.0000 C   0  0  0  0  0  0  0  0  0  0  0  0
   -2.7696   -2.5709    0.8910 H   0  0  0  0  0  0  0  0  0  0  0  0
   -2.7696   -2.5709   -0.8910 H   0  0  0  0  0  0  0  0  0  0  0  0
   -0.8406   -2.3699    0.0000 C   0  0  0  0  0  0  0  0  0  0  0  0
    0.1164   -3.1329    0.0000 O   0  0  0  0  0  0  0  0  0  0  0  0
   -0.7136   -1.0459    0.0000 N   0  0  0  0  0  0  0  0  0  0  0  0
   -1.5436   -0.4719    0.0000 H   0  0  0  0  0  0  0  0  0  0  0  0
    0.5724   -0.3469    0.0000 C   0  0  0  0  0  0  0  0  0  0  0  0
    0.6354    0.2891   -0.8840 H   0  0  0  0  0  0  0  0  0  0  0  0
    0.6354    0.2891    0.8840 H   0  0  0  0  0  0  0  0  0  0  0  0
    1.7634   -1.3095    0.0000 C   0  0  0  0  0  0  0  0  0  0  0  0
    2.5800   -1.2874    0.9188 O   0  0  0  0  0  0  0  0  0  0  0  0
    1.8520   -2.1513   -1.0375 N   0  0  0  0  0  0  0  0  0  0  0  0
    1.1349   -2.0961   -1.7438 H   0  0  0  0  0  0  0  0  0  0  0  0
    2.9112   -3.1452   -1.2233 C   0  0  0  0  0  0  0  0  0  0  0  0
    3.6247   -3.1082   -0.3965 H   0  0  0  0  0  0  0  0  0  0  0  0
    2.4782   -4.1456   -1.2643 H   0  0  0  0  0  0  0  0  0  0  0  0
    3.4461   -2.9480   -2.1533 H   0  0  0  0  0  0  0  0  0  0  0  0
  5  6  2  0  0  0  0
  5  7  1  0  0  0  0
  2  3  1  0  0  0  0
  2  4  1  0  0  0  0
  2  5  1  0  0  0  0
  1  2  1  0  0  0  0
 12 13  2  0  0  0  0
 12 14  1  0  0  0  0
  9 10  1  0  0  0  0
  9 11  1  0  0  0  0
  9 12  1  0  0  0  0
  7  8  1  0  0  0  0
  7  9  1  0  0  0  0
 16 17  1  0  0  0  0
 16 18  1  0  0  0  0
 16 19  1  0  0  0  0
 14 15  1  0  0  0  0
 14 16  1  0  0  0  0
M  END
$$$$
default_name
  -OEChem-01062215323D

 19 18  0     0  0  0  0  0  0999 V2000
   -2.2056   -4.0049    0.0000 H   0  0  0  0  0  0  0  0  0  0  0  0
   -2.2496   -2.9169    0.0000 C   0  0  0  0  0  0  0  0  0  0  0  0
   -2.7696   -2.5709    0.8910 H   0  0  0  0  0  0  0  0  0  0  0  0
   -2.7696   -2.5709   -0.8910 H   0  0  0  0  0  0  0  0  0  0  0  0
   -0.8406   -2.3699    0.0000 C   0  0  0  0  0  0  0  0  0  0  0  0
    0.1164   -3.1329    0.0000 O   0  0  0  0  0  0  0  0  0  0  0  0
   -0.7136   -1.0459    0.0000 N   0  0  0  0  0  0  0  0  0  0  0  0
   -1.5436   -0.4719    0.0000 H   0  0  0  0  0  0  0  0  0  0  0  0
    0.5724   -0.3469    0.0000 C   0  0  0  0  0  0  0  0  0  0  0  0
    0.6354    0.2891   -0.8840 H   0  0  0  0  0  0  0  0  0  0  0  0
    0.6354    0.2891    0.8840 H   0  0  0  0  0  0  0  0  0  0  0  0
    1.7634   -1.3095    0.0000 C   0  0  0  0  0  0  0  0  0  0  0  0
    2.4192   -1.4864    1.0247 O   0  0  0  0  0  0  0  0  0  0  0  0
    2.0337   -1.9266   -1.1572 N   0  0  0  0  0  0  0  0  0  0  0  0
    1.4402   -1.7184   -1.9450 H   0  0  0  0  0  0  0  0  0  0  0  0
    3.1253   -2.8803   -1.3644 C   0  0  0  0  0  0  0  0  0  0  0  0
    3.6942   -3.0223   -0.4423 H   0  0  0  0  0  0  0  0  0  0  0  0
    2.7215   -3.8445   -1.6758 H   0  0  0  0  0  0  0  0  0  0  0  0
    3.8010   -2.5088   -2.1360 H   0  0  0  0  0  0  0  0  0  0  0  0
  5  6  2  0  0  0  0
  5  7  1  0  0  0  0
  2  3  1  0  0  0  0
  2  4  1  0  0  0  0
  2  5  1  0  0  0  0
  1  2  1  0  0  0  0
 12 13  2  0  0  0  0
 12 14  1  0  0  0  0
  9 10  1  0  0  0  0
  9 11  1  0  0  0  0
  9 12  1  0  0  0  0
  7  8  1  0  0  0  0
  7  9  1  0  0  0  0
 16 17  1  0  0  0  0
 16 18  1  0  0  0  0
 16 19  1  0  0  0  0
 14 15  1  0  0  0  0
 14 16  1  0  0  0  0
M  END
$$$$
default_name
  -OEChem-01062215323D

 19 18  0     0  0  0  0  0  0999 V2000
   -2.2056   -4.0049    0.0000 H   0  0  0  0  0  0  0  0  0  0  0  0
   -2.2496   -2.9169    0.0000 C   0  0  0  0  0  0  0  0  0  0  0  0
   -2.7696   -2.5709    0.8910 H   0  0  0  0  0  0  0  0  0  0  0  0
   -2.7696   -2.5709   -0.8910 H   0  0  0  0  0  0  0  0  0  0  0  0
   -0.8406   -2.3699    0.0000 C   0  0  0  0  0  0  0  0  0  0  0  0
    0.1164   -3.1329    0.0000 O   0  0  0  0  0  0  0  0  0  0  0  0
   -0.7136   -1.0459    0.0000 N   0  0  0  0  0  0  0  0  0  0  0  0
   -1.5436   -0.4719    0.0000 H   0  0  0  0  0  0  0  0  0  0  0  0
    0.5724   -0.3469    0.0000 C   0  0  0  0  0  0  0  0  0  0  0  0
    0.6354    0.2891   -0.8840 H   0  0  0  0  0  0  0  0  0  0  0  0
    0.6354    0.2891    0.8840 H   0  0  0  0  0  0  0  0  0  0  0  0
    1.7634   -1.3095    0.0000 C   0  0  0  0  0  0  0  0  0  0  0  0
    2.2466   -1.7000    1.0609 O   0  0  0  0  0  0  0  0  0  0  0  0
    2.2286   -1.6854   -1.1980 N   0  0  0  0  0  0  0  0  0  0  0  0
    1.7678   -1.3130   -2.0136 H   0  0  0  0  0  0  0  0  0  0  0  0
    3.3552   -2.5959   -1.4126 C   0  0  0  0  0  0  0  0  0  0  0  0
    3.7686   -2.9301   -0.4579 H   0  0  0  0  0  0  0  0  0  0  0  0
    3.0235   -3.4709   -1.9731 H   0  0  0  0  0  0  0  0  0  0  0  0
    4.1411   -2.0881   -1.9731 H   0  0  0  0  0  0  0  0  0  0  0  0
  5  6  2  0  0  0  0
  5  7  1  0  0  0  0
  2  3  1  0  0  0  0
  2  4  1  0  0  0  0
  2  5  1  0  0  0  0
  1  2  1  0  0  0  0
 12 13  2  0  0  0  0
 12 14  1  0  0  0  0
  9 10  1  0  0  0  0
  9 11  1  0  0  0  0
  9 12  1  0  0  0  0
  7  8  1  0  0  0  0
  7  9  1  0  0  0  0
 16 17  1  0  0  0  0
 16 18  1  0  0  0  0
 16 19  1  0  0  0  0
 14 15  1  0  0  0  0
 14 16  1  0  0  0  0
M  END
$$$$
default_name
  -OEChem-01062215323D

 19 18  0     0  0  0  0  0  0999 V2000
   -2.2056   -4.0049    0.0000 H   0  0  0  0  0  0  0  0  0  0  0  0
   -2.2496   -2.9169    0.0000 C   0  0  0  0  0  0  0  0  0  0  0  0
   -2.7696   -2.5709    0.8910 H   0  0  0  0  0  0  0  0  0  0  0  0
   -2.7696   -2.5709   -0.8910 H   0  0  0  0  0  0  0  0  0  0  0  0
   -0.8406   -2.3699    0.0000 C   0  0  0  0  0  0  0  0  0  0  0  0
    0.1164   -3.1329    0.0000 O   0  0  0  0  0  0  0  0  0  0  0  0
   -0.7136   -1.0459    0.0000 N   0  0  0  0  0  0  0  0  0  0  0  0
   -1.5436   -0.4719    0.0000 H   0  0  0  0  0  0  0  0  0  0  0  0
    0.5724   -0.3469    0.0000 C   0  0  0  0  0  0  0  0  0  0  0  0
    0.6354    0.2891   -0.8840 H   0  0  0  0  0  0  0  0  0  0  0  0
    0.6354    0.2891    0.8840 H   0  0  0  0  0  0  0  0  0  0  0  0
    1.7634   -1.3095    0.0000 C   0  0  0  0  0  0  0  0  0  0  0  0
    2.0740   -1.9135    1.0247 O   0  0  0  0  0  0  0  0  0  0  0  0
    2.4235   -1.4443   -1.1572 N   0  0  0  0  0  0  0  0  0  0  0  0
    2.0954   -0.9077   -1.9450 H   0  0  0  0  0  0  0  0  0  0  0  0
    3.5850   -2.3116   -1.3644 C   0  0  0  0  0  0  0  0  0  0  0  0
    3.8431   -2.8380   -0.4423 H   0  0  0  0  0  0  0  0  0  0  0  0
    3.3635   -3.0502   -2.1360 H   0  0  0  0  0  0  0  0  0  0  0  0
    4.4430   -1.7145   -1.6758 H   0  0  0  0  0  0  0  0  0  0  0  0
  5  6  2  0  0  0  0
  5  7  1  0  0  0  0
  2  3  1  0  0  0  0
  2  4  1  0  0  0  0
  2  5  1  0  0  0  0
  1  2  1  0  0  0  0
 12 13  2  0  0  0  0
 12 14  1  0  0  0  0
  9 10  1  0  0  0  0
  9 11  1  0  0  0  0
  9 12  1  0  0  0  0
  7  8  1  0  0  0  0
  7  9  1  0  0  0  0
 16 17  1  0  0  0  0
 16 18  1  0  0  0  0
 16 19  1  0  0  0  0
 14 15  1  0  0  0  0
 14 16  1  0  0  0  0
M  END
$$$$
default_name
  -OEChem-01062215323D

 19 18  0     0  0  0  0  0  0999 V2000
   -2.2056   -4.0049    0.0000 H   0  0  0  0  0  0  0  0  0  0  0  0
   -2.2496   -2.9169    0.0000 C   0  0  0  0  0  0  0  0  0  0  0  0
   -2.7696   -2.5709    0.8910 H   0  0  0  0  0  0  0  0  0  0  0  0
   -2.7696   -2.5709   -0.8910 H   0  0  0  0  0  0  0  0  0  0  0  0
   -0.8406   -2.3699    0.0000 C   0  0  0  0  0  0  0  0  0  0  0  0
    0.1164   -3.1329    0.0000 O   0  0  0  0  0  0  0  0  0  0  0  0
   -0.7136   -1.0459    0.0000 N   0  0  0  0  0  0  0  0  0  0  0  0
   -1.5436   -0.4719    0.0000 H   0  0  0  0  0  0  0  0  0  0  0  0
    0.5724   -0.3469    0.0000 C   0  0  0  0  0  0  0  0  0  0  0  0
    0.6354    0.2891   -0.8840 H   0  0  0  0  0  0  0  0  0  0  0  0
    0.6354    0.2891    0.8840 H   0  0  0  0  0  0  0  0  0  0  0  0
    1.7634   -1.3095    0.0000 C   0  0  0  0  0  0  0  0  0  0  0  0
    1.9131   -2.1125    0.9188 O   0  0  0  0  0  0  0  0  0  0  0  0
    2.6051   -1.2195   -1.0375 N   0  0  0  0  0  0  0  0  0  0  0  0
    2.4006   -0.5300   -1.7438 H   0  0  0  0  0  0  0  0  0  0  0  0
    3.7991   -2.0466   -1.2233 C   0  0  0  0  0  0  0  0  0  0  0  0
    3.9126   -2.7521   -0.3965 H   0  0  0  0  0  0  0  0  0  0  0  0
    3.7185   -2.6110   -2.1533 H   0  0  0  0  0  0  0  0  0  0  0  0
    4.6863   -1.4134   -1.2643 H   0  0  0  0  0  0  0  0  0  0  0  0
  5  6  2  0  0  0  0
  5  7  1  0  0  0  0
  2  3  1  0  0  0  0
  2  4  1  0  0  0  0
  2  5  1  0  0  0  0
  1  2  1  0  0  0  0
 12 13  2  0  0  0  0
 12 14  1  0  0  0  0
  9 10  1  0  0  0  0
  9 11  1  0  0  0  0
  9 12  1  0  0  0  0
  7  8  1  0  0  0  0
  7  9  1  0  0  0  0
 16 17  1  0  0  0  0
 16 18  1  0  0  0  0
 16 19  1  0  0  0  0
 14 15  1  0  0  0  0
 14 16  1  0  0  0  0
M  END
$$$$
default_name
  -OEChem-01062215323D

 19 18  0     0  0  0  0  0  0999 V2000
   -2.2056   -4.0049    0.0000 H   0  0  0  0  0  0  0  0  0  0  0  0
   -2.2496   -2.9169    0.0000 C   0  0  0  0  0  0  0  0  0  0  0  0
   -2.7696   -2.5709    0.8910 H   0  0  0  0  0  0  0  0  0  0  0  0
   -2.7696   -2.5709   -0.8910 H   0  0  0  0  0  0  0  0  0  0  0  0
   -0.8406   -2.3699    0.0000 C   0  0  0  0  0  0  0  0  0  0  0  0
    0.1164   -3.1329    0.0000 O   0  0  0  0  0  0  0  0  0  0  0  0
   -0.7136   -1.0459    0.0000 N   0  0  0  0  0  0  0  0  0  0  0  0
   -1.5436   -0.4719    0.0000 H   0  0  0  0  0  0  0  0  0  0  0  0
    0.5724   -0.3469    0.0000 C   0  0  0  0  0  0  0  0  0  0  0  0
    0.6354    0.2891   -0.8840 H   0  0  0  0  0  0  0  0  0  0  0  0
    0.6354    0.2891    0.8840 H   0  0  0  0  0  0  0  0  0  0  0  0
    1.7634   -1.3095    0.0000 C   0  0  0  0  0  0  0  0  0  0  0  0
    1.7750   -2.2834    0.7502 O   0  0  0  0  0  0  0  0  0  0  0  0
    2.7611   -1.0266   -0.8471 N   0  0  0  0  0  0  0  0  0  0  0  0
    2.6628   -0.2056   -1.4238 H   0  0  0  0  0  0  0  0  0  0  0  0
    3.9830   -1.8191   -0.9988 C   0  0  0  0  0  0  0  0  0  0  0  0
    3.9722   -2.6783   -0.3238 H   0  0  0  0  0  0  0  0  0  0  0  0
    4.0641   -2.1833   -2.0238 H   0  0  0  0  0  0  0  0  0  0  0  0
    4.8544   -1.2055   -0.7666 H   0  0  0  0  0  0  0  0  0  0  0  0
  5  6  2  0  0  0  0
  5  7  1  0  0  0  0
  2  3  1  0  0  0  0
  2  4  1  0  0  0  0
  2  5  1  0  0  0  0
  1  2  1  0  0  0  0
 12 13  2  0  0  0  0
 12 14  1  0  0  0  0
  9 10  1  0  0  0  0
  9 11  1  0  0  0  0
  9 12  1  0  0  0  0
  7  8  1  0  0  0  0
  7  9  1  0  0  0  0
 16 17  1  0  0  0  0
 16 18  1  0  0  0  0
 16 19  1  0  0  0  0
 14 15  1  0  0  0  0
 14 16  1  0  0  0  0
M  END
$$$$
default_name
  -OEChem-01062215323D

 19 18  0     0  0  0  0  0  0999 V2000
   -2.2056   -4.0049    0.0000 H   0  0  0  0  0  0  0  0  0  0  0  0
   -2.2496   -2.9169    0.0000 C   0  0  0  0  0  0  0  0  0  0  0  0
   -2.7696   -2.5709    0.8910 H   0  0  0  0  0  0  0  0  0  0  0  0
   -2.7696   -2.5709   -0.8910 H   0  0  0  0  0  0  0  0  0  0  0  0
   -0.8406   -2.3699    0.0000 C   0  0  0  0  0  0  0  0  0  0  0  0
    0.1164   -3.1329    0.0000 O   0  0  0  0  0  0  0  0  0  0  0  0
   -0.7136   -1.0459    0.0000 N   0  0  0  0  0  0  0  0  0  0  0  0
   -1.5436   -0.4719    0.0000 H   0  0  0  0  0  0  0  0  0  0  0  0
    0.5724   -0.3469    0.0000 C   0  0  0  0  0  0  0  0  0  0  0  0
    0.6354    0.2891   -0.8840 H   0  0  0  0  0  0  0  0  0  0  0  0
    0.6354    0.2891    0.8840 H   0  0  0  0  0  0  0  0  0  0  0  0
    1.7634   -1.3095    0.0000 C   0  0  0  0  0  0  0  0  0  0  0  0
    1.6691   -2.4146    0.5304 O   0  0  0  0  0  0  0  0  0  0  0  0
    2.8807   -0.8785   -0.5990 N   0  0  0  0  0  0  0  0  0  0  0  0
    2.8639    0.0432   -1.0068 H   0  0  0  0  0  0  0  0  0  0  0  0
    4.1241   -1.6445   -0.7063 C   0  0  0  0  0  0  0  0  0  0  0  0
    4.0179   -2.6217   -0.2289 H   0  0  0  0  0  0  0  0  0  0  0  0
    4.3770   -1.7962   -1.7565 H   0  0  0  0  0  0  0  0  0  0  0  0
    4.9358   -1.1048   -0.2167 H   0  0  0  0  0  0  0  0  0  0  0  0
  5  6  2  0  0  0  0
  5  7  1  0  0  0  0
  2  3  1  0  0  0  0
  2  4  1  0  0  0  0
  2  5  1  0  0  0  0
  1  2  1  0  0  0  0
 12 13  2  0  0  0  0
 12 14  1  0  0  0  0
  9 10  1  0  0  0  0
  9 11  1  0  0  0  0
  9 12  1  0  0  0  0
  7  8  1  0  0  0  0
  7  9  1  0  0  0  0
 16 17  1  0  0  0  0
 16 18  1  0  0  0  0
 16 19  1  0  0  0  0
 14 15  1  0  0  0  0
 14 16  1  0  0  0  0
M  END
$$$$
default_name
  -OEChem-01062215323D

 19 18  0     0  0  0  0  0  0999 V2000
   -2.2056   -4.0049    0.0000 H   0  0  0  0  0  0  0  0  0  0  0  0
   -2.2496   -2.9169    0.0000 C   0  0  0  0  0  0  0  0  0  0  0  0
   -2.7696   -2.5709    0.8910 H   0  0  0  0  0  0  0  0  0  0  0  0
   -2.7696   -2.5709   -0.8910 H   0  0  0  0  0  0  0  0  0  0  0  0
   -0.8406   -2.3699    0.0000 C   0  0  0  0  0  0  0  0  0  0  0  0
    0.1164   -3.1329    0.0000 O   0  0  0  0  0  0  0  0  0  0  0  0
   -0.7136   -1.0459    0.0000 N   0  0  0  0  0  0  0  0  0  0  0  0
   -1.5436   -0.4719    0.0000 H   0  0  0  0  0  0  0  0  0  0  0  0
    0.5724   -0.3469    0.0000 C   0  0  0  0  0  0  0  0  0  0  0  0
    0.6354    0.2891   -0.8840 H   0  0  0  0  0  0  0  0  0  0  0  0
    0.6354    0.2891    0.8840 H   0  0  0  0  0  0  0  0  0  0  0  0
    1.7634   -1.3095    0.0000 C   0  0  0  0  0  0  0  0  0  0  0  0
    1.6024   -2.4970    0.2746 O   0  0  0  0  0  0  0  0  0  0  0  0
    2.9560   -0.7854   -0.3101 N   0  0  0  0  0  0  0  0  0  0  0  0
    2.9904    0.1997   -0.5212 H   0  0  0  0  0  0  0  0  0  0  0  0
    4.2128   -1.5348   -0.3656 C   0  0  0  0  0  0  0  0  0  0  0  0
    4.0467   -2.5861   -0.1185 H   0  0  0  0  0  0  0  0  0  0  0  0
    4.6357   -1.4761   -1.3694 H   0  0  0  0  0  0  0  0  0  0  0  0
    4.9249   -1.1182    0.3480 H   0  0  0  0  0  0  0  0  0  0  0  0
  5  6  2  0  0  0  0
  5  7  1  0  0  0  0
  2  3  1  0  0  0  0
  2  4  1  0  0  0  0
  2  5  1  0  0  0  0
  1  2  1  0  0  0  0
 12 13  2  0  0  0  0
 12 14  1  0  0  0  0
  9 10  1  0  0  0  0
  9 11  1  0  0  0  0
  9 12  1  0  0  0  0
  7  8  1  0  0  0  0
  7  9  1  0  0  0  0
 16 17  1  0  0  0  0
 16 18  1  0  0  0  0
 16 19  1  0  0  0  0
 14 15  1  0  0  0  0
 14 16  1  0  0  0  0
M  END
$$$$
default_name
  -OEChem-01062215323D

 19 18  0     0  0  0  0  0  0999 V2000
   -2.2056   -4.0049    0.0000 H   0  0  0  0  0  0  0  0  0  0  0  0
   -2.2496   -2.9169    0.0000 C   0  0  0  0  0  0  0  0  0  0  0  0
   -2.7696   -2.5709    0.8910 H   0  0  0  0  0  0  0  0  0  0  0  0
   -2.7696   -2.5709   -0.8910 H   0  0  0  0  0  0  0  0  0  0  0  0
   -0.8406   -2.3699    0.0000 C   0  0  0  0  0  0  0  0  0  0  0  0
    0.1164   -3.1329    0.0000 O   0  0  0  0  0  0  0  0  0  0  0  0
   -0.7136   -1.0459    0.0000 N   0  0  0  0  0  0  0  0  0  0  0  0
   -1.5436   -0.4719    0.0000 H   0  0  0  0  0  0  0  0  0  0  0  0
    0.5724   -0.3469    0.0000 C   0  0  0  0  0  0  0  0  0  0  0  0
    0.5348    0.4743   -0.7170 H   0  0  0  0  0  0  0  0  0  0  0  0
    0.7533    0.0723    0.9907 H   0  0  0  0  0  0  0  0  0  0  0  0
    1.7404   -1.2671   -0.3661 C   0  0  0  0  0  0  0  0  0  0  0  0
    1.5407   -2.4534   -0.6198 O   0  0  0  0  0  0  0  0  0  0  0  0
    2.9571   -0.7085   -0.3903 N   0  0  0  0  0  0  0  0  0  0  0  0
    3.0229    0.2725   -0.1678 H   0  0  0  0  0  0  0  0  0  0  0  0
    4.1981   -1.4146   -0.7153 C   0  0  0  0  0  0  0  0  0  0  0  0
    3.9975   -2.4656   -0.9371 H   0  0  0  0  0  0  0  0  0  0  0  0
    4.6668   -0.9584   -1.5882 H   0  0  0  0  0  0  0  0  0  0  0  0
    4.8866   -1.3627    0.1292 H   0  0  0  0  0  0  0  0  0  0  0  0
  5  6  2  0  0  0  0
  5  7  1  0  0  0  0
  2  3  1  0  0  0  0
  2  4  1  0  0  0  0
  2  5  1  0  0  0  0
  1  2  1  0  0  0  0
 12 13  2  0  0  0  0
 12 14  1  0  0  0  0
  9 10  1  0  0  0  0
  9 11  1  0  0  0  0
  9 12  1  0  0  0  0
  7  8  1  0  0  0  0
  7  9  1  0  0  0  0
 16 17  1  0  0  0  0
 16 18  1  0  0  0  0
 16 19  1  0  0  0  0
 14 15  1  0  0  0  0
 14 16  1  0  0  0  0
M  END
$$$$
default_name
  -OEChem-01062215323D

 19 18  0     0  0  0  0  0  0999 V2000
   -2.2056   -4.0049    0.0000 H   0  0  0  0  0  0  0  0  0  0  0  0
   -2.2496   -2.9169    0.0000 C   0  0  0  0  0  0  0  0  0  0  0  0
   -2.7696   -2.5709    0.8910 H   0  0  0  0  0  0  0  0  0  0  0  0
   -2.7696   -2.5709   -0.8910 H   0  0  0  0  0  0  0  0  0  0  0  0
   -0.8406   -2.3699    0.0000 C   0  0  0  0  0  0  0  0  0  0  0  0
    0.1164   -3.1329    0.0000 O   0  0  0  0  0  0  0  0  0  0  0  0
   -0.7136   -1.0459    0.0000 N   0  0  0  0  0  0  0  0  0  0  0  0
   -1.5436   -0.4719    0.0000 H   0  0  0  0  0  0  0  0  0  0  0  0
    0.5724   -0.3469    0.0000 C   0  0  0  0  0  0  0  0  0  0  0  0
    0.5348    0.4743   -0.7170 H   0  0  0  0  0  0  0  0  0  0  0  0
    0.7533    0.0723    0.9907 H   0  0  0  0  0  0  0  0  0  0  0  0
    1.7404   -1.2671   -0.3661 C   0  0  0  0  0  0  0  0  0  0  0  0
    1.5298   -2.3633   -0.8815 O   0  0  0  0  0  0  0  0  0  0  0  0
    2.9695   -0.8103   -0.0948 N   0  0  0  0  0  0  0  0  0  0  0  0
    3.0438    0.1014    0.3288 H   0  0  0  0  0  0  0  0  0  0  0  0
    4.2127   -1.5346   -0.3669 C   0  0  0  0  0  0  0  0  0  0  0  0
    4.0023   -2.5045   -0.8242 H   0  0  0  0  0  0  0  0  0  0  0  0
    4.8370   -0.9566   -1.0495 H   0  0  0  0  0  0  0  0  0  0  0  0
    4.7572   -1.6997    0.5637 H   0  0  0  0  0  0  0  0  0  0  0  0
  5  6  2  0  0  0  0
  5  7  1  0  0  0  0
  2  3  1  0  0  0  0
  2  4  1  0  0  0  0
  2  5  1  0  0  0  0
  1  2  1  0  0  0  0
 12 13  2  0  0  0  0
 12 14  1  0  0  0  0
  9 10  1  0  0  0  0
  9 11  1  0  0  0  0
  9 12  1  0  0  0  0
  7  8  1  0  0  0  0
  7  9  1  0  0  0  0
 16 17  1  0  0  0  0
 16 18  1  0  0  0  0
 16 19  1  0  0  0  0
 14 15  1  0  0  0  0
 14 16  1  0  0  0  0
M  END
$$$$
default_name
  -OEChem-01062215323D

 19 18  0     0  0  0  0  0  0999 V2000
   -2.2056   -4.0049    0.0000 H   0  0  0  0  0  0  0  0  0  0  0  0
   -2.2496   -2.9169    0.0000 C   0  0  0  0  0  0  0  0  0  0  0  0
   -2.7696   -2.5709    0.8910 H   0  0  0  0  0  0  0  0  0  0  0  0
   -2.7696   -2.5709   -0.8910 H   0  0  0  0  0  0  0  0  0  0  0  0
   -0.8406   -2.3699    0.0000 C   0  0  0  0  0  0  0  0  0  0  0  0
    0.1164   -3.1329    0.0000 O   0  0  0  0  0  0  0  0  0  0  0  0
   -0.7136   -1.0459    0.0000 N   0  0  0  0  0  0  0  0  0  0  0  0
   -1.5436   -0.4719    0.0000 H   0  0  0  0  0  0  0  0  0  0  0  0
    0.5724   -0.3469    0.0000 C   0  0  0  0  0  0  0  0  0  0  0  0
    0.5348    0.4743   -0.7170 H   0  0  0  0  0  0  0  0  0  0  0  0
    0.7533    0.0723    0.9907 H   0  0  0  0  0  0  0  0  0  0  0  0
    1.7404   -1.2671   -0.3661 C   0  0  0  0  0  0  0  0  0  0  0  0
    1.5654   -2.2239   -1.1181 O   0  0  0  0  0  0  0  0  0  0  0  0
    2.9292   -0.9677    0.1724 N   0  0  0  0  0  0  0  0  0  0  0  0
    2.9761   -0.1632    0.7780 H   0  0  0  0  0  0  0  0  0  0  0  0
    4.1652   -1.7202   -0.0519 C   0  0  0  0  0  0  0  0  0  0  0  0
    3.9869   -2.5647   -0.7220 H   0  0  0  0  0  0  0  0  0  0  0  0
    4.9178   -1.0717   -0.5024 H   0  0  0  0  0  0  0  0  0  0  0  0
    4.5438   -2.1031    0.8968 H   0  0  0  0  0  0  0  0  0  0  0  0
  5  6  2  0  0  0  0
  5  7  1  0  0  0  0
  2  3  1  0  0  0  0
  2  4  1  0  0  0  0
  2  5  1  0  0  0  0
  1  2  1  0  0  0  0
 12 13  2  0  0  0  0
 12 14  1  0  0  0  0
  9 10  1  0  0  0  0
  9 11  1  0  0  0  0
  9 12  1  0  0  0  0
  7  8  1  0  0  0  0
  7  9  1  0  0  0  0
 16 17  1  0  0  0  0
 16 18  1  0  0  0  0
 16 19  1  0  0  0  0
 14 15  1  0  0  0  0
 14 16  1  0  0  0  0
M  END
$$$$
default_name
  -OEChem-01062215323D

 19 18  0     0  0  0  0  0  0999 V2000
   -2.2056   -4.0049    0.0000 H   0  0  0  0  0  0  0  0  0  0  0  0
   -2.2496   -2.9169    0.0000 C   0  0  0  0  0  0  0  0  0  0  0  0
   -2.7696   -2.5709    0.8910 H   0  0  0  0  0  0  0  0  0  0  0  0
   -2.7696   -2.5709   -0.8910 H   0  0  0  0  0  0  0  0  0  0  0  0
   -0.8406   -2.3699    0.0000 C   0  0  0  0  0  0  0  0  0  0  0  0
    0.1164   -3.1329    0.0000 O   0  0  0  0  0  0  0  0  0  0  0  0
   -0.7136   -1.0459    0.0000 N   0  0  0  0  0  0  0  0  0  0  0  0
   -1.5436   -0.4719    0.0000 H   0  0  0  0  0  0  0  0  0  0  0  0
    0.5724   -0.3469    0.0000 C   0  0  0  0  0  0  0  0  0  0  0  0
    0.5348    0.4743   -0.7170 H   0  0  0  0  0  0  0  0  0  0  0  0
    0.7533    0.0723    0.9907 H   0  0  0  0  0  0  0  0  0  0  0  0
    1.7404   -1.2671   -0.3661 C   0  0  0  0  0  0  0  0  0  0  0  0
    1.6453   -2.0447   -1.3136 O   0  0  0  0  0  0  0  0  0  0  0  0
    2.8390   -1.1700    0.3932 N   0  0  0  0  0  0  0  0  0  0  0  0
    2.8245   -0.5033    1.1491 H   0  0  0  0  0  0  0  0  0  0  0  0
    4.0589   -1.9587    0.2085 C   0  0  0  0  0  0  0  0  0  0  0  0
    3.9524   -2.6420   -0.6376 H   0  0  0  0  0  0  0  0  0  0  0  0
    4.9036   -1.2960    0.0160 H   0  0  0  0  0  0  0  0  0  0  0  0
    4.2609   -2.5453    1.1057 H   0  0  0  0  0  0  0  0  0  0  0  0
  5  6  2  0  0  0  0
  5  7  1  0  0  0  0
  2  3  1  0  0  0  0
  2  4  1  0  0  0  0
  2  5  1  0  0  0  0
  1  2  1  0  0  0  0
 12 13  2  0  0  0  0
 12 14  1  0  0  0  0
  9 10  1  0  0  0  0
  9 11  1  0  0  0  0
  9 12  1  0  0  0  0
  7  8  1  0  0  0  0
  7  9  1  0  0  0  0
 16 17  1  0  0  0  0
 16 18  1  0  0  0  0
 16 19  1  0  0  0  0
 14 15  1  0  0  0  0
 14 16  1  0  0  0  0
M  END
$$$$
default_name
  -OEChem-01062215323D

 19 18  0     0  0  0  0  0  0999 V2000
   -2.2056   -4.0049    0.0000 H   0  0  0  0  0  0  0  0  0  0  0  0
   -2.2496   -2.9169    0.0000 C   0  0  0  0  0  0  0  0  0  0  0  0
   -2.7696   -2.5709    0.8910 H   0  0  0  0  0  0  0  0  0  0  0  0
   -2.7696   -2.5709   -0.8910 H   0  0  0  0  0  0  0  0  0  0  0  0
   -0.8406   -2.3699    0.0000 C   0  0  0  0  0  0  0  0  0  0  0  0
    0.1164   -3.1329    0.0000 O   0  0  0  0  0  0  0  0  0  0  0  0
   -0.7136   -1.0459    0.0000 N   0  0  0  0  0  0  0  0  0  0  0  0
   -1.5436   -0.4719    0.0000 H   0  0  0  0  0  0  0  0  0  0  0  0
    0.5724   -0.3469    0.0000 C   0  0  0  0  0  0  0  0  0  0  0  0
    0.5348    0.4743   -0.7170 H   0  0  0  0  0  0  0  0  0  0  0  0
    0.7533    0.0723    0.9907 H   0  0  0  0  0  0  0  0  0  0  0  0
    1.7404   -1.2671   -0.3661 C   0  0  0  0  0  0  0  0  0  0  0  0
    1.7639   -1.8380   -1.4547 O   0  0  0  0  0  0  0  0  0  0  0  0
    2.7051   -1.4035    0.5525 N   0  0  0  0  0  0  0  0  0  0  0  0
    2.5994   -0.8956    1.4168 H   0  0  0  0  0  0  0  0  0  0  0  0
    3.9009   -2.2340    0.3963 C   0  0  0  0  0  0  0  0  0  0  0  0
    3.9012   -2.7312   -0.5768 H   0  0  0  0  0  0  0  0  0  0  0  0
    4.7954   -1.6140    0.4702 H   0  0  0  0  0  0  0  0  0  0  0  0
    3.9278   -2.9961    1.1762 H   0  0  0  0  0  0  0  0  0  0  0  0
  5  6  2  0  0  0  0
  5  7  1  0  0  0  0
  2  3  1  0  0  0  0
  2  4  1  0  0  0  0
  2  5  1  0  0  0  0
  1  2  1  0  0  0  0
 12 13  2  0  0  0  0
 12 14  1  0  0  0  0
  9 10  1  0  0  0  0
  9 11  1  0  0  0  0
  9 12  1  0  0  0  0
  7  8  1  0  0  0  0
  7  9  1  0  0  0  0
 16 17  1  0  0  0  0
 16 18  1  0  0  0  0
 16 19  1  0  0  0  0
 14 15  1  0  0  0  0
 14 16  1  0  0  0  0
M  END
$$$$
default_name
  -OEChem-01062215323D

 19 18  0     0  0  0  0  0  0999 V2000
   -2.2056   -4.0049    0.0000 H   0  0  0  0  0  0  0  0  0  0  0  0
   -2.2496   -2.9169    0.0000 C   0  0  0  0  0  0  0  0  0  0  0  0
   -2.7696   -2.5709    0.8910 H   0  0  0  0  0  0  0  0  0  0  0  0
   -2.7696   -2.5709   -0.8910 H   0  0  0  0  0  0  0  0  0  0  0  0
   -0.8406   -2.3699    0.0000 C   0  0  0  0  0  0  0  0  0  0  0  0
    0.1164   -3.1329    0.0000 O   0  0  0  0  0  0  0  0  0  0  0  0
   -0.7136   -1.0459    0.0000 N   0  0  0  0  0  0  0  0  0  0  0  0
   -1.5436   -0.4719    0.0000 H   0  0  0  0  0  0  0  0  0  0  0  0
    0.5724   -0.3469    0.0000 C   0  0  0  0  0  0  0  0  0  0  0  0
    0.5348    0.4743   -0.7170 H   0  0  0  0  0  0  0  0  0  0  0  0
    0.7533    0.0723    0.9907 H   0  0  0  0  0  0  0  0  0  0  0  0
    1.7404   -1.2671   -0.3661 C   0  0  0  0  0  0  0  0  0  0  0  0
    1.9132   -1.6178   -1.5317 O   0  0  0  0  0  0  0  0  0  0  0  0
    2.5364   -1.6521    0.6395 N   0  0  0  0  0  0  0  0  0  0  0  0
    2.3159   -1.3135    1.5629 H   0  0  0  0  0  0  0  0  0  0  0  0
    3.7021   -2.5271    0.4988 C   0  0  0  0  0  0  0  0  0  0  0  0
    3.8368   -2.8262   -0.5435 H   0  0  0  0  0  0  0  0  0  0  0  0
    4.6005   -2.0042    0.8293 H   0  0  0  0  0  0  0  0  0  0  0  0
    3.5672   -3.4249    1.1035 H   0  0  0  0  0  0  0  0  0  0  0  0
  5  6  2  0  0  0  0
  5  7  1  0  0  0  0
  2  3  1  0  0  0  0
  2  4  1  0  0  0  0
  2  5  1  0  0  0  0
  1  2  1  0  0  0  0
 12 13  2  0  0  0  0
 12 14  1  0  0  0  0
  9 10  1  0  0  0  0
  9 11  1  0  0  0  0
  9 12  1  0  0  0  0
  7  8  1  0  0  0  0
  7  9  1  0  0  0  0
 16 17  1  0  0  0  0
 16 18  1  0  0  0  0
 16 19  1  0  0  0  0
 14 15  1  0  0  0  0
 14 16  1  0  0  0  0
M  END
$$$$
default_name
  -OEChem-01062215323D

 19 18  0     0  0  0  0  0  0999 V2000
   -2.2056   -4.0049    0.0000 H   0  0  0  0  0  0  0  0  0  0  0  0
   -2.2496   -2.9169    0.0000 C   0  0  0  0  0  0  0  0  0  0  0  0
   -2.7696   -2.5709    0.8910 H   0  0  0  0  0  0  0  0  0  0  0  0
   -2.7696   -2.5709   -0.8910 H   0  0  0  0  0  0  0  0  0  0  0  0
   -0.8406   -2.3699    0.0000 C   0  0  0  0  0  0  0  0  0  0  0  0
    0.1164   -3.1329    0.0000 O   0  0  0  0  0  0  0  0  0  0  0  0
   -0.7136   -1.0459    0.0000 N   0  0  0  0  0  0  0  0  0  0  0  0
   -1.5436   -0.4719    0.0000 H   0  0  0  0  0  0  0  0  0  0  0  0
    0.5724   -0.3469    0.0000 C   0  0  0  0  0  0  0  0  0  0  0  0
    0.5348    0.4743   -0.7170 H   0  0  0  0  0  0  0  0  0  0  0  0
    0.7533    0.0723    0.9907 H   0  0  0  0  0  0  0  0  0  0  0  0
    1.7404   -1.2671   -0.3661 C   0  0  0  0  0  0  0  0  0  0  0  0
    2.0831   -1.3992   -1.5394 O   0  0  0  0  0  0  0  0  0  0  0  0
    2.3446   -1.8990    0.6481 N   0  0  0  0  0  0  0  0  0  0  0  0
    1.9936   -1.7284    1.5775 H   0  0  0  0  0  0  0  0  0  0  0  0
    3.4760   -2.8182    0.5090 C   0  0  0  0  0  0  0  0  0  0  0  0
    3.7635   -2.9206   -0.5402 H   0  0  0  0  0  0  0  0  0  0  0  0
    4.3323   -2.4400    1.0689 H   0  0  0  0  0  0  0  0  0  0  0  0
    3.2036   -3.8024    0.8925 H   0  0  0  0  0  0  0  0  0  0  0  0
  5  6  2  0  0  0  0
  5  7  1  0  0  0  0
  2  3  1  0  0  0  0
  2  4  1  0  0  0  0
  2  5  1  0  0  0  0
  1  2  1  0  0  0  0
 12 13  2  0  0  0  0
 12 14  1  0  0  0  0
  9 10  1  0  0  0  0
  9 11  1  0  0  0  0
  9 12  1  0  0  0  0
  7  8  1  0  0  0  0
  7  9  1  0  0  0  0
 16 17  1  0  0  0  0
 16 18  1  0  0  0  0
 16 19  1  0  0  0  0
 14 15  1  0  0  0  0
 14 16  1  0  0  0  0
M  END
$$$$
default_name
  -OEChem-01062215323D

 19 18  0     0  0  0  0  0  0999 V2000
   -2.2056   -4.0049    0.0000 H   0  0  0  0  0  0  0  0  0  0  0  0
   -2.2496   -2.9169    0.0000 C   0  0  0  0  0  0  0  0  0  0  0  0
   -2.7696   -2.5709    0.8910 H   0  0  0  0  0  0  0  0  0  0  0  0
   -2.7696   -2.5709   -0.8910 H   0  0  0  0  0  0  0  0  0  0  0  0
   -0.8406   -2.3699    0.0000 C   0  0  0  0  0  0  0  0  0  0  0  0
    0.1164   -3.1329    0.0000 O   0  0  0  0  0  0  0  0  0  0  0  0
   -0.7136   -1.0459    0.0000 N   0  0  0  0  0  0  0  0  0  0  0  0
   -1.5436   -0.4719    0.0000 H   0  0  0  0  0  0  0  0  0  0  0  0
    0.5724   -0.3469    0.0000 C   0  0  0  0  0  0  0  0  0  0  0  0
    0.5348    0.4743   -0.7170 H   0  0  0  0  0  0  0  0  0  0  0  0
    0.7533    0.0723    0.9907 H   0  0  0  0  0  0  0  0  0  0  0  0
    1.7404   -1.2671   -0.3661 C   0  0  0  0  0  0  0  0  0  0  0  0
    2.2619   -1.1970   -1.4772 O   0  0  0  0  0  0  0  0  0  0  0  0
    2.1428   -2.1273    0.5780 N   0  0  0  0  0  0  0  0  0  0  0  0
    1.6543   -2.1122    1.4596 H   0  0  0  0  0  0  0  0  0  0  0  0
    3.2379   -3.0874    0.4263 C   0  0  0  0  0  0  0  0  0  0  0  0
    3.6863   -3.0079   -0.5670 H   0  0  0  0  0  0  0  0  0  0  0  0
    4.0090   -2.8915    1.1725 H   0  0  0  0  0  0  0  0  0  0  0  0
    2.8619   -4.1029    0.5577 H   0  0  0  0  0  0  0  0  0  0  0  0
  5  6  2  0  0  0  0
  5  7  1  0  0  0  0
  2  3  1  0  0  0  0
  2  4  1  0  0  0  0
  2  5  1  0  0  0  0
  1  2  1  0  0  0  0
 12 13  2  0  0  0  0
 12 14  1  0  0  0  0
  9 10  1  0  0  0  0
  9 11  1  0  0  0  0
  9 12  1  0  0  0  0
  7  8  1  0  0  0  0
  7  9  1  0  0  0  0
 16 17  1  0  0  0  0
 16 18  1  0  0  0  0
 16 19  1  0  0  0  0
 14 15  1  0  0  0  0
 14 16  1  0  0  0  0
M  END
$$$$
default_name
  -OEChem-01062215323D

 19 18  0     0  0  0  0  0  0999 V2000
   -2.2056   -4.0049    0.0000 H   0  0  0  0  0  0  0  0  0  0  0  0
   -2.2496   -2.9169    0.0000 C   0  0  0  0  0  0  0  0  0  0  0  0
   -2.7696   -2.5709    0.8910 H   0  0  0  0  0  0  0  0  0  0  0  0
   -2.7696   -2.5709   -0.8910 H   0  0  0  0  0  0  0  0  0  0  0  0
   -0.8406   -2.3699    0.0000 C   0  0  0  0  0  0  0  0  0  0  0  0
    0.1164   -3.1329    0.0000 O   0  0  0  0  0  0  0  0  0  0  0  0
   -0.7136   -1.0459    0.0000 N   0  0  0  0  0  0  0  0  0  0  0  0
   -1.5436   -0.4719    0.0000 H   0  0  0  0  0  0  0  0  0  0  0  0
    0.5724   -0.3469    0.0000 C   0  0  0  0  0  0  0  0  0  0  0  0
    0.5348    0.4743   -0.7170 H   0  0  0  0  0  0  0  0  0  0  0  0
    0.7533    0.0723    0.9907 H   0  0  0  0  0  0  0  0  0  0  0  0
    1.7404   -1.2671   -0.3661 C   0  0  0  0  0  0  0  0  0  0  0  0
    2.4374   -1.0251   -1.3495 O   0  0  0  0  0  0  0  0  0  0  0  0
    1.9445   -2.3215    0.4337 N   0  0  0  0  0  0  0  0  0  0  0  0
    1.3211   -2.4386    1.2171 H   0  0  0  0  0  0  0  0  0  0  0  0
    3.0042   -3.3164    0.2562 C   0  0  0  0  0  0  0  0  0  0  0  0
    3.6106   -3.0821   -0.6222 H   0  0  0  0  0  0  0  0  0  0  0  0
    3.6527   -3.3282    1.1332 H   0  0  0  0  0  0  0  0  0  0  0  0
    2.5654   -4.3059    0.1218 H   0  0  0  0  0  0  0  0  0  0  0  0
  5  6  2  0  0  0  0
  5  7  1  0  0  0  0
  2  3  1  0  0  0  0
  2  4  1  0  0  0  0
  2  5  1  0  0  0  0
  1  2  1  0  0  0  0
 12 13  2  0  0  0  0
 12 14  1  0  0  0  0
  9 10  1  0  0  0  0
  9 11  1  0  0  0  0
  9 12  1  0  0  0  0
  7  8  1  0  0  0  0
  7  9  1  0  0  0  0
 16 17  1  0  0  0  0
 16 18  1  0  0  0  0
 16 19  1  0  0  0  0
 14 15  1  0  0  0  0
 14 16  1  0  0  0  0
M  END
$$$$
default_name
  -OEChem-01062215323D

 19 18  0     0  0  0  0  0  0999 V2000
   -2.2056   -4.0049    0.0000 H   0  0  0  0  0  0  0  0  0  0  0  0
   -2.2496   -2.9169    0.0000 C   0  0  0  0  0  0  0  0  0  0  0  0
   -2.7696   -2.5709    0.8910 H   0  0  0  0  0  0  0  0  0  0  0  0
   -2.7696   -2.5709   -0.8910 H   0  0  0  0  0  0  0  0  0  0  0  0
   -0.8406   -2.3699    0.0000 C   0  0  0  0  0  0  0  0  0  0  0  0
    0.1164   -3.1329    0.0000 O   0  0  0  0  0  0  0  0  0  0  0  0
   -0.7136   -1.0459    0.0000 N   0  0  0  0  0  0  0  0  0  0  0  0
   -1.5436   -0.4719    0.0000 H   0  0  0  0  0  0  0  0  0  0  0  0
    0.5724   -0.3469    0.0000 C   0  0  0  0  0  0  0  0  0  0  0  0
    0.5348    0.4743   -0.7170 H   0  0  0  0  0  0  0  0  0  0  0  0
    0.7533    0.0723    0.9907 H   0  0  0  0  0  0  0  0  0  0  0  0
    1.7404   -1.2671   -0.3661 C   0  0  0  0  0  0  0  0  0  0  0  0
    2.5977   -0.8950   -1.1648 O   0  0  0  0  0  0  0  0  0  0  0  0
    1.7635   -2.4683    0.2252 N   0  0  0  0  0  0  0  0  0  0  0  0
    1.0168   -2.6854    0.8667 H   0  0  0  0  0  0  0  0  0  0  0  0
    2.7908   -3.4895    0.0104 C   0  0  0  0  0  0  0  0  0  0  0  0
    3.5414   -3.1382   -0.7019 H   0  0  0  0  0  0  0  0  0  0  0  0
    3.2876   -3.7201    0.9537 H   0  0  0  0  0  0  0  0  0  0  0  0
    2.3341   -4.3976   -0.3854 H   0  0  0  0  0  0  0  0  0  0  0  0
  5  6  2  0  0  0  0
  5  7  1  0  0  0  0
  2  3  1  0  0  0  0
  2  4  1  0  0  0  0
  2  5  1  0  0  0  0
  1  2  1  0  0  0  0
 12 13  2  0  0  0  0
 12 14  1  0  0  0  0
  9 10  1  0  0  0  0
  9 11  1  0  0  0  0
  9 12  1  0  0  0  0
  7  8  1  0  0  0  0
  7  9  1  0  0  0  0
 16 17  1  0  0  0  0
 16 18  1  0  0  0  0
 16 19  1  0  0  0  0
 14 15  1  0  0  0  0
 14 16  1  0  0  0  0
M  END
$$$$
default_name
  -OEChem-01062215323D

 19 18  0     0  0  0  0  0  0999 V2000
   -2.2056   -4.0049    0.0000 H   0  0  0  0  0  0  0  0  0  0  0  0
   -2.2496   -2.9169    0.0000 C   0  0  0  0  0  0  0  0  0  0  0  0
   -2.7696   -2.5709    0.8910 H   0  0  0  0  0  0  0  0  0  0  0  0
   -2.7696   -2.5709   -0.8910 H   0  0  0  0  0  0  0  0  0  0  0  0
   -0.8406   -2.3699    0.0000 C   0  0  0  0  0  0  0  0  0  0  0  0
    0.1164   -3.1329    0.0000 O   0  0  0  0  0  0  0  0  0  0  0  0
   -0.7136   -1.0459    0.0000 N   0  0  0  0  0  0  0  0  0  0  0  0
   -1.5436   -0.4719    0.0000 H   0  0  0  0  0  0  0  0  0  0  0  0
    0.5724   -0.3469    0.0000 C   0  0  0  0  0  0  0  0  0  0  0  0
    0.5348    0.4743   -0.7170 H   0  0  0  0  0  0  0  0  0  0  0  0
    0.7533    0.0723    0.9907 H   0  0  0  0  0  0  0  0  0  0  0  0
    1.7404   -1.2671   -0.3661 C   0  0  0  0  0  0  0  0  0  0  0  0
    2.7319   -0.8158   -0.9359 O   0  0  0  0  0  0  0  0  0  0  0  0
    1.6120   -2.5578   -0.0334 N   0  0  0  0  0  0  0  0  0  0  0  0
    0.7621   -2.8357    0.4321 H   0  0  0  0  0  0  0  0  0  0  0  0
    2.6121   -3.5950   -0.2945 C   0  0  0  0  0  0  0  0  0  0  0  0
    3.4834   -3.1724   -0.8007 H   0  0  0  0  0  0  0  0  0  0  0  0
    2.9386   -4.0407    0.6460 H   0  0  0  0  0  0  0  0  0  0  0  0
    2.1840   -4.3718   -0.9294 H   0  0  0  0  0  0  0  0  0  0  0  0
  5  6  2  0  0  0  0
  5  7  1  0  0  0  0
  2  3  1  0  0  0  0
  2  4  1  0  0  0  0
  2  5  1  0  0  0  0
  1  2  1  0  0  0  0
 12 13  2  0  0  0  0
 12 14  1  0  0  0  0
  9 10  1  0  0  0  0
  9 11  1  0  0  0  0
  9 12  1  0  0  0  0
  7  8  1  0  0  0  0
  7  9  1  0  0  0  0
 16 17  1  0  0  0  0
 16 18  1  0  0  0  0
 16 19  1  0  0  0  0
 14 15  1  0  0  0  0
 14 16  1  0  0  0  0
M  END
$$$$
default_name
  -OEChem-01062215323D

 19 18  0     0  0  0  0  0  0999 V2000
   -2.2056   -4.0049    0.0000 H   0  0  0  0  0  0  0  0  0  0  0  0
   -2.2496   -2.9169    0.0000 C   0  0  0  0  0  0  0  0  0  0  0  0
   -2.7696   -2.5709    0.8910 H   0  0  0  0  0  0  0  0  0  0  0  0
   -2.7696   -2.5709   -0.8910 H   0  0  0  0  0  0  0  0  0  0  0  0
   -0.8406   -2.3699    0.0000 C   0  0  0  0  0  0  0  0  0  0  0  0
    0.1164   -3.1329    0.0000 O   0  0  0  0  0  0  0  0  0  0  0  0
   -0.7136   -1.0459    0.0000 N   0  0  0  0  0  0  0  0  0  0  0  0
   -1.5436   -0.4719    0.0000 H   0  0  0  0  0  0  0  0  0  0  0  0
    0.5724   -0.3469    0.0000 C   0  0  0  0  0  0  0  0  0  0  0  0
    0.5348    0.4743   -0.7170 H   0  0  0  0  0  0  0  0  0  0  0  0
    0.7533    0.0723    0.9907 H   0  0  0  0  0  0  0  0  0  0  0  0
    1.7404   -1.2671   -0.3661 C   0  0  0  0  0  0  0  0  0  0  0  0
    2.8308   -0.7928   -0.6782 O   0  0  0  0  0  0  0  0  0  0  0  0
    1.5003   -2.5838   -0.3243 N   0  0  0  0  0  0  0  0  0  0  0  0
    0.5744   -2.8794   -0.0569 H   0  0  0  0  0  0  0  0  0  0  0  0
    2.4804   -3.6257   -0.6375 C   0  0  0  0  0  0  0  0  0  0  0  0
    3.4408   -3.1823   -0.9119 H   0  0  0  0  0  0  0  0  0  0  0  0
    2.6295   -4.2680    0.2313 H   0  0  0  0  0  0  0  0  0  0  0  0
    2.1251   -4.2301   -1.4732 H   0  0  0  0  0  0  0  0  0  0  0  0
  5  6  2  0  0  0  0
  5  7  1  0  0  0  0
  2  3  1  0  0  0  0
  2  4  1  0  0  0  0
  2  5  1  0  0  0  0
  1  2  1  0  0  0  0
 12 13  2  0  0  0  0
 12 14  1  0  0  0  0
  9 10  1  0  0  0  0
  9 11  1  0  0  0  0
  9 12  1  0  0  0  0
  7  8  1  0  0  0  0
  7  9  1  0  0  0  0
 16 17  1  0  0  0  0
 16 18  1  0  0  0  0
 16 19  1  0  0  0  0
 14 15  1  0  0  0  0
 14 16  1  0  0  0  0
M  END
$$$$
default_name
  -OEChem-01062215323D

 19 18  0     0  0  0  0  0  0999 V2000
   -2.2056   -4.0049    0.0000 H   0  0  0  0  0  0  0  0  0  0  0  0
   -2.2496   -2.9169    0.0000 C   0  0  0  0  0  0  0  0  0  0  0  0
   -2.7696   -2.5709    0.8910 H   0  0  0  0  0  0  0  0  0  0  0  0
   -2.7696   -2.5709   -0.8910 H   0  0  0  0  0  0  0  0  0  0  0  0
   -0.8406   -2.3699    0.0000 C   0  0  0  0  0  0  0  0  0  0  0  0
    0.1164   -3.1329    0.0000 O   0  0  0  0  0  0  0  0  0  0  0  0
   -0.7136   -1.0459    0.0000 N   0  0  0  0  0  0  0  0  0  0  0  0
   -1.5436   -0.4719    0.0000 H   0  0  0  0  0  0  0  0  0  0  0  0
    0.5724   -0.3469    0.0000 C   0  0  0  0  0  0  0  0  0  0  0  0
    0.5348    0.4743   -0.7170 H   0  0  0  0  0  0  0  0  0  0  0  0
    0.7533    0.0723    0.9907 H   0  0  0  0  0  0  0  0  0  0  0  0
    1.7404   -1.2671   -0.3661 C   0  0  0  0  0  0  0  0  0  0  0  0
    2.8877   -0.8275   -0.4094 O   0  0  0  0  0  0  0  0  0  0  0  0
    1.4360   -2.5446   -0.6279 N   0  0  0  0  0  0  0  0  0  0  0  0
    0.4664   -2.8135   -0.5671 H   0  0  0  0  0  0  0  0  0  0  0  0
    2.4047   -3.5794   -0.9955 C   0  0  0  0  0  0  0  0  0  0  0  0
    3.4162   -3.1673   -1.0279 H   0  0  0  0  0  0  0  0  0  0  0  0
    2.3814   -4.3866   -0.2622 H   0  0  0  0  0  0  0  0  0  0  0  0
    2.1617   -3.9823   -1.9796 H   0  0  0  0  0  0  0  0  0  0  0  0
  5  6  2  0  0  0  0
  5  7  1  0  0  0  0
  2  3  1  0  0  0  0
  2  4  1  0  0  0  0
  2  5  1  0  0  0  0
  1  2  1  0  0  0  0
 12 13  2  0  0  0  0
 12 14  1  0  0  0  0
  9 10  1  0  0  0  0
  9 11  1  0  0  0  0
  9 12  1  0  0  0  0
  7  8  1  0  0  0  0
  7  9  1  0  0  0  0
 16 17  1  0  0  0  0
 16 18  1  0  0  0  0
 16 19  1  0  0  0  0
 14 15  1  0  0  0  0
 14 16  1  0  0  0  0
M  END
$$$$
default_name
  -OEChem-01062215323D

 19 18  0     0  0  0  0  0  0999 V2000
   -2.2056   -4.0049    0.0000 H   0  0  0  0  0  0  0  0  0  0  0  0
   -2.2496   -2.9169    0.0000 C   0  0  0  0  0  0  0  0  0  0  0  0
   -2.7696   -2.5709    0.8910 H   0  0  0  0  0  0  0  0  0  0  0  0
   -2.7696   -2.5709   -0.8910 H   0  0  0  0  0  0  0  0  0  0  0  0
   -0.8406   -2.3699    0.0000 C   0  0  0  0  0  0  0  0  0  0  0  0
    0.1164   -3.1329    0.0000 O   0  0  0  0  0  0  0  0  0  0  0  0
   -0.7136   -1.0459    0.0000 N   0  0  0  0  0  0  0  0  0  0  0  0
   -1.5436   -0.4719    0.0000 H   0  0  0  0  0  0  0  0  0  0  0  0
    0.5724   -0.3469    0.0000 C   0  0  0  0  0  0  0  0  0  0  0  0
    0.5348    0.4743   -0.7170 H   0  0  0  0  0  0  0  0  0  0  0  0
    0.7533    0.0723    0.9907 H   0  0  0  0  0  0  0  0  0  0  0  0
    1.7404   -1.2671   -0.3661 C   0  0  0  0  0  0  0  0  0  0  0  0
    2.8987   -0.9177   -0.1478 O   0  0  0  0  0  0  0  0  0  0  0  0
    1.4236   -2.4428   -0.9234 N   0  0  0  0  0  0  0  0  0  0  0  0
    0.4456   -2.6424   -1.0637 H   0  0  0  0  0  0  0  0  0  0  0  0
    2.3900   -3.4594   -1.3438 C   0  0  0  0  0  0  0  0  0  0  0  0
    3.4115   -3.1284   -1.1408 H   0  0  0  0  0  0  0  0  0  0  0  0
    2.2112   -4.3884   -0.8009 H   0  0  0  0  0  0  0  0  0  0  0  0
    2.2910   -3.6452   -2.4141 H   0  0  0  0  0  0  0  0  0  0  0  0
  5  6  2  0  0  0  0
  5  7  1  0  0  0  0
  2  3  1  0  0  0  0
  2  4  1  0  0  0  0
  2  5  1  0  0  0  0
  1  2  1  0  0  0  0
 12 13  2  0  0  0  0
 12 14  1  0  0  0  0
  9 10  1  0  0  0  0
  9 11  1  0  0  0  0
  9 12  1  0  0  0  0
  7  8  1  0  0  0  0
  7  9  1  0  0  0  0
 16 17  1  0  0  0  0
 16 18  1  0  0  0  0
 16 19  1  0  0  0  0
 14 15  1  0  0  0  0
 14 16  1  0  0  0  0
M  END
$$$$
default_name
  -OEChem-01062215323D

 19 18  0     0  0  0  0  0  0999 V2000
   -2.2056   -4.0049    0.0000 H   0  0  0  0  0  0  0  0  0  0  0  0
   -2.2496   -2.9169    0.0000 C   0  0  0  0  0  0  0  0  0  0  0  0
   -2.7696   -2.5709    0.8910 H   0  0  0  0  0  0  0  0  0  0  0  0
   -2.7696   -2.5709   -0.8910 H   0  0  0  0  0  0  0  0  0  0  0  0
   -0.8406   -2.3699    0.0000 C   0  0  0  0  0  0  0  0  0  0  0  0
    0.1164   -3.1329    0.0000 O   0  0  0  0  0  0  0  0  0  0  0  0
   -0.7136   -1.0459    0.0000 N   0  0  0  0  0  0  0  0  0  0  0  0
   -1.5436   -0.4719    0.0000 H   0  0  0  0  0  0  0  0  0  0  0  0
    0.5724   -0.3469    0.0000 C   0  0  0  0  0  0  0  0  0  0  0  0
    0.5348    0.4743   -0.7170 H   0  0  0  0  0  0  0  0  0  0  0  0
    0.7533    0.0723    0.9907 H   0  0  0  0  0  0  0  0  0  0  0  0
    1.7404   -1.2671   -0.3661 C   0  0  0  0  0  0  0  0  0  0  0  0
    2.8630   -1.0571    0.0889 O   0  0  0  0  0  0  0  0  0  0  0  0
    1.4639   -2.2854   -1.1906 N   0  0  0  0  0  0  0  0  0  0  0  0
    0.5132   -2.3778   -1.5129 H   0  0  0  0  0  0  0  0  0  0  0  0
    2.4375   -3.2738   -1.6589 C   0  0  0  0  0  0  0  0  0  0  0  0
    3.4268   -3.0683   -1.2429 H   0  0  0  0  0  0  0  0  0  0  0  0
    2.1304   -4.2732   -1.3480 H   0  0  0  0  0  0  0  0  0  0  0  0
    2.5044   -3.2419   -2.7472 H   0  0  0  0  0  0  0  0  0  0  0  0
  5  6  2  0  0  0  0
  5  7  1  0  0  0  0
  2  3  1  0  0  0  0
  2  4  1  0  0  0  0
  2  5  1  0  0  0  0
  1  2  1  0  0  0  0
 12 13  2  0  0  0  0
 12 14  1  0  0  0  0
  9 10  1  0  0  0  0
  9 11  1  0  0  0  0
  9 12  1  0  0  0  0
  7  8  1  0  0  0  0
  7  9  1  0  0  0  0
 16 17  1  0  0  0  0
 16 18  1  0  0  0  0
 16 19  1  0  0  0  0
 14 15  1  0  0  0  0
 14 16  1  0  0  0  0
M  END
$$$$
default_name
  -OEChem-01062215323D

 19 18  0     0  0  0  0  0  0999 V2000
   -2.2056   -4.0049    0.0000 H   0  0  0  0  0  0  0  0  0  0  0  0
   -2.2496   -2.9169    0.0000 C   0  0  0  0  0  0  0  0  0  0  0  0
   -2.7696   -2.5709    0.8910 H   0  0  0  0  0  0  0  0  0  0  0  0
   -2.7696   -2.5709   -0.8910 H   0  0  0  0  0  0  0  0  0  0  0  0
   -0.8406   -2.3699    0.0000 C   0  0  0  0  0  0  0  0  0  0  0  0
    0.1164   -3.1329    0.0000 O   0  0  0  0  0  0  0  0  0  0  0  0
   -0.7136   -1.0459    0.0000 N   0  0  0  0  0  0  0  0  0  0  0  0
   -1.5436   -0.4719    0.0000 H   0  0  0  0  0  0  0  0  0  0  0  0
    0.5724   -0.3469    0.0000 C   0  0  0  0  0  0  0  0  0  0  0  0
    0.5348    0.4743   -0.7170 H   0  0  0  0  0  0  0  0  0  0  0  0
    0.7533    0.0723    0.9907 H   0  0  0  0  0  0  0  0  0  0  0  0
    1.7404   -1.2671   -0.3661 C   0  0  0  0  0  0  0  0  0  0  0  0
    2.7832   -1.2362    0.2844 O   0  0  0  0  0  0  0  0  0  0  0  0
    1.5541   -2.0831   -1.4114 N   0  0  0  0  0  0  0  0  0  0  0  0
    0.6648   -2.0378   -1.8840 H   0  0  0  0  0  0  0  0  0  0  0  0
    2.5438   -3.0352   -1.9192 C   0  0  0  0  0  0  0  0  0  0  0  0
    3.4613   -2.9910   -1.3273 H   0  0  0  0  0  0  0  0  0  0  0  0
    2.1446   -4.0490   -1.8664 H   0  0  0  0  0  0  0  0  0  0  0  0
    2.7873   -2.7997   -2.9561 H   0  0  0  0  0  0  0  0  0  0  0  0
  5  6  2  0  0  0  0
  5  7  1  0  0  0  0
  2  3  1  0  0  0  0
  2  4  1  0  0  0  0
  2  5  1  0  0  0  0
  1  2  1  0  0  0  0
 12 13  2  0  0  0  0
 12 14  1  0  0  0  0
  9 10  1  0  0  0  0
  9 11  1  0  0  0  0
  9 12  1  0  0  0  0
  7  8  1  0  0  0  0
  7  9  1  0  0  0  0
 16 17  1  0  0  0  0
 16 18  1  0  0  0  0
 16 19  1  0  0  0  0
 14 15  1  0  0  0  0
 14 16  1  0  0  0  0
M  END
$$$$
default_name
  -OEChem-01062215323D

 19 18  0     0  0  0  0  0  0999 V2000
   -2.2056   -4.0049    0.0000 H   0  0  0  0  0  0  0  0  0  0  0  0
   -2.2496   -2.9169    0.0000 C   0  0  0  0  0  0  0  0  0  0  0  0
   -2.7696   -2.5709    0.8910 H   0  0  0  0  0  0  0  0  0  0  0  0
   -2.7696   -2.5709   -0.8910 H   0  0  0  0  0  0  0  0  0  0  0  0
   -0.8406   -2.3699    0.0000 C   0  0  0  0  0  0  0  0  0  0  0  0
    0.1164   -3.1329    0.0000 O   0  0  0  0  0  0  0  0  0  0  0  0
   -0.7136   -1.0459    0.0000 N   0  0  0  0  0  0  0  0  0  0  0  0
   -1.5436   -0.4719    0.0000 H   0  0  0  0  0  0  0  0  0  0  0  0
    0.5724   -0.3469    0.0000 C   0  0  0  0  0  0  0  0  0  0  0  0
    0.5348    0.4743   -0.7170 H   0  0  0  0  0  0  0  0  0  0  0  0
    0.7533    0.0723    0.9907 H   0  0  0  0  0  0  0  0  0  0  0  0
    1.7404   -1.2671   -0.3661 C   0  0  0  0  0  0  0  0  0  0  0  0
    2.6645   -1.4429    0.4254 O   0  0  0  0  0  0  0  0  0  0  0  0
    1.6881   -1.8496   -1.5707 N   0  0  0  0  0  0  0  0  0  0  0  0
    0.8900   -1.6455   -2.1517 H   0  0  0  0  0  0  0  0  0  0  0  0
    2.7018   -2.7600   -2.1071 C   0  0  0  0  0  0  0  0  0  0  0  0
    3.5125   -2.9017   -1.3882 H   0  0  0  0  0  0  0  0  0  0  0  0
    2.2528   -3.7309   -2.3206 H   0  0  0  0  0  0  0  0  0  0  0  0
    3.1204   -2.3489   -3.0266 H   0  0  0  0  0  0  0  0  0  0  0  0
  5  6  2  0  0  0  0
  5  7  1  0  0  0  0
  2  3  1  0  0  0  0
  2  4  1  0  0  0  0
  2  5  1  0  0  0  0
  1  2  1  0  0  0  0
 12 13  2  0  0  0  0
 12 14  1  0  0  0  0
  9 10  1  0  0  0  0
  9 11  1  0  0  0  0
  9 12  1  0  0  0  0
  7  8  1  0  0  0  0
  7  9  1  0  0  0  0
 16 17  1  0  0  0  0
 16 18  1  0  0  0  0
 16 19  1  0  0  0  0
 14 15  1  0  0  0  0
 14 16  1  0  0  0  0
M  END
$$$$
default_name
  -OEChem-01062215323D

 19 18  0     0  0  0  0  0  0999 V2000
   -2.2056   -4.0049    0.0000 H   0  0  0  0  0  0  0  0  0  0  0  0
   -2.2496   -2.9169    0.0000 C   0  0  0  0  0  0  0  0  0  0  0  0
   -2.7696   -2.5709    0.8910 H   0  0  0  0  0  0  0  0  0  0  0  0
   -2.7696   -2.5709   -0.8910 H   0  0  0  0  0  0  0  0  0  0  0  0
   -0.8406   -2.3699    0.0000 C   0  0  0  0  0  0  0  0  0  0  0  0
    0.1164   -3.1329    0.0000 O   0  0  0  0  0  0  0  0  0  0  0  0
   -0.7136   -1.0459    0.0000 N   0  0  0  0  0  0  0  0  0  0  0  0
   -1.5436   -0.4719    0.0000 H   0  0  0  0  0  0  0  0  0  0  0  0
    0.5724   -0.3469    0.0000 C   0  0  0  0  0  0  0  0  0  0  0  0
    0.5348    0.4743   -0.7170 H   0  0  0  0  0  0  0  0  0  0  0  0
    0.7533    0.0723    0.9907 H   0  0  0  0  0  0  0  0  0  0  0  0
    1.7404   -1.2671   -0.3661 C   0  0  0  0  0  0  0  0  0  0  0  0
    2.5152   -1.6631    0.5024 O   0  0  0  0  0  0  0  0  0  0  0  0
    1.8567   -1.6010   -1.6576 N   0  0  0  0  0  0  0  0  0  0  0  0
    1.1734   -1.2276   -2.2979 H   0  0  0  0  0  0  0  0  0  0  0  0
    2.9006   -2.4669   -2.2096 C   0  0  0  0  0  0  0  0  0  0  0  0
    3.5770   -2.8067   -1.4215 H   0  0  0  0  0  0  0  0  0  0  0  0
    2.4477   -3.3407   -2.6797 H   0  0  0  0  0  0  0  0  0  0  0  0
    3.4810   -1.9201   -2.9539 H   0  0  0  0  0  0  0  0  0  0  0  0
  5  6  2  0  0  0  0
  5  7  1  0  0  0  0
  2  3  1  0  0  0  0
  2  4  1  0  0  0  0
  2  5  1  0  0  0  0
  1  2  1  0  0  0  0
 12 13  2  0  0  0  0
 12 14  1  0  0  0  0
  9 10  1  0  0  0  0
  9 11  1  0  0  0  0
  9 12  1  0  0  0  0
  7  8  1  0  0  0  0
  7  9  1  0  0  0  0
 16 17  1  0  0  0  0
 16 18  1  0  0  0  0
 16 19  1  0  0  0  0
 14 15  1  0  0  0  0
 14 16  1  0  0  0  0
M  END
$$$$
default_name
  -OEChem-01062215323D

 19 18  0     0  0  0  0  0  0999 V2000
   -2.2056   -4.0049    0.0000 H   0  0  0  0  0  0  0  0  0  0  0  0
   -2.2496   -2.9169    0.0000 C   0  0  0  0  0  0  0  0  0  0  0  0
   -2.7696   -2.5709    0.8910 H   0  0  0  0  0  0  0  0  0  0  0  0
   -2.7696   -2.5709   -0.8910 H   0  0  0  0  0  0  0  0  0  0  0  0
   -0.8406   -2.3699    0.0000 C   0  0  0  0  0  0  0  0  0  0  0  0
    0.1164   -3.1329    0.0000 O   0  0  0  0  0  0  0  0  0  0  0  0
   -0.7136   -1.0459    0.0000 N   0  0  0  0  0  0  0  0  0  0  0  0
   -1.5436   -0.4719    0.0000 H   0  0  0  0  0  0  0  0  0  0  0  0
    0.5724   -0.3469    0.0000 C   0  0  0  0  0  0  0  0  0  0  0  0
    0.5348    0.4743   -0.7170 H   0  0  0  0  0  0  0  0  0  0  0  0
    0.7533    0.0723    0.9907 H   0  0  0  0  0  0  0  0  0  0  0  0
    1.7404   -1.2671   -0.3661 C   0  0  0  0  0  0  0  0  0  0  0  0
    2.3453   -1.8817    0.5101 O   0  0  0  0  0  0  0  0  0  0  0  0
    2.0485   -1.3541   -1.6663 N   0  0  0  0  0  0  0  0  0  0  0  0
    1.4958   -0.8126   -2.3124 H   0  0  0  0  0  0  0  0  0  0  0  0
    3.1268   -2.1758   -2.2198 C   0  0  0  0  0  0  0  0  0  0  0  0
    3.6503   -2.7124   -1.4248 H   0  0  0  0  0  0  0  0  0  0  0  0
    2.7159   -2.9050   -2.9193 H   0  0  0  0  0  0  0  0  0  0  0  0
    3.8446   -1.5426   -2.7429 H   0  0  0  0  0  0  0  0  0  0  0  0
  5  6  2  0  0  0  0
  5  7  1  0  0  0  0
  2  3  1  0  0  0  0
  2  4  1  0  0  0  0
  2  5  1  0  0  0  0
  1  2  1  0  0  0  0
 12 13  2  0  0  0  0
 12 14  1  0  0  0  0
  9 10  1  0  0  0  0
  9 11  1  0  0  0  0
  9 12  1  0  0  0  0
  7  8  1  0  0  0  0
  7  9  1  0  0  0  0
 16 17  1  0  0  0  0
 16 18  1  0  0  0  0
 16 19  1  0  0  0  0
 14 15  1  0  0  0  0
 14 16  1  0  0  0  0
M  END
$$$$
default_name
  -OEChem-01062215323D

 19 18  0     0  0  0  0  0  0999 V2000
   -2.2056   -4.0049    0.0000 H   0  0  0  0  0  0  0  0  0  0  0  0
   -2.2496   -2.9169    0.0000 C   0  0  0  0  0  0  0  0  0  0  0  0
   -2.7696   -2.5709    0.8910 H   0  0  0  0  0  0  0  0  0  0  0  0
   -2.7696   -2.5709   -0.8910 H   0  0  0  0  0  0  0  0  0  0  0  0
   -0.8406   -2.3699    0.0000 C   0  0  0  0  0  0  0  0  0  0  0  0
    0.1164   -3.1329    0.0000 O   0  0  0  0  0  0  0  0  0  0  0  0
   -0.7136   -1.0459    0.0000 N   0  0  0  0  0  0  0  0  0  0  0  0
   -1.5436   -0.4719    0.0000 H   0  0  0  0  0  0  0  0  0  0  0  0
    0.5724   -0.3469    0.0000 C   0  0  0  0  0  0  0  0  0  0  0  0
    0.5348    0.4743   -0.7170 H   0  0  0  0  0  0  0  0  0  0  0  0
    0.7533    0.0723    0.9907 H   0  0  0  0  0  0  0  0  0  0  0  0
    1.7404   -1.2671   -0.3661 C   0  0  0  0  0  0  0  0  0  0  0  0
    2.1666   -2.0839    0.4480 O   0  0  0  0  0  0  0  0  0  0  0  0
    2.2504   -1.1258   -1.5961 N   0  0  0  0  0  0  0  0  0  0  0  0
    1.8351   -0.4289   -2.1945 H   0  0  0  0  0  0  0  0  0  0  0  0
    3.3648   -1.9066   -2.1371 C   0  0  0  0  0  0  0  0  0  0  0  0
    3.7274   -2.6251   -1.3979 H   0  0  0  0  0  0  0  0  0  0  0  0
    3.0392   -2.4534   -3.0229 H   0  0  0  0  0  0  0  0  0  0  0  0
    4.1863   -1.2421   -2.4081 H   0  0  0  0  0  0  0  0  0  0  0  0
  5  6  2  0  0  0  0
  5  7  1  0  0  0  0
  2  3  1  0  0  0  0
  2  4  1  0  0  0  0
  2  5  1  0  0  0  0
  1  2  1  0  0  0  0
 12 13  2  0  0  0  0
 12 14  1  0  0  0  0
  9 10  1  0  0  0  0
  9 11  1  0  0  0  0
  9 12  1  0  0  0  0
  7  8  1  0  0  0  0
  7  9  1  0  0  0  0
 16 17  1  0  0  0  0
 16 18  1  0  0  0  0
 16 19  1  0  0  0  0
 14 15  1  0  0  0  0
 14 16  1  0  0  0  0
M  END
$$$$
default_name
  -OEChem-01062215323D

 19 18  0     0  0  0  0  0  0999 V2000
   -2.2056   -4.0049    0.0000 H   0  0  0  0  0  0  0  0  0  0  0  0
   -2.2496   -2.9169    0.0000 C   0  0  0  0  0  0  0  0  0  0  0  0
   -2.7696   -2.5709    0.8910 H   0  0  0  0  0  0  0  0  0  0  0  0
   -2.7696   -2.5709   -0.8910 H   0  0  0  0  0  0  0  0  0  0  0  0
   -0.8406   -2.3699    0.0000 C   0  0  0  0  0  0  0  0  0  0  0  0
    0.1164   -3.1329    0.0000 O   0  0  0  0  0  0  0  0  0  0  0  0
   -0.7136   -1.0459    0.0000 N   0  0  0  0  0  0  0  0  0  0  0  0
   -1.5436   -0.4719    0.0000 H   0  0  0  0  0  0  0  0  0  0  0  0
    0.5724   -0.3469    0.0000 C   0  0  0  0  0  0  0  0  0  0  0  0
    0.5348    0.4743   -0.7170 H   0  0  0  0  0  0  0  0  0  0  0  0
    0.7533    0.0723    0.9907 H   0  0  0  0  0  0  0  0  0  0  0  0
    1.7404   -1.2671   -0.3661 C   0  0  0  0  0  0  0  0  0  0  0  0
    1.9910   -2.2559    0.3202 O   0  0  0  0  0  0  0  0  0  0  0  0
    2.4486   -0.9316   -1.4519 N   0  0  0  0  0  0  0  0  0  0  0  0
    2.1683   -0.1025   -1.9520 H   0  0  0  0  0  0  0  0  0  0  0  0
    3.5985   -1.6776   -1.9670 C   0  0  0  0  0  0  0  0  0  0  0  0
    3.8032   -2.5509   -1.3428 H   0  0  0  0  0  0  0  0  0  0  0  0
    3.3955   -2.0168   -2.9836 H   0  0  0  0  0  0  0  0  0  0  0  0
    4.4829   -1.0390   -1.9722 H   0  0  0  0  0  0  0  0  0  0  0  0
  5  6  2  0  0  0  0
  5  7  1  0  0  0  0
  2  3  1  0  0  0  0
  2  4  1  0  0  0  0
  2  5  1  0  0  0  0
  1  2  1  0  0  0  0
 12 13  2  0  0  0  0
 12 14  1  0  0  0  0
  9 10  1  0  0  0  0
  9 11  1  0  0  0  0
  9 12  1  0  0  0  0
  7  8  1  0  0  0  0
  7  9  1  0  0  0  0
 16 17  1  0  0  0  0
 16 18  1  0  0  0  0
 16 19  1  0  0  0  0
 14 15  1  0  0  0  0
 14 16  1  0  0  0  0
M  END
$$$$
default_name
  -OEChem-01062215323D

 19 18  0     0  0  0  0  0  0999 V2000
   -2.2056   -4.0049    0.0000 H   0  0  0  0  0  0  0  0  0  0  0  0
   -2.2496   -2.9169    0.0000 C   0  0  0  0  0  0  0  0  0  0  0  0
   -2.7696   -2.5709    0.8910 H   0  0  0  0  0  0  0  0  0  0  0  0
   -2.7696   -2.5709   -0.8910 H   0  0  0  0  0  0  0  0  0  0  0  0
   -0.8406   -2.3699    0.0000 C   0  0  0  0  0  0  0  0  0  0  0  0
    0.1164   -3.1329    0.0000 O   0  0  0  0  0  0  0  0  0  0  0  0
   -0.7136   -1.0459    0.0000 N   0  0  0  0  0  0  0  0  0  0  0  0
   -1.5436   -0.4719    0.0000 H   0  0  0  0  0  0  0  0  0  0  0  0
    0.5724   -0.3469    0.0000 C   0  0  0  0  0  0  0  0  0  0  0  0
    0.5348    0.4743   -0.7170 H   0  0  0  0  0  0  0  0  0  0  0  0
    0.7533    0.0723    0.9907 H   0  0  0  0  0  0  0  0  0  0  0  0
    1.7404   -1.2671   -0.3661 C   0  0  0  0  0  0  0  0  0  0  0  0
    1.8307   -2.3859    0.1356 O   0  0  0  0  0  0  0  0  0  0  0  0
    2.6296   -0.7848   -1.2434 N   0  0  0  0  0  0  0  0  0  0  0  0
    2.4726    0.1443   -1.6016 H   0  0  0  0  0  0  0  0  0  0  0  0
    3.8120   -1.5045   -1.7211 C   0  0  0  0  0  0  0  0  0  0  0  0
    3.8724   -2.4948   -1.2631 H   0  0  0  0  0  0  0  0  0  0  0  0
    3.7606   -1.6248   -2.8041 H   0  0  0  0  0  0  0  0  0  0  0  0
    4.7141   -0.9473   -1.4650 H   0  0  0  0  0  0  0  0  0  0  0  0
  5  6  2  0  0  0  0
  5  7  1  0  0  0  0
  2  3  1  0  0  0  0
  2  4  1  0  0  0  0
  2  5  1  0  0  0  0
  1  2  1  0  0  0  0
 12 13  2  0  0  0  0
 12 14  1  0  0  0  0
  9 10  1  0  0  0  0
  9 11  1  0  0  0  0
  9 12  1  0  0  0  0
  7  8  1  0  0  0  0
  7  9  1  0  0  0  0
 16 17  1  0  0  0  0
 16 18  1  0  0  0  0
 16 19  1  0  0  0  0
 14 15  1  0  0  0  0
 14 16  1  0  0  0  0
M  END
$$$$
default_name
  -OEChem-01062215323D

 19 18  0     0  0  0  0  0  0999 V2000
   -2.2056   -4.0049    0.0000 H   0  0  0  0  0  0  0  0  0  0  0  0
   -2.2496   -2.9169    0.0000 C   0  0  0  0  0  0  0  0  0  0  0  0
   -2.7696   -2.5709    0.8910 H   0  0  0  0  0  0  0  0  0  0  0  0
   -2.7696   -2.5709   -0.8910 H   0  0  0  0  0  0  0  0  0  0  0  0
   -0.8406   -2.3699    0.0000 C   0  0  0  0  0  0  0  0  0  0  0  0
    0.1164   -3.1329    0.0000 O   0  0  0  0  0  0  0  0  0  0  0  0
   -0.7136   -1.0459    0.0000 N   0  0  0  0  0  0  0  0  0  0  0  0
   -1.5436   -0.4719    0.0000 H   0  0  0  0  0  0  0  0  0  0  0  0
    0.5724   -0.3469    0.0000 C   0  0  0  0  0  0  0  0  0  0  0  0
    0.5348    0.4743   -0.7170 H   0  0  0  0  0  0  0  0  0  0  0  0
    0.7533    0.0723    0.9907 H   0  0  0  0  0  0  0  0  0  0  0  0
    1.7404   -1.2671   -0.3661 C   0  0  0  0  0  0  0  0  0  0  0  0
    1.6965   -2.4651   -0.0934 O   0  0  0  0  0  0  0  0  0  0  0  0
    2.7812   -0.6953   -0.9848 N   0  0  0  0  0  0  0  0  0  0  0  0
    2.7273    0.2947   -1.1670 H   0  0  0  0  0  0  0  0  0  0  0  0
    3.9906   -1.3990   -1.4163 C   0  0  0  0  0  0  0  0  0  0  0  0
    3.9303   -2.4606   -1.1643 H   0  0  0  0  0  0  0  0  0  0  0  0
    4.1096   -1.3043   -2.4964 H   0  0  0  0  0  0  0  0  0  0  0  0
    4.8643   -0.9732   -0.9210 H   0  0  0  0  0  0  0  0  0  0  0  0
  5  6  2  0  0  0  0
  5  7  1  0  0  0  0
  2  3  1  0  0  0  0
  2  4  1  0  0  0  0
  2  5  1  0  0  0  0
  1  2  1  0  0  0  0
 12 13  2  0  0  0  0
 12 14  1  0  0  0  0
  9 10  1  0  0  0  0
  9 11  1  0  0  0  0
  9 12  1  0  0  0  0
  7  8  1  0  0  0  0
  7  9  1  0  0  0  0
 16 17  1  0  0  0  0
 16 18  1  0  0  0  0
 16 19  1  0  0  0  0
 14 15  1  0  0  0  0
 14 16  1  0  0  0  0
M  END
$$$$
default_name
  -OEChem-01062215323D

 19 18  0     0  0  0  0  0  0999 V2000
   -2.2056   -4.0049    0.0000 H   0  0  0  0  0  0  0  0  0  0  0  0
   -2.2496   -2.9169    0.0000 C   0  0  0  0  0  0  0  0  0  0  0  0
   -2.7696   -2.5709    0.8910 H   0  0  0  0  0  0  0  0  0  0  0  0
   -2.7696   -2.5709   -0.8910 H   0  0  0  0  0  0  0  0  0  0  0  0
   -0.8406   -2.3699    0.0000 C   0  0  0  0  0  0  0  0  0  0  0  0
    0.1164   -3.1329    0.0000 O   0  0  0  0  0  0  0  0  0  0  0  0
   -0.7136   -1.0459    0.0000 N   0  0  0  0  0  0  0  0  0  0  0  0
   -1.5436   -0.4719    0.0000 H   0  0  0  0  0  0  0  0  0  0  0  0
    0.5724   -0.3469    0.0000 C   0  0  0  0  0  0  0  0  0  0  0  0
    0.5348    0.4743   -0.7170 H   0  0  0  0  0  0  0  0  0  0  0  0
    0.7533    0.0723    0.9907 H   0  0  0  0  0  0  0  0  0  0  0  0
    1.7404   -1.2671   -0.3661 C   0  0  0  0  0  0  0  0  0  0  0  0
    1.5976   -2.4881   -0.3510 O   0  0  0  0  0  0  0  0  0  0  0  0
    2.8929   -0.6693   -0.6938 N   0  0  0  0  0  0  0  0  0  0  0  0
    2.9150    0.3384   -0.6780 H   0  0  0  0  0  0  0  0  0  0  0  0
    4.1223   -1.3683   -1.0732 C   0  0  0  0  0  0  0  0  0  0  0  0
    3.9730   -2.4506   -1.0531 H   0  0  0  0  0  0  0  0  0  0  0  0
    4.4187   -1.0769   -2.0817 H   0  0  0  0  0  0  0  0  0  0  0  0
    4.9231   -1.1149   -0.3772 H   0  0  0  0  0  0  0  0  0  0  0  0
  5  6  2  0  0  0  0
  5  7  1  0  0  0  0
  2  3  1  0  0  0  0
  2  4  1  0  0  0  0
  2  5  1  0  0  0  0
  1  2  1  0  0  0  0
 12 13  2  0  0  0  0
 12 14  1  0  0  0  0
  9 10  1  0  0  0  0
  9 11  1  0  0  0  0
  9 12  1  0  0  0  0
  7  8  1  0  0  0  0
  7  9  1  0  0  0  0
 16 17  1  0  0  0  0
 16 18  1  0  0  0  0
 16 19  1  0  0  0  0
 14 15  1  0  0  0  0
 14 16  1  0  0  0  0
M  END
$$$$
default_name
  -OEChem-01062215323D

 19 18  0     0  0  0  0  0  0999 V2000
   -2.2056   -4.0049    0.0000 H   0  0  0  0  0  0  0  0  0  0  0  0
   -2.2496   -2.9169    0.0000 C   0  0  0  0  0  0  0  0  0  0  0  0
   -2.7696   -2.5709    0.8910 H   0  0  0  0  0  0  0  0  0  0  0  0
   -2.7696   -2.5709   -0.8910 H   0  0  0  0  0  0  0  0  0  0  0  0
   -0.8406   -2.3699    0.0000 C   0  0  0  0  0  0  0  0  0  0  0  0
    0.1164   -3.1329    0.0000 O   0  0  0  0  0  0  0  0  0  0  0  0
   -0.7136   -1.0459    0.0000 N   0  0  0  0  0  0  0  0  0  0  0  0
   -1.5436   -0.4719    0.0000 H   0  0  0  0  0  0  0  0  0  0  0  0
    0.5724   -0.3469    0.0000 C   0  0  0  0  0  0  0  0  0  0  0  0
    0.4582    0.6152   -0.5012 H   0  0  0  0  0  0  0  0  0  0  0  0
    0.8803   -0.1615    1.0299 H   0  0  0  0  0  0  0  0  0  0  0  0
    1.6729   -1.1430   -0.7073 C   0  0  0  0  0  0  0  0  0  0  0  0
    1.4265   -2.2432   -1.1974 O   0  0  0  0  0  0  0  0  0  0  0  0
    2.8852   -0.5762   -0.7540 N   0  0  0  0  0  0  0  0  0  0  0  0
    2.9920    0.3293   -0.3241 H   0  0  0  0  0  0  0  0  0  0  0  0
    4.0662   -1.1720   -1.3819 C   0  0  0  0  0  0  0  0  0  0  0  0
    3.8248   -2.1478   -1.8103 H   0  0  0  0  0  0  0  0  0  0  0  0
    4.4299   -0.5226   -2.1792 H   0  0  0  0  0  0  0  0  0  0  0  0
    4.8545   -1.3036   -0.6394 H   0  0  0  0  0  0  0  0  0  0  0  0
  5  6  2  0  0  0  0
  5  7  1  0  0  0  0
  2  3  1  0  0  0  0
  2  4  1  0  0  0  0
  2  5  1  0  0  0  0
  1  2  1  0  0  0  0
 12 13  2  0  0  0  0
 12 14  1  0  0  0  0
  9 10  1  0  0  0  0
  9 11  1  0  0  0  0
  9 12  1  0  0  0  0
  7  8  1  0  0  0  0
  7  9  1  0  0  0  0
 16 17  1  0  0  0  0
 16 18  1  0  0  0  0
 16 19  1  0  0  0  0
 14 15  1  0  0  0  0
 14 16  1  0  0  0  0
M  END
$$$$
default_name
  -OEChem-01062215323D

 19 18  0     0  0  0  0  0  0999 V2000
   -2.2056   -4.0049    0.0000 H   0  0  0  0  0  0  0  0  0  0  0  0
   -2.2496   -2.9169    0.0000 C   0  0  0  0  0  0  0  0  0  0  0  0
   -2.7696   -2.5709    0.8910 H   0  0  0  0  0  0  0  0  0  0  0  0
   -2.7696   -2.5709   -0.8910 H   0  0  0  0  0  0  0  0  0  0  0  0
   -0.8406   -2.3699    0.0000 C   0  0  0  0  0  0  0  0  0  0  0  0
    0.1164   -3.1329    0.0000 O   0  0  0  0  0  0  0  0  0  0  0  0
   -0.7136   -1.0459    0.0000 N   0  0  0  0  0  0  0  0  0  0  0  0
   -1.5436   -0.4719    0.0000 H   0  0  0  0  0  0  0  0  0  0  0  0
    0.5724   -0.3469    0.0000 C   0  0  0  0  0  0  0  0  0  0  0  0
    0.4582    0.6152   -0.5012 H   0  0  0  0  0  0  0  0  0  0  0  0
    0.8803   -0.1615    1.0299 H   0  0  0  0  0  0  0  0  0  0  0  0
    1.6729   -1.1430   -0.7073 C   0  0  0  0  0  0  0  0  0  0  0  0
    1.3845   -2.0961   -1.4283 O   0  0  0  0  0  0  0  0  0  0  0  0
    2.9325   -0.7423   -0.4933 N   0  0  0  0  0  0  0  0  0  0  0  0
    3.0717    0.0501    0.1141 H   0  0  0  0  0  0  0  0  0  0  0  0
    4.1221   -1.3679   -1.0745 C   0  0  0  0  0  0  0  0  0  0  0  0
    3.8429   -2.2113   -1.7107 H   0  0  0  0  0  0  0  0  0  0  0  0
    4.6655   -0.6409   -1.6795 H   0  0  0  0  0  0  0  0  0  0  0  0
    4.7750   -1.7325   -0.2804 H   0  0  0  0  0  0  0  0  0  0  0  0
  5  6  2  0  0  0  0
  5  7  1  0  0  0  0
  2  3  1  0  0  0  0
  2  4  1  0  0  0  0
  2  5  1  0  0  0  0
  1  2  1  0  0  0  0
 12 13  2  0  0  0  0
 12 14  1  0  0  0  0
  9 10  1  0  0  0  0
  9 11  1  0  0  0  0
  9 12  1  0  0  0  0
  7  8  1  0  0  0  0
  7  9  1  0  0  0  0
 16 17  1  0  0  0  0
 16 18  1  0  0  0  0
 16 19  1  0  0  0  0
 14 15  1  0  0  0  0
 14 16  1  0  0  0  0
M  END
$$$$
default_name
  -OEChem-01062215323D

 19 18  0     0  0  0  0  0  0999 V2000
   -2.2056   -4.0049    0.0000 H   0  0  0  0  0  0  0  0  0  0  0  0
   -2.2496   -2.9169    0.0000 C   0  0  0  0  0  0  0  0  0  0  0  0
   -2.7696   -2.5709    0.8910 H   0  0  0  0  0  0  0  0  0  0  0  0
   -2.7696   -2.5709   -0.8910 H   0  0  0  0  0  0  0  0  0  0  0  0
   -0.8406   -2.3699    0.0000 C   0  0  0  0  0  0  0  0  0  0  0  0
    0.1164   -3.1329    0.0000 O   0  0  0  0  0  0  0  0  0  0  0  0
   -0.7136   -1.0459    0.0000 N   0  0  0  0  0  0  0  0  0  0  0  0
   -1.5436   -0.4719    0.0000 H   0  0  0  0  0  0  0  0  0  0  0  0
    0.5724   -0.3469    0.0000 C   0  0  0  0  0  0  0  0  0  0  0  0
    0.4582    0.6152   -0.5012 H   0  0  0  0  0  0  0  0  0  0  0  0
    0.8803   -0.1615    1.0299 H   0  0  0  0  0  0  0  0  0  0  0  0
    1.6729   -1.1430   -0.7073 C   0  0  0  0  0  0  0  0  0  0  0  0
    1.3927   -1.9060   -1.6296 O   0  0  0  0  0  0  0  0  0  0  0  0
    2.9234   -0.9569   -0.2660 N   0  0  0  0  0  0  0  0  0  0  0  0
    3.0562   -0.3106    0.4961 H   0  0  0  0  0  0  0  0  0  0  0  0
    4.1113   -1.6209   -0.8065 C   0  0  0  0  0  0  0  0  0  0  0  0
    3.8394   -2.2933   -1.6238 H   0  0  0  0  0  0  0  0  0  0  0  0
    4.8116   -0.8763   -1.1872 H   0  0  0  0  0  0  0  0  0  0  0  0
    4.5987   -2.2041   -0.0240 H   0  0  0  0  0  0  0  0  0  0  0  0
  5  6  2  0  0  0  0
  5  7  1  0  0  0  0
  2  3  1  0  0  0  0
  2  4  1  0  0  0  0
  2  5  1  0  0  0  0
  1  2  1  0  0  0  0
 12 13  2  0  0  0  0
 12 14  1  0  0  0  0
  9 10  1  0  0  0  0
  9 11  1  0  0  0  0
  9 12  1  0  0  0  0
  7  8  1  0  0  0  0
  7  9  1  0  0  0  0
 16 17  1  0  0  0  0
 16 18  1  0  0  0  0
 16 19  1  0  0  0  0
 14 15  1  0  0  0  0
 14 16  1  0  0  0  0
M  END
$$$$
default_name
  -OEChem-01062215323D

 19 18  0     0  0  0  0  0  0999 V2000
   -2.2056   -4.0049    0.0000 H   0  0  0  0  0  0  0  0  0  0  0  0
   -2.2496   -2.9169    0.0000 C   0  0  0  0  0  0  0  0  0  0  0  0
   -2.7696   -2.5709    0.8910 H   0  0  0  0  0  0  0  0  0  0  0  0
   -2.7696   -2.5709   -0.8910 H   0  0  0  0  0  0  0  0  0  0  0  0
   -0.8406   -2.3699    0.0000 C   0  0  0  0  0  0  0  0  0  0  0  0
    0.1164   -3.1329    0.0000 O   0  0  0  0  0  0  0  0  0  0  0  0
   -0.7136   -1.0459    0.0000 N   0  0  0  0  0  0  0  0  0  0  0  0
   -1.5436   -0.4719    0.0000 H   0  0  0  0  0  0  0  0  0  0  0  0
    0.5724   -0.3469    0.0000 C   0  0  0  0  0  0  0  0  0  0  0  0
    0.4582    0.6152   -0.5012 H   0  0  0  0  0  0  0  0  0  0  0  0
    0.8803   -0.1615    1.0299 H   0  0  0  0  0  0  0  0  0  0  0  0
    1.6729   -1.1430   -0.7073 C   0  0  0  0  0  0  0  0  0  0  0  0
    1.4503   -1.6860   -1.7876 O   0  0  0  0  0  0  0  0  0  0  0  0
    2.8583   -1.2054   -0.0875 N   0  0  0  0  0  0  0  0  0  0  0  0
    2.9468   -0.7282    0.7960 H   0  0  0  0  0  0  0  0  0  0  0  0
    4.0345   -1.9139   -0.5961 C   0  0  0  0  0  0  0  0  0  0  0  0
    3.8145   -2.3883   -1.5556 H   0  0  0  0  0  0  0  0  0  0  0  0
    4.8584   -1.2127   -0.7357 H   0  0  0  0  0  0  0  0  0  0  0  0
    4.3375   -2.6861    0.1122 H   0  0  0  0  0  0  0  0  0  0  0  0
  5  6  2  0  0  0  0
  5  7  1  0  0  0  0
  2  3  1  0  0  0  0
  2  4  1  0  0  0  0
  2  5  1  0  0  0  0
  1  2  1  0  0  0  0
 12 13  2  0  0  0  0
 12 14  1  0  0  0  0
  9 10  1  0  0  0  0
  9 11  1  0  0  0  0
  9 12  1  0  0  0  0
  7  8  1  0  0  0  0
  7  9  1  0  0  0  0
 16 17  1  0  0  0  0
 16 18  1  0  0  0  0
 16 19  1  0  0  0  0
 14 15  1  0  0  0  0
 14 16  1  0  0  0  0
M  END
$$$$
default_name
  -OEChem-01062215323D

 19 18  0     0  0  0  0  0  0999 V2000
   -2.2056   -4.0049    0.0000 H   0  0  0  0  0  0  0  0  0  0  0  0
   -2.2496   -2.9169    0.0000 C   0  0  0  0  0  0  0  0  0  0  0  0
   -2.7696   -2.5709    0.8910 H   0  0  0  0  0  0  0  0  0  0  0  0
   -2.7696   -2.5709   -0.8910 H   0  0  0  0  0  0  0  0  0  0  0  0
   -0.8406   -2.3699    0.0000 C   0  0  0  0  0  0  0  0  0  0  0  0
    0.1164   -3.1329    0.0000 O   0  0  0  0  0  0  0  0  0  0  0  0
   -0.7136   -1.0459    0.0000 N   0  0  0  0  0  0  0  0  0  0  0  0
   -1.5436   -0.4719    0.0000 H   0  0  0  0  0  0  0  0  0  0  0  0
    0.5724   -0.3469    0.0000 C   0  0  0  0  0  0  0  0  0  0  0  0
    0.4582    0.6152   -0.5012 H   0  0  0  0  0  0  0  0  0  0  0  0
    0.8803   -0.1615    1.0299 H   0  0  0  0  0  0  0  0  0  0  0  0
    1.6729   -1.1430   -0.7073 C   0  0  0  0  0  0  0  0  0  0  0  0
    1.5535   -1.4510   -1.8915 O   0  0  0  0  0  0  0  0  0  0  0  0
    2.7417   -1.4708    0.0298 N   0  0  0  0  0  0  0  0  0  0  0  0
    2.7509   -1.1744    0.9932 H   0  0  0  0  0  0  0  0  0  0  0  0
    3.8971   -2.2269   -0.4577 C   0  0  0  0  0  0  0  0  0  0  0  0
    3.7700   -2.4898   -1.5107 H   0  0  0  0  0  0  0  0  0  0  0  0
    4.8026   -1.6273   -0.3559 H   0  0  0  0  0  0  0  0  0  0  0  0
    4.0092   -3.1459    0.1190 H   0  0  0  0  0  0  0  0  0  0  0  0
  5  6  2  0  0  0  0
  5  7  1  0  0  0  0
  2  3  1  0  0  0  0
  2  4  1  0  0  0  0
  2  5  1  0  0  0  0
  1  2  1  0  0  0  0
 12 13  2  0  0  0  0
 12 14  1  0  0  0  0
  9 10  1  0  0  0  0
  9 11  1  0  0  0  0
  9 12  1  0  0  0  0
  7  8  1  0  0  0  0
  7  9  1  0  0  0  0
 16 17  1  0  0  0  0
 16 18  1  0  0  0  0
 16 19  1  0  0  0  0
 14 15  1  0  0  0  0
 14 16  1  0  0  0  0
M  END
$$$$
default_name
  -OEChem-01062215323D

 19 18  0     0  0  0  0  0  0999 V2000
   -2.2056   -4.0049    0.0000 H   0  0  0  0  0  0  0  0  0  0  0  0
   -2.2496   -2.9169    0.0000 C   0  0  0  0  0  0  0  0  0  0  0  0
   -2.7696   -2.5709    0.8910 H   0  0  0  0  0  0  0  0  0  0  0  0
   -2.7696   -2.5709   -0.8910 H   0  0  0  0  0  0  0  0  0  0  0  0
   -0.8406   -2.3699    0.0000 C   0  0  0  0  0  0  0  0  0  0  0  0
    0.1164   -3.1329    0.0000 O   0  0  0  0  0  0  0  0  0  0  0  0
   -0.7136   -1.0459    0.0000 N   0  0  0  0  0  0  0  0  0  0  0  0
   -1.5436   -0.4719    0.0000 H   0  0  0  0  0  0  0  0  0  0  0  0
    0.5724   -0.3469    0.0000 C   0  0  0  0  0  0  0  0  0  0  0  0
    0.4582    0.6152   -0.5012 H   0  0  0  0  0  0  0  0  0  0  0  0
    0.8803   -0.1615    1.0299 H   0  0  0  0  0  0  0  0  0  0  0  0
    1.6729   -1.1430   -0.7073 C   0  0  0  0  0  0  0  0  0  0  0  0
    1.6953   -1.2169   -1.9342 O   0  0  0  0  0  0  0  0  0  0  0  0
    2.5816   -1.7351    0.0781 N   0  0  0  0  0  0  0  0  0  0  0  0
    2.4817   -1.6185    1.0744 H   0  0  0  0  0  0  0  0  0  0  0  0
    3.7083   -2.5385   -0.4008 C   0  0  0  0  0  0  0  0  0  0  0  0
    3.7088   -2.5908   -1.4923 H   0  0  0  0  0  0  0  0  0  0  0  0
    4.6481   -2.0916   -0.0737 H   0  0  0  0  0  0  0  0  0  0  0  0
    3.6363   -3.5520   -0.0042 H   0  0  0  0  0  0  0  0  0  0  0  0
  5  6  2  0  0  0  0
  5  7  1  0  0  0  0
  2  3  1  0  0  0  0
  2  4  1  0  0  0  0
  2  5  1  0  0  0  0
  1  2  1  0  0  0  0
 12 13  2  0  0  0  0
 12 14  1  0  0  0  0
  9 10  1  0  0  0  0
  9 11  1  0  0  0  0
  9 12  1  0  0  0  0
  7  8  1  0  0  0  0
  7  9  1  0  0  0  0
 16 17  1  0  0  0  0
 16 18  1  0  0  0  0
 16 19  1  0  0  0  0
 14 15  1  0  0  0  0
 14 16  1  0  0  0  0
M  END
$$$$
default_name
  -OEChem-01062215323D

 19 18  0     0  0  0  0  0  0999 V2000
   -2.2056   -4.0049    0.0000 H   0  0  0  0  0  0  0  0  0  0  0  0
   -2.2496   -2.9169    0.0000 C   0  0  0  0  0  0  0  0  0  0  0  0
   -2.7696   -2.5709    0.8910 H   0  0  0  0  0  0  0  0  0  0  0  0
   -2.7696   -2.5709   -0.8910 H   0  0  0  0  0  0  0  0  0  0  0  0
   -0.8406   -2.3699    0.0000 C   0  0  0  0  0  0  0  0  0  0  0  0
    0.1164   -3.1329    0.0000 O   0  0  0  0  0  0  0  0  0  0  0  0
   -0.7136   -1.0459    0.0000 N   0  0  0  0  0  0  0  0  0  0  0  0
   -1.5436   -0.4719    0.0000 H   0  0  0  0  0  0  0  0  0  0  0  0
    0.5724   -0.3469    0.0000 C   0  0  0  0  0  0  0  0  0  0  0  0
    0.4582    0.6152   -0.5012 H   0  0  0  0  0  0  0  0  0  0  0  0
    0.8803   -0.1615    1.0299 H   0  0  0  0  0  0  0  0  0  0  0  0
    1.6729   -1.1430   -0.7073 C   0  0  0  0  0  0  0  0  0  0  0  0
    1.8660   -0.9999   -1.9129 O   0  0  0  0  0  0  0  0  0  0  0  0
    2.3888   -1.9802    0.0541 N   0  0  0  0  0  0  0  0  0  0  0  0
    2.1578   -2.0305    1.0340 H   0  0  0  0  0  0  0  0  0  0  0  0
    3.4810   -2.8275   -0.4292 C   0  0  0  0  0  0  0  0  0  0  0  0
    3.6351   -2.6844   -1.5015 H   0  0  0  0  0  0  0  0  0  0  0  0
    4.4053   -2.5742    0.0918 H   0  0  0  0  0  0  0  0  0  0  0  0
    3.2441   -3.8768   -0.2489 H   0  0  0  0  0  0  0  0  0  0  0  0
  5  6  2  0  0  0  0
  5  7  1  0  0  0  0
  2  3  1  0  0  0  0
  2  4  1  0  0  0  0
  2  5  1  0  0  0  0
  1  2  1  0  0  0  0
 12 13  2  0  0  0  0
 12 14  1  0  0  0  0
  9 10  1  0  0  0  0
  9 11  1  0  0  0  0
  9 12  1  0  0  0  0
  7  8  1  0  0  0  0
  7  9  1  0  0  0  0
 16 17  1  0  0  0  0
 16 18  1  0  0  0  0
 16 19  1  0  0  0  0
 14 15  1  0  0  0  0
 14 16  1  0  0  0  0
M  END
$$$$
default_name
  -OEChem-01062215323D

 19 18  0     0  0  0  0  0  0999 V2000
   -2.2056   -4.0049    0.0000 H   0  0  0  0  0  0  0  0  0  0  0  0
   -2.2496   -2.9169    0.0000 C   0  0  0  0  0  0  0  0  0  0  0  0
   -2.7696   -2.5709    0.8910 H   0  0  0  0  0  0  0  0  0  0  0  0
   -2.7696   -2.5709   -0.8910 H   0  0  0  0  0  0  0  0  0  0  0  0
   -0.8406   -2.3699    0.0000 C   0  0  0  0  0  0  0  0  0  0  0  0
    0.1164   -3.1329    0.0000 O   0  0  0  0  0  0  0  0  0  0  0  0
   -0.7136   -1.0459    0.0000 N   0  0  0  0  0  0  0  0  0  0  0  0
   -1.5436   -0.4719    0.0000 H   0  0  0  0  0  0  0  0  0  0  0  0
    0.5724   -0.3469    0.0000 C   0  0  0  0  0  0  0  0  0  0  0  0
    0.4582    0.6152   -0.5012 H   0  0  0  0  0  0  0  0  0  0  0  0
    0.8803   -0.1615    1.0299 H   0  0  0  0  0  0  0  0  0  0  0  0
    1.6729   -1.1430   -0.7073 C   0  0  0  0  0  0  0  0  0  0  0  0
    2.0540   -0.8146   -1.8290 O   0  0  0  0  0  0  0  0  0  0  0  0
    2.1765   -2.1895   -0.0407 N   0  0  0  0  0  0  0  0  0  0  0  0
    1.8010   -2.3822    0.8747 H   0  0  0  0  0  0  0  0  0  0  0  0
    3.2307   -3.0742   -0.5409 C   0  0  0  0  0  0  0  0  0  0  0  0
    3.5540   -2.7644   -1.5377 H   0  0  0  0  0  0  0  0  0  0  0  0
    4.0909   -3.0421    0.1292 H   0  0  0  0  0  0  0  0  0  0  0  0
    2.8594   -4.0982   -0.5984 H   0  0  0  0  0  0  0  0  0  0  0  0
  5  6  2  0  0  0  0
  5  7  1  0  0  0  0
  2  3  1  0  0  0  0
  2  4  1  0  0  0  0
  2  5  1  0  0  0  0
  1  2  1  0  0  0  0
 12 13  2  0  0  0  0
 12 14  1  0  0  0  0
  9 10  1  0  0  0  0
  9 11  1  0  0  0  0
  9 12  1  0  0  0  0
  7  8  1  0  0  0  0
  7  9  1  0  0  0  0
 16 17  1  0  0  0  0
 16 18  1  0  0  0  0
 16 19  1  0  0  0  0
 14 15  1  0  0  0  0
 14 16  1  0  0  0  0
M  END
$$$$
default_name
  -OEChem-01062215323D

 19 18  0     0  0  0  0  0  0999 V2000
   -2.2056   -4.0049    0.0000 H   0  0  0  0  0  0  0  0  0  0  0  0
   -2.2496   -2.9169    0.0000 C   0  0  0  0  0  0  0  0  0  0  0  0
   -2.7696   -2.5709    0.8910 H   0  0  0  0  0  0  0  0  0  0  0  0
   -2.7696   -2.5709   -0.8910 H   0  0  0  0  0  0  0  0  0  0  0  0
   -0.8406   -2.3699    0.0000 C   0  0  0  0  0  0  0  0  0  0  0  0
    0.1164   -3.1329    0.0000 O   0  0  0  0  0  0  0  0  0  0  0  0
   -0.7136   -1.0459    0.0000 N   0  0  0  0  0  0  0  0  0  0  0  0
   -1.5436   -0.4719    0.0000 H   0  0  0  0  0  0  0  0  0  0  0  0
    0.5724   -0.3469    0.0000 C   0  0  0  0  0  0  0  0  0  0  0  0
    0.4582    0.6152   -0.5012 H   0  0  0  0  0  0  0  0  0  0  0  0
    0.8803   -0.1615    1.0299 H   0  0  0  0  0  0  0  0  0  0  0  0
    1.6729   -1.1430   -0.7073 C   0  0  0  0  0  0  0  0  0  0  0  0
    2.2464   -0.6737   -1.6882 O   0  0  0  0  0  0  0  0  0  0  0  0
    1.9592   -2.3486   -0.1997 N   0  0  0  0  0  0  0  0  0  0  0  0
    1.4358   -2.6496    0.6075 H   0  0  0  0  0  0  0  0  0  0  0  0
    2.9745   -3.2618   -0.7284 C   0  0  0  0  0  0  0  0  0  0  0  0
    3.4709   -2.8252   -1.5985 H   0  0  0  0  0  0  0  0  0  0  0  0
    3.7262   -3.4634    0.0359 H   0  0  0  0  0  0  0  0  0  0  0  0
    2.5083   -4.2010   -1.0289 H   0  0  0  0  0  0  0  0  0  0  0  0
  5  6  2  0  0  0  0
  5  7  1  0  0  0  0
  2  3  1  0  0  0  0
  2  4  1  0  0  0  0
  2  5  1  0  0  0  0
  1  2  1  0  0  0  0
 12 13  2  0  0  0  0
 12 14  1  0  0  0  0
  9 10  1  0  0  0  0
  9 11  1  0  0  0  0
  9 12  1  0  0  0  0
  7  8  1  0  0  0  0
  7  9  1  0  0  0  0
 16 17  1  0  0  0  0
 16 18  1  0  0  0  0
 16 19  1  0  0  0  0
 14 15  1  0  0  0  0
 14 16  1  0  0  0  0
M  END
$$$$
default_name
  -OEChem-01062215323D

 19 18  0     0  0  0  0  0  0999 V2000
   -2.2056   -4.0049    0.0000 H   0  0  0  0  0  0  0  0  0  0  0  0
   -2.2496   -2.9169    0.0000 C   0  0  0  0  0  0  0  0  0  0  0  0
   -2.7696   -2.5709    0.8910 H   0  0  0  0  0  0  0  0  0  0  0  0
   -2.7696   -2.5709   -0.8910 H   0  0  0  0  0  0  0  0  0  0  0  0
   -0.8406   -2.3699    0.0000 C   0  0  0  0  0  0  0  0  0  0  0  0
    0.1164   -3.1329    0.0000 O   0  0  0  0  0  0  0  0  0  0  0  0
   -0.7136   -1.0459    0.0000 N   0  0  0  0  0  0  0  0  0  0  0  0
   -1.5436   -0.4719    0.0000 H   0  0  0  0  0  0  0  0  0  0  0  0
    0.5724   -0.3469    0.0000 C   0  0  0  0  0  0  0  0  0  0  0  0
    0.4582    0.6152   -0.5012 H   0  0  0  0  0  0  0  0  0  0  0  0
    0.8803   -0.1615    1.0299 H   0  0  0  0  0  0  0  0  0  0  0  0
    1.6729   -1.1430   -0.7073 C   0  0  0  0  0  0  0  0  0  0  0  0
    2.4302   -0.5868   -1.5001 O   0  0  0  0  0  0  0  0  0  0  0  0
    1.7517   -2.4467   -0.4121 N   0  0  0  0  0  0  0  0  0  0  0  0
    1.0870   -2.8146    0.2504 H   0  0  0  0  0  0  0  0  0  0  0  0
    2.7299   -3.3775   -0.9788 C   0  0  0  0  0  0  0  0  0  0  0  0
    3.3916   -2.8627   -1.6796 H   0  0  0  0  0  0  0  0  0  0  0  0
    3.3362   -3.8094   -0.1815 H   0  0  0  0  0  0  0  0  0  0  0  0
    2.2149   -4.1783   -1.5112 H   0  0  0  0  0  0  0  0  0  0  0  0
  5  6  2  0  0  0  0
  5  7  1  0  0  0  0
  2  3  1  0  0  0  0
  2  4  1  0  0  0  0
  2  5  1  0  0  0  0
  1  2  1  0  0  0  0
 12 13  2  0  0  0  0
 12 14  1  0  0  0  0
  9 10  1  0  0  0  0
  9 11  1  0  0  0  0
  9 12  1  0  0  0  0
  7  8  1  0  0  0  0
  7  9  1  0  0  0  0
 16 17  1  0  0  0  0
 16 18  1  0  0  0  0
 16 19  1  0  0  0  0
 14 15  1  0  0  0  0
 14 16  1  0  0  0  0
M  END
$$$$
default_name
  -OEChem-01062215323D

 19 18  0     0  0  0  0  0  0999 V2000
   -2.2056   -4.0049    0.0000 H   0  0  0  0  0  0  0  0  0  0  0  0
   -2.2496   -2.9169    0.0000 C   0  0  0  0  0  0  0  0  0  0  0  0
   -2.7696   -2.5709    0.8910 H   0  0  0  0  0  0  0  0  0  0  0  0
   -2.7696   -2.5709   -0.8910 H   0  0  0  0  0  0  0  0  0  0  0  0
   -0.8406   -2.3699    0.0000 C   0  0  0  0  0  0  0  0  0  0  0  0
    0.1164   -3.1329    0.0000 O   0  0  0  0  0  0  0  0  0  0  0  0
   -0.7136   -1.0459    0.0000 N   0  0  0  0  0  0  0  0  0  0  0  0
   -1.5436   -0.4719    0.0000 H   0  0  0  0  0  0  0  0  0  0  0  0
    0.5724   -0.3469    0.0000 C   0  0  0  0  0  0  0  0  0  0  0  0
    0.4582    0.6152   -0.5012 H   0  0  0  0  0  0  0  0  0  0  0  0
    0.8803   -0.1615    1.0299 H   0  0  0  0  0  0  0  0  0  0  0  0
    1.6729   -1.1430   -0.7073 C   0  0  0  0  0  0  0  0  0  0  0  0
    2.5927   -0.5598   -1.2775 O   0  0  0  0  0  0  0  0  0  0  0  0
    1.5682   -2.4772   -0.6635 N   0  0  0  0  0  0  0  0  0  0  0  0
    0.7785   -2.8658   -0.1720 H   0  0  0  0  0  0  0  0  0  0  0  0
    2.5134   -3.4134   -1.2752 C   0  0  0  0  0  0  0  0  0  0  0  0
    3.3215   -2.8744   -1.7757 H   0  0  0  0  0  0  0  0  0  0  0  0
    2.9473   -4.0566   -0.5084 H   0  0  0  0  0  0  0  0  0  0  0  0
    1.9990   -4.0315   -2.0122 H   0  0  0  0  0  0  0  0  0  0  0  0
  5  6  2  0  0  0  0
  5  7  1  0  0  0  0
  2  3  1  0  0  0  0
  2  4  1  0  0  0  0
  2  5  1  0  0  0  0
  1  2  1  0  0  0  0
 12 13  2  0  0  0  0
 12 14  1  0  0  0  0
  9 10  1  0  0  0  0
  9 11  1  0  0  0  0
  9 12  1  0  0  0  0
  7  8  1  0  0  0  0
  7  9  1  0  0  0  0
 16 17  1  0  0  0  0
 16 18  1  0  0  0  0
 16 19  1  0  0  0  0
 14 15  1  0  0  0  0
 14 16  1  0  0  0  0
M  END
$$$$
default_name
  -OEChem-01062215323D

 19 18  0     0  0  0  0  0  0999 V2000
   -2.2056   -4.0049    0.0000 H   0  0  0  0  0  0  0  0  0  0  0  0
   -2.2496   -2.9169    0.0000 C   0  0  0  0  0  0  0  0  0  0  0  0
   -2.7696   -2.5709    0.8910 H   0  0  0  0  0  0  0  0  0  0  0  0
   -2.7696   -2.5709   -0.8910 H   0  0  0  0  0  0  0  0  0  0  0  0
   -0.8406   -2.3699    0.0000 C   0  0  0  0  0  0  0  0  0  0  0  0
    0.1164   -3.1329    0.0000 O   0  0  0  0  0  0  0  0  0  0  0  0
   -0.7136   -1.0459    0.0000 N   0  0  0  0  0  0  0  0  0  0  0  0
   -1.5436   -0.4719    0.0000 H   0  0  0  0  0  0  0  0  0  0  0  0
    0.5724   -0.3469    0.0000 C   0  0  0  0  0  0  0  0  0  0  0  0
    0.4582    0.6152   -0.5012 H   0  0  0  0  0  0  0  0  0  0  0  0
    0.8803   -0.1615    1.0299 H   0  0  0  0  0  0  0  0  0  0  0  0
    1.6729   -1.1430   -0.7073 C   0  0  0  0  0  0  0  0  0  0  0  0
    2.7230   -0.5945   -1.0357 O   0  0  0  0  0  0  0  0  0  0  0  0
    1.4210   -2.4380   -0.9366 N   0  0  0  0  0  0  0  0  0  0  0  0
    0.5311   -2.7999   -0.6311 H   0  0  0  0  0  0  0  0  0  0  0  0
    2.3399   -3.3672   -1.5972 C   0  0  0  0  0  0  0  0  0  0  0  0
    3.2652   -2.8594   -1.8801 H   0  0  0  0  0  0  0  0  0  0  0  0
    2.5861   -4.1881   -0.9225 H   0  0  0  0  0  0  0  0  0  0  0  0
    1.8755   -3.7708   -2.4979 H   0  0  0  0  0  0  0  0  0  0  0  0
  5  6  2  0  0  0  0
  5  7  1  0  0  0  0
  2  3  1  0  0  0  0
  2  4  1  0  0  0  0
  2  5  1  0  0  0  0
  1  2  1  0  0  0  0
 12 13  2  0  0  0  0
 12 14  1  0  0  0  0
  9 10  1  0  0  0  0
  9 11  1  0  0  0  0
  9 12  1  0  0  0  0
  7  8  1  0  0  0  0
  7  9  1  0  0  0  0
 16 17  1  0  0  0  0
 16 18  1  0  0  0  0
 16 19  1  0  0  0  0
 14 15  1  0  0  0  0
 14 16  1  0  0  0  0
M  END
$$$$
default_name
  -OEChem-01062215323D

 19 18  0     0  0  0  0  0  0999 V2000
   -2.2056   -4.0049    0.0000 H   0  0  0  0  0  0  0  0  0  0  0  0
   -2.2496   -2.9169    0.0000 C   0  0  0  0  0  0  0  0  0  0  0  0
   -2.7696   -2.5709    0.8910 H   0  0  0  0  0  0  0  0  0  0  0  0
   -2.7696   -2.5709   -0.8910 H   0  0  0  0  0  0  0  0  0  0  0  0
   -0.8406   -2.3699    0.0000 C   0  0  0  0  0  0  0  0  0  0  0  0
    0.1164   -3.1329    0.0000 O   0  0  0  0  0  0  0  0  0  0  0  0
   -0.7136   -1.0459    0.0000 N   0  0  0  0  0  0  0  0  0  0  0  0
   -1.5436   -0.4719    0.0000 H   0  0  0  0  0  0  0  0  0  0  0  0
    0.5724   -0.3469    0.0000 C   0  0  0  0  0  0  0  0  0  0  0  0
    0.4582    0.6152   -0.5012 H   0  0  0  0  0  0  0  0  0  0  0  0
    0.8803   -0.1615    1.0299 H   0  0  0  0  0  0  0  0  0  0  0  0
    1.6729   -1.1430   -0.7073 C   0  0  0  0  0  0  0  0  0  0  0  0
    2.8122   -0.6887   -0.7909 O   0  0  0  0  0  0  0  0  0  0  0  0
    1.3203   -2.3317   -1.2130 N   0  0  0  0  0  0  0  0  0  0  0  0
    0.3619   -2.6212   -1.0956 H   0  0  0  0  0  0  0  0  0  0  0  0
    2.2212   -3.2418   -1.9231 C   0  0  0  0  0  0  0  0  0  0  0  0
    3.2267   -2.8188   -1.9857 H   0  0  0  0  0  0  0  0  0  0  0  0
    2.2772   -4.1949   -1.3955 H   0  0  0  0  0  0  0  0  0  0  0  0
    1.8527   -3.4138   -2.9352 H   0  0  0  0  0  0  0  0  0  0  0  0
  5  6  2  0  0  0  0
  5  7  1  0  0  0  0
  2  3  1  0  0  0  0
  2  4  1  0  0  0  0
  2  5  1  0  0  0  0
  1  2  1  0  0  0  0
 12 13  2  0  0  0  0
 12 14  1  0  0  0  0
  9 10  1  0  0  0  0
  9 11  1  0  0  0  0
  9 12  1  0  0  0  0
  7  8  1  0  0  0  0
  7  9  1  0  0  0  0
 16 17  1  0  0  0  0
 16 18  1  0  0  0  0
 16 19  1  0  0  0  0
 14 15  1  0  0  0  0
 14 16  1  0  0  0  0
M  END
$$$$
default_name
  -OEChem-01062215323D

 19 18  0     0  0  0  0  0  0999 V2000
   -2.2056   -4.0049    0.0000 H   0  0  0  0  0  0  0  0  0  0  0  0
   -2.2496   -2.9169    0.0000 C   0  0  0  0  0  0  0  0  0  0  0  0
   -2.7696   -2.5709    0.8910 H   0  0  0  0  0  0  0  0  0  0  0  0
   -2.7696   -2.5709   -0.8910 H   0  0  0  0  0  0  0  0  0  0  0  0
   -0.8406   -2.3699    0.0000 C   0  0  0  0  0  0  0  0  0  0  0  0
    0.1164   -3.1329    0.0000 O   0  0  0  0  0  0  0  0  0  0  0  0
   -0.7136   -1.0459    0.0000 N   0  0  0  0  0  0  0  0  0  0  0  0
   -1.5436   -0.4719    0.0000 H   0  0  0  0  0  0  0  0  0  0  0  0
    0.5724   -0.3469    0.0000 C   0  0  0  0  0  0  0  0  0  0  0  0
    0.4582    0.6152   -0.5012 H   0  0  0  0  0  0  0  0  0  0  0  0
    0.8803   -0.1615    1.0299 H   0  0  0  0  0  0  0  0  0  0  0  0
    1.6729   -1.1430   -0.7073 C   0  0  0  0  0  0  0  0  0  0  0  0
    2.8542   -0.8358   -0.5601 O   0  0  0  0  0  0  0  0  0  0  0  0
    1.2729   -2.1655   -1.4737 N   0  0  0  0  0  0  0  0  0  0  0  0
    0.2823   -2.3420   -1.5338 H   0  0  0  0  0  0  0  0  0  0  0  0
    2.1653   -3.0460   -2.2305 C   0  0  0  0  0  0  0  0  0  0  0  0
    3.2086   -2.7553   -2.0854 H   0  0  0  0  0  0  0  0  0  0  0  0
    2.0417   -4.0765   -1.8952 H   0  0  0  0  0  0  0  0  0  0  0  0
    1.9321   -2.9849   -3.2943 H   0  0  0  0  0  0  0  0  0  0  0  0
  5  6  2  0  0  0  0
  5  7  1  0  0  0  0
  2  3  1  0  0  0  0
  2  4  1  0  0  0  0
  2  5  1  0  0  0  0
  1  2  1  0  0  0  0
 12 13  2  0  0  0  0
 12 14  1  0  0  0  0
  9 10  1  0  0  0  0
  9 11  1  0  0  0  0
  9 12  1  0  0  0  0
  7  8  1  0  0  0  0
  7  9  1  0  0  0  0
 16 17  1  0  0  0  0
 16 18  1  0  0  0  0
 16 19  1  0  0  0  0
 14 15  1  0  0  0  0
 14 16  1  0  0  0  0
M  END
$$$$
default_name
  -OEChem-01062215323D

 19 18  0     0  0  0  0  0  0999 V2000
   -2.2056   -4.0049    0.0000 H   0  0  0  0  0  0  0  0  0  0  0  0
   -2.2496   -2.9169    0.0000 C   0  0  0  0  0  0  0  0  0  0  0  0
   -2.7696   -2.5709    0.8910 H   0  0  0  0  0  0  0  0  0  0  0  0
   -2.7696   -2.5709   -0.8910 H   0  0  0  0  0  0  0  0  0  0  0  0
   -0.8406   -2.3699    0.0000 C   0  0  0  0  0  0  0  0  0  0  0  0
    0.1164   -3.1329    0.0000 O   0  0  0  0  0  0  0  0  0  0  0  0
   -0.7136   -1.0459    0.0000 N   0  0  0  0  0  0  0  0  0  0  0  0
   -1.5436   -0.4719    0.0000 H   0  0  0  0  0  0  0  0  0  0  0  0
    0.5724   -0.3469    0.0000 C   0  0  0  0  0  0  0  0  0  0  0  0
    0.4582    0.6152   -0.5012 H   0  0  0  0  0  0  0  0  0  0  0  0
    0.8803   -0.1615    1.0299 H   0  0  0  0  0  0  0  0  0  0  0  0
    1.6729   -1.1430   -0.7073 C   0  0  0  0  0  0  0  0  0  0  0  0
    2.8460   -1.0258   -0.3588 O   0  0  0  0  0  0  0  0  0  0  0  0
    1.2821   -1.9509   -1.7010 N   0  0  0  0  0  0  0  0  0  0  0  0
    0.2977   -1.9812   -1.9159 H   0  0  0  0  0  0  0  0  0  0  0  0
    2.1761   -2.7929   -2.4985 C   0  0  0  0  0  0  0  0  0  0  0  0
    3.2121   -2.6732   -2.1723 H   0  0  0  0  0  0  0  0  0  0  0  0
    1.8955   -3.8411   -2.3875 H   0  0  0  0  0  0  0  0  0  0  0  0
    2.1085   -2.5134   -3.5507 H   0  0  0  0  0  0  0  0  0  0  0  0
  5  6  2  0  0  0  0
  5  7  1  0  0  0  0
  2  3  1  0  0  0  0
  2  4  1  0  0  0  0
  2  5  1  0  0  0  0
  1  2  1  0  0  0  0
 12 13  2  0  0  0  0
 12 14  1  0  0  0  0
  9 10  1  0  0  0  0
  9 11  1  0  0  0  0
  9 12  1  0  0  0  0
  7  8  1  0  0  0  0
  7  9  1  0  0  0  0
 16 17  1  0  0  0  0
 16 18  1  0  0  0  0
 16 19  1  0  0  0  0
 14 15  1  0  0  0  0
 14 16  1  0  0  0  0
M  END
$$$$
default_name
  -OEChem-01062215323D

 19 18  0     0  0  0  0  0  0999 V2000
   -2.2056   -4.0049    0.0000 H   0  0  0  0  0  0  0  0  0  0  0  0
   -2.2496   -2.9169    0.0000 C   0  0  0  0  0  0  0  0  0  0  0  0
   -2.7696   -2.5709    0.8910 H   0  0  0  0  0  0  0  0  0  0  0  0
   -2.7696   -2.5709   -0.8910 H   0  0  0  0  0  0  0  0  0  0  0  0
   -0.8406   -2.3699    0.0000 C   0  0  0  0  0  0  0  0  0  0  0  0
    0.1164   -3.1329    0.0000 O   0  0  0  0  0  0  0  0  0  0  0  0
   -0.7136   -1.0459    0.0000 N   0  0  0  0  0  0  0  0  0  0  0  0
   -1.5436   -0.4719    0.0000 H   0  0  0  0  0  0  0  0  0  0  0  0
    0.5724   -0.3469    0.0000 C   0  0  0  0  0  0  0  0  0  0  0  0
    0.4582    0.6152   -0.5012 H   0  0  0  0  0  0  0  0  0  0  0  0
    0.8803   -0.1615    1.0299 H   0  0  0  0  0  0  0  0  0  0  0  0
    1.6729   -1.1430   -0.7073 C   0  0  0  0  0  0  0  0  0  0  0  0
    2.7884   -1.2459   -0.2008 O   0  0  0  0  0  0  0  0  0  0  0  0
    1.3472   -1.7024   -1.8794 N   0  0  0  0  0  0  0  0  0  0  0  0
    0.4071   -1.5636   -2.2157 H   0  0  0  0  0  0  0  0  0  0  0  0
    2.2529   -2.4999   -2.7088 C   0  0  0  0  0  0  0  0  0  0  0  0
    3.2370   -2.5783   -2.2404 H   0  0  0  0  0  0  0  0  0  0  0  0
    1.8488   -3.5047   -2.8390 H   0  0  0  0  0  0  0  0  0  0  0  0
    2.3697   -2.0313   -3.6869 H   0  0  0  0  0  0  0  0  0  0  0  0
  5  6  2  0  0  0  0
  5  7  1  0  0  0  0
  2  3  1  0  0  0  0
  2  4  1  0  0  0  0
  2  5  1  0  0  0  0
  1  2  1  0  0  0  0
 12 13  2  0  0  0  0
 12 14  1  0  0  0  0
  9 10  1  0  0  0  0
  9 11  1  0  0  0  0
  9 12  1  0  0  0  0
  7  8  1  0  0  0  0
  7  9  1  0  0  0  0
 16 17  1  0  0  0  0
 16 18  1  0  0  0  0
 16 19  1  0  0  0  0
 14 15  1  0  0  0  0
 14 16  1  0  0  0  0
M  END
$$$$
default_name
  -OEChem-01062215323D

 19 18  0     0  0  0  0  0  0999 V2000
   -2.2056   -4.0049    0.0000 H   0  0  0  0  0  0  0  0  0  0  0  0
   -2.2496   -2.9169    0.0000 C   0  0  0  0  0  0  0  0  0  0  0  0
   -2.7696   -2.5709    0.8910 H   0  0  0  0  0  0  0  0  0  0  0  0
   -2.7696   -2.5709   -0.8910 H   0  0  0  0  0  0  0  0  0  0  0  0
   -0.8406   -2.3699    0.0000 C   0  0  0  0  0  0  0  0  0  0  0  0
    0.1164   -3.1329    0.0000 O   0  0  0  0  0  0  0  0  0  0  0  0
   -0.7136   -1.0459    0.0000 N   0  0  0  0  0  0  0  0  0  0  0  0
   -1.5436   -0.4719    0.0000 H   0  0  0  0  0  0  0  0  0  0  0  0
    0.5724   -0.3469    0.0000 C   0  0  0  0  0  0  0  0  0  0  0  0
    0.4582    0.6152   -0.5012 H   0  0  0  0  0  0  0  0  0  0  0  0
    0.8803   -0.1615    1.0299 H   0  0  0  0  0  0  0  0  0  0  0  0
    1.6729   -1.1430   -0.7073 C   0  0  0  0  0  0  0  0  0  0  0  0
    2.6852   -1.4809   -0.0969 O   0  0  0  0  0  0  0  0  0  0  0  0
    1.4638   -1.4370   -1.9968 N   0  0  0  0  0  0  0  0  0  0  0  0
    0.6030   -1.1175   -2.4130 H   0  0  0  0  0  0  0  0  0  0  0  0
    2.3903   -2.1870   -2.8472 C   0  0  0  0  0  0  0  0  0  0  0  0
    3.2816   -2.4768   -2.2853 H   0  0  0  0  0  0  0  0  0  0  0  0
    1.9046   -3.0902   -3.2187 H   0  0  0  0  0  0  0  0  0  0  0  0
    2.6979   -1.5715   -3.6937 H   0  0  0  0  0  0  0  0  0  0  0  0
  5  6  2  0  0  0  0
  5  7  1  0  0  0  0
  2  3  1  0  0  0  0
  2  4  1  0  0  0  0
  2  5  1  0  0  0  0
  1  2  1  0  0  0  0
 12 13  2  0  0  0  0
 12 14  1  0  0  0  0
  9 10  1  0  0  0  0
  9 11  1  0  0  0  0
  9 12  1  0  0  0  0
  7  8  1  0  0  0  0
  7  9  1  0  0  0  0
 16 17  1  0  0  0  0
 16 18  1  0  0  0  0
 16 19  1  0  0  0  0
 14 15  1  0  0  0  0
 14 16  1  0  0  0  0
M  END
$$$$
default_name
  -OEChem-01062215323D

 19 18  0     0  0  0  0  0  0999 V2000
   -2.2056   -4.0049    0.0000 H   0  0  0  0  0  0  0  0  0  0  0  0
   -2.2496   -2.9169    0.0000 C   0  0  0  0  0  0  0  0  0  0  0  0
   -2.7696   -2.5709    0.8910 H   0  0  0  0  0  0  0  0  0  0  0  0
   -2.7696   -2.5709   -0.8910 H   0  0  0  0  0  0  0  0  0  0  0  0
   -0.8406   -2.3699    0.0000 C   0  0  0  0  0  0  0  0  0  0  0  0
    0.1164   -3.1329    0.0000 O   0  0  0  0  0  0  0  0  0  0  0  0
   -0.7136   -1.0459    0.0000 N   0  0  0  0  0  0  0  0  0  0  0  0
   -1.5436   -0.4719    0.0000 H   0  0  0  0  0  0  0  0  0  0  0  0
    0.5724   -0.3469    0.0000 C   0  0  0  0  0  0  0  0  0  0  0  0
    0.4582    0.6152   -0.5012 H   0  0  0  0  0  0  0  0  0  0  0  0
    0.8803   -0.1615    1.0299 H   0  0  0  0  0  0  0  0  0  0  0  0
    1.6729   -1.1430   -0.7073 C   0  0  0  0  0  0  0  0  0  0  0  0
    2.5434   -1.7149   -0.0541 O   0  0  0  0  0  0  0  0  0  0  0  0
    1.6239   -1.1727   -2.0451 N   0  0  0  0  0  0  0  0  0  0  0  0
    0.8722   -0.6733   -2.4941 H   0  0  0  0  0  0  0  0  0  0  0  0
    2.5791   -1.8754   -2.9041 C   0  0  0  0  0  0  0  0  0  0  0  0
    3.3428   -2.3758   -2.3037 H   0  0  0  0  0  0  0  0  0  0  0  0
    2.0591   -2.6258   -3.5010 H   0  0  0  0  0  0  0  0  0  0  0  0
    3.0708   -1.1654   -3.5705 H   0  0  0  0  0  0  0  0  0  0  0  0
  5  6  2  0  0  0  0
  5  7  1  0  0  0  0
  2  3  1  0  0  0  0
  2  4  1  0  0  0  0
  2  5  1  0  0  0  0
  1  2  1  0  0  0  0
 12 13  2  0  0  0  0
 12 14  1  0  0  0  0
  9 10  1  0  0  0  0
  9 11  1  0  0  0  0
  9 12  1  0  0  0  0
  7  8  1  0  0  0  0
  7  9  1  0  0  0  0
 16 17  1  0  0  0  0
 16 18  1  0  0  0  0
 16 19  1  0  0  0  0
 14 15  1  0  0  0  0
 14 16  1  0  0  0  0
M  END
$$$$
default_name
  -OEChem-01062215323D

 19 18  0     0  0  0  0  0  0999 V2000
   -2.2056   -4.0049    0.0000 H   0  0  0  0  0  0  0  0  0  0  0  0
   -2.2496   -2.9169    0.0000 C   0  0  0  0  0  0  0  0  0  0  0  0
   -2.7696   -2.5709    0.8910 H   0  0  0  0  0  0  0  0  0  0  0  0
   -2.7696   -2.5709   -0.8910 H   0  0  0  0  0  0  0  0  0  0  0  0
   -0.8406   -2.3699    0.0000 C   0  0  0  0  0  0  0  0  0  0  0  0
    0.1164   -3.1329    0.0000 O   0  0  0  0  0  0  0  0  0  0  0  0
   -0.7136   -1.0459    0.0000 N   0  0  0  0  0  0  0  0  0  0  0  0
   -1.5436   -0.4719    0.0000 H   0  0  0  0  0  0  0  0  0  0  0  0
    0.5724   -0.3469    0.0000 C   0  0  0  0  0  0  0  0  0  0  0  0
    0.4582    0.6152   -0.5012 H   0  0  0  0  0  0  0  0  0  0  0  0
    0.8803   -0.1615    1.0299 H   0  0  0  0  0  0  0  0  0  0  0  0
    1.6729   -1.1430   -0.7073 C   0  0  0  0  0  0  0  0  0  0  0  0
    2.3727   -1.9320   -0.0754 O   0  0  0  0  0  0  0  0  0  0  0  0
    1.8167   -0.9276   -2.0210 N   0  0  0  0  0  0  0  0  0  0  0  0
    1.1961   -0.2613   -2.4537 H   0  0  0  0  0  0  0  0  0  0  0  0
    2.8064   -1.5864   -2.8758 C   0  0  0  0  0  0  0  0  0  0  0  0
    3.4164   -2.2821   -2.2946 H   0  0  0  0  0  0  0  0  0  0  0  0
    2.3018   -2.1432   -3.6664 H   0  0  0  0  0  0  0  0  0  0  0  0
    3.4630   -0.8406   -3.3258 H   0  0  0  0  0  0  0  0  0  0  0  0
  5  6  2  0  0  0  0
  5  7  1  0  0  0  0
  2  3  1  0  0  0  0
  2  4  1  0  0  0  0
  2  5  1  0  0  0  0
  1  2  1  0  0  0  0
 12 13  2  0  0  0  0
 12 14  1  0  0  0  0
  9 10  1  0  0  0  0
  9 11  1  0  0  0  0
  9 12  1  0  0  0  0
  7  8  1  0  0  0  0
  7  9  1  0  0  0  0
 16 17  1  0  0  0  0
 16 18  1  0  0  0  0
 16 19  1  0  0  0  0
 14 15  1  0  0  0  0
 14 16  1  0  0  0  0
M  END
$$$$
default_name
  -OEChem-01062215323D

 19 18  0     0  0  0  0  0  0999 V2000
   -2.2056   -4.0049    0.0000 H   0  0  0  0  0  0  0  0  0  0  0  0
   -2.2496   -2.9169    0.0000 C   0  0  0  0  0  0  0  0  0  0  0  0
   -2.7696   -2.5709    0.8910 H   0  0  0  0  0  0  0  0  0  0  0  0
   -2.7696   -2.5709   -0.8910 H   0  0  0  0  0  0  0  0  0  0  0  0
   -0.8406   -2.3699    0.0000 C   0  0  0  0  0  0  0  0  0  0  0  0
    0.1164   -3.1329    0.0000 O   0  0  0  0  0  0  0  0  0  0  0  0
   -0.7136   -1.0459    0.0000 N   0  0  0  0  0  0  0  0  0  0  0  0
   -1.5436   -0.4719    0.0000 H   0  0  0  0  0  0  0  0  0  0  0  0
    0.5724   -0.3469    0.0000 C   0  0  0  0  0  0  0  0  0  0  0  0
    0.4582    0.6152   -0.5012 H   0  0  0  0  0  0  0  0  0  0  0  0
    0.8803   -0.1615    1.0299 H   0  0  0  0  0  0  0  0  0  0  0  0
    1.6729   -1.1430   -0.7073 C   0  0  0  0  0  0  0  0  0  0  0  0
    2.1847   -2.1173   -0.1593 O   0  0  0  0  0  0  0  0  0  0  0  0
    2.0289   -0.7184   -1.9263 N   0  0  0  0  0  0  0  0  0  0  0  0
    1.5529    0.0903   -2.2944 H   0  0  0  0  0  0  0  0  0  0  0  0
    3.0567   -1.3397   -2.7641 C   0  0  0  0  0  0  0  0  0  0  0  0
    3.4976   -2.2022   -2.2583 H   0  0  0  0  0  0  0  0  0  0  0  0
    2.6162   -1.6754   -3.7038 H   0  0  0  0  0  0  0  0  0  0  0  0
    3.8478   -0.6193   -2.9763 H   0  0  0  0  0  0  0  0  0  0  0  0
  5  6  2  0  0  0  0
  5  7  1  0  0  0  0
  2  3  1  0  0  0  0
  2  4  1  0  0  0  0
  2  5  1  0  0  0  0
  1  2  1  0  0  0  0
 12 13  2  0  0  0  0
 12 14  1  0  0  0  0
  9 10  1  0  0  0  0
  9 11  1  0  0  0  0
  9 12  1  0  0  0  0
  7  8  1  0  0  0  0
  7  9  1  0  0  0  0
 16 17  1  0  0  0  0
 16 18  1  0  0  0  0
 16 19  1  0  0  0  0
 14 15  1  0  0  0  0
 14 16  1  0  0  0  0
M  END
$$$$
default_name
  -OEChem-01062215323D

 19 18  0     0  0  0  0  0  0999 V2000
   -2.2056   -4.0049    0.0000 H   0  0  0  0  0  0  0  0  0  0  0  0
   -2.2496   -2.9169    0.0000 C   0  0  0  0  0  0  0  0  0  0  0  0
   -2.7696   -2.5709    0.8910 H   0  0  0  0  0  0  0  0  0  0  0  0
   -2.7696   -2.5709   -0.8910 H   0  0  0  0  0  0  0  0  0  0  0  0
   -0.8406   -2.3699    0.0000 C   0  0  0  0  0  0  0  0  0  0  0  0
    0.1164   -3.1329    0.0000 O   0  0  0  0  0  0  0  0  0  0  0  0
   -0.7136   -1.0459    0.0000 N   0  0  0  0  0  0  0  0  0  0  0  0
   -1.5436   -0.4719    0.0000 H   0  0  0  0  0  0  0  0  0  0  0  0
    0.5724   -0.3469    0.0000 C   0  0  0  0  0  0  0  0  0  0  0  0
    0.4582    0.6152   -0.5012 H   0  0  0  0  0  0  0  0  0  0  0  0
    0.8803   -0.1615    1.0299 H   0  0  0  0  0  0  0  0  0  0  0  0
    1.6729   -1.1430   -0.7073 C   0  0  0  0  0  0  0  0  0  0  0  0
    1.9923   -2.2582   -0.3001 O   0  0  0  0  0  0  0  0  0  0  0  0
    2.2462   -0.5592   -1.7673 N   0  0  0  0  0  0  0  0  0  0  0  0
    1.9181    0.3578   -2.0272 H   0  0  0  0  0  0  0  0  0  0  0  0
    3.3129   -1.1521   -2.5766 C   0  0  0  0  0  0  0  0  0  0  0  0
    3.5806   -2.1414   -2.1976 H   0  0  0  0  0  0  0  0  0  0  0  0
    2.9809   -1.2540   -3.6106 H   0  0  0  0  0  0  0  0  0  0  0  0
    4.1988   -0.5164   -2.5458 H   0  0  0  0  0  0  0  0  0  0  0  0
  5  6  2  0  0  0  0
  5  7  1  0  0  0  0
  2  3  1  0  0  0  0
  2  4  1  0  0  0  0
  2  5  1  0  0  0  0
  1  2  1  0  0  0  0
 12 13  2  0  0  0  0
 12 14  1  0  0  0  0
  9 10  1  0  0  0  0
  9 11  1  0  0  0  0
  9 12  1  0  0  0  0
  7  8  1  0  0  0  0
  7  9  1  0  0  0  0
 16 17  1  0  0  0  0
 16 18  1  0  0  0  0
 16 19  1  0  0  0  0
 14 15  1  0  0  0  0
 14 16  1  0  0  0  0
M  END
$$$$
default_name
  -OEChem-01062215323D

 19 18  0     0  0  0  0  0  0999 V2000
   -2.2056   -4.0049    0.0000 H   0  0  0  0  0  0  0  0  0  0  0  0
   -2.2496   -2.9169    0.0000 C   0  0  0  0  0  0  0  0  0  0  0  0
   -2.7696   -2.5709    0.8910 H   0  0  0  0  0  0  0  0  0  0  0  0
   -2.7696   -2.5709   -0.8910 H   0  0  0  0  0  0  0  0  0  0  0  0
   -0.8406   -2.3699    0.0000 C   0  0  0  0  0  0  0  0  0  0  0  0
    0.1164   -3.1329    0.0000 O   0  0  0  0  0  0  0  0  0  0  0  0
   -0.7136   -1.0459    0.0000 N   0  0  0  0  0  0  0  0  0  0  0  0
   -1.5436   -0.4719    0.0000 H   0  0  0  0  0  0  0  0  0  0  0  0
    0.5724   -0.3469    0.0000 C   0  0  0  0  0  0  0  0  0  0  0  0
    0.4582    0.6152   -0.5012 H   0  0  0  0  0  0  0  0  0  0  0  0
    0.8803   -0.1615    1.0299 H   0  0  0  0  0  0  0  0  0  0  0  0
    1.6729   -1.1430   -0.7073 C   0  0  0  0  0  0  0  0  0  0  0  0
    1.8086   -2.3451   -0.4882 O   0  0  0  0  0  0  0  0  0  0  0  0
    2.4537   -0.4611   -1.5548 N   0  0  0  0  0  0  0  0  0  0  0  0
    2.2669    0.5227   -1.6702 H   0  0  0  0  0  0  0  0  0  0  0  0
    3.5575   -1.0363   -2.3261 C   0  0  0  0  0  0  0  0  0  0  0  0
    3.6599   -2.1038   -2.1164 H   0  0  0  0  0  0  0  0  0  0  0  0
    3.3710   -0.9080   -3.3932 H   0  0  0  0  0  0  0  0  0  0  0  0
    4.4923   -0.5392   -2.0635 H   0  0  0  0  0  0  0  0  0  0  0  0
  5  6  2  0  0  0  0
  5  7  1  0  0  0  0
  2  3  1  0  0  0  0
  2  4  1  0  0  0  0
  2  5  1  0  0  0  0
  1  2  1  0  0  0  0
 12 13  2  0  0  0  0
 12 14  1  0  0  0  0
  9 10  1  0  0  0  0
  9 11  1  0  0  0  0
  9 12  1  0  0  0  0
  7  8  1  0  0  0  0
  7  9  1  0  0  0  0
 16 17  1  0  0  0  0
 16 18  1  0  0  0  0
 16 19  1  0  0  0  0
 14 15  1  0  0  0  0
 14 16  1  0  0  0  0
M  END
$$$$
default_name
  -OEChem-01062215323D

 19 18  0     0  0  0  0  0  0999 V2000
   -2.2056   -4.0049    0.0000 H   0  0  0  0  0  0  0  0  0  0  0  0
   -2.2496   -2.9169    0.0000 C   0  0  0  0  0  0  0  0  0  0  0  0
   -2.7696   -2.5709    0.8910 H   0  0  0  0  0  0  0  0  0  0  0  0
   -2.7696   -2.5709   -0.8910 H   0  0  0  0  0  0  0  0  0  0  0  0
   -0.8406   -2.3699    0.0000 C   0  0  0  0  0  0  0  0  0  0  0  0
    0.1164   -3.1329    0.0000 O   0  0  0  0  0  0  0  0  0  0  0  0
   -0.7136   -1.0459    0.0000 N   0  0  0  0  0  0  0  0  0  0  0  0
   -1.5436   -0.4719    0.0000 H   0  0  0  0  0  0  0  0  0  0  0  0
    0.5724   -0.3469    0.0000 C   0  0  0  0  0  0  0  0  0  0  0  0
    0.4582    0.6152   -0.5012 H   0  0  0  0  0  0  0  0  0  0  0  0
    0.8803   -0.1615    1.0299 H   0  0  0  0  0  0  0  0  0  0  0  0
    1.6729   -1.1430   -0.7073 C   0  0  0  0  0  0  0  0  0  0  0  0
    1.6460   -2.3721   -0.7108 O   0  0  0  0  0  0  0  0  0  0  0  0
    2.6373   -0.4306   -1.3035 N   0  0  0  0  0  0  0  0  0  0  0  0
    2.5754    0.5740   -1.2477 H   0  0  0  0  0  0  0  0  0  0  0  0
    3.7740   -1.0004   -2.0298 C   0  0  0  0  0  0  0  0  0  0  0  0
    3.7301   -2.0922   -2.0203 H   0  0  0  0  0  0  0  0  0  0  0  0
    3.7599   -0.6608   -3.0663 H   0  0  0  0  0  0  0  0  0  0  0  0
    4.7081   -0.6859   -1.5625 H   0  0  0  0  0  0  0  0  0  0  0  0
  5  6  2  0  0  0  0
  5  7  1  0  0  0  0
  2  3  1  0  0  0  0
  2  4  1  0  0  0  0
  2  5  1  0  0  0  0
  1  2  1  0  0  0  0
 12 13  2  0  0  0  0
 12 14  1  0  0  0  0
  9 10  1  0  0  0  0
  9 11  1  0  0  0  0
  9 12  1  0  0  0  0
  7  8  1  0  0  0  0
  7  9  1  0  0  0  0
 16 17  1  0  0  0  0
 16 18  1  0  0  0  0
 16 19  1  0  0  0  0
 14 15  1  0  0  0  0
 14 16  1  0  0  0  0
M  END
$$$$
default_name
  -OEChem-01062215323D

 19 18  0     0  0  0  0  0  0999 V2000
   -2.2056   -4.0049    0.0000 H   0  0  0  0  0  0  0  0  0  0  0  0
   -2.2496   -2.9169    0.0000 C   0  0  0  0  0  0  0  0  0  0  0  0
   -2.7696   -2.5709    0.8910 H   0  0  0  0  0  0  0  0  0  0  0  0
   -2.7696   -2.5709   -0.8910 H   0  0  0  0  0  0  0  0  0  0  0  0
   -0.8406   -2.3699    0.0000 C   0  0  0  0  0  0  0  0  0  0  0  0
    0.1164   -3.1329    0.0000 O   0  0  0  0  0  0  0  0  0  0  0  0
   -0.7136   -1.0459    0.0000 N   0  0  0  0  0  0  0  0  0  0  0  0
   -1.5436   -0.4719    0.0000 H   0  0  0  0  0  0  0  0  0  0  0  0
    0.5724   -0.3469    0.0000 C   0  0  0  0  0  0  0  0  0  0  0  0
    0.4582    0.6152   -0.5012 H   0  0  0  0  0  0  0  0  0  0  0  0
    0.8803   -0.1615    1.0299 H   0  0  0  0  0  0  0  0  0  0  0  0
    1.6729   -1.1430   -0.7073 C   0  0  0  0  0  0  0  0  0  0  0  0
    1.5157   -2.3373   -0.9527 O   0  0  0  0  0  0  0  0  0  0  0  0
    2.7845   -0.4698   -1.0303 N   0  0  0  0  0  0  0  0  0  0  0  0
    2.8228    0.5080   -0.7886 H   0  0  0  0  0  0  0  0  0  0  0  0
    3.9475   -1.0467   -1.7077 C   0  0  0  0  0  0  0  0  0  0  0  0
    3.7863   -2.1072   -1.9159 H   0  0  0  0  0  0  0  0  0  0  0  0
    4.1210   -0.5294   -2.6522 H   0  0  0  0  0  0  0  0  0  0  0  0
    4.8317   -0.9467   -1.0767 H   0  0  0  0  0  0  0  0  0  0  0  0
  5  6  2  0  0  0  0
  5  7  1  0  0  0  0
  2  3  1  0  0  0  0
  2  4  1  0  0  0  0
  2  5  1  0  0  0  0
  1  2  1  0  0  0  0
 12 13  2  0  0  0  0
 12 14  1  0  0  0  0
  9 10  1  0  0  0  0
  9 11  1  0  0  0  0
  9 12  1  0  0  0  0
  7  8  1  0  0  0  0
  7  9  1  0  0  0  0
 16 17  1  0  0  0  0
 16 18  1  0  0  0  0
 16 19  1  0  0  0  0
 14 15  1  0  0  0  0
 14 16  1  0  0  0  0
M  END
$$$$
default_name
  -OEChem-01062215323D

 19 18  0     0  0  0  0  0  0999 V2000
   -2.2056   -4.0049    0.0000 H   0  0  0  0  0  0  0  0  0  0  0  0
   -2.2496   -2.9169    0.0000 C   0  0  0  0  0  0  0  0  0  0  0  0
   -2.7696   -2.5709    0.8910 H   0  0  0  0  0  0  0  0  0  0  0  0
   -2.7696   -2.5709   -0.8910 H   0  0  0  0  0  0  0  0  0  0  0  0
   -0.8406   -2.3699    0.0000 C   0  0  0  0  0  0  0  0  0  0  0  0
    0.1164   -3.1329    0.0000 O   0  0  0  0  0  0  0  0  0  0  0  0
   -0.7136   -1.0459    0.0000 N   0  0  0  0  0  0  0  0  0  0  0  0
   -1.5436   -0.4719    0.0000 H   0  0  0  0  0  0  0  0  0  0  0  0
    0.5724   -0.3469    0.0000 C   0  0  0  0  0  0  0  0  0  0  0  0
    0.4108    0.7023   -0.2512 H   0  0  0  0  0  0  0  0  0  0  0  0
    1.0079   -0.3961    0.9989 H   0  0  0  0  0  0  0  0  0  0  0  0
    1.5655   -0.9455   -1.0002 C   0  0  0  0  0  0  0  0  0  0  0  0
    1.2447   -1.9088   -1.6934 O   0  0  0  0  0  0  0  0  0  0  0  0
    2.7707   -0.3656   -1.0663 N   0  0  0  0  0  0  0  0  0  0  0  0
    2.9428    0.4199   -0.4584 H   0  0  0  0  0  0  0  0  0  0  0  0
    3.8565   -0.7861   -1.9543 C   0  0  0  0  0  0  0  0  0  0  0  0
    3.5500   -1.6423   -2.5601 H   0  0  0  0  0  0  0  0  0  0  0  0
    4.1281    0.0328   -2.6217 H   0  0  0  0  0  0  0  0  0  0  0  0
    4.7285   -1.0718   -1.3645 H   0  0  0  0  0  0  0  0  0  0  0  0
  5  6  2  0  0  0  0
  5  7  1  0  0  0  0
  2  3  1  0  0  0  0
  2  4  1  0  0  0  0
  2  5  1  0  0  0  0
  1  2  1  0  0  0  0
 12 13  2  0  0  0  0
 12 14  1  0  0  0  0
  9 10  1  0  0  0  0
  9 11  1  0  0  0  0
  9 12  1  0  0  0  0
  7  8  1  0  0  0  0
  7  9  1  0  0  0  0
 16 17  1  0  0  0  0
 16 18  1  0  0  0  0
 16 19  1  0  0  0  0
 14 15  1  0  0  0  0
 14 16  1  0  0  0  0
M  END
$$$$
default_name
  -OEChem-01062215323D

 19 18  0     0  0  0  0  0  0999 V2000
   -2.2056   -4.0049    0.0000 H   0  0  0  0  0  0  0  0  0  0  0  0
   -2.2496   -2.9169    0.0000 C   0  0  0  0  0  0  0  0  0  0  0  0
   -2.7696   -2.5709    0.8910 H   0  0  0  0  0  0  0  0  0  0  0  0
   -2.7696   -2.5709   -0.8910 H   0  0  0  0  0  0  0  0  0  0  0  0
   -0.8406   -2.3699    0.0000 C   0  0  0  0  0  0  0  0  0  0  0  0
    0.1164   -3.1329    0.0000 O   0  0  0  0  0  0  0  0  0  0  0  0
   -0.7136   -1.0459    0.0000 N   0  0  0  0  0  0  0  0  0  0  0  0
   -1.5436   -0.4719    0.0000 H   0  0  0  0  0  0  0  0  0  0  0  0
    0.5724   -0.3469    0.0000 C   0  0  0  0  0  0  0  0  0  0  0  0
    0.4108    0.7023   -0.2512 H   0  0  0  0  0  0  0  0  0  0  0  0
    1.0079   -0.3961    0.9989 H   0  0  0  0  0  0  0  0  0  0  0  0
    1.5655   -0.9455   -1.0002 C   0  0  0  0  0  0  0  0  0  0  0  0
    1.1767   -1.7137   -1.8778 O   0  0  0  0  0  0  0  0  0  0  0  0
    2.8476   -0.5860   -0.8581 N   0  0  0  0  0  0  0  0  0  0  0  0
    3.0720    0.0495   -0.1084 H   0  0  0  0  0  0  0  0  0  0  0  0
    3.9471   -1.0459   -1.7088 C   0  0  0  0  0  0  0  0  0  0  0  0
    3.5794   -1.7265   -2.4806 H   0  0  0  0  0  0  0  0  0  0  0  0
    4.4219   -0.1927   -2.1951 H   0  0  0  0  0  0  0  0  0  0  0  0
    4.6879   -1.5722   -1.1054 H   0  0  0  0  0  0  0  0  0  0  0  0
  5  6  2  0  0  0  0
  5  7  1  0  0  0  0
  2  3  1  0  0  0  0
  2  4  1  0  0  0  0
  2  5  1  0  0  0  0
  1  2  1  0  0  0  0
 12 13  2  0  0  0  0
 12 14  1  0  0  0  0
  9 10  1  0  0  0  0
  9 11  1  0  0  0  0
  9 12  1  0  0  0  0
  7  8  1  0  0  0  0
  7  9  1  0  0  0  0
 16 17  1  0  0  0  0
 16 18  1  0  0  0  0
 16 19  1  0  0  0  0
 14 15  1  0  0  0  0
 14 16  1  0  0  0  0
M  END
$$$$
default_name
  -OEChem-01062215323D

 19 18  0     0  0  0  0  0  0999 V2000
   -2.2056   -4.0049    0.0000 H   0  0  0  0  0  0  0  0  0  0  0  0
   -2.2496   -2.9169    0.0000 C   0  0  0  0  0  0  0  0  0  0  0  0
   -2.7696   -2.5709    0.8910 H   0  0  0  0  0  0  0  0  0  0  0  0
   -2.7696   -2.5709   -0.8910 H   0  0  0  0  0  0  0  0  0  0  0  0
   -0.8406   -2.3699    0.0000 C   0  0  0  0  0  0  0  0  0  0  0  0
    0.1164   -3.1329    0.0000 O   0  0  0  0  0  0  0  0  0  0  0  0
   -0.7136   -1.0459    0.0000 N   0  0  0  0  0  0  0  0  0  0  0  0
   -1.5436   -0.4719    0.0000 H   0  0  0  0  0  0  0  0  0  0  0  0
    0.5724   -0.3469    0.0000 C   0  0  0  0  0  0  0  0  0  0  0  0
    0.4108    0.7023   -0.2512 H   0  0  0  0  0  0  0  0  0  0  0  0
    1.0079   -0.3961    0.9989 H   0  0  0  0  0  0  0  0  0  0  0  0
    1.5655   -0.9455   -1.0002 C   0  0  0  0  0  0  0  0  0  0  0  0
    1.1626   -1.4827   -2.0300 O   0  0  0  0  0  0  0  0  0  0  0  0
    2.8635   -0.8468   -0.6862 N   0  0  0  0  0  0  0  0  0  0  0  0
    3.0988   -0.3889    0.1805 H   0  0  0  0  0  0  0  0  0  0  0  0
    3.9659   -1.3534   -1.5061 C   0  0  0  0  0  0  0  0  0  0  0  0
    3.5855   -1.8262   -2.4149 H   0  0  0  0  0  0  0  0  0  0  0  0
    4.6243   -0.5318   -1.7911 H   0  0  0  0  0  0  0  0  0  0  0  0
    4.5379   -2.0922   -0.9432 H   0  0  0  0  0  0  0  0  0  0  0  0
  5  6  2  0  0  0  0
  5  7  1  0  0  0  0
  2  3  1  0  0  0  0
  2  4  1  0  0  0  0
  2  5  1  0  0  0  0
  1  2  1  0  0  0  0
 12 13  2  0  0  0  0
 12 14  1  0  0  0  0
  9 10  1  0  0  0  0
  9 11  1  0  0  0  0
  9 12  1  0  0  0  0
  7  8  1  0  0  0  0
  7  9  1  0  0  0  0
 16 17  1  0  0  0  0
 16 18  1  0  0  0  0
 16 19  1  0  0  0  0
 14 15  1  0  0  0  0
 14 16  1  0  0  0  0
M  END
$$$$
default_name
  -OEChem-01062215323D

 19 18  0     0  0  0  0  0  0999 V2000
   -2.2056   -4.0049    0.0000 H   0  0  0  0  0  0  0  0  0  0  0  0
   -2.2496   -2.9169    0.0000 C   0  0  0  0  0  0  0  0  0  0  0  0
   -2.7696   -2.5709    0.8910 H   0  0  0  0  0  0  0  0  0  0  0  0
   -2.7696   -2.5709   -0.8910 H   0  0  0  0  0  0  0  0  0  0  0  0
   -0.8406   -2.3699    0.0000 C   0  0  0  0  0  0  0  0  0  0  0  0
    0.1164   -3.1329    0.0000 O   0  0  0  0  0  0  0  0  0  0  0  0
   -0.7136   -1.0459    0.0000 N   0  0  0  0  0  0  0  0  0  0  0  0
   -1.5436   -0.4719    0.0000 H   0  0  0  0  0  0  0  0  0  0  0  0
    0.5724   -0.3469    0.0000 C   0  0  0  0  0  0  0  0  0  0  0  0
    0.4108    0.7023   -0.2512 H   0  0  0  0  0  0  0  0  0  0  0  0
    1.0079   -0.3961    0.9989 H   0  0  0  0  0  0  0  0  0  0  0  0
    1.5655   -0.9455   -1.0002 C   0  0  0  0  0  0  0  0  0  0  0  0
    1.2034   -1.2317   -2.1397 O   0  0  0  0  0  0  0  0  0  0  0  0
    2.8174   -1.1302   -0.5623 N   0  0  0  0  0  0  0  0  0  0  0  0
    3.0213   -0.8653    0.3887 H   0  0  0  0  0  0  0  0  0  0  0  0
    3.9115   -1.6876   -1.3601 C   0  0  0  0  0  0  0  0  0  0  0  0
    3.5679   -1.9345   -2.3675 H   0  0  0  0  0  0  0  0  0  0  0  0
    4.7217   -0.9614   -1.4373 H   0  0  0  0  0  0  0  0  0  0  0  0
    4.2886   -2.5963   -0.8889 H   0  0  0  0  0  0  0  0  0  0  0  0
  5  6  2  0  0  0  0
  5  7  1  0  0  0  0
  2  3  1  0  0  0  0
  2  4  1  0  0  0  0
  2  5  1  0  0  0  0
  1  2  1  0  0  0  0
 12 13  2  0  0  0  0
 12 14  1  0  0  0  0
  9 10  1  0  0  0  0
  9 11  1  0  0  0  0
  9 12  1  0  0  0  0
  7  8  1  0  0  0  0
  7  9  1  0  0  0  0
 16 17  1  0  0  0  0
 16 18  1  0  0  0  0
 16 19  1  0  0  0  0
 14 15  1  0  0  0  0
 14 16  1  0  0  0  0
M  END
$$$$
default_name
  -OEChem-01062215323D

 19 18  0     0  0  0  0  0  0999 V2000
   -2.2056   -4.0049    0.0000 H   0  0  0  0  0  0  0  0  0  0  0  0
   -2.2496   -2.9169    0.0000 C   0  0  0  0  0  0  0  0  0  0  0  0
   -2.7696   -2.5709    0.8910 H   0  0  0  0  0  0  0  0  0  0  0  0
   -2.7696   -2.5709   -0.8910 H   0  0  0  0  0  0  0  0  0  0  0  0
   -0.8406   -2.3699    0.0000 C   0  0  0  0  0  0  0  0  0  0  0  0
    0.1164   -3.1329    0.0000 O   0  0  0  0  0  0  0  0  0  0  0  0
   -0.7136   -1.0459    0.0000 N   0  0  0  0  0  0  0  0  0  0  0  0
   -1.5436   -0.4719    0.0000 H   0  0  0  0  0  0  0  0  0  0  0  0
    0.5724   -0.3469    0.0000 C   0  0  0  0  0  0  0  0  0  0  0  0
    0.4108    0.7023   -0.2512 H   0  0  0  0  0  0  0  0  0  0  0  0
    1.0079   -0.3961    0.9989 H   0  0  0  0  0  0  0  0  0  0  0  0
    1.5655   -0.9455   -1.0002 C   0  0  0  0  0  0  0  0  0  0  0  0
    1.2963   -0.9778   -2.1994 O   0  0  0  0  0  0  0  0  0  0  0  0
    2.7124   -1.4170   -0.4949 N   0  0  0  0  0  0  0  0  0  0  0  0
    2.8449   -1.3473    0.5019 H   0  0  0  0  0  0  0  0  0  0  0  0
    3.7878   -2.0258   -1.2806 C   0  0  0  0  0  0  0  0  0  0  0  0
    3.5278   -2.0441   -2.3418 H   0  0  0  0  0  0  0  0  0  0  0  0
    4.7074   -1.4522   -1.1578 H   0  0  0  0  0  0  0  0  0  0  0  0
    3.9572   -3.0502   -0.9464 H   0  0  0  0  0  0  0  0  0  0  0  0
  5  6  2  0  0  0  0
  5  7  1  0  0  0  0
  2  3  1  0  0  0  0
  2  4  1  0  0  0  0
  2  5  1  0  0  0  0
  1  2  1  0  0  0  0
 12 13  2  0  0  0  0
 12 14  1  0  0  0  0
  9 10  1  0  0  0  0
  9 11  1  0  0  0  0
  9 12  1  0  0  0  0
  7  8  1  0  0  0  0
  7  9  1  0  0  0  0
 16 17  1  0  0  0  0
 16 18  1  0  0  0  0
 16 19  1  0  0  0  0
 14 15  1  0  0  0  0
 14 16  1  0  0  0  0
M  END
$$$$
default_name
  -OEChem-01062215323D

 19 18  0     0  0  0  0  0  0999 V2000
   -2.2056   -4.0049    0.0000 H   0  0  0  0  0  0  0  0  0  0  0  0
   -2.2496   -2.9169    0.0000 C   0  0  0  0  0  0  0  0  0  0  0  0
   -2.7696   -2.5709    0.8910 H   0  0  0  0  0  0  0  0  0  0  0  0
   -2.7696   -2.5709   -0.8910 H   0  0  0  0  0  0  0  0  0  0  0  0
   -0.8406   -2.3699    0.0000 C   0  0  0  0  0  0  0  0  0  0  0  0
    0.1164   -3.1329    0.0000 O   0  0  0  0  0  0  0  0  0  0  0  0
   -0.7136   -1.0459    0.0000 N   0  0  0  0  0  0  0  0  0  0  0  0
   -1.5436   -0.4719    0.0000 H   0  0  0  0  0  0  0  0  0  0  0  0
    0.5724   -0.3469    0.0000 C   0  0  0  0  0  0  0  0  0  0  0  0
    0.4108    0.7023   -0.2512 H   0  0  0  0  0  0  0  0  0  0  0  0
    1.0079   -0.3961    0.9989 H   0  0  0  0  0  0  0  0  0  0  0  0
    1.5655   -0.9455   -1.0002 C   0  0  0  0  0  0  0  0  0  0  0  0
    1.4351   -0.7381   -2.2050 O   0  0  0  0  0  0  0  0  0  0  0  0
    2.5557   -1.6876   -0.4886 N   0  0  0  0  0  0  0  0  0  0  0  0
    2.5815   -1.8021    0.5126 H   0  0  0  0  0  0  0  0  0  0  0  0
    3.6030   -2.3448   -1.2731 C   0  0  0  0  0  0  0  0  0  0  0  0
    3.4679   -2.1476   -2.3394 H   0  0  0  0  0  0  0  0  0  0  0  0
    4.5823   -1.9707   -0.9717 H   0  0  0  0  0  0  0  0  0  0  0  0
    3.5662   -3.4230   -1.1116 H   0  0  0  0  0  0  0  0  0  0  0  0
  5  6  2  0  0  0  0
  5  7  1  0  0  0  0
  2  3  1  0  0  0  0
  2  4  1  0  0  0  0
  2  5  1  0  0  0  0
  1  2  1  0  0  0  0
 12 13  2  0  0  0  0
 12 14  1  0  0  0  0
  9 10  1  0  0  0  0
  9 11  1  0  0  0  0
  9 12  1  0  0  0  0
  7  8  1  0  0  0  0
  7  9  1  0  0  0  0
 16 17  1  0  0  0  0
 16 18  1  0  0  0  0
 16 19  1  0  0  0  0
 14 15  1  0  0  0  0
 14 16  1  0  0  0  0
M  END
$$$$
default_name
  -OEChem-01062215323D

 19 18  0     0  0  0  0  0  0999 V2000
   -2.2056   -4.0049    0.0000 H   0  0  0  0  0  0  0  0  0  0  0  0
   -2.2496   -2.9169    0.0000 C   0  0  0  0  0  0  0  0  0  0  0  0
   -2.7696   -2.5709    0.8910 H   0  0  0  0  0  0  0  0  0  0  0  0
   -2.7696   -2.5709   -0.8910 H   0  0  0  0  0  0  0  0  0  0  0  0
   -0.8406   -2.3699    0.0000 C   0  0  0  0  0  0  0  0  0  0  0  0
    0.1164   -3.1329    0.0000 O   0  0  0  0  0  0  0  0  0  0  0  0
   -0.7136   -1.0459    0.0000 N   0  0  0  0  0  0  0  0  0  0  0  0
   -1.5436   -0.4719    0.0000 H   0  0  0  0  0  0  0  0  0  0  0  0
    0.5724   -0.3469    0.0000 C   0  0  0  0  0  0  0  0  0  0  0  0
    0.4108    0.7023   -0.2512 H   0  0  0  0  0  0  0  0  0  0  0  0
    1.0079   -0.3961    0.9989 H   0  0  0  0  0  0  0  0  0  0  0  0
    1.5655   -0.9455   -1.0002 C   0  0  0  0  0  0  0  0  0  0  0  0
    1.6102   -0.5292   -2.1561 O   0  0  0  0  0  0  0  0  0  0  0  0
    2.3580   -1.9236   -0.5437 N   0  0  0  0  0  0  0  0  0  0  0  0
    2.2492   -2.1987    0.4199 H   0  0  0  0  0  0  0  0  0  0  0  0
    3.3699   -2.6230   -1.3381 C   0  0  0  0  0  0  0  0  0  0  0  0
    3.3923   -2.2377   -2.3604 H   0  0  0  0  0  0  0  0  0  0  0  0
    4.3550   -2.4817   -0.8916 H   0  0  0  0  0  0  0  0  0  0  0  0
    3.1421   -3.6892   -1.3733 H   0  0  0  0  0  0  0  0  0  0  0  0
  5  6  2  0  0  0  0
  5  7  1  0  0  0  0
  2  3  1  0  0  0  0
  2  4  1  0  0  0  0
  2  5  1  0  0  0  0
  1  2  1  0  0  0  0
 12 13  2  0  0  0  0
 12 14  1  0  0  0  0
  9 10  1  0  0  0  0
  9 11  1  0  0  0  0
  9 12  1  0  0  0  0
  7  8  1  0  0  0  0
  7  9  1  0  0  0  0
 16 17  1  0  0  0  0
 16 18  1  0  0  0  0
 16 19  1  0  0  0  0
 14 15  1  0  0  0  0
 14 16  1  0  0  0  0
M  END
$$$$
default_name
  -OEChem-01062215323D

 19 18  0     0  0  0  0  0  0999 V2000
   -2.2056   -4.0049    0.0000 H   0  0  0  0  0  0  0  0  0  0  0  0
   -2.2496   -2.9169    0.0000 C   0  0  0  0  0  0  0  0  0  0  0  0
   -2.7696   -2.5709    0.8910 H   0  0  0  0  0  0  0  0  0  0  0  0
   -2.7696   -2.5709   -0.8910 H   0  0  0  0  0  0  0  0  0  0  0  0
   -0.8406   -2.3699    0.0000 C   0  0  0  0  0  0  0  0  0  0  0  0
    0.1164   -3.1329    0.0000 O   0  0  0  0  0  0  0  0  0  0  0  0
   -0.7136   -1.0459    0.0000 N   0  0  0  0  0  0  0  0  0  0  0  0
   -1.5436   -0.4719    0.0000 H   0  0  0  0  0  0  0  0  0  0  0  0
    0.5724   -0.3469    0.0000 C   0  0  0  0  0  0  0  0  0  0  0  0
    0.4108    0.7023   -0.2512 H   0  0  0  0  0  0  0  0  0  0  0  0
    1.0079   -0.3961    0.9989 H   0  0  0  0  0  0  0  0  0  0  0  0
    1.5655   -0.9455   -1.0002 C   0  0  0  0  0  0  0  0  0  0  0  0
    1.8097   -0.3652   -2.0562 O   0  0  0  0  0  0  0  0  0  0  0  0
    2.1327   -2.1088   -0.6566 N   0  0  0  0  0  0  0  0  0  0  0  0
    1.8705   -2.5100    0.2302 H   0  0  0  0  0  0  0  0  0  0  0  0
    3.1042   -2.8414   -1.4712 C   0  0  0  0  0  0  0  0  0  0  0  0
    3.3062   -2.3085   -2.4036 H   0  0  0  0  0  0  0  0  0  0  0  0
    4.0410   -2.9503   -0.9230 H   0  0  0  0  0  0  0  0  0  0  0  0
    2.7140   -3.8308   -1.7137 H   0  0  0  0  0  0  0  0  0  0  0  0
  5  6  2  0  0  0  0
  5  7  1  0  0  0  0
  2  3  1  0  0  0  0
  2  4  1  0  0  0  0
  2  5  1  0  0  0  0
  1  2  1  0  0  0  0
 12 13  2  0  0  0  0
 12 14  1  0  0  0  0
  9 10  1  0  0  0  0
  9 11  1  0  0  0  0
  9 12  1  0  0  0  0
  7  8  1  0  0  0  0
  7  9  1  0  0  0  0
 16 17  1  0  0  0  0
 16 18  1  0  0  0  0
 16 19  1  0  0  0  0
 14 15  1  0  0  0  0
 14 16  1  0  0  0  0
M  END
$$$$
default_name
  -OEChem-01062215323D

 19 18  0     0  0  0  0  0  0999 V2000
   -2.2056   -4.0049    0.0000 H   0  0  0  0  0  0  0  0  0  0  0  0
   -2.2496   -2.9169    0.0000 C   0  0  0  0  0  0  0  0  0  0  0  0
   -2.7696   -2.5709    0.8910 H   0  0  0  0  0  0  0  0  0  0  0  0
   -2.7696   -2.5709   -0.8910 H   0  0  0  0  0  0  0  0  0  0  0  0
   -0.8406   -2.3699    0.0000 C   0  0  0  0  0  0  0  0  0  0  0  0
    0.1164   -3.1329    0.0000 O   0  0  0  0  0  0  0  0  0  0  0  0
   -0.7136   -1.0459    0.0000 N   0  0  0  0  0  0  0  0  0  0  0  0
   -1.5436   -0.4719    0.0000 H   0  0  0  0  0  0  0  0  0  0  0  0
    0.5724   -0.3469    0.0000 C   0  0  0  0  0  0  0  0  0  0  0  0
    0.4108    0.7023   -0.2512 H   0  0  0  0  0  0  0  0  0  0  0  0
    1.0079   -0.3961    0.9989 H   0  0  0  0  0  0  0  0  0  0  0  0
    1.5655   -0.9455   -1.0002 C   0  0  0  0  0  0  0  0  0  0  0  0
    2.0201   -0.2573   -1.9119 O   0  0  0  0  0  0  0  0  0  0  0  0
    1.8952   -2.2307   -0.8195 N   0  0  0  0  0  0  0  0  0  0  0  0
    1.4713   -2.7148   -0.0436 H   0  0  0  0  0  0  0  0  0  0  0  0
    2.8242   -2.9851   -1.6633 C   0  0  0  0  0  0  0  0  0  0  0  0
    3.2154   -2.3551   -2.4658 H   0  0  0  0  0  0  0  0  0  0  0  0
    3.6616   -3.3445   -1.0638 H   0  0  0  0  0  0  0  0  0  0  0  0
    2.3110   -3.8380   -2.1096 H   0  0  0  0  0  0  0  0  0  0  0  0
  5  6  2  0  0  0  0
  5  7  1  0  0  0  0
  2  3  1  0  0  0  0
  2  4  1  0  0  0  0
  2  5  1  0  0  0  0
  1  2  1  0  0  0  0
 12 13  2  0  0  0  0
 12 14  1  0  0  0  0
  9 10  1  0  0  0  0
  9 11  1  0  0  0  0
  9 12  1  0  0  0  0
  7  8  1  0  0  0  0
  7  9  1  0  0  0  0
 16 17  1  0  0  0  0
 16 18  1  0  0  0  0
 16 19  1  0  0  0  0
 14 15  1  0  0  0  0
 14 16  1  0  0  0  0
M  END
$$$$
default_name
  -OEChem-01062215323D

 19 18  0     0  0  0  0  0  0999 V2000
   -2.2056   -4.0049    0.0000 H   0  0  0  0  0  0  0  0  0  0  0  0
   -2.2496   -2.9169    0.0000 C   0  0  0  0  0  0  0  0  0  0  0  0
   -2.7696   -2.5709    0.8910 H   0  0  0  0  0  0  0  0  0  0  0  0
   -2.7696   -2.5709   -0.8910 H   0  0  0  0  0  0  0  0  0  0  0  0
   -0.8406   -2.3699    0.0000 C   0  0  0  0  0  0  0  0  0  0  0  0
    0.1164   -3.1329    0.0000 O   0  0  0  0  0  0  0  0  0  0  0  0
   -0.7136   -1.0459    0.0000 N   0  0  0  0  0  0  0  0  0  0  0  0
   -1.5436   -0.4719    0.0000 H   0  0  0  0  0  0  0  0  0  0  0  0
    0.5724   -0.3469    0.0000 C   0  0  0  0  0  0  0  0  0  0  0  0
    0.4108    0.7023   -0.2512 H   0  0  0  0  0  0  0  0  0  0  0  0
    1.0079   -0.3961    0.9989 H   0  0  0  0  0  0  0  0  0  0  0  0
    1.5655   -0.9455   -1.0002 C   0  0  0  0  0  0  0  0  0  0  0  0
    2.2269   -0.2128   -1.7332 O   0  0  0  0  0  0  0  0  0  0  0  0
    1.6616   -2.2809   -1.0214 N   0  0  0  0  0  0  0  0  0  0  0  0
    1.0787   -2.7993   -0.3829 H   0  0  0  0  0  0  0  0  0  0  0  0
    2.5488   -3.0444   -1.9013 C   0  0  0  0  0  0  0  0  0  0  0  0
    3.1261   -2.3743   -2.5430 H   0  0  0  0  0  0  0  0  0  0  0  0
    3.2427   -3.6376   -1.3043 H   0  0  0  0  0  0  0  0  0  0  0  0
    1.9605   -3.7104   -2.5339 H   0  0  0  0  0  0  0  0  0  0  0  0
  5  6  2  0  0  0  0
  5  7  1  0  0  0  0
  2  3  1  0  0  0  0
  2  4  1  0  0  0  0
  2  5  1  0  0  0  0
  1  2  1  0  0  0  0
 12 13  2  0  0  0  0
 12 14  1  0  0  0  0
  9 10  1  0  0  0  0
  9 11  1  0  0  0  0
  9 12  1  0  0  0  0
  7  8  1  0  0  0  0
  7  9  1  0  0  0  0
 16 17  1  0  0  0  0
 16 18  1  0  0  0  0
 16 19  1  0  0  0  0
 14 15  1  0  0  0  0
 14 16  1  0  0  0  0
M  END
$$$$
default_name
  -OEChem-01062215323D

 19 18  0     0  0  0  0  0  0999 V2000
   -2.2056   -4.0049    0.0000 H   0  0  0  0  0  0  0  0  0  0  0  0
   -2.2496   -2.9169    0.0000 C   0  0  0  0  0  0  0  0  0  0  0  0
   -2.7696   -2.5709    0.8910 H   0  0  0  0  0  0  0  0  0  0  0  0
   -2.7696   -2.5709   -0.8910 H   0  0  0  0  0  0  0  0  0  0  0  0
   -0.8406   -2.3699    0.0000 C   0  0  0  0  0  0  0  0  0  0  0  0
    0.1164   -3.1329    0.0000 O   0  0  0  0  0  0  0  0  0  0  0  0
   -0.7136   -1.0459    0.0000 N   0  0  0  0  0  0  0  0  0  0  0  0
   -1.5436   -0.4719    0.0000 H   0  0  0  0  0  0  0  0  0  0  0  0
    0.5724   -0.3469    0.0000 C   0  0  0  0  0  0  0  0  0  0  0  0
    0.4108    0.7023   -0.2512 H   0  0  0  0  0  0  0  0  0  0  0  0
    1.0079   -0.3961    0.9989 H   0  0  0  0  0  0  0  0  0  0  0  0
    1.5655   -0.9455   -1.0002 C   0  0  0  0  0  0  0  0  0  0  0  0
    2.4161   -0.2348   -1.5321 O   0  0  0  0  0  0  0  0  0  0  0  0
    1.4479   -2.2561   -1.2484 N   0  0  0  0  0  0  0  0  0  0  0  0
    0.7196   -2.7575   -0.7644 H   0  0  0  0  0  0  0  0  0  0  0  0
    2.2969   -3.0151   -2.1690 C   0  0  0  0  0  0  0  0  0  0  0  0
    3.0445   -2.3648   -2.6297 H   0  0  0  0  0  0  0  0  0  0  0  0
    2.8129   -3.8095   -1.6282 H   0  0  0  0  0  0  0  0  0  0  0  0
    1.6865   -3.4566   -2.9579 H   0  0  0  0  0  0  0  0  0  0  0  0
  5  6  2  0  0  0  0
  5  7  1  0  0  0  0
  2  3  1  0  0  0  0
  2  4  1  0  0  0  0
  2  5  1  0  0  0  0
  1  2  1  0  0  0  0
 12 13  2  0  0  0  0
 12 14  1  0  0  0  0
  9 10  1  0  0  0  0
  9 11  1  0  0  0  0
  9 12  1  0  0  0  0
  7  8  1  0  0  0  0
  7  9  1  0  0  0  0
 16 17  1  0  0  0  0
 16 18  1  0  0  0  0
 16 19  1  0  0  0  0
 14 15  1  0  0  0  0
 14 16  1  0  0  0  0
M  END
$$$$
default_name
  -OEChem-01062215323D

 19 18  0     0  0  0  0  0  0999 V2000
   -2.2056   -4.0049    0.0000 H   0  0  0  0  0  0  0  0  0  0  0  0
   -2.2496   -2.9169    0.0000 C   0  0  0  0  0  0  0  0  0  0  0  0
   -2.7696   -2.5709    0.8910 H   0  0  0  0  0  0  0  0  0  0  0  0
   -2.7696   -2.5709   -0.8910 H   0  0  0  0  0  0  0  0  0  0  0  0
   -0.8406   -2.3699    0.0000 C   0  0  0  0  0  0  0  0  0  0  0  0
    0.1164   -3.1329    0.0000 O   0  0  0  0  0  0  0  0  0  0  0  0
   -0.7136   -1.0459    0.0000 N   0  0  0  0  0  0  0  0  0  0  0  0
   -1.5436   -0.4719    0.0000 H   0  0  0  0  0  0  0  0  0  0  0  0
    0.5724   -0.3469    0.0000 C   0  0  0  0  0  0  0  0  0  0  0  0
    0.4108    0.7023   -0.2512 H   0  0  0  0  0  0  0  0  0  0  0  0
    1.0079   -0.3961    0.9989 H   0  0  0  0  0  0  0  0  0  0  0  0
    1.5655   -0.9455   -1.0002 C   0  0  0  0  0  0  0  0  0  0  0  0
    2.5748   -0.3218   -1.3225 O   0  0  0  0  0  0  0  0  0  0  0  0
    1.2687   -2.1578   -1.4851 N   0  0  0  0  0  0  0  0  0  0  0  0
    0.4184   -2.5924   -1.1623 H   0  0  0  0  0  0  0  0  0  0  0  0
    2.0856   -2.8992   -2.4481 C   0  0  0  0  0  0  0  0  0  0  0  0
    2.9760   -2.3273   -2.7202 H   0  0  0  0  0  0  0  0  0  0  0  0
    2.4015   -3.8485   -2.0134 H   0  0  0  0  0  0  0  0  0  0  0  0
    1.5076   -3.0941   -3.3525 H   0  0  0  0  0  0  0  0  0  0  0  0
  5  6  2  0  0  0  0
  5  7  1  0  0  0  0
  2  3  1  0  0  0  0
  2  4  1  0  0  0  0
  2  5  1  0  0  0  0
  1  2  1  0  0  0  0
 12 13  2  0  0  0  0
 12 14  1  0  0  0  0
  9 10  1  0  0  0  0
  9 11  1  0  0  0  0
  9 12  1  0  0  0  0
  7  8  1  0  0  0  0
  7  9  1  0  0  0  0
 16 17  1  0  0  0  0
 16 18  1  0  0  0  0
 16 19  1  0  0  0  0
 14 15  1  0  0  0  0
 14 16  1  0  0  0  0
M  END
$$$$
default_name
  -OEChem-01062215323D

 19 18  0     0  0  0  0  0  0999 V2000
   -2.2056   -4.0049    0.0000 H   0  0  0  0  0  0  0  0  0  0  0  0
   -2.2496   -2.9169    0.0000 C   0  0  0  0  0  0  0  0  0  0  0  0
   -2.7696   -2.5709    0.8910 H   0  0  0  0  0  0  0  0  0  0  0  0
   -2.7696   -2.5709   -0.8910 H   0  0  0  0  0  0  0  0  0  0  0  0
   -0.8406   -2.3699    0.0000 C   0  0  0  0  0  0  0  0  0  0  0  0
    0.1164   -3.1329    0.0000 O   0  0  0  0  0  0  0  0  0  0  0  0
   -0.7136   -1.0459    0.0000 N   0  0  0  0  0  0  0  0  0  0  0  0
   -1.5436   -0.4719    0.0000 H   0  0  0  0  0  0  0  0  0  0  0  0
    0.5724   -0.3469    0.0000 C   0  0  0  0  0  0  0  0  0  0  0  0
    0.4108    0.7023   -0.2512 H   0  0  0  0  0  0  0  0  0  0  0  0
    1.0079   -0.3961    0.9989 H   0  0  0  0  0  0  0  0  0  0  0  0
    1.5655   -0.9455   -1.0002 C   0  0  0  0  0  0  0  0  0  0  0  0
    2.6922   -0.4678   -1.1186 O   0  0  0  0  0  0  0  0  0  0  0  0
    1.1362   -1.9929   -1.7154 N   0  0  0  0  0  0  0  0  0  0  0  0
    0.1956   -2.3152   -1.5494 H   0  0  0  0  0  0  0  0  0  0  0  0
    1.9293   -2.7048   -2.7197 C   0  0  0  0  0  0  0  0  0  0  0  0
    2.9253   -2.2642   -2.8083 H   0  0  0  0  0  0  0  0  0  0  0  0
    2.0365   -3.7520   -2.4337 H   0  0  0  0  0  0  0  0  0  0  0  0
    1.4361   -2.6474   -3.6909 H   0  0  0  0  0  0  0  0  0  0  0  0
  5  6  2  0  0  0  0
  5  7  1  0  0  0  0
  2  3  1  0  0  0  0
  2  4  1  0  0  0  0
  2  5  1  0  0  0  0
  1  2  1  0  0  0  0
 12 13  2  0  0  0  0
 12 14  1  0  0  0  0
  9 10  1  0  0  0  0
  9 11  1  0  0  0  0
  9 12  1  0  0  0  0
  7  8  1  0  0  0  0
  7  9  1  0  0  0  0
 16 17  1  0  0  0  0
 16 18  1  0  0  0  0
 16 19  1  0  0  0  0
 14 15  1  0  0  0  0
 14 16  1  0  0  0  0
M  END
$$$$
default_name
  -OEChem-01062215323D

 19 18  0     0  0  0  0  0  0999 V2000
   -2.2056   -4.0049    0.0000 H   0  0  0  0  0  0  0  0  0  0  0  0
   -2.2496   -2.9169    0.0000 C   0  0  0  0  0  0  0  0  0  0  0  0
   -2.7696   -2.5709    0.8910 H   0  0  0  0  0  0  0  0  0  0  0  0
   -2.7696   -2.5709   -0.8910 H   0  0  0  0  0  0  0  0  0  0  0  0
   -0.8406   -2.3699    0.0000 C   0  0  0  0  0  0  0  0  0  0  0  0
    0.1164   -3.1329    0.0000 O   0  0  0  0  0  0  0  0  0  0  0  0
   -0.7136   -1.0459    0.0000 N   0  0  0  0  0  0  0  0  0  0  0  0
   -1.5436   -0.4719    0.0000 H   0  0  0  0  0  0  0  0  0  0  0  0
    0.5724   -0.3469    0.0000 C   0  0  0  0  0  0  0  0  0  0  0  0
    0.4108    0.7023   -0.2512 H   0  0  0  0  0  0  0  0  0  0  0  0
    1.0079   -0.3961    0.9989 H   0  0  0  0  0  0  0  0  0  0  0  0
    1.5655   -0.9455   -1.0002 C   0  0  0  0  0  0  0  0  0  0  0  0
    2.7602   -0.6629   -0.9342 O   0  0  0  0  0  0  0  0  0  0  0  0
    1.0593   -1.7726   -1.9236 N   0  0  0  0  0  0  0  0  0  0  0  0
    0.0664   -1.9449   -1.8994 H   0  0  0  0  0  0  0  0  0  0  0  0
    1.8386   -2.4450   -2.9651 C   0  0  0  0  0  0  0  0  0  0  0  0
    2.8960   -2.1800   -2.8878 H   0  0  0  0  0  0  0  0  0  0  0  0
    1.7427   -3.5265   -2.8603 H   0  0  0  0  0  0  0  0  0  0  0  0
    1.4767   -2.1470   -3.9500 H   0  0  0  0  0  0  0  0  0  0  0  0
  5  6  2  0  0  0  0
  5  7  1  0  0  0  0
  2  3  1  0  0  0  0
  2  4  1  0  0  0  0
  2  5  1  0  0  0  0
  1  2  1  0  0  0  0
 12 13  2  0  0  0  0
 12 14  1  0  0  0  0
  9 10  1  0  0  0  0
  9 11  1  0  0  0  0
  9 12  1  0  0  0  0
  7  8  1  0  0  0  0
  7  9  1  0  0  0  0
 16 17  1  0  0  0  0
 16 18  1  0  0  0  0
 16 19  1  0  0  0  0
 14 15  1  0  0  0  0
 14 16  1  0  0  0  0
M  END
$$$$
default_name
  -OEChem-01062215323D

 19 18  0     0  0  0  0  0  0999 V2000
   -2.2056   -4.0049    0.0000 H   0  0  0  0  0  0  0  0  0  0  0  0
   -2.2496   -2.9169    0.0000 C   0  0  0  0  0  0  0  0  0  0  0  0
   -2.7696   -2.5709    0.8910 H   0  0  0  0  0  0  0  0  0  0  0  0
   -2.7696   -2.5709   -0.8910 H   0  0  0  0  0  0  0  0  0  0  0  0
   -0.8406   -2.3699    0.0000 C   0  0  0  0  0  0  0  0  0  0  0  0
    0.1164   -3.1329    0.0000 O   0  0  0  0  0  0  0  0  0  0  0  0
   -0.7136   -1.0459    0.0000 N   0  0  0  0  0  0  0  0  0  0  0  0
   -1.5436   -0.4719    0.0000 H   0  0  0  0  0  0  0  0  0  0  0  0
    0.5724   -0.3469    0.0000 C   0  0  0  0  0  0  0  0  0  0  0  0
    0.4108    0.7023   -0.2512 H   0  0  0  0  0  0  0  0  0  0  0  0
    1.0079   -0.3961    0.9989 H   0  0  0  0  0  0  0  0  0  0  0  0
    1.5655   -0.9455   -1.0002 C   0  0  0  0  0  0  0  0  0  0  0  0
    2.7743   -0.8939   -0.7820 O   0  0  0  0  0  0  0  0  0  0  0  0
    1.0434   -1.5118   -2.0955 N   0  0  0  0  0  0  0  0  0  0  0  0
    0.0396   -1.5065   -2.1883 H   0  0  0  0  0  0  0  0  0  0  0  0
    1.8199   -2.1375   -3.1678 C   0  0  0  0  0  0  0  0  0  0  0  0
    2.8899   -2.0803   -2.9535 H   0  0  0  0  0  0  0  0  0  0  0  0
    1.5402   -3.1874   -3.2643 H   0  0  0  0  0  0  0  0  0  0  0  0
    1.6267   -1.6270   -4.1122 H   0  0  0  0  0  0  0  0  0  0  0  0
  5  6  2  0  0  0  0
  5  7  1  0  0  0  0
  2  3  1  0  0  0  0
  2  4  1  0  0  0  0
  2  5  1  0  0  0  0
  1  2  1  0  0  0  0
 12 13  2  0  0  0  0
 12 14  1  0  0  0  0
  9 10  1  0  0  0  0
  9 11  1  0  0  0  0
  9 12  1  0  0  0  0
  7  8  1  0  0  0  0
  7  9  1  0  0  0  0
 16 17  1  0  0  0  0
 16 18  1  0  0  0  0
 16 19  1  0  0  0  0
 14 15  1  0  0  0  0
 14 16  1  0  0  0  0
M  END
$$$$
default_name
  -OEChem-01062215323D

 19 18  0     0  0  0  0  0  0999 V2000
   -2.2056   -4.0049    0.0000 H   0  0  0  0  0  0  0  0  0  0  0  0
   -2.2496   -2.9169    0.0000 C   0  0  0  0  0  0  0  0  0  0  0  0
   -2.7696   -2.5709    0.8910 H   0  0  0  0  0  0  0  0  0  0  0  0
   -2.7696   -2.5709   -0.8910 H   0  0  0  0  0  0  0  0  0  0  0  0
   -0.8406   -2.3699    0.0000 C   0  0  0  0  0  0  0  0  0  0  0  0
    0.1164   -3.1329    0.0000 O   0  0  0  0  0  0  0  0  0  0  0  0
   -0.7136   -1.0459    0.0000 N   0  0  0  0  0  0  0  0  0  0  0  0
   -1.5436   -0.4719    0.0000 H   0  0  0  0  0  0  0  0  0  0  0  0
    0.5724   -0.3469    0.0000 C   0  0  0  0  0  0  0  0  0  0  0  0
    0.4108    0.7023   -0.2512 H   0  0  0  0  0  0  0  0  0  0  0  0
    1.0079   -0.3961    0.9989 H   0  0  0  0  0  0  0  0  0  0  0  0
    1.5655   -0.9455   -1.0002 C   0  0  0  0  0  0  0  0  0  0  0  0
    2.7335   -1.1449   -0.6723 O   0  0  0  0  0  0  0  0  0  0  0  0
    1.0895   -1.2283   -2.2194 N   0  0  0  0  0  0  0  0  0  0  0  0
    0.1171   -1.0301   -2.3965 H   0  0  0  0  0  0  0  0  0  0  0  0
    1.8742   -1.8033   -3.3138 C   0  0  0  0  0  0  0  0  0  0  0  0
    2.9075   -1.9720   -3.0009 H   0  0  0  0  0  0  0  0  0  0  0  0
    1.4428   -2.7578   -3.6181 H   0  0  0  0  0  0  0  0  0  0  0  0
    1.8759   -1.1229   -4.1665 H   0  0  0  0  0  0  0  0  0  0  0  0
  5  6  2  0  0  0  0
  5  7  1  0  0  0  0
  2  3  1  0  0  0  0
  2  4  1  0  0  0  0
  2  5  1  0  0  0  0
  1  2  1  0  0  0  0
 12 13  2  0  0  0  0
 12 14  1  0  0  0  0
  9 10  1  0  0  0  0
  9 11  1  0  0  0  0
  9 12  1  0  0  0  0
  7  8  1  0  0  0  0
  7  9  1  0  0  0  0
 16 17  1  0  0  0  0
 16 18  1  0  0  0  0
 16 19  1  0  0  0  0
 14 15  1  0  0  0  0
 14 16  1  0  0  0  0
M  END
$$$$
default_name
  -OEChem-01062215323D

 19 18  0     0  0  0  0  0  0999 V2000
   -2.2056   -4.0049    0.0000 H   0  0  0  0  0  0  0  0  0  0  0  0
   -2.2496   -2.9169    0.0000 C   0  0  0  0  0  0  0  0  0  0  0  0
   -2.7696   -2.5709    0.8910 H   0  0  0  0  0  0  0  0  0  0  0  0
   -2.7696   -2.5709   -0.8910 H   0  0  0  0  0  0  0  0  0  0  0  0
   -0.8406   -2.3699    0.0000 C   0  0  0  0  0  0  0  0  0  0  0  0
    0.1164   -3.1329    0.0000 O   0  0  0  0  0  0  0  0  0  0  0  0
   -0.7136   -1.0459    0.0000 N   0  0  0  0  0  0  0  0  0  0  0  0
   -1.5436   -0.4719    0.0000 H   0  0  0  0  0  0  0  0  0  0  0  0
    0.5724   -0.3469    0.0000 C   0  0  0  0  0  0  0  0  0  0  0  0
    0.4108    0.7023   -0.2512 H   0  0  0  0  0  0  0  0  0  0  0  0
    1.0079   -0.3961    0.9989 H   0  0  0  0  0  0  0  0  0  0  0  0
    1.5655   -0.9455   -1.0002 C   0  0  0  0  0  0  0  0  0  0  0  0
    2.6406   -1.3988   -0.6126 O   0  0  0  0  0  0  0  0  0  0  0  0
    1.1944   -0.9415   -2.2868 N   0  0  0  0  0  0  0  0  0  0  0  0
    0.2935   -0.5481   -2.5098 H   0  0  0  0  0  0  0  0  0  0  0  0
    1.9980   -1.4651   -3.3933 C   0  0  0  0  0  0  0  0  0  0  0  0
    2.9476   -1.8624   -3.0266 H   0  0  0  0  0  0  0  0  0  0  0  0
    1.4571   -2.2671   -3.8976 H   0  0  0  0  0  0  0  0  0  0  0  0
    2.2073   -0.6690   -4.1090 H   0  0  0  0  0  0  0  0  0  0  0  0
  5  6  2  0  0  0  0
  5  7  1  0  0  0  0
  2  3  1  0  0  0  0
  2  4  1  0  0  0  0
  2  5  1  0  0  0  0
  1  2  1  0  0  0  0
 12 13  2  0  0  0  0
 12 14  1  0  0  0  0
  9 10  1  0  0  0  0
  9 11  1  0  0  0  0
  9 12  1  0  0  0  0
  7  8  1  0  0  0  0
  7  9  1  0  0  0  0
 16 17  1  0  0  0  0
 16 18  1  0  0  0  0
 16 19  1  0  0  0  0
 14 15  1  0  0  0  0
 14 16  1  0  0  0  0
M  END
$$$$
default_name
  -OEChem-01062215323D

 19 18  0     0  0  0  0  0  0999 V2000
   -2.2056   -4.0049    0.0000 H   0  0  0  0  0  0  0  0  0  0  0  0
   -2.2496   -2.9169    0.0000 C   0  0  0  0  0  0  0  0  0  0  0  0
   -2.7696   -2.5709    0.8910 H   0  0  0  0  0  0  0  0  0  0  0  0
   -2.7696   -2.5709   -0.8910 H   0  0  0  0  0  0  0  0  0  0  0  0
   -0.8406   -2.3699    0.0000 C   0  0  0  0  0  0  0  0  0  0  0  0
    0.1164   -3.1329    0.0000 O   0  0  0  0  0  0  0  0  0  0  0  0
   -0.7136   -1.0459    0.0000 N   0  0  0  0  0  0  0  0  0  0  0  0
   -1.5436   -0.4719    0.0000 H   0  0  0  0  0  0  0  0  0  0  0  0
    0.5724   -0.3469    0.0000 C   0  0  0  0  0  0  0  0  0  0  0  0
    0.4108    0.7023   -0.2512 H   0  0  0  0  0  0  0  0  0  0  0  0
    1.0079   -0.3961    0.9989 H   0  0  0  0  0  0  0  0  0  0  0  0
    1.5655   -0.9455   -1.0002 C   0  0  0  0  0  0  0  0  0  0  0  0
    2.5018   -1.6385   -0.6070 O   0  0  0  0  0  0  0  0  0  0  0  0
    1.3511   -0.6709   -2.2932 N   0  0  0  0  0  0  0  0  0  0  0  0
    0.5569   -0.0933   -2.5204 H   0  0  0  0  0  0  0  0  0  0  0  0
    2.1827   -1.1461   -3.4008 C   0  0  0  0  0  0  0  0  0  0  0  0
    3.0075   -1.7590   -3.0290 H   0  0  0  0  0  0  0  0  0  0  0  0
    1.5822   -1.7485   -4.0837 H   0  0  0  0  0  0  0  0  0  0  0  0
    2.5984   -0.2962   -3.9438 H   0  0  0  0  0  0  0  0  0  0  0  0
  5  6  2  0  0  0  0
  5  7  1  0  0  0  0
  2  3  1  0  0  0  0
  2  4  1  0  0  0  0
  2  5  1  0  0  0  0
  1  2  1  0  0  0  0
 12 13  2  0  0  0  0
 12 14  1  0  0  0  0
  9 10  1  0  0  0  0
  9 11  1  0  0  0  0
  9 12  1  0  0  0  0
  7  8  1  0  0  0  0
  7  9  1  0  0  0  0
 16 17  1  0  0  0  0
 16 18  1  0  0  0  0
 16 19  1  0  0  0  0
 14 15  1  0  0  0  0
 14 16  1  0  0  0  0
M  END
$$$$
default_name
  -OEChem-01062215323D

 19 18  0     0  0  0  0  0  0999 V2000
   -2.2056   -4.0049    0.0000 H   0  0  0  0  0  0  0  0  0  0  0  0
   -2.2496   -2.9169    0.0000 C   0  0  0  0  0  0  0  0  0  0  0  0
   -2.7696   -2.5709    0.8910 H   0  0  0  0  0  0  0  0  0  0  0  0
   -2.7696   -2.5709   -0.8910 H   0  0  0  0  0  0  0  0  0  0  0  0
   -0.8406   -2.3699    0.0000 C   0  0  0  0  0  0  0  0  0  0  0  0
    0.1164   -3.1329    0.0000 O   0  0  0  0  0  0  0  0  0  0  0  0
   -0.7136   -1.0459    0.0000 N   0  0  0  0  0  0  0  0  0  0  0  0
   -1.5436   -0.4719    0.0000 H   0  0  0  0  0  0  0  0  0  0  0  0
    0.5724   -0.3469    0.0000 C   0  0  0  0  0  0  0  0  0  0  0  0
    0.4108    0.7023   -0.2512 H   0  0  0  0  0  0  0  0  0  0  0  0
    1.0079   -0.3961    0.9989 H   0  0  0  0  0  0  0  0  0  0  0  0
    1.5655   -0.9455   -1.0002 C   0  0  0  0  0  0  0  0  0  0  0  0
    2.3267   -1.8474   -0.6558 O   0  0  0  0  0  0  0  0  0  0  0  0
    1.5489   -0.4350   -2.2380 N   0  0  0  0  0  0  0  0  0  0  0  0
    0.8892    0.3033   -2.4277 H   0  0  0  0  0  0  0  0  0  0  0  0
    2.4159   -0.8679   -3.3358 C   0  0  0  0  0  0  0  0  0  0  0  0
    3.0831   -1.6688   -3.0080 H   0  0  0  0  0  0  0  0  0  0  0  0
    1.8095   -1.2375   -4.1638 H   0  0  0  0  0  0  0  0  0  0  0  0
    3.0224   -0.0300   -3.6821 H   0  0  0  0  0  0  0  0  0  0  0  0
  5  6  2  0  0  0  0
  5  7  1  0  0  0  0
  2  3  1  0  0  0  0
  2  4  1  0  0  0  0
  2  5  1  0  0  0  0
  1  2  1  0  0  0  0
 12 13  2  0  0  0  0
 12 14  1  0  0  0  0
  9 10  1  0  0  0  0
  9 11  1  0  0  0  0
  9 12  1  0  0  0  0
  7  8  1  0  0  0  0
  7  9  1  0  0  0  0
 16 17  1  0  0  0  0
 16 18  1  0  0  0  0
 16 19  1  0  0  0  0
 14 15  1  0  0  0  0
 14 16  1  0  0  0  0
M  END
$$$$
default_name
  -OEChem-01062215323D

 19 18  0     0  0  0  0  0  0999 V2000
   -2.2056   -4.0049    0.0000 H   0  0  0  0  0  0  0  0  0  0  0  0
   -2.2496   -2.9169    0.0000 C   0  0  0  0  0  0  0  0  0  0  0  0
   -2.7696   -2.5709    0.8910 H   0  0  0  0  0  0  0  0  0  0  0  0
   -2.7696   -2.5709   -0.8910 H   0  0  0  0  0  0  0  0  0  0  0  0
   -0.8406   -2.3699    0.0000 C   0  0  0  0  0  0  0  0  0  0  0  0
    0.1164   -3.1329    0.0000 O   0  0  0  0  0  0  0  0  0  0  0  0
   -0.7136   -1.0459    0.0000 N   0  0  0  0  0  0  0  0  0  0  0  0
   -1.5436   -0.4719    0.0000 H   0  0  0  0  0  0  0  0  0  0  0  0
    0.5724   -0.3469    0.0000 C   0  0  0  0  0  0  0  0  0  0  0  0
    0.4108    0.7023   -0.2512 H   0  0  0  0  0  0  0  0  0  0  0  0
    1.0079   -0.3961    0.9989 H   0  0  0  0  0  0  0  0  0  0  0  0
    1.5655   -0.9455   -1.0002 C   0  0  0  0  0  0  0  0  0  0  0  0
    2.1272   -2.0114   -0.7558 O   0  0  0  0  0  0  0  0  0  0  0  0
    1.7742   -0.2497   -2.1251 N   0  0  0  0  0  0  0  0  0  0  0  0
    1.2679    0.6146   -2.2380 H   0  0  0  0  0  0  0  0  0  0  0  0
    2.6815   -0.6495   -3.2027 C   0  0  0  0  0  0  0  0  0  0  0  0
    3.1692   -1.5980   -2.9648 H   0  0  0  0  0  0  0  0  0  0  0  0
    2.1236   -0.7689   -4.1324 H   0  0  0  0  0  0  0  0  0  0  0  0
    3.4505    0.1115   -3.3417 H   0  0  0  0  0  0  0  0  0  0  0  0
  5  6  2  0  0  0  0
  5  7  1  0  0  0  0
  2  3  1  0  0  0  0
  2  4  1  0  0  0  0
  2  5  1  0  0  0  0
  1  2  1  0  0  0  0
 12 13  2  0  0  0  0
 12 14  1  0  0  0  0
  9 10  1  0  0  0  0
  9 11  1  0  0  0  0
  9 12  1  0  0  0  0
  7  8  1  0  0  0  0
  7  9  1  0  0  0  0
 16 17  1  0  0  0  0
 16 18  1  0  0  0  0
 16 19  1  0  0  0  0
 14 15  1  0  0  0  0
 14 16  1  0  0  0  0
M  END
$$$$
default_name
  -OEChem-01062215323D

 19 18  0     0  0  0  0  0  0999 V2000
   -2.2056   -4.0049    0.0000 H   0  0  0  0  0  0  0  0  0  0  0  0
   -2.2496   -2.9169    0.0000 C   0  0  0  0  0  0  0  0  0  0  0  0
   -2.7696   -2.5709    0.8910 H   0  0  0  0  0  0  0  0  0  0  0  0
   -2.7696   -2.5709   -0.8910 H   0  0  0  0  0  0  0  0  0  0  0  0
   -0.8406   -2.3699    0.0000 C   0  0  0  0  0  0  0  0  0  0  0  0
    0.1164   -3.1329    0.0000 O   0  0  0  0  0  0  0  0  0  0  0  0
   -0.7136   -1.0459    0.0000 N   0  0  0  0  0  0  0  0  0  0  0  0
   -1.5436   -0.4719    0.0000 H   0  0  0  0  0  0  0  0  0  0  0  0
    0.5724   -0.3469    0.0000 C   0  0  0  0  0  0  0  0  0  0  0  0
    0.4108    0.7023   -0.2512 H   0  0  0  0  0  0  0  0  0  0  0  0
    1.0079   -0.3961    0.9989 H   0  0  0  0  0  0  0  0  0  0  0  0
    1.5655   -0.9455   -1.0002 C   0  0  0  0  0  0  0  0  0  0  0  0
    1.9168   -2.1194   -0.9000 O   0  0  0  0  0  0  0  0  0  0  0  0
    2.0117   -0.1278   -1.9622 N   0  0  0  0  0  0  0  0  0  0  0  0
    1.6672    0.8195   -1.9642 H   0  0  0  0  0  0  0  0  0  0  0  0
    2.9616   -0.5058   -3.0106 C   0  0  0  0  0  0  0  0  0  0  0  0
    3.2600   -1.5514   -2.9026 H   0  0  0  0  0  0  0  0  0  0  0  0
    2.5029   -0.3747   -3.9916 H   0  0  0  0  0  0  0  0  0  0  0  0
    3.8535    0.1188   -2.9458 H   0  0  0  0  0  0  0  0  0  0  0  0
  5  6  2  0  0  0  0
  5  7  1  0  0  0  0
  2  3  1  0  0  0  0
  2  4  1  0  0  0  0
  2  5  1  0  0  0  0
  1  2  1  0  0  0  0
 12 13  2  0  0  0  0
 12 14  1  0  0  0  0
  9 10  1  0  0  0  0
  9 11  1  0  0  0  0
  9 12  1  0  0  0  0
  7  8  1  0  0  0  0
  7  9  1  0  0  0  0
 16 17  1  0  0  0  0
 16 18  1  0  0  0  0
 16 19  1  0  0  0  0
 14 15  1  0  0  0  0
 14 16  1  0  0  0  0
M  END
$$$$
default_name
  -OEChem-01062215323D

 19 18  0     0  0  0  0  0  0999 V2000
   -2.2056   -4.0049    0.0000 H   0  0  0  0  0  0  0  0  0  0  0  0
   -2.2496   -2.9169    0.0000 C   0  0  0  0  0  0  0  0  0  0  0  0
   -2.7696   -2.5709    0.8910 H   0  0  0  0  0  0  0  0  0  0  0  0
   -2.7696   -2.5709   -0.8910 H   0  0  0  0  0  0  0  0  0  0  0  0
   -0.8406   -2.3699    0.0000 C   0  0  0  0  0  0  0  0  0  0  0  0
    0.1164   -3.1329    0.0000 O   0  0  0  0  0  0  0  0  0  0  0  0
   -0.7136   -1.0459    0.0000 N   0  0  0  0  0  0  0  0  0  0  0  0
   -1.5436   -0.4719    0.0000 H   0  0  0  0  0  0  0  0  0  0  0  0
    0.5724   -0.3469    0.0000 C   0  0  0  0  0  0  0  0  0  0  0  0
    0.4108    0.7023   -0.2512 H   0  0  0  0  0  0  0  0  0  0  0  0
    1.0079   -0.3961    0.9989 H   0  0  0  0  0  0  0  0  0  0  0  0
    1.5655   -0.9455   -1.0002 C   0  0  0  0  0  0  0  0  0  0  0  0
    1.7100   -2.1638   -1.0788 O   0  0  0  0  0  0  0  0  0  0  0  0
    2.2453   -0.0776   -1.7604 N   0  0  0  0  0  0  0  0  0  0  0  0
    2.0597    0.9039   -1.6250 H   0  0  0  0  0  0  0  0  0  0  0  0
    3.2370   -0.4466   -2.7726 C   0  0  0  0  0  0  0  0  0  0  0  0
    3.3492   -1.5322   -2.8254 H   0  0  0  0  0  0  0  0  0  0  0  0
    2.9218   -0.0816   -3.7511 H   0  0  0  0  0  0  0  0  0  0  0  0
    4.2040   -0.0089   -2.5214 H   0  0  0  0  0  0  0  0  0  0  0  0
  5  6  2  0  0  0  0
  5  7  1  0  0  0  0
  2  3  1  0  0  0  0
  2  4  1  0  0  0  0
  2  5  1  0  0  0  0
  1  2  1  0  0  0  0
 12 13  2  0  0  0  0
 12 14  1  0  0  0  0
  9 10  1  0  0  0  0
  9 11  1  0  0  0  0
  9 12  1  0  0  0  0
  7  8  1  0  0  0  0
  7  9  1  0  0  0  0
 16 17  1  0  0  0  0
 16 18  1  0  0  0  0
 16 19  1  0  0  0  0
 14 15  1  0  0  0  0
 14 16  1  0  0  0  0
M  END
$$$$
default_name
  -OEChem-01062215323D

 19 18  0     0  0  0  0  0  0999 V2000
   -2.2056   -4.0049    0.0000 H   0  0  0  0  0  0  0  0  0  0  0  0
   -2.2496   -2.9169    0.0000 C   0  0  0  0  0  0  0  0  0  0  0  0
   -2.7696   -2.5709    0.8910 H   0  0  0  0  0  0  0  0  0  0  0  0
   -2.7696   -2.5709   -0.8910 H   0  0  0  0  0  0  0  0  0  0  0  0
   -0.8406   -2.3699    0.0000 C   0  0  0  0  0  0  0  0  0  0  0  0
    0.1164   -3.1329    0.0000 O   0  0  0  0  0  0  0  0  0  0  0  0
   -0.7136   -1.0459    0.0000 N   0  0  0  0  0  0  0  0  0  0  0  0
   -1.5436   -0.4719    0.0000 H   0  0  0  0  0  0  0  0  0  0  0  0
    0.5724   -0.3469    0.0000 C   0  0  0  0  0  0  0  0  0  0  0  0
    0.4108    0.7023   -0.2512 H   0  0  0  0  0  0  0  0  0  0  0  0
    1.0079   -0.3961    0.9989 H   0  0  0  0  0  0  0  0  0  0  0  0
    1.5655   -0.9455   -1.0002 C   0  0  0  0  0  0  0  0  0  0  0  0
    1.5208   -2.1418   -1.2798 O   0  0  0  0  0  0  0  0  0  0  0  0
    2.4589   -0.1025   -1.5333 N   0  0  0  0  0  0  0  0  0  0  0  0
    2.4188    0.8621   -1.2434 H   0  0  0  0  0  0  0  0  0  0  0  0
    3.4889   -0.4759   -2.5049 C   0  0  0  0  0  0  0  0  0  0  0  0
    3.4309   -1.5417   -2.7387 H   0  0  0  0  0  0  0  0  0  0  0  0
    3.3516    0.0903   -3.4272 H   0  0  0  0  0  0  0  0  0  0  0  0
    4.4780   -0.2626   -2.0975 H   0  0  0  0  0  0  0  0  0  0  0  0
  5  6  2  0  0  0  0
  5  7  1  0  0  0  0
  2  3  1  0  0  0  0
  2  4  1  0  0  0  0
  2  5  1  0  0  0  0
  1  2  1  0  0  0  0
 12 13  2  0  0  0  0
 12 14  1  0  0  0  0
  9 10  1  0  0  0  0
  9 11  1  0  0  0  0
  9 12  1  0  0  0  0
  7  8  1  0  0  0  0
  7  9  1  0  0  0  0
 16 17  1  0  0  0  0
 16 18  1  0  0  0  0
 16 19  1  0  0  0  0
 14 15  1  0  0  0  0
 14 16  1  0  0  0  0
M  END
$$$$
default_name
  -OEChem-01062215323D

 19 18  0     0  0  0  0  0  0999 V2000
   -2.2056   -4.0049    0.0000 H   0  0  0  0  0  0  0  0  0  0  0  0
   -2.2496   -2.9169    0.0000 C   0  0  0  0  0  0  0  0  0  0  0  0
   -2.7696   -2.5709    0.8910 H   0  0  0  0  0  0  0  0  0  0  0  0
   -2.7696   -2.5709   -0.8910 H   0  0  0  0  0  0  0  0  0  0  0  0
   -0.8406   -2.3699    0.0000 C   0  0  0  0  0  0  0  0  0  0  0  0
    0.1164   -3.1329    0.0000 O   0  0  0  0  0  0  0  0  0  0  0  0
   -0.7136   -1.0459    0.0000 N   0  0  0  0  0  0  0  0  0  0  0  0
   -1.5436   -0.4719    0.0000 H   0  0  0  0  0  0  0  0  0  0  0  0
    0.5724   -0.3469    0.0000 C   0  0  0  0  0  0  0  0  0  0  0  0
    0.4108    0.7023   -0.2512 H   0  0  0  0  0  0  0  0  0  0  0  0
    1.0079   -0.3961    0.9989 H   0  0  0  0  0  0  0  0  0  0  0  0
    1.5655   -0.9455   -1.0002 C   0  0  0  0  0  0  0  0  0  0  0  0
    1.3621   -2.0549   -1.4895 O   0  0  0  0  0  0  0  0  0  0  0  0
    2.6382   -0.2007   -1.2966 N   0  0  0  0  0  0  0  0  0  0  0  0
    2.7200    0.6970   -0.8455 H   0  0  0  0  0  0  0  0  0  0  0  0
    3.7002   -0.5917   -2.2258 C   0  0  0  0  0  0  0  0  0  0  0  0
    3.4994   -1.5793   -2.6482 H   0  0  0  0  0  0  0  0  0  0  0  0
    3.7630    0.1293   -3.0420 H   0  0  0  0  0  0  0  0  0  0  0  0
    4.6569   -0.6252   -1.7029 H   0  0  0  0  0  0  0  0  0  0  0  0
  5  6  2  0  0  0  0
  5  7  1  0  0  0  0
  2  3  1  0  0  0  0
  2  4  1  0  0  0  0
  2  5  1  0  0  0  0
  1  2  1  0  0  0  0
 12 13  2  0  0  0  0
 12 14  1  0  0  0  0
  9 10  1  0  0  0  0
  9 11  1  0  0  0  0
  9 12  1  0  0  0  0
  7  8  1  0  0  0  0
  7  9  1  0  0  0  0
 16 17  1  0  0  0  0
 16 18  1  0  0  0  0
 16 19  1  0  0  0  0
 14 15  1  0  0  0  0
 14 16  1  0  0  0  0
M  END
$$$$
default_name
  -OEChem-01062215323D

 19 18  0     0  0  0  0  0  0999 V2000
   -2.2056   -4.0049    0.0000 H   0  0  0  0  0  0  0  0  0  0  0  0
   -2.2496   -2.9169    0.0000 C   0  0  0  0  0  0  0  0  0  0  0  0
   -2.7696   -2.5709    0.8910 H   0  0  0  0  0  0  0  0  0  0  0  0
   -2.7696   -2.5709   -0.8910 H   0  0  0  0  0  0  0  0  0  0  0  0
   -0.8406   -2.3699    0.0000 C   0  0  0  0  0  0  0  0  0  0  0  0
    0.1164   -3.1329    0.0000 O   0  0  0  0  0  0  0  0  0  0  0  0
   -0.7136   -1.0459    0.0000 N   0  0  0  0  0  0  0  0  0  0  0  0
   -1.5436   -0.4719    0.0000 H   0  0  0  0  0  0  0  0  0  0  0  0
    0.5724   -0.3469    0.0000 C   0  0  0  0  0  0  0  0  0  0  0  0
    0.3961    0.7295    0.0159 H   0  0  0  0  0  0  0  0  0  0  0  0
    1.1273   -0.6158    0.8999 H   0  0  0  0  0  0  0  0  0  0  0  0
    1.4256   -0.6881   -1.2250 C   0  0  0  0  0  0  0  0  0  0  0  0
    1.0079   -1.4730   -2.0740 O   0  0  0  0  0  0  0  0  0  0  0  0
    2.6216   -0.0912   -1.3059 N   0  0  0  0  0  0  0  0  0  0  0  0
    2.8787    0.5378   -0.5614 H   0  0  0  0  0  0  0  0  0  0  0  0
    3.5831   -0.2832   -2.3935 C   0  0  0  0  0  0  0  0  0  0  0  0
    3.1919   -0.9835   -3.1355 H   0  0  0  0  0  0  0  0  0  0  0  0
    3.7818    0.6698   -2.8856 H   0  0  0  0  0  0  0  0  0  0  0  0
    4.5172   -0.6831   -1.9966 H   0  0  0  0  0  0  0  0  0  0  0  0
  5  6  2  0  0  0  0
  5  7  1  0  0  0  0
  2  3  1  0  0  0  0
  2  4  1  0  0  0  0
  2  5  1  0  0  0  0
  1  2  1  0  0  0  0
 12 13  2  0  0  0  0
 12 14  1  0  0  0  0
  9 10  1  0  0  0  0
  9 11  1  0  0  0  0
  9 12  1  0  0  0  0
  7  8  1  0  0  0  0
  7  9  1  0  0  0  0
 16 17  1  0  0  0  0
 16 18  1  0  0  0  0
 16 19  1  0  0  0  0
 14 15  1  0  0  0  0
 14 16  1  0  0  0  0
M  END
$$$$
default_name
  -OEChem-01062215323D

 19 18  0     0  0  0  0  0  0999 V2000
   -2.2056   -4.0049    0.0000 H   0  0  0  0  0  0  0  0  0  0  0  0
   -2.2496   -2.9169    0.0000 C   0  0  0  0  0  0  0  0  0  0  0  0
   -2.7696   -2.5709    0.8910 H   0  0  0  0  0  0  0  0  0  0  0  0
   -2.7696   -2.5709   -0.8910 H   0  0  0  0  0  0  0  0  0  0  0  0
   -0.8406   -2.3699    0.0000 C   0  0  0  0  0  0  0  0  0  0  0  0
    0.1164   -3.1329    0.0000 O   0  0  0  0  0  0  0  0  0  0  0  0
   -0.7136   -1.0459    0.0000 N   0  0  0  0  0  0  0  0  0  0  0  0
   -1.5436   -0.4719    0.0000 H   0  0  0  0  0  0  0  0  0  0  0  0
    0.5724   -0.3469    0.0000 C   0  0  0  0  0  0  0  0  0  0  0  0
    0.3961    0.7295    0.0159 H   0  0  0  0  0  0  0  0  0  0  0  0
    1.1273   -0.6158    0.8999 H   0  0  0  0  0  0  0  0  0  0  0  0
    1.4256   -0.6881   -1.2250 C   0  0  0  0  0  0  0  0  0  0  0  0
    0.9203   -1.2421   -2.1993 O   0  0  0  0  0  0  0  0  0  0  0  0
    2.7204   -0.3520   -1.1644 N   0  0  0  0  0  0  0  0  0  0  0  0
    3.0448    0.0994   -0.3236 H   0  0  0  0  0  0  0  0  0  0  0  0
    3.6997   -0.5907   -2.2266 C   0  0  0  0  0  0  0  0  0  0  0  0
    3.2297   -1.0832   -3.0814 H   0  0  0  0  0  0  0  0  0  0  0  0
    4.1228    0.3574   -2.5610 H   0  0  0  0  0  0  0  0  0  0  0  0
    4.5018   -1.2298   -1.8550 H   0  0  0  0  0  0  0  0  0  0  0  0
  5  6  2  0  0  0  0
  5  7  1  0  0  0  0
  2  3  1  0  0  0  0
  2  4  1  0  0  0  0
  2  5  1  0  0  0  0
  1  2  1  0  0  0  0
 12 13  2  0  0  0  0
 12 14  1  0  0  0  0
  9 10  1  0  0  0  0
  9 11  1  0  0  0  0
  9 12  1  0  0  0  0
  7  8  1  0  0  0  0
  7  9  1  0  0  0  0
 16 17  1  0  0  0  0
 16 18  1  0  0  0  0
 16 19  1  0  0  0  0
 14 15  1  0  0  0  0
 14 16  1  0  0  0  0
M  END
$$$$
default_name
  -OEChem-01062215323D

 19 18  0     0  0  0  0  0  0999 V2000
   -2.2056   -4.0049    0.0000 H   0  0  0  0  0  0  0  0  0  0  0  0
   -2.2496   -2.9169    0.0000 C   0  0  0  0  0  0  0  0  0  0  0  0
   -2.7696   -2.5709    0.8910 H   0  0  0  0  0  0  0  0  0  0  0  0
   -2.7696   -2.5709   -0.8910 H   0  0  0  0  0  0  0  0  0  0  0  0
   -0.8406   -2.3699    0.0000 C   0  0  0  0  0  0  0  0  0  0  0  0
    0.1164   -3.1329    0.0000 O   0  0  0  0  0  0  0  0  0  0  0  0
   -0.7136   -1.0459    0.0000 N   0  0  0  0  0  0  0  0  0  0  0  0
   -1.5436   -0.4719    0.0000 H   0  0  0  0  0  0  0  0  0  0  0  0
    0.5724   -0.3469    0.0000 C   0  0  0  0  0  0  0  0  0  0  0  0
    0.3961    0.7295    0.0159 H   0  0  0  0  0  0  0  0  0  0  0  0
    1.1273   -0.6158    0.8999 H   0  0  0  0  0  0  0  0  0  0  0  0
    1.4256   -0.6881   -1.2250 C   0  0  0  0  0  0  0  0  0  0  0  0
    0.8908   -0.9828   -2.2920 O   0  0  0  0  0  0  0  0  0  0  0  0
    2.7537   -0.6448   -1.0597 N   0  0  0  0  0  0  0  0  0  0  0  0
    3.1009   -0.3927   -0.1475 H   0  0  0  0  0  0  0  0  0  0  0  0
    3.7390   -0.9359   -2.1031 C   0  0  0  0  0  0  0  0  0  0  0  0
    3.2425   -1.1951   -3.0414 H   0  0  0  0  0  0  0  0  0  0  0  0
    4.3688   -0.0617   -2.2729 H   0  0  0  0  0  0  0  0  0  0  0  0
    4.3655   -1.7751   -1.7980 H   0  0  0  0  0  0  0  0  0  0  0  0
  5  6  2  0  0  0  0
  5  7  1  0  0  0  0
  2  3  1  0  0  0  0
  2  4  1  0  0  0  0
  2  5  1  0  0  0  0
  1  2  1  0  0  0  0
 12 13  2  0  0  0  0
 12 14  1  0  0  0  0
  9 10  1  0  0  0  0
  9 11  1  0  0  0  0
  9 12  1  0  0  0  0
  7  8  1  0  0  0  0
  7  9  1  0  0  0  0
 16 17  1  0  0  0  0
 16 18  1  0  0  0  0
 16 19  1  0  0  0  0
 14 15  1  0  0  0  0
 14 16  1  0  0  0  0
M  END
$$$$
default_name
  -OEChem-01062215323D

 19 18  0     0  0  0  0  0  0999 V2000
   -2.2056   -4.0049    0.0000 H   0  0  0  0  0  0  0  0  0  0  0  0
   -2.2496   -2.9169    0.0000 C   0  0  0  0  0  0  0  0  0  0  0  0
   -2.7696   -2.5709    0.8910 H   0  0  0  0  0  0  0  0  0  0  0  0
   -2.7696   -2.5709   -0.8910 H   0  0  0  0  0  0  0  0  0  0  0  0
   -0.8406   -2.3699    0.0000 C   0  0  0  0  0  0  0  0  0  0  0  0
    0.1164   -3.1329    0.0000 O   0  0  0  0  0  0  0  0  0  0  0  0
   -0.7136   -1.0459    0.0000 N   0  0  0  0  0  0  0  0  0  0  0  0
   -1.5436   -0.4719    0.0000 H   0  0  0  0  0  0  0  0  0  0  0  0
    0.5724   -0.3469    0.0000 C   0  0  0  0  0  0  0  0  0  0  0  0
    0.3961    0.7295    0.0159 H   0  0  0  0  0  0  0  0  0  0  0  0
    1.1273   -0.6158    0.8999 H   0  0  0  0  0  0  0  0  0  0  0  0
    1.4256   -0.6881   -1.2250 C   0  0  0  0  0  0  0  0  0  0  0  0
    0.9214   -0.7129   -2.3460 O   0  0  0  0  0  0  0  0  0  0  0  0
    2.7193   -0.9497   -0.9988 N   0  0  0  0  0  0  0  0  0  0  0  0
    3.0429   -0.9050   -0.0452 H   0  0  0  0  0  0  0  0  0  0  0  0
    3.6983   -1.2954   -2.0313 C   0  0  0  0  0  0  0  0  0  0  0  0
    3.2293   -1.3116   -3.0181 H   0  0  0  0  0  0  0  0  0  0  0  0
    4.5031   -0.5590   -2.0409 H   0  0  0  0  0  0  0  0  0  0  0  0
    4.1177   -2.2819   -1.8295 H   0  0  0  0  0  0  0  0  0  0  0  0
  5  6  2  0  0  0  0
  5  7  1  0  0  0  0
  2  3  1  0  0  0  0
  2  4  1  0  0  0  0
  2  5  1  0  0  0  0
  1  2  1  0  0  0  0
 12 13  2  0  0  0  0
 12 14  1  0  0  0  0
  9 10  1  0  0  0  0
  9 11  1  0  0  0  0
  9 12  1  0  0  0  0
  7  8  1  0  0  0  0
  7  9  1  0  0  0  0
 16 17  1  0  0  0  0
 16 18  1  0  0  0  0
 16 19  1  0  0  0  0
 14 15  1  0  0  0  0
 14 16  1  0  0  0  0
M  END
$$$$
default_name
  -OEChem-01062215323D

 19 18  0     0  0  0  0  0  0999 V2000
   -2.2056   -4.0049    0.0000 H   0  0  0  0  0  0  0  0  0  0  0  0
   -2.2496   -2.9169    0.0000 C   0  0  0  0  0  0  0  0  0  0  0  0
   -2.7696   -2.5709    0.8910 H   0  0  0  0  0  0  0  0  0  0  0  0
   -2.7696   -2.5709   -0.8910 H   0  0  0  0  0  0  0  0  0  0  0  0
   -0.8406   -2.3699    0.0000 C   0  0  0  0  0  0  0  0  0  0  0  0
    0.1164   -3.1329    0.0000 O   0  0  0  0  0  0  0  0  0  0  0  0
   -0.7136   -1.0459    0.0000 N   0  0  0  0  0  0  0  0  0  0  0  0
   -1.5436   -0.4719    0.0000 H   0  0  0  0  0  0  0  0  0  0  0  0
    0.5724   -0.3469    0.0000 C   0  0  0  0  0  0  0  0  0  0  0  0
    0.3961    0.7295    0.0159 H   0  0  0  0  0  0  0  0  0  0  0  0
    1.1273   -0.6158    0.8999 H   0  0  0  0  0  0  0  0  0  0  0  0
    1.4256   -0.6881   -1.2250 C   0  0  0  0  0  0  0  0  0  0  0  0
    1.0099   -0.4507   -2.3574 O   0  0  0  0  0  0  0  0  0  0  0  0
    2.6193   -1.2457   -0.9859 N   0  0  0  0  0  0  0  0  0  0  0  0
    2.8750   -1.4026   -0.0235 H   0  0  0  0  0  0  0  0  0  0  0  0
    3.5805   -1.6445   -2.0162 C   0  0  0  0  0  0  0  0  0  0  0  0
    3.1911   -1.4247   -3.0132 H   0  0  0  0  0  0  0  0  0  0  0  0
    4.5164   -1.1007   -1.8808 H   0  0  0  0  0  0  0  0  0  0  0  0
    3.7753   -2.7155   -1.9472 H   0  0  0  0  0  0  0  0  0  0  0  0
  5  6  2  0  0  0  0
  5  7  1  0  0  0  0
  2  3  1  0  0  0  0
  2  4  1  0  0  0  0
  2  5  1  0  0  0  0
  1  2  1  0  0  0  0
 12 13  2  0  0  0  0
 12 14  1  0  0  0  0
  9 10  1  0  0  0  0
  9 11  1  0  0  0  0
  9 12  1  0  0  0  0
  7  8  1  0  0  0  0
  7  9  1  0  0  0  0
 16 17  1  0  0  0  0
 16 18  1  0  0  0  0
 16 19  1  0  0  0  0
 14 15  1  0  0  0  0
 14 16  1  0  0  0  0
M  END
$$$$
default_name
  -OEChem-01062215323D

 19 18  0     0  0  0  0  0  0999 V2000
   -2.2056   -4.0049    0.0000 H   0  0  0  0  0  0  0  0  0  0  0  0
   -2.2496   -2.9169    0.0000 C   0  0  0  0  0  0  0  0  0  0  0  0
   -2.7696   -2.5709    0.8910 H   0  0  0  0  0  0  0  0  0  0  0  0
   -2.7696   -2.5709   -0.8910 H   0  0  0  0  0  0  0  0  0  0  0  0
   -0.8406   -2.3699    0.0000 C   0  0  0  0  0  0  0  0  0  0  0  0
    0.1164   -3.1329    0.0000 O   0  0  0  0  0  0  0  0  0  0  0  0
   -0.7136   -1.0459    0.0000 N   0  0  0  0  0  0  0  0  0  0  0  0
   -1.5436   -0.4719    0.0000 H   0  0  0  0  0  0  0  0  0  0  0  0
    0.5724   -0.3469    0.0000 C   0  0  0  0  0  0  0  0  0  0  0  0
    0.3961    0.7295    0.0159 H   0  0  0  0  0  0  0  0  0  0  0  0
    1.1273   -0.6158    0.8999 H   0  0  0  0  0  0  0  0  0  0  0  0
    1.4256   -0.6881   -1.2250 C   0  0  0  0  0  0  0  0  0  0  0  0
    1.1503   -0.2141   -2.3254 O   0  0  0  0  0  0  0  0  0  0  0  0
    2.4608   -1.5129   -1.0219 N   0  0  0  0  0  0  0  0  0  0  0  0
    2.6085   -1.8517   -0.0841 H   0  0  0  0  0  0  0  0  0  0  0  0
    3.3935   -1.9594   -2.0586 C   0  0  0  0  0  0  0  0  0  0  0  0
    3.1305   -1.5268   -3.0270 H   0  0  0  0  0  0  0  0  0  0  0  0
    4.4078   -1.6497   -1.8035 H   0  0  0  0  0  0  0  0  0  0  0  0
    3.3615   -3.0465   -2.1433 H   0  0  0  0  0  0  0  0  0  0  0  0
  5  6  2  0  0  0  0
  5  7  1  0  0  0  0
  2  3  1  0  0  0  0
  2  4  1  0  0  0  0
  2  5  1  0  0  0  0
  1  2  1  0  0  0  0
 12 13  2  0  0  0  0
 12 14  1  0  0  0  0
  9 10  1  0  0  0  0
  9 11  1  0  0  0  0
  9 12  1  0  0  0  0
  7  8  1  0  0  0  0
  7  9  1  0  0  0  0
 16 17  1  0  0  0  0
 16 18  1  0  0  0  0
 16 19  1  0  0  0  0
 14 15  1  0  0  0  0
 14 16  1  0  0  0  0
M  END
$$$$
default_name
  -OEChem-01062215323D

 19 18  0     0  0  0  0  0  0999 V2000
   -2.2056   -4.0049    0.0000 H   0  0  0  0  0  0  0  0  0  0  0  0
   -2.2496   -2.9169    0.0000 C   0  0  0  0  0  0  0  0  0  0  0  0
   -2.7696   -2.5709    0.8910 H   0  0  0  0  0  0  0  0  0  0  0  0
   -2.7696   -2.5709   -0.8910 H   0  0  0  0  0  0  0  0  0  0  0  0
   -0.8406   -2.3699    0.0000 C   0  0  0  0  0  0  0  0  0  0  0  0
    0.1164   -3.1329    0.0000 O   0  0  0  0  0  0  0  0  0  0  0  0
   -0.7136   -1.0459    0.0000 N   0  0  0  0  0  0  0  0  0  0  0  0
   -1.5436   -0.4719    0.0000 H   0  0  0  0  0  0  0  0  0  0  0  0
    0.5724   -0.3469    0.0000 C   0  0  0  0  0  0  0  0  0  0  0  0
    0.3961    0.7295    0.0159 H   0  0  0  0  0  0  0  0  0  0  0  0
    1.1273   -0.6158    0.8999 H   0  0  0  0  0  0  0  0  0  0  0  0
    1.4256   -0.6881   -1.2250 C   0  0  0  0  0  0  0  0  0  0  0  0
    1.3330   -0.0193   -2.2524 O   0  0  0  0  0  0  0  0  0  0  0  0
    2.2544   -1.7329   -1.1044 N   0  0  0  0  0  0  0  0  0  0  0  0
    2.2616   -2.2215   -0.2227 H   0  0  0  0  0  0  0  0  0  0  0  0
    3.1502   -2.2189   -2.1559 C   0  0  0  0  0  0  0  0  0  0  0  0
    3.0516   -1.6109   -3.0585 H   0  0  0  0  0  0  0  0  0  0  0  0
    4.1849   -2.1687   -1.8142 H   0  0  0  0  0  0  0  0  0  0  0  0
    2.9046   -3.2523   -2.4042 H   0  0  0  0  0  0  0  0  0  0  0  0
  5  6  2  0  0  0  0
  5  7  1  0  0  0  0
  2  3  1  0  0  0  0
  2  4  1  0  0  0  0
  2  5  1  0  0  0  0
  1  2  1  0  0  0  0
 12 13  2  0  0  0  0
 12 14  1  0  0  0  0
  9 10  1  0  0  0  0
  9 11  1  0  0  0  0
  9 12  1  0  0  0  0
  7  8  1  0  0  0  0
  7  9  1  0  0  0  0
 16 17  1  0  0  0  0
 16 18  1  0  0  0  0
 16 19  1  0  0  0  0
 14 15  1  0  0  0  0
 14 16  1  0  0  0  0
M  END
$$$$
default_name
  -OEChem-01062215323D

 19 18  0     0  0  0  0  0  0999 V2000
   -2.2056   -4.0049    0.0000 H   0  0  0  0  0  0  0  0  0  0  0  0
   -2.2496   -2.9169    0.0000 C   0  0  0  0  0  0  0  0  0  0  0  0
   -2.7696   -2.5709    0.8910 H   0  0  0  0  0  0  0  0  0  0  0  0
   -2.7696   -2.5709   -0.8910 H   0  0  0  0  0  0  0  0  0  0  0  0
   -0.8406   -2.3699    0.0000 C   0  0  0  0  0  0  0  0  0  0  0  0
    0.1164   -3.1329    0.0000 O   0  0  0  0  0  0  0  0  0  0  0  0
   -0.7136   -1.0459    0.0000 N   0  0  0  0  0  0  0  0  0  0  0  0
   -1.5436   -0.4719    0.0000 H   0  0  0  0  0  0  0  0  0  0  0  0
    0.5724   -0.3469    0.0000 C   0  0  0  0  0  0  0  0  0  0  0  0
    0.3961    0.7295    0.0159 H   0  0  0  0  0  0  0  0  0  0  0  0
    1.1273   -0.6158    0.8999 H   0  0  0  0  0  0  0  0  0  0  0  0
    1.4256   -0.6881   -1.2250 C   0  0  0  0  0  0  0  0  0  0  0  0
    1.5457    0.1206   -2.1432 O   0  0  0  0  0  0  0  0  0  0  0  0
    2.0142   -1.8908   -1.2277 N   0  0  0  0  0  0  0  0  0  0  0  0
    1.8579   -2.4869   -0.4300 H   0  0  0  0  0  0  0  0  0  0  0  0
    2.8670   -2.4051   -2.3013 C   0  0  0  0  0  0  0  0  0  0  0  0
    2.9598   -1.6713   -3.1056 H   0  0  0  0  0  0  0  0  0  0  0  0
    3.8627   -2.6223   -1.9123 H   0  0  0  0  0  0  0  0  0  0  0  0
    2.4357   -3.3188   -2.7123 H   0  0  0  0  0  0  0  0  0  0  0  0
  5  6  2  0  0  0  0
  5  7  1  0  0  0  0
  2  3  1  0  0  0  0
  2  4  1  0  0  0  0
  2  5  1  0  0  0  0
  1  2  1  0  0  0  0
 12 13  2  0  0  0  0
 12 14  1  0  0  0  0
  9 10  1  0  0  0  0
  9 11  1  0  0  0  0
  9 12  1  0  0  0  0
  7  8  1  0  0  0  0
  7  9  1  0  0  0  0
 16 17  1  0  0  0  0
 16 18  1  0  0  0  0
 16 19  1  0  0  0  0
 14 15  1  0  0  0  0
 14 16  1  0  0  0  0
M  END
$$$$
default_name
  -OEChem-01062215323D

 19 18  0     0  0  0  0  0  0999 V2000
   -2.2056   -4.0049    0.0000 H   0  0  0  0  0  0  0  0  0  0  0  0
   -2.2496   -2.9169    0.0000 C   0  0  0  0  0  0  0  0  0  0  0  0
   -2.7696   -2.5709    0.8910 H   0  0  0  0  0  0  0  0  0  0  0  0
   -2.7696   -2.5709   -0.8910 H   0  0  0  0  0  0  0  0  0  0  0  0
   -0.8406   -2.3699    0.0000 C   0  0  0  0  0  0  0  0  0  0  0  0
    0.1164   -3.1329    0.0000 O   0  0  0  0  0  0  0  0  0  0  0  0
   -0.7136   -1.0459    0.0000 N   0  0  0  0  0  0  0  0  0  0  0  0
   -1.5436   -0.4719    0.0000 H   0  0  0  0  0  0  0  0  0  0  0  0
    0.5724   -0.3469    0.0000 C   0  0  0  0  0  0  0  0  0  0  0  0
    0.3961    0.7295    0.0159 H   0  0  0  0  0  0  0  0  0  0  0  0
    1.1273   -0.6158    0.8999 H   0  0  0  0  0  0  0  0  0  0  0  0
    1.4256   -0.6881   -1.2250 C   0  0  0  0  0  0  0  0  0  0  0  0
    1.7738    0.1959   -2.0053 O   0  0  0  0  0  0  0  0  0  0  0  0
    1.7567   -1.9759   -1.3834 N   0  0  0  0  0  0  0  0  0  0  0  0
    1.4250   -2.6298   -0.6917 H   0  0  0  0  0  0  0  0  0  0  0  0
    2.5634   -2.5053   -2.4849 C   0  0  0  0  0  0  0  0  0  0  0  0
    2.8614   -1.7038   -3.1652 H   0  0  0  0  0  0  0  0  0  0  0  0
    3.4632   -2.9796   -2.0910 H   0  0  0  0  0  0  0  0  0  0  0  0
    1.9868   -3.2416   -3.0465 H   0  0  0  0  0  0  0  0  0  0  0  0
  5  6  2  0  0  0  0
  5  7  1  0  0  0  0
  2  3  1  0  0  0  0
  2  4  1  0  0  0  0
  2  5  1  0  0  0  0
  1  2  1  0  0  0  0
 12 13  2  0  0  0  0
 12 14  1  0  0  0  0
  9 10  1  0  0  0  0
  9 11  1  0  0  0  0
  9 12  1  0  0  0  0
  7  8  1  0  0  0  0
  7  9  1  0  0  0  0
 16 17  1  0  0  0  0
 16 18  1  0  0  0  0
 16 19  1  0  0  0  0
 14 15  1  0  0  0  0
 14 16  1  0  0  0  0
M  END
$$$$
default_name
  -OEChem-01062215323D

 19 18  0     0  0  0  0  0  0999 V2000
   -2.2056   -4.0049    0.0000 H   0  0  0  0  0  0  0  0  0  0  0  0
   -2.2496   -2.9169    0.0000 C   0  0  0  0  0  0  0  0  0  0  0  0
   -2.7696   -2.5709    0.8910 H   0  0  0  0  0  0  0  0  0  0  0  0
   -2.7696   -2.5709   -0.8910 H   0  0  0  0  0  0  0  0  0  0  0  0
   -0.8406   -2.3699    0.0000 C   0  0  0  0  0  0  0  0  0  0  0  0
    0.1164   -3.1329    0.0000 O   0  0  0  0  0  0  0  0  0  0  0  0
   -0.7136   -1.0459    0.0000 N   0  0  0  0  0  0  0  0  0  0  0  0
   -1.5436   -0.4719    0.0000 H   0  0  0  0  0  0  0  0  0  0  0  0
    0.5724   -0.3469    0.0000 C   0  0  0  0  0  0  0  0  0  0  0  0
    0.3961    0.7295    0.0159 H   0  0  0  0  0  0  0  0  0  0  0  0
    1.1273   -0.6158    0.8999 H   0  0  0  0  0  0  0  0  0  0  0  0
    1.4256   -0.6881   -1.2250 C   0  0  0  0  0  0  0  0  0  0  0  0
    2.0017    0.2015   -1.8481 O   0  0  0  0  0  0  0  0  0  0  0  0
    1.4993   -1.9822   -1.5610 N   0  0  0  0  0  0  0  0  0  0  0  0
    0.9924   -2.6405   -0.9901 H   0  0  0  0  0  0  0  0  0  0  0  0
    2.2599   -2.5128   -2.6942 C   0  0  0  0  0  0  0  0  0  0  0  0
    2.7630   -1.7062   -3.2330 H   0  0  0  0  0  0  0  0  0  0  0  0
    3.0137   -3.2162   -2.3382 H   0  0  0  0  0  0  0  0  0  0  0  0
    1.5885   -3.0258   -3.3840 H   0  0  0  0  0  0  0  0  0  0  0  0
  5  6  2  0  0  0  0
  5  7  1  0  0  0  0
  2  3  1  0  0  0  0
  2  4  1  0  0  0  0
  2  5  1  0  0  0  0
  1  2  1  0  0  0  0
 12 13  2  0  0  0  0
 12 14  1  0  0  0  0
  9 10  1  0  0  0  0
  9 11  1  0  0  0  0
  9 12  1  0  0  0  0
  7  8  1  0  0  0  0
  7  9  1  0  0  0  0
 16 17  1  0  0  0  0
 16 18  1  0  0  0  0
 16 19  1  0  0  0  0
 14 15  1  0  0  0  0
 14 16  1  0  0  0  0
M  END
$$$$
default_name
  -OEChem-01062215323D

 19 18  0     0  0  0  0  0  0999 V2000
   -2.2056   -4.0049    0.0000 H   0  0  0  0  0  0  0  0  0  0  0  0
   -2.2496   -2.9169    0.0000 C   0  0  0  0  0  0  0  0  0  0  0  0
   -2.7696   -2.5709    0.8910 H   0  0  0  0  0  0  0  0  0  0  0  0
   -2.7696   -2.5709   -0.8910 H   0  0  0  0  0  0  0  0  0  0  0  0
   -0.8406   -2.3699    0.0000 C   0  0  0  0  0  0  0  0  0  0  0  0
    0.1164   -3.1329    0.0000 O   0  0  0  0  0  0  0  0  0  0  0  0
   -0.7136   -1.0459    0.0000 N   0  0  0  0  0  0  0  0  0  0  0  0
   -1.5436   -0.4719    0.0000 H   0  0  0  0  0  0  0  0  0  0  0  0
    0.5724   -0.3469    0.0000 C   0  0  0  0  0  0  0  0  0  0  0  0
    0.3961    0.7295    0.0159 H   0  0  0  0  0  0  0  0  0  0  0  0
    1.1273   -0.6158    0.8999 H   0  0  0  0  0  0  0  0  0  0  0  0
    1.4256   -0.6881   -1.2250 C   0  0  0  0  0  0  0  0  0  0  0  0
    2.2140    0.1370   -1.6823 O   0  0  0  0  0  0  0  0  0  0  0  0
    1.2595   -1.9094   -1.7482 N   0  0  0  0  0  0  0  0  0  0  0  0
    0.5895   -2.5182   -1.3048 H   0  0  0  0  0  0  0  0  0  0  0  0
    1.9772   -2.4270   -2.9149 C   0  0  0  0  0  0  0  0  0  0  0  0
    2.6714   -1.6784   -3.3046 H   0  0  0  0  0  0  0  0  0  0  0  0
    2.5448   -3.3161   -2.6371 H   0  0  0  0  0  0  0  0  0  0  0  0
    1.2678   -2.6863   -3.7019 H   0  0  0  0  0  0  0  0  0  0  0  0
  5  6  2  0  0  0  0
  5  7  1  0  0  0  0
  2  3  1  0  0  0  0
  2  4  1  0  0  0  0
  2  5  1  0  0  0  0
  1  2  1  0  0  0  0
 12 13  2  0  0  0  0
 12 14  1  0  0  0  0
  9 10  1  0  0  0  0
  9 11  1  0  0  0  0
  9 12  1  0  0  0  0
  7  8  1  0  0  0  0
  7  9  1  0  0  0  0
 16 17  1  0  0  0  0
 16 18  1  0  0  0  0
 16 19  1  0  0  0  0
 14 15  1  0  0  0  0
 14 16  1  0  0  0  0
M  END
$$$$
default_name
  -OEChem-01062215323D

 19 18  0     0  0  0  0  0  0999 V2000
   -2.2056   -4.0049    0.0000 H   0  0  0  0  0  0  0  0  0  0  0  0
   -2.2496   -2.9169    0.0000 C   0  0  0  0  0  0  0  0  0  0  0  0
   -2.7696   -2.5709    0.8910 H   0  0  0  0  0  0  0  0  0  0  0  0
   -2.7696   -2.5709   -0.8910 H   0  0  0  0  0  0  0  0  0  0  0  0
   -0.8406   -2.3699    0.0000 C   0  0  0  0  0  0  0  0  0  0  0  0
    0.1164   -3.1329    0.0000 O   0  0  0  0  0  0  0  0  0  0  0  0
   -0.7136   -1.0459    0.0000 N   0  0  0  0  0  0  0  0  0  0  0  0
   -1.5436   -0.4719    0.0000 H   0  0  0  0  0  0  0  0  0  0  0  0
    0.5724   -0.3469    0.0000 C   0  0  0  0  0  0  0  0  0  0  0  0
    0.3961    0.7295    0.0159 H   0  0  0  0  0  0  0  0  0  0  0  0
    1.1273   -0.6158    0.8999 H   0  0  0  0  0  0  0  0  0  0  0  0
    1.4256   -0.6881   -1.2250 C   0  0  0  0  0  0  0  0  0  0  0  0
    2.3961    0.0069   -1.5192 O   0  0  0  0  0  0  0  0  0  0  0  0
    1.0539   -1.7625   -1.9324 N   0  0  0  0  0  0  0  0  0  0  0  0
    0.2438   -2.2712   -1.6143 H   0  0  0  0  0  0  0  0  0  0  0  0
    1.7347   -2.2538   -3.1321 C   0  0  0  0  0  0  0  0  0  0  0  0
    2.5928   -1.6222   -3.3750 H   0  0  0  0  0  0  0  0  0  0  0  0
    2.0884   -3.2724   -2.9671 H   0  0  0  0  0  0  0  0  0  0  0  0
    1.0467   -2.2461   -3.9785 H   0  0  0  0  0  0  0  0  0  0  0  0
  5  6  2  0  0  0  0
  5  7  1  0  0  0  0
  2  3  1  0  0  0  0
  2  4  1  0  0  0  0
  2  5  1  0  0  0  0
  1  2  1  0  0  0  0
 12 13  2  0  0  0  0
 12 14  1  0  0  0  0
  9 10  1  0  0  0  0
  9 11  1  0  0  0  0
  9 12  1  0  0  0  0
  7  8  1  0  0  0  0
  7  9  1  0  0  0  0
 16 17  1  0  0  0  0
 16 18  1  0  0  0  0
 16 19  1  0  0  0  0
 14 15  1  0  0  0  0
 14 16  1  0  0  0  0
M  END
$$$$
default_name
  -OEChem-01062215323D

 19 18  0     0  0  0  0  0  0999 V2000
   -2.2056   -4.0049    0.0000 H   0  0  0  0  0  0  0  0  0  0  0  0
   -2.2496   -2.9169    0.0000 C   0  0  0  0  0  0  0  0  0  0  0  0
   -2.7696   -2.5709    0.8910 H   0  0  0  0  0  0  0  0  0  0  0  0
   -2.7696   -2.5709   -0.8910 H   0  0  0  0  0  0  0  0  0  0  0  0
   -0.8406   -2.3699    0.0000 C   0  0  0  0  0  0  0  0  0  0  0  0
    0.1164   -3.1329    0.0000 O   0  0  0  0  0  0  0  0  0  0  0  0
   -0.7136   -1.0459    0.0000 N   0  0  0  0  0  0  0  0  0  0  0  0
   -1.5436   -0.4719    0.0000 H   0  0  0  0  0  0  0  0  0  0  0  0
    0.5724   -0.3469    0.0000 C   0  0  0  0  0  0  0  0  0  0  0  0
    0.3961    0.7295    0.0159 H   0  0  0  0  0  0  0  0  0  0  0  0
    1.1273   -0.6158    0.8999 H   0  0  0  0  0  0  0  0  0  0  0  0
    1.4256   -0.6881   -1.2250 C   0  0  0  0  0  0  0  0  0  0  0  0
    2.5357   -0.1800   -1.3699 O   0  0  0  0  0  0  0  0  0  0  0  0
    0.8962   -1.5515   -2.1010 N   0  0  0  0  0  0  0  0  0  0  0  0
   -0.0211   -1.9165   -1.8977 H   0  0  0  0  0  0  0  0  0  0  0  0
    1.5489   -2.0049   -3.3309 C   0  0  0  0  0  0  0  0  0  0  0  0
    2.5325   -1.5416   -3.4394 H   0  0  0  0  0  0  0  0  0  0  0  0
    1.6756   -3.0881   -3.3060 H   0  0  0  0  0  0  0  0  0  0  0  0
    0.9403   -1.7352   -4.1950 H   0  0  0  0  0  0  0  0  0  0  0  0
  5  6  2  0  0  0  0
  5  7  1  0  0  0  0
  2  3  1  0  0  0  0
  2  4  1  0  0  0  0
  2  5  1  0  0  0  0
  1  2  1  0  0  0  0
 12 13  2  0  0  0  0
 12 14  1  0  0  0  0
  9 10  1  0  0  0  0
  9 11  1  0  0  0  0
  9 12  1  0  0  0  0
  7  8  1  0  0  0  0
  7  9  1  0  0  0  0
 16 17  1  0  0  0  0
 16 18  1  0  0  0  0
 16 19  1  0  0  0  0
 14 15  1  0  0  0  0
 14 16  1  0  0  0  0
M  END
$$$$
default_name
  -OEChem-01062215323D

 19 18  0     0  0  0  0  0  0999 V2000
   -2.2056   -4.0049    0.0000 H   0  0  0  0  0  0  0  0  0  0  0  0
   -2.2496   -2.9169    0.0000 C   0  0  0  0  0  0  0  0  0  0  0  0
   -2.7696   -2.5709    0.8910 H   0  0  0  0  0  0  0  0  0  0  0  0
   -2.7696   -2.5709   -0.8910 H   0  0  0  0  0  0  0  0  0  0  0  0
   -0.8406   -2.3699    0.0000 C   0  0  0  0  0  0  0  0  0  0  0  0
    0.1164   -3.1329    0.0000 O   0  0  0  0  0  0  0  0  0  0  0  0
   -0.7136   -1.0459    0.0000 N   0  0  0  0  0  0  0  0  0  0  0  0
   -1.5436   -0.4719    0.0000 H   0  0  0  0  0  0  0  0  0  0  0  0
    0.5724   -0.3469    0.0000 C   0  0  0  0  0  0  0  0  0  0  0  0
    0.3961    0.7295    0.0159 H   0  0  0  0  0  0  0  0  0  0  0  0
    1.1273   -0.6158    0.8999 H   0  0  0  0  0  0  0  0  0  0  0  0
    1.4256   -0.6881   -1.2250 C   0  0  0  0  0  0  0  0  0  0  0  0
    2.6232   -0.4109   -1.2446 O   0  0  0  0  0  0  0  0  0  0  0  0
    0.7974   -1.2907   -2.2425 N   0  0  0  0  0  0  0  0  0  0  0  0
   -0.1873   -1.4781   -2.1355 H   0  0  0  0  0  0  0  0  0  0  0  0
    1.4323   -1.6974   -3.4977 C   0  0  0  0  0  0  0  0  0  0  0  0
    2.4947   -1.4419   -3.4935 H   0  0  0  0  0  0  0  0  0  0  0  0
    1.3346   -2.7757   -3.6305 H   0  0  0  0  0  0  0  0  0  0  0  0
    0.9557   -1.1885   -4.3365 H   0  0  0  0  0  0  0  0  0  0  0  0
  5  6  2  0  0  0  0
  5  7  1  0  0  0  0
  2  3  1  0  0  0  0
  2  4  1  0  0  0  0
  2  5  1  0  0  0  0
  1  2  1  0  0  0  0
 12 13  2  0  0  0  0
 12 14  1  0  0  0  0
  9 10  1  0  0  0  0
  9 11  1  0  0  0  0
  9 12  1  0  0  0  0
  7  8  1  0  0  0  0
  7  9  1  0  0  0  0
 16 17  1  0  0  0  0
 16 18  1  0  0  0  0
 16 19  1  0  0  0  0
 14 15  1  0  0  0  0
 14 16  1  0  0  0  0
M  END
$$$$
default_name
  -OEChem-01062215323D

 19 18  0     0  0  0  0  0  0999 V2000
   -2.2056   -4.0049    0.0000 H   0  0  0  0  0  0  0  0  0  0  0  0
   -2.2496   -2.9169    0.0000 C   0  0  0  0  0  0  0  0  0  0  0  0
   -2.7696   -2.5709    0.8910 H   0  0  0  0  0  0  0  0  0  0  0  0
   -2.7696   -2.5709   -0.8910 H   0  0  0  0  0  0  0  0  0  0  0  0
   -0.8406   -2.3699    0.0000 C   0  0  0  0  0  0  0  0  0  0  0  0
    0.1164   -3.1329    0.0000 O   0  0  0  0  0  0  0  0  0  0  0  0
   -0.7136   -1.0459    0.0000 N   0  0  0  0  0  0  0  0  0  0  0  0
   -1.5436   -0.4719    0.0000 H   0  0  0  0  0  0  0  0  0  0  0  0
    0.5724   -0.3469    0.0000 C   0  0  0  0  0  0  0  0  0  0  0  0
    0.3961    0.7295    0.0159 H   0  0  0  0  0  0  0  0  0  0  0  0
    1.1273   -0.6158    0.8999 H   0  0  0  0  0  0  0  0  0  0  0  0
    1.4256   -0.6881   -1.2250 C   0  0  0  0  0  0  0  0  0  0  0  0
    2.6527   -0.6702   -1.1519 O   0  0  0  0  0  0  0  0  0  0  0  0
    0.7641   -0.9979   -2.3472 N   0  0  0  0  0  0  0  0  0  0  0  0
   -0.2433   -0.9860   -2.3116 H   0  0  0  0  0  0  0  0  0  0  0  0
    1.3930   -1.3522   -3.6212 C   0  0  0  0  0  0  0  0  0  0  0  0
    2.4820   -1.3300   -3.5335 H   0  0  0  0  0  0  0  0  0  0  0  0
    1.0886   -2.3566   -3.9186 H   0  0  0  0  0  0  0  0  0  0  0  0
    1.0919   -0.6432   -4.3935 H   0  0  0  0  0  0  0  0  0  0  0  0
  5  6  2  0  0  0  0
  5  7  1  0  0  0  0
  2  3  1  0  0  0  0
  2  4  1  0  0  0  0
  2  5  1  0  0  0  0
  1  2  1  0  0  0  0
 12 13  2  0  0  0  0
 12 14  1  0  0  0  0
  9 10  1  0  0  0  0
  9 11  1  0  0  0  0
  9 12  1  0  0  0  0
  7  8  1  0  0  0  0
  7  9  1  0  0  0  0
 16 17  1  0  0  0  0
 16 18  1  0  0  0  0
 16 19  1  0  0  0  0
 14 15  1  0  0  0  0
 14 16  1  0  0  0  0
M  END
$$$$
default_name
  -OEChem-01062215323D

 19 18  0     0  0  0  0  0  0999 V2000
   -2.2056   -4.0049    0.0000 H   0  0  0  0  0  0  0  0  0  0  0  0
   -2.2496   -2.9169    0.0000 C   0  0  0  0  0  0  0  0  0  0  0  0
   -2.7696   -2.5709    0.8910 H   0  0  0  0  0  0  0  0  0  0  0  0
   -2.7696   -2.5709   -0.8910 H   0  0  0  0  0  0  0  0  0  0  0  0
   -0.8406   -2.3699    0.0000 C   0  0  0  0  0  0  0  0  0  0  0  0
    0.1164   -3.1329    0.0000 O   0  0  0  0  0  0  0  0  0  0  0  0
   -0.7136   -1.0459    0.0000 N   0  0  0  0  0  0  0  0  0  0  0  0
   -1.5436   -0.4719    0.0000 H   0  0  0  0  0  0  0  0  0  0  0  0
    0.5724   -0.3469    0.0000 C   0  0  0  0  0  0  0  0  0  0  0  0
    0.3961    0.7295    0.0159 H   0  0  0  0  0  0  0  0  0  0  0  0
    1.1273   -0.6158    0.8999 H   0  0  0  0  0  0  0  0  0  0  0  0
    1.4256   -0.6881   -1.2250 C   0  0  0  0  0  0  0  0  0  0  0  0
    2.6222   -0.9401   -1.0980 O   0  0  0  0  0  0  0  0  0  0  0  0
    0.7985   -0.6930   -2.4081 N   0  0  0  0  0  0  0  0  0  0  0  0
   -0.1853   -0.4737   -2.4139 H   0  0  0  0  0  0  0  0  0  0  0  0
    1.4337   -0.9928   -3.6930 C   0  0  0  0  0  0  0  0  0  0  0  0
    2.4952   -1.2135   -3.5568 H   0  0  0  0  0  0  0  0  0  0  0  0
    0.9544   -1.8592   -4.1506 H   0  0  0  0  0  0  0  0  0  0  0  0
    1.3397   -0.1364   -4.3621 H   0  0  0  0  0  0  0  0  0  0  0  0
  5  6  2  0  0  0  0
  5  7  1  0  0  0  0
  2  3  1  0  0  0  0
  2  4  1  0  0  0  0
  2  5  1  0  0  0  0
  1  2  1  0  0  0  0
 12 13  2  0  0  0  0
 12 14  1  0  0  0  0
  9 10  1  0  0  0  0
  9 11  1  0  0  0  0
  9 12  1  0  0  0  0
  7  8  1  0  0  0  0
  7  9  1  0  0  0  0
 16 17  1  0  0  0  0
 16 18  1  0  0  0  0
 16 19  1  0  0  0  0
 14 15  1  0  0  0  0
 14 16  1  0  0  0  0
M  END
$$$$
default_name
  -OEChem-01062215323D

 19 18  0     0  0  0  0  0  0999 V2000
   -2.2056   -4.0049    0.0000 H   0  0  0  0  0  0  0  0  0  0  0  0
   -2.2496   -2.9169    0.0000 C   0  0  0  0  0  0  0  0  0  0  0  0
   -2.7696   -2.5709    0.8910 H   0  0  0  0  0  0  0  0  0  0  0  0
   -2.7696   -2.5709   -0.8910 H   0  0  0  0  0  0  0  0  0  0  0  0
   -0.8406   -2.3699    0.0000 C   0  0  0  0  0  0  0  0  0  0  0  0
    0.1164   -3.1329    0.0000 O   0  0  0  0  0  0  0  0  0  0  0  0
   -0.7136   -1.0459    0.0000 N   0  0  0  0  0  0  0  0  0  0  0  0
   -1.5436   -0.4719    0.0000 H   0  0  0  0  0  0  0  0  0  0  0  0
    0.5724   -0.3469    0.0000 C   0  0  0  0  0  0  0  0  0  0  0  0
    0.3961    0.7295    0.0159 H   0  0  0  0  0  0  0  0  0  0  0  0
    1.1273   -0.6158    0.8999 H   0  0  0  0  0  0  0  0  0  0  0  0
    1.4256   -0.6881   -1.2250 C   0  0  0  0  0  0  0  0  0  0  0  0
    2.5337   -1.2023   -1.0866 O   0  0  0  0  0  0  0  0  0  0  0  0
    0.8985   -0.3970   -2.4210 N   0  0  0  0  0  0  0  0  0  0  0  0
   -0.0174    0.0239   -2.4355 H   0  0  0  0  0  0  0  0  0  0  0  0
    1.5515   -0.6437   -3.7082 C   0  0  0  0  0  0  0  0  0  0  0  0
    2.5334   -1.1003   -3.5617 H   0  0  0  0  0  0  0  0  0  0  0  0
    0.9411   -1.3176   -4.3107 H   0  0  0  0  0  0  0  0  0  0  0  0
    1.6821    0.2972   -4.2443 H   0  0  0  0  0  0  0  0  0  0  0  0
  5  6  2  0  0  0  0
  5  7  1  0  0  0  0
  2  3  1  0  0  0  0
  2  4  1  0  0  0  0
  2  5  1  0  0  0  0
  1  2  1  0  0  0  0
 12 13  2  0  0  0  0
 12 14  1  0  0  0  0
  9 10  1  0  0  0  0
  9 11  1  0  0  0  0
  9 12  1  0  0  0  0
  7  8  1  0  0  0  0
  7  9  1  0  0  0  0
 16 17  1  0  0  0  0
 16 18  1  0  0  0  0
 16 19  1  0  0  0  0
 14 15  1  0  0  0  0
 14 16  1  0  0  0  0
M  END
$$$$
default_name
  -OEChem-01062215323D

 19 18  0     0  0  0  0  0  0999 V2000
   -2.2056   -4.0049    0.0000 H   0  0  0  0  0  0  0  0  0  0  0  0
   -2.2496   -2.9169    0.0000 C   0  0  0  0  0  0  0  0  0  0  0  0
   -2.7696   -2.5709    0.8910 H   0  0  0  0  0  0  0  0  0  0  0  0
   -2.7696   -2.5709   -0.8910 H   0  0  0  0  0  0  0  0  0  0  0  0
   -0.8406   -2.3699    0.0000 C   0  0  0  0  0  0  0  0  0  0  0  0
    0.1164   -3.1329    0.0000 O   0  0  0  0  0  0  0  0  0  0  0  0
   -0.7136   -1.0459    0.0000 N   0  0  0  0  0  0  0  0  0  0  0  0
   -1.5436   -0.4719    0.0000 H   0  0  0  0  0  0  0  0  0  0  0  0
    0.5724   -0.3469    0.0000 C   0  0  0  0  0  0  0  0  0  0  0  0
    0.3961    0.7295    0.0159 H   0  0  0  0  0  0  0  0  0  0  0  0
    1.1273   -0.6158    0.8999 H   0  0  0  0  0  0  0  0  0  0  0  0
    1.4256   -0.6881   -1.2250 C   0  0  0  0  0  0  0  0  0  0  0  0
    2.3933   -1.4389   -1.1185 O   0  0  0  0  0  0  0  0  0  0  0  0
    1.0570   -0.1298   -2.3850 N   0  0  0  0  0  0  0  0  0  0  0  0
    0.2491    0.4730   -2.3750 H   0  0  0  0  0  0  0  0  0  0  0  0
    1.7384   -0.3287   -3.6657 C   0  0  0  0  0  0  0  0  0  0  0  0
    2.5940   -0.9982   -3.5479 H   0  0  0  0  0  0  0  0  0  0  0  0
    1.0496   -0.7686   -4.3881 H   0  0  0  0  0  0  0  0  0  0  0  0
    2.0959    0.6282   -4.0483 H   0  0  0  0  0  0  0  0  0  0  0  0
  5  6  2  0  0  0  0
  5  7  1  0  0  0  0
  2  3  1  0  0  0  0
  2  4  1  0  0  0  0
  2  5  1  0  0  0  0
  1  2  1  0  0  0  0
 12 13  2  0  0  0  0
 12 14  1  0  0  0  0
  9 10  1  0  0  0  0
  9 11  1  0  0  0  0
  9 12  1  0  0  0  0
  7  8  1  0  0  0  0
  7  9  1  0  0  0  0
 16 17  1  0  0  0  0
 16 18  1  0  0  0  0
 16 19  1  0  0  0  0
 14 15  1  0  0  0  0
 14 16  1  0  0  0  0
M  END
$$$$
default_name
  -OEChem-01062215323D

 19 18  0     0  0  0  0  0  0999 V2000
   -2.2056   -4.0049    0.0000 H   0  0  0  0  0  0  0  0  0  0  0  0
   -2.2496   -2.9169    0.0000 C   0  0  0  0  0  0  0  0  0  0  0  0
   -2.7696   -2.5709    0.8910 H   0  0  0  0  0  0  0  0  0  0  0  0
   -2.7696   -2.5709   -0.8910 H   0  0  0  0  0  0  0  0  0  0  0  0
   -0.8406   -2.3699    0.0000 C   0  0  0  0  0  0  0  0  0  0  0  0
    0.1164   -3.1329    0.0000 O   0  0  0  0  0  0  0  0  0  0  0  0
   -0.7136   -1.0459    0.0000 N   0  0  0  0  0  0  0  0  0  0  0  0
   -1.5436   -0.4719    0.0000 H   0  0  0  0  0  0  0  0  0  0  0  0
    0.5724   -0.3469    0.0000 C   0  0  0  0  0  0  0  0  0  0  0  0
    0.3961    0.7295    0.0159 H   0  0  0  0  0  0  0  0  0  0  0  0
    1.1273   -0.6158    0.8999 H   0  0  0  0  0  0  0  0  0  0  0  0
    1.4256   -0.6881   -1.2250 C   0  0  0  0  0  0  0  0  0  0  0  0
    2.2106   -1.6337   -1.1915 O   0  0  0  0  0  0  0  0  0  0  0  0
    1.2634    0.0902   -2.3025 N   0  0  0  0  0  0  0  0  0  0  0  0
    0.5960    0.8428   -2.2363 H   0  0  0  0  0  0  0  0  0  0  0  0
    1.9818   -0.0693   -3.5685 C   0  0  0  0  0  0  0  0  0  0  0  0
    2.6729   -0.9141   -3.5164 H   0  0  0  0  0  0  0  0  0  0  0  0
    1.2725   -0.2496   -4.3773 H   0  0  0  0  0  0  0  0  0  0  0  0
    2.5528    0.8340   -3.7874 H   0  0  0  0  0  0  0  0  0  0  0  0
  5  6  2  0  0  0  0
  5  7  1  0  0  0  0
  2  3  1  0  0  0  0
  2  4  1  0  0  0  0
  2  5  1  0  0  0  0
  1  2  1  0  0  0  0
 12 13  2  0  0  0  0
 12 14  1  0  0  0  0
  9 10  1  0  0  0  0
  9 11  1  0  0  0  0
  9 12  1  0  0  0  0
  7  8  1  0  0  0  0
  7  9  1  0  0  0  0
 16 17  1  0  0  0  0
 16 18  1  0  0  0  0
 16 19  1  0  0  0  0
 14 15  1  0  0  0  0
 14 16  1  0  0  0  0
M  END
$$$$
default_name
  -OEChem-01062215323D

 19 18  0     0  0  0  0  0  0999 V2000
   -2.2056   -4.0049    0.0000 H   0  0  0  0  0  0  0  0  0  0  0  0
   -2.2496   -2.9169    0.0000 C   0  0  0  0  0  0  0  0  0  0  0  0
   -2.7696   -2.5709    0.8910 H   0  0  0  0  0  0  0  0  0  0  0  0
   -2.7696   -2.5709   -0.8910 H   0  0  0  0  0  0  0  0  0  0  0  0
   -0.8406   -2.3699    0.0000 C   0  0  0  0  0  0  0  0  0  0  0  0
    0.1164   -3.1329    0.0000 O   0  0  0  0  0  0  0  0  0  0  0  0
   -0.7136   -1.0459    0.0000 N   0  0  0  0  0  0  0  0  0  0  0  0
   -1.5436   -0.4719    0.0000 H   0  0  0  0  0  0  0  0  0  0  0  0
    0.5724   -0.3469    0.0000 C   0  0  0  0  0  0  0  0  0  0  0  0
    0.3961    0.7295    0.0159 H   0  0  0  0  0  0  0  0  0  0  0  0
    1.1273   -0.6158    0.8999 H   0  0  0  0  0  0  0  0  0  0  0  0
    1.4256   -0.6881   -1.2250 C   0  0  0  0  0  0  0  0  0  0  0  0
    1.9979   -1.7736   -1.3007 O   0  0  0  0  0  0  0  0  0  0  0  0
    1.5036    0.2481   -2.1792 N   0  0  0  0  0  0  0  0  0  0  0  0
    0.9997    1.1082   -2.0291 H   0  0  0  0  0  0  0  0  0  0  0  0
    2.2650    0.1169   -3.4231 C   0  0  0  0  0  0  0  0  0  0  0  0
    2.7646   -0.8538   -3.4693 H   0  0  0  0  0  0  0  0  0  0  0  0
    1.5947    0.2040   -4.2793 H   0  0  0  0  0  0  0  0  0  0  0  0
    3.0217    0.9005   -3.4793 H   0  0  0  0  0  0  0  0  0  0  0  0
  5  6  2  0  0  0  0
  5  7  1  0  0  0  0
  2  3  1  0  0  0  0
  2  4  1  0  0  0  0
  2  5  1  0  0  0  0
  1  2  1  0  0  0  0
 12 13  2  0  0  0  0
 12 14  1  0  0  0  0
  9 10  1  0  0  0  0
  9 11  1  0  0  0  0
  9 12  1  0  0  0  0
  7  8  1  0  0  0  0
  7  9  1  0  0  0  0
 16 17  1  0  0  0  0
 16 18  1  0  0  0  0
 16 19  1  0  0  0  0
 14 15  1  0  0  0  0
 14 16  1  0  0  0  0
M  END
$$$$
default_name
  -OEChem-01062215323D

 19 18  0     0  0  0  0  0  0999 V2000
   -2.2056   -4.0049    0.0000 H   0  0  0  0  0  0  0  0  0  0  0  0
   -2.2496   -2.9169    0.0000 C   0  0  0  0  0  0  0  0  0  0  0  0
   -2.7696   -2.5709    0.8910 H   0  0  0  0  0  0  0  0  0  0  0  0
   -2.7696   -2.5709   -0.8910 H   0  0  0  0  0  0  0  0  0  0  0  0
   -0.8406   -2.3699    0.0000 C   0  0  0  0  0  0  0  0  0  0  0  0
    0.1164   -3.1329    0.0000 O   0  0  0  0  0  0  0  0  0  0  0  0
   -0.7136   -1.0459    0.0000 N   0  0  0  0  0  0  0  0  0  0  0  0
   -1.5436   -0.4719    0.0000 H   0  0  0  0  0  0  0  0  0  0  0  0
    0.5724   -0.3469    0.0000 C   0  0  0  0  0  0  0  0  0  0  0  0
    0.3961    0.7295    0.0159 H   0  0  0  0  0  0  0  0  0  0  0  0
    1.1273   -0.6158    0.8999 H   0  0  0  0  0  0  0  0  0  0  0  0
    1.4256   -0.6881   -1.2250 C   0  0  0  0  0  0  0  0  0  0  0  0
    1.7698   -1.8489   -1.4386 O   0  0  0  0  0  0  0  0  0  0  0  0
    1.7611    0.3332   -2.0235 N   0  0  0  0  0  0  0  0  0  0  0  0
    1.4325    1.2511   -1.7674 H   0  0  0  0  0  0  0  0  0  0  0  0
    2.5686    0.2172   -3.2395 C   0  0  0  0  0  0  0  0  0  0  0  0
    2.8631   -0.8213   -3.4098 H   0  0  0  0  0  0  0  0  0  0  0  0
    1.9942    0.5613   -4.1005 H   0  0  0  0  0  0  0  0  0  0  0  0
    3.4706    0.8233   -3.1451 H   0  0  0  0  0  0  0  0  0  0  0  0
  5  6  2  0  0  0  0
  5  7  1  0  0  0  0
  2  3  1  0  0  0  0
  2  4  1  0  0  0  0
  2  5  1  0  0  0  0
  1  2  1  0  0  0  0
 12 13  2  0  0  0  0
 12 14  1  0  0  0  0
  9 10  1  0  0  0  0
  9 11  1  0  0  0  0
  9 12  1  0  0  0  0
  7  8  1  0  0  0  0
  7  9  1  0  0  0  0
 16 17  1  0  0  0  0
 16 18  1  0  0  0  0
 16 19  1  0  0  0  0
 14 15  1  0  0  0  0
 14 16  1  0  0  0  0
M  END
$$$$
default_name
  -OEChem-01062215323D

 19 18  0     0  0  0  0  0  0999 V2000
   -2.2056   -4.0049    0.0000 H   0  0  0  0  0  0  0  0  0  0  0  0
   -2.2496   -2.9169    0.0000 C   0  0  0  0  0  0  0  0  0  0  0  0
   -2.7696   -2.5709    0.8910 H   0  0  0  0  0  0  0  0  0  0  0  0
   -2.7696   -2.5709   -0.8910 H   0  0  0  0  0  0  0  0  0  0  0  0
   -0.8406   -2.3699    0.0000 C   0  0  0  0  0  0  0  0  0  0  0  0
    0.1164   -3.1329    0.0000 O   0  0  0  0  0  0  0  0  0  0  0  0
   -0.7136   -1.0459    0.0000 N   0  0  0  0  0  0  0  0  0  0  0  0
   -1.5436   -0.4719    0.0000 H   0  0  0  0  0  0  0  0  0  0  0  0
    0.5724   -0.3469    0.0000 C   0  0  0  0  0  0  0  0  0  0  0  0
    0.3961    0.7295    0.0159 H   0  0  0  0  0  0  0  0  0  0  0  0
    1.1273   -0.6158    0.8999 H   0  0  0  0  0  0  0  0  0  0  0  0
    1.4256   -0.6881   -1.2250 C   0  0  0  0  0  0  0  0  0  0  0  0
    1.5419   -1.8545   -1.5958 O   0  0  0  0  0  0  0  0  0  0  0  0
    2.0185    0.3395   -1.8459 N   0  0  0  0  0  0  0  0  0  0  0  0
    1.8652    1.2618   -1.4690 H   0  0  0  0  0  0  0  0  0  0  0  0
    2.8721    0.2246   -3.0302 C   0  0  0  0  0  0  0  0  0  0  0  0
    2.9615   -0.8189   -3.3419 H   0  0  0  0  0  0  0  0  0  0  0  0
    2.4437    0.7980   -3.8533 H   0  0  0  0  0  0  0  0  0  0  0  0
    3.8690    0.6076   -2.8075 H   0  0  0  0  0  0  0  0  0  0  0  0
  5  6  2  0  0  0  0
  5  7  1  0  0  0  0
  2  3  1  0  0  0  0
  2  4  1  0  0  0  0
  2  5  1  0  0  0  0
  1  2  1  0  0  0  0
 12 13  2  0  0  0  0
 12 14  1  0  0  0  0
  9 10  1  0  0  0  0
  9 11  1  0  0  0  0
  9 12  1  0  0  0  0
  7  8  1  0  0  0  0
  7  9  1  0  0  0  0
 16 17  1  0  0  0  0
 16 18  1  0  0  0  0
 16 19  1  0  0  0  0
 14 15  1  0  0  0  0
 14 16  1  0  0  0  0
M  END
$$$$
default_name
  -OEChem-01062215323D

 19 18  0     0  0  0  0  0  0999 V2000
   -2.2056   -4.0049    0.0000 H   0  0  0  0  0  0  0  0  0  0  0  0
   -2.2496   -2.9169    0.0000 C   0  0  0  0  0  0  0  0  0  0  0  0
   -2.7696   -2.5709    0.8910 H   0  0  0  0  0  0  0  0  0  0  0  0
   -2.7696   -2.5709   -0.8910 H   0  0  0  0  0  0  0  0  0  0  0  0
   -0.8406   -2.3699    0.0000 C   0  0  0  0  0  0  0  0  0  0  0  0
    0.1164   -3.1329    0.0000 O   0  0  0  0  0  0  0  0  0  0  0  0
   -0.7136   -1.0459    0.0000 N   0  0  0  0  0  0  0  0  0  0  0  0
   -1.5436   -0.4719    0.0000 H   0  0  0  0  0  0  0  0  0  0  0  0
    0.5724   -0.3469    0.0000 C   0  0  0  0  0  0  0  0  0  0  0  0
    0.3961    0.7295    0.0159 H   0  0  0  0  0  0  0  0  0  0  0  0
    1.1273   -0.6158    0.8999 H   0  0  0  0  0  0  0  0  0  0  0  0
    1.4256   -0.6881   -1.2250 C   0  0  0  0  0  0  0  0  0  0  0  0
    1.3296   -1.7900   -1.7616 O   0  0  0  0  0  0  0  0  0  0  0  0
    2.2582    0.2668   -1.6587 N   0  0  0  0  0  0  0  0  0  0  0  0
    2.2681    1.1395   -1.1543 H   0  0  0  0  0  0  0  0  0  0  0  0
    3.1548    0.1389   -2.8094 C   0  0  0  0  0  0  0  0  0  0  0  0
    3.0531   -0.8467   -3.2704 H   0  0  0  0  0  0  0  0  0  0  0  0
    2.9126    0.8978   -3.5545 H   0  0  0  0  0  0  0  0  0  0  0  0
    4.1896    0.2680   -2.4896 H   0  0  0  0  0  0  0  0  0  0  0  0
  5  6  2  0  0  0  0
  5  7  1  0  0  0  0
  2  3  1  0  0  0  0
  2  4  1  0  0  0  0
  2  5  1  0  0  0  0
  1  2  1  0  0  0  0
 12 13  2  0  0  0  0
 12 14  1  0  0  0  0
  9 10  1  0  0  0  0
  9 11  1  0  0  0  0
  9 12  1  0  0  0  0
  7  8  1  0  0  0  0
  7  9  1  0  0  0  0
 16 17  1  0  0  0  0
 16 18  1  0  0  0  0
 16 19  1  0  0  0  0
 14 15  1  0  0  0  0
 14 16  1  0  0  0  0
M  END
$$$$
default_name
  -OEChem-01062215323D

 19 18  0     0  0  0  0  0  0999 V2000
   -2.2056   -4.0049    0.0000 H   0  0  0  0  0  0  0  0  0  0  0  0
   -2.2496   -2.9169    0.0000 C   0  0  0  0  0  0  0  0  0  0  0  0
   -2.7696   -2.5709    0.8910 H   0  0  0  0  0  0  0  0  0  0  0  0
   -2.7696   -2.5709   -0.8910 H   0  0  0  0  0  0  0  0  0  0  0  0
   -0.8406   -2.3699    0.0000 C   0  0  0  0  0  0  0  0  0  0  0  0
    0.1164   -3.1329    0.0000 O   0  0  0  0  0  0  0  0  0  0  0  0
   -0.7136   -1.0459    0.0000 N   0  0  0  0  0  0  0  0  0  0  0  0
   -1.5436   -0.4719    0.0000 H   0  0  0  0  0  0  0  0  0  0  0  0
    0.5724   -0.3469    0.0000 C   0  0  0  0  0  0  0  0  0  0  0  0
    0.3961    0.7295    0.0159 H   0  0  0  0  0  0  0  0  0  0  0  0
    1.1273   -0.6158    0.8999 H   0  0  0  0  0  0  0  0  0  0  0  0
    1.4256   -0.6881   -1.2250 C   0  0  0  0  0  0  0  0  0  0  0  0
    1.1475   -1.6599   -1.9247 O   0  0  0  0  0  0  0  0  0  0  0  0
    2.4639    0.1198   -1.4745 N   0  0  0  0  0  0  0  0  0  0  0  0
    2.6138    0.8925   -0.8447 H   0  0  0  0  0  0  0  0  0  0  0  0
    3.3973   -0.0344   -2.5922 C   0  0  0  0  0  0  0  0  0  0  0  0
    3.1317   -0.9028   -3.2000 H   0  0  0  0  0  0  0  0  0  0  0  0
    3.3691    0.8541   -3.2244 H   0  0  0  0  0  0  0  0  0  0  0  0
    4.4107   -0.1722   -2.2130 H   0  0  0  0  0  0  0  0  0  0  0  0
  5  6  2  0  0  0  0
  5  7  1  0  0  0  0
  2  3  1  0  0  0  0
  2  4  1  0  0  0  0
  2  5  1  0  0  0  0
  1  2  1  0  0  0  0
 12 13  2  0  0  0  0
 12 14  1  0  0  0  0
  9 10  1  0  0  0  0
  9 11  1  0  0  0  0
  9 12  1  0  0  0  0
  7  8  1  0  0  0  0
  7  9  1  0  0  0  0
 16 17  1  0  0  0  0
 16 18  1  0  0  0  0
 16 19  1  0  0  0  0
 14 15  1  0  0  0  0
 14 16  1  0  0  0  0
M  END
$$$$
default_name
  -OEChem-01062215323D

 19 18  0     0  0  0  0  0  0999 V2000
   -2.2056   -4.0049    0.0000 H   0  0  0  0  0  0  0  0  0  0  0  0
   -2.2496   -2.9169    0.0000 C   0  0  0  0  0  0  0  0  0  0  0  0
   -2.7696   -2.5709    0.8910 H   0  0  0  0  0  0  0  0  0  0  0  0
   -2.7696   -2.5709   -0.8910 H   0  0  0  0  0  0  0  0  0  0  0  0
   -0.8406   -2.3699    0.0000 C   0  0  0  0  0  0  0  0  0  0  0  0
    0.1164   -3.1329    0.0000 O   0  0  0  0  0  0  0  0  0  0  0  0
   -0.7136   -1.0459    0.0000 N   0  0  0  0  0  0  0  0  0  0  0  0
   -1.5436   -0.4719    0.0000 H   0  0  0  0  0  0  0  0  0  0  0  0
    0.5724   -0.3469    0.0000 C   0  0  0  0  0  0  0  0  0  0  0  0
    0.4148    0.6950    0.2819 H   0  0  0  0  0  0  0  0  0  0  0  0
    1.2303   -0.8054    0.7395 H   0  0  0  0  0  0  0  0  0  0  0  0
    1.2627   -0.3883   -1.3663 C   0  0  0  0  0  0  0  0  0  0  0  0
    0.7320   -0.9656   -2.3132 O   0  0  0  0  0  0  0  0  0  0  0  0
    2.4479    0.2283   -1.4566 N   0  0  0  0  0  0  0  0  0  0  0  0
    2.8041    0.6752   -0.6261 H   0  0  0  0  0  0  0  0  0  0  0  0
    3.2648    0.3024   -2.6696 C   0  0  0  0  0  0  0  0  0  0  0  0
    2.7749   -0.2163   -3.4972 H   0  0  0  0  0  0  0  0  0  0  0  0
    3.4148    1.3451   -2.9527 H   0  0  0  0  0  0  0  0  0  0  0  0
    4.2349   -0.1638   -2.4926 H   0  0  0  0  0  0  0  0  0  0  0  0
  5  6  2  0  0  0  0
  5  7  1  0  0  0  0
  2  3  1  0  0  0  0
  2  4  1  0  0  0  0
  2  5  1  0  0  0  0
  1  2  1  0  0  0  0
 12 13  2  0  0  0  0
 12 14  1  0  0  0  0
  9 10  1  0  0  0  0
  9 11  1  0  0  0  0
  9 12  1  0  0  0  0
  7  8  1  0  0  0  0
  7  9  1  0  0  0  0
 16 17  1  0  0  0  0
 16 18  1  0  0  0  0
 16 19  1  0  0  0  0
 14 15  1  0  0  0  0
 14 16  1  0  0  0  0
M  END
$$$$
default_name
  -OEChem-01062215323D

 19 18  0     0  0  0  0  0  0999 V2000
   -2.2056   -4.0049    0.0000 H   0  0  0  0  0  0  0  0  0  0  0  0
   -2.2496   -2.9169    0.0000 C   0  0  0  0  0  0  0  0  0  0  0  0
   -2.7696   -2.5709    0.8910 H   0  0  0  0  0  0  0  0  0  0  0  0
   -2.7696   -2.5709   -0.8910 H   0  0  0  0  0  0  0  0  0  0  0  0
   -0.8406   -2.3699    0.0000 C   0  0  0  0  0  0  0  0  0  0  0  0
    0.1164   -3.1329    0.0000 O   0  0  0  0  0  0  0  0  0  0  0  0
   -0.7136   -1.0459    0.0000 N   0  0  0  0  0  0  0  0  0  0  0  0
   -1.5436   -0.4719    0.0000 H   0  0  0  0  0  0  0  0  0  0  0  0
    0.5724   -0.3469    0.0000 C   0  0  0  0  0  0  0  0  0  0  0  0
    0.4148    0.6950    0.2819 H   0  0  0  0  0  0  0  0  0  0  0  0
    1.2303   -0.8054    0.7395 H   0  0  0  0  0  0  0  0  0  0  0  0
    1.2627   -0.3883   -1.3663 C   0  0  0  0  0  0  0  0  0  0  0  0
    0.6330   -0.7135   -2.3709 O   0  0  0  0  0  0  0  0  0  0  0  0
    2.5597   -0.0564   -1.3914 N   0  0  0  0  0  0  0  0  0  0  0  0
    2.9920    0.1966   -0.5166 H   0  0  0  0  0  0  0  0  0  0  0  0
    3.3967   -0.0333   -2.5927 C   0  0  0  0  0  0  0  0  0  0  0  0
    2.8177   -0.3251   -3.4723 H   0  0  0  0  0  0  0  0  0  0  0  0
    3.7888    0.9720   -2.7524 H   0  0  0  0  0  0  0  0  0  0  0  0
    4.2293   -0.7286   -2.4783 H   0  0  0  0  0  0  0  0  0  0  0  0
  5  6  2  0  0  0  0
  5  7  1  0  0  0  0
  2  3  1  0  0  0  0
  2  4  1  0  0  0  0
  2  5  1  0  0  0  0
  1  2  1  0  0  0  0
 12 13  2  0  0  0  0
 12 14  1  0  0  0  0
  9 10  1  0  0  0  0
  9 11  1  0  0  0  0
  9 12  1  0  0  0  0
  7  8  1  0  0  0  0
  7  9  1  0  0  0  0
 16 17  1  0  0  0  0
 16 18  1  0  0  0  0
 16 19  1  0  0  0  0
 14 15  1  0  0  0  0
 14 16  1  0  0  0  0
M  END
$$$$
default_name
  -OEChem-01062215323D

 19 18  0     0  0  0  0  0  0999 V2000
   -2.2056   -4.0049    0.0000 H   0  0  0  0  0  0  0  0  0  0  0  0
   -2.2496   -2.9169    0.0000 C   0  0  0  0  0  0  0  0  0  0  0  0
   -2.7696   -2.5709    0.8910 H   0  0  0  0  0  0  0  0  0  0  0  0
   -2.7696   -2.5709   -0.8910 H   0  0  0  0  0  0  0  0  0  0  0  0
   -0.8406   -2.3699    0.0000 C   0  0  0  0  0  0  0  0  0  0  0  0
    0.1164   -3.1329    0.0000 O   0  0  0  0  0  0  0  0  0  0  0  0
   -0.7136   -1.0459    0.0000 N   0  0  0  0  0  0  0  0  0  0  0  0
   -1.5436   -0.4719    0.0000 H   0  0  0  0  0  0  0  0  0  0  0  0
    0.5724   -0.3469    0.0000 C   0  0  0  0  0  0  0  0  0  0  0  0
    0.4148    0.6950    0.2819 H   0  0  0  0  0  0  0  0  0  0  0  0
    1.2303   -0.8054    0.7395 H   0  0  0  0  0  0  0  0  0  0  0  0
    1.2627   -0.3883   -1.3663 C   0  0  0  0  0  0  0  0  0  0  0  0
    0.5960   -0.4403   -2.3979 O   0  0  0  0  0  0  0  0  0  0  0  0
    2.6015   -0.3648   -1.3609 N   0  0  0  0  0  0  0  0  0  0  0  0
    3.0623   -0.3218   -0.4654 H   0  0  0  0  0  0  0  0  0  0  0  0
    3.4460   -0.3969   -2.5568 C   0  0  0  0  0  0  0  0  0  0  0  0
    2.8337   -0.4430   -3.4607 H   0  0  0  0  0  0  0  0  0  0  0  0
    4.0625    0.5019   -2.5999 H   0  0  0  0  0  0  0  0  0  0  0  0
    4.0934   -1.2745   -2.5304 H   0  0  0  0  0  0  0  0  0  0  0  0
  5  6  2  0  0  0  0
  5  7  1  0  0  0  0
  2  3  1  0  0  0  0
  2  4  1  0  0  0  0
  2  5  1  0  0  0  0
  1  2  1  0  0  0  0
 12 13  2  0  0  0  0
 12 14  1  0  0  0  0
  9 10  1  0  0  0  0
  9 11  1  0  0  0  0
  9 12  1  0  0  0  0
  7  8  1  0  0  0  0
  7  9  1  0  0  0  0
 16 17  1  0  0  0  0
 16 18  1  0  0  0  0
 16 19  1  0  0  0  0
 14 15  1  0  0  0  0
 14 16  1  0  0  0  0
M  END
$$$$
default_name
  -OEChem-01062215323D

 19 18  0     0  0  0  0  0  0999 V2000
   -2.2056   -4.0049    0.0000 H   0  0  0  0  0  0  0  0  0  0  0  0
   -2.2496   -2.9169    0.0000 C   0  0  0  0  0  0  0  0  0  0  0  0
   -2.7696   -2.5709    0.8910 H   0  0  0  0  0  0  0  0  0  0  0  0
   -2.7696   -2.5709   -0.8910 H   0  0  0  0  0  0  0  0  0  0  0  0
   -0.8406   -2.3699    0.0000 C   0  0  0  0  0  0  0  0  0  0  0  0
    0.1164   -3.1329    0.0000 O   0  0  0  0  0  0  0  0  0  0  0  0
   -0.7136   -1.0459    0.0000 N   0  0  0  0  0  0  0  0  0  0  0  0
   -1.5436   -0.4719    0.0000 H   0  0  0  0  0  0  0  0  0  0  0  0
    0.5724   -0.3469    0.0000 C   0  0  0  0  0  0  0  0  0  0  0  0
    0.4148    0.6950    0.2819 H   0  0  0  0  0  0  0  0  0  0  0  0
    1.2303   -0.8054    0.7395 H   0  0  0  0  0  0  0  0  0  0  0  0
    1.2627   -0.3883   -1.3663 C   0  0  0  0  0  0  0  0  0  0  0  0
    0.6235   -0.1648   -2.3924 O   0  0  0  0  0  0  0  0  0  0  0  0
    2.5705   -0.6760   -1.3672 N   0  0  0  0  0  0  0  0  0  0  0  0
    3.0101   -0.8447   -0.4759 H   0  0  0  0  0  0  0  0  0  0  0  0
    3.4094   -0.7638   -2.5642 C   0  0  0  0  0  0  0  0  0  0  0  0
    2.8218   -0.5619   -3.4631 H   0  0  0  0  0  0  0  0  0  0  0  0
    4.2172   -0.0332   -2.5055 H   0  0  0  0  0  0  0  0  0  0  0  0
    3.8364   -1.7643   -2.6454 H   0  0  0  0  0  0  0  0  0  0  0  0
  5  6  2  0  0  0  0
  5  7  1  0  0  0  0
  2  3  1  0  0  0  0
  2  4  1  0  0  0  0
  2  5  1  0  0  0  0
  1  2  1  0  0  0  0
 12 13  2  0  0  0  0
 12 14  1  0  0  0  0
  9 10  1  0  0  0  0
  9 11  1  0  0  0  0
  9 12  1  0  0  0  0
  7  8  1  0  0  0  0
  7  9  1  0  0  0  0
 16 17  1  0  0  0  0
 16 18  1  0  0  0  0
 16 19  1  0  0  0  0
 14 15  1  0  0  0  0
 14 16  1  0  0  0  0
M  END
$$$$
default_name
  -OEChem-01062215323D

 19 18  0     0  0  0  0  0  0999 V2000
   -2.2056   -4.0049    0.0000 H   0  0  0  0  0  0  0  0  0  0  0  0
   -2.2496   -2.9169    0.0000 C   0  0  0  0  0  0  0  0  0  0  0  0
   -2.7696   -2.5709    0.8910 H   0  0  0  0  0  0  0  0  0  0  0  0
   -2.7696   -2.5709   -0.8910 H   0  0  0  0  0  0  0  0  0  0  0  0
   -0.8406   -2.3699    0.0000 C   0  0  0  0  0  0  0  0  0  0  0  0
    0.1164   -3.1329    0.0000 O   0  0  0  0  0  0  0  0  0  0  0  0
   -0.7136   -1.0459    0.0000 N   0  0  0  0  0  0  0  0  0  0  0  0
   -1.5436   -0.4719    0.0000 H   0  0  0  0  0  0  0  0  0  0  0  0
    0.5724   -0.3469    0.0000 C   0  0  0  0  0  0  0  0  0  0  0  0
    0.4148    0.6950    0.2819 H   0  0  0  0  0  0  0  0  0  0  0  0
    1.2303   -0.8054    0.7395 H   0  0  0  0  0  0  0  0  0  0  0  0
    1.2627   -0.3883   -1.3663 C   0  0  0  0  0  0  0  0  0  0  0  0
    0.7136    0.0944   -2.3547 O   0  0  0  0  0  0  0  0  0  0  0  0
    2.4687   -0.9686   -1.4097 N   0  0  0  0  0  0  0  0  0  0  0  0
    2.8391   -1.3366   -0.5474 H   0  0  0  0  0  0  0  0  0  0  0  0
    3.2894   -1.1088   -2.6143 C   0  0  0  0  0  0  0  0  0  0  0  0
    2.7829   -0.6737   -3.4793 H   0  0  0  0  0  0  0  0  0  0  0  0
    4.2425   -0.5968   -2.4756 H   0  0  0  0  0  0  0  0  0  0  0  0
    3.4758   -2.1646   -2.8154 H   0  0  0  0  0  0  0  0  0  0  0  0
  5  6  2  0  0  0  0
  5  7  1  0  0  0  0
  2  3  1  0  0  0  0
  2  4  1  0  0  0  0
  2  5  1  0  0  0  0
  1  2  1  0  0  0  0
 12 13  2  0  0  0  0
 12 14  1  0  0  0  0
  9 10  1  0  0  0  0
  9 11  1  0  0  0  0
  9 12  1  0  0  0  0
  7  8  1  0  0  0  0
  7  9  1  0  0  0  0
 16 17  1  0  0  0  0
 16 18  1  0  0  0  0
 16 19  1  0  0  0  0
 14 15  1  0  0  0  0
 14 16  1  0  0  0  0
M  END
$$$$
default_name
  -OEChem-01062215323D

 19 18  0     0  0  0  0  0  0999 V2000
   -2.2056   -4.0049    0.0000 H   0  0  0  0  0  0  0  0  0  0  0  0
   -2.2496   -2.9169    0.0000 C   0  0  0  0  0  0  0  0  0  0  0  0
   -2.7696   -2.5709    0.8910 H   0  0  0  0  0  0  0  0  0  0  0  0
   -2.7696   -2.5709   -0.8910 H   0  0  0  0  0  0  0  0  0  0  0  0
   -0.8406   -2.3699    0.0000 C   0  0  0  0  0  0  0  0  0  0  0  0
    0.1164   -3.1329    0.0000 O   0  0  0  0  0  0  0  0  0  0  0  0
   -0.7136   -1.0459    0.0000 N   0  0  0  0  0  0  0  0  0  0  0  0
   -1.5436   -0.4719    0.0000 H   0  0  0  0  0  0  0  0  0  0  0  0
    0.5724   -0.3469    0.0000 C   0  0  0  0  0  0  0  0  0  0  0  0
    0.4148    0.6950    0.2819 H   0  0  0  0  0  0  0  0  0  0  0  0
    1.2303   -0.8054    0.7395 H   0  0  0  0  0  0  0  0  0  0  0  0
    1.2627   -0.3883   -1.3663 C   0  0  0  0  0  0  0  0  0  0  0  0
    0.8602    0.3195   -2.2874 O   0  0  0  0  0  0  0  0  0  0  0  0
    2.3031   -1.2228   -1.4857 N   0  0  0  0  0  0  0  0  0  0  0  0
    2.5607   -1.7638   -0.6751 H   0  0  0  0  0  0  0  0  0  0  0  0
    3.0941   -1.4086   -2.7039 C   0  0  0  0  0  0  0  0  0  0  0  0
    2.7196   -0.7709   -3.5084 H   0  0  0  0  0  0  0  0  0  0  0  0
    4.1365   -1.1505   -2.5124 H   0  0  0  0  0  0  0  0  0  0  0  0
    3.0363   -2.4482   -3.0289 H   0  0  0  0  0  0  0  0  0  0  0  0
  5  6  2  0  0  0  0
  5  7  1  0  0  0  0
  2  3  1  0  0  0  0
  2  4  1  0  0  0  0
  2  5  1  0  0  0  0
  1  2  1  0  0  0  0
 12 13  2  0  0  0  0
 12 14  1  0  0  0  0
  9 10  1  0  0  0  0
  9 11  1  0  0  0  0
  9 12  1  0  0  0  0
  7  8  1  0  0  0  0
  7  9  1  0  0  0  0
 16 17  1  0  0  0  0
 16 18  1  0  0  0  0
 16 19  1  0  0  0  0
 14 15  1  0  0  0  0
 14 16  1  0  0  0  0
M  END
$$$$
default_name
  -OEChem-01062215323D

 19 18  0     0  0  0  0  0  0999 V2000
   -2.2056   -4.0049    0.0000 H   0  0  0  0  0  0  0  0  0  0  0  0
   -2.2496   -2.9169    0.0000 C   0  0  0  0  0  0  0  0  0  0  0  0
   -2.7696   -2.5709    0.8910 H   0  0  0  0  0  0  0  0  0  0  0  0
   -2.7696   -2.5709   -0.8910 H   0  0  0  0  0  0  0  0  0  0  0  0
   -0.8406   -2.3699    0.0000 C   0  0  0  0  0  0  0  0  0  0  0  0
    0.1164   -3.1329    0.0000 O   0  0  0  0  0  0  0  0  0  0  0  0
   -0.7136   -1.0459    0.0000 N   0  0  0  0  0  0  0  0  0  0  0  0
   -1.5436   -0.4719    0.0000 H   0  0  0  0  0  0  0  0  0  0  0  0
    0.5724   -0.3469    0.0000 C   0  0  0  0  0  0  0  0  0  0  0  0
    0.4148    0.6950    0.2819 H   0  0  0  0  0  0  0  0  0  0  0  0
    1.2303   -0.8054    0.7395 H   0  0  0  0  0  0  0  0  0  0  0  0
    1.2627   -0.3883   -1.3663 C   0  0  0  0  0  0  0  0  0  0  0  0
    1.0534    0.4952   -2.1952 O   0  0  0  0  0  0  0  0  0  0  0  0
    2.0850   -1.4213   -1.5899 N   0  0  0  0  0  0  0  0  0  0  0  0
    2.1941   -2.0974   -0.8502 H   0  0  0  0  0  0  0  0  0  0  0  0
    2.8369   -1.6425   -2.8267 C   0  0  0  0  0  0  0  0  0  0  0  0
    2.6362   -0.8467   -3.5482 H   0  0  0  0  0  0  0  0  0  0  0  0
    3.9065   -1.6566   -2.6132 H   0  0  0  0  0  0  0  0  0  0  0  0
    2.5478   -2.5958   -3.2712 H   0  0  0  0  0  0  0  0  0  0  0  0
  5  6  2  0  0  0  0
  5  7  1  0  0  0  0
  2  3  1  0  0  0  0
  2  4  1  0  0  0  0
  2  5  1  0  0  0  0
  1  2  1  0  0  0  0
 12 13  2  0  0  0  0
 12 14  1  0  0  0  0
  9 10  1  0  0  0  0
  9 11  1  0  0  0  0
  9 12  1  0  0  0  0
  7  8  1  0  0  0  0
  7  9  1  0  0  0  0
 16 17  1  0  0  0  0
 16 18  1  0  0  0  0
 16 19  1  0  0  0  0
 14 15  1  0  0  0  0
 14 16  1  0  0  0  0
M  END
$$$$
default_name
  -OEChem-01062215323D

 19 18  0     0  0  0  0  0  0999 V2000
   -2.2056   -4.0049    0.0000 H   0  0  0  0  0  0  0  0  0  0  0  0
   -2.2496   -2.9169    0.0000 C   0  0  0  0  0  0  0  0  0  0  0  0
   -2.7696   -2.5709    0.8910 H   0  0  0  0  0  0  0  0  0  0  0  0
   -2.7696   -2.5709   -0.8910 H   0  0  0  0  0  0  0  0  0  0  0  0
   -0.8406   -2.3699    0.0000 C   0  0  0  0  0  0  0  0  0  0  0  0
    0.1164   -3.1329    0.0000 O   0  0  0  0  0  0  0  0  0  0  0  0
   -0.7136   -1.0459    0.0000 N   0  0  0  0  0  0  0  0  0  0  0  0
   -1.5436   -0.4719    0.0000 H   0  0  0  0  0  0  0  0  0  0  0  0
    0.5724   -0.3469    0.0000 C   0  0  0  0  0  0  0  0  0  0  0  0
    0.4148    0.6950    0.2819 H   0  0  0  0  0  0  0  0  0  0  0  0
    1.2303   -0.8054    0.7395 H   0  0  0  0  0  0  0  0  0  0  0  0
    1.2627   -0.3883   -1.3663 C   0  0  0  0  0  0  0  0  0  0  0  0
    1.2799    0.6095   -2.0842 O   0  0  0  0  0  0  0  0  0  0  0  0
    1.8292   -1.5504   -1.7152 N   0  0  0  0  0  0  0  0  0  0  0  0
    1.7642   -2.3144   -1.0608 H   0  0  0  0  0  0  0  0  0  0  0  0
    2.5353   -1.7948   -2.9745 C   0  0  0  0  0  0  0  0  0  0  0  0
    2.5385   -0.8961   -3.5961 H   0  0  0  0  0  0  0  0  0  0  0  0
    3.5683   -2.0806   -2.7713 H   0  0  0  0  0  0  0  0  0  0  0  0
    2.0435   -2.5972   -3.5260 H   0  0  0  0  0  0  0  0  0  0  0  0
  5  6  2  0  0  0  0
  5  7  1  0  0  0  0
  2  3  1  0  0  0  0
  2  4  1  0  0  0  0
  2  5  1  0  0  0  0
  1  2  1  0  0  0  0
 12 13  2  0  0  0  0
 12 14  1  0  0  0  0
  9 10  1  0  0  0  0
  9 11  1  0  0  0  0
  9 12  1  0  0  0  0
  7  8  1  0  0  0  0
  7  9  1  0  0  0  0
 16 17  1  0  0  0  0
 16 18  1  0  0  0  0
 16 19  1  0  0  0  0
 14 15  1  0  0  0  0
 14 16  1  0  0  0  0
M  END
$$$$
default_name
  -OEChem-01062215323D

 19 18  0     0  0  0  0  0  0999 V2000
   -2.2056   -4.0049    0.0000 H   0  0  0  0  0  0  0  0  0  0  0  0
   -2.2496   -2.9169    0.0000 C   0  0  0  0  0  0  0  0  0  0  0  0
   -2.7696   -2.5709    0.8910 H   0  0  0  0  0  0  0  0  0  0  0  0
   -2.7696   -2.5709   -0.8910 H   0  0  0  0  0  0  0  0  0  0  0  0
   -0.8406   -2.3699    0.0000 C   0  0  0  0  0  0  0  0  0  0  0  0
    0.1164   -3.1329    0.0000 O   0  0  0  0  0  0  0  0  0  0  0  0
   -0.7136   -1.0459    0.0000 N   0  0  0  0  0  0  0  0  0  0  0  0
   -1.5436   -0.4719    0.0000 H   0  0  0  0  0  0  0  0  0  0  0  0
    0.5724   -0.3469    0.0000 C   0  0  0  0  0  0  0  0  0  0  0  0
    0.4148    0.6950    0.2819 H   0  0  0  0  0  0  0  0  0  0  0  0
    1.2303   -0.8054    0.7395 H   0  0  0  0  0  0  0  0  0  0  0  0
    1.2627   -0.3883   -1.3663 C   0  0  0  0  0  0  0  0  0  0  0  0
    1.5243    0.6548   -1.9621 O   0  0  0  0  0  0  0  0  0  0  0  0
    1.5532   -1.6015   -1.8531 N   0  0  0  0  0  0  0  0  0  0  0  0
    1.3003   -2.4003   -1.2926 H   0  0  0  0  0  0  0  0  0  0  0  0
    2.2099   -1.8550   -3.1371 C   0  0  0  0  0  0  0  0  0  0  0  0
    2.4330   -0.9156   -3.6488 H   0  0  0  0  0  0  0  0  0  0  0  0
    3.1447   -2.3935   -2.9758 H   0  0  0  0  0  0  0  0  0  0  0  0
    1.5579   -2.4524   -3.7757 H   0  0  0  0  0  0  0  0  0  0  0  0
  5  6  2  0  0  0  0
  5  7  1  0  0  0  0
  2  3  1  0  0  0  0
  2  4  1  0  0  0  0
  2  5  1  0  0  0  0
  1  2  1  0  0  0  0
 12 13  2  0  0  0  0
 12 14  1  0  0  0  0
  9 10  1  0  0  0  0
  9 11  1  0  0  0  0
  9 12  1  0  0  0  0
  7  8  1  0  0  0  0
  7  9  1  0  0  0  0
 16 17  1  0  0  0  0
 16 18  1  0  0  0  0
 16 19  1  0  0  0  0
 14 15  1  0  0  0  0
 14 16  1  0  0  0  0
M  END
$$$$
default_name
  -OEChem-01062215323D

 19 18  0     0  0  0  0  0  0999 V2000
   -2.2056   -4.0049    0.0000 H   0  0  0  0  0  0  0  0  0  0  0  0
   -2.2496   -2.9169    0.0000 C   0  0  0  0  0  0  0  0  0  0  0  0
   -2.7696   -2.5709    0.8910 H   0  0  0  0  0  0  0  0  0  0  0  0
   -2.7696   -2.5709   -0.8910 H   0  0  0  0  0  0  0  0  0  0  0  0
   -0.8406   -2.3699    0.0000 C   0  0  0  0  0  0  0  0  0  0  0  0
    0.1164   -3.1329    0.0000 O   0  0  0  0  0  0  0  0  0  0  0  0
   -0.7136   -1.0459    0.0000 N   0  0  0  0  0  0  0  0  0  0  0  0
   -1.5436   -0.4719    0.0000 H   0  0  0  0  0  0  0  0  0  0  0  0
    0.5724   -0.3469    0.0000 C   0  0  0  0  0  0  0  0  0  0  0  0
    0.4148    0.6950    0.2819 H   0  0  0  0  0  0  0  0  0  0  0  0
    1.2303   -0.8054    0.7395 H   0  0  0  0  0  0  0  0  0  0  0  0
    1.2627   -0.3883   -1.3663 C   0  0  0  0  0  0  0  0  0  0  0  0
    1.7700    0.6277   -1.8371 O   0  0  0  0  0  0  0  0  0  0  0  0
    1.2757   -1.5710   -1.9942 N   0  0  0  0  0  0  0  0  0  0  0  0
    0.8340   -2.3490   -1.5298 H   0  0  0  0  0  0  0  0  0  0  0  0
    1.8828   -1.8190   -3.3035 C   0  0  0  0  0  0  0  0  0  0  0  0
    2.3269   -0.9039   -3.7027 H   0  0  0  0  0  0  0  0  0  0  0  0
    2.6647   -2.5742   -3.2128 H   0  0  0  0  0  0  0  0  0  0  0  0
    1.1240   -2.1713   -4.0035 H   0  0  0  0  0  0  0  0  0  0  0  0
  5  6  2  0  0  0  0
  5  7  1  0  0  0  0
  2  3  1  0  0  0  0
  2  4  1  0  0  0  0
  2  5  1  0  0  0  0
  1  2  1  0  0  0  0
 12 13  2  0  0  0  0
 12 14  1  0  0  0  0
  9 10  1  0  0  0  0
  9 11  1  0  0  0  0
  9 12  1  0  0  0  0
  7  8  1  0  0  0  0
  7  9  1  0  0  0  0
 16 17  1  0  0  0  0
 16 18  1  0  0  0  0
 16 19  1  0  0  0  0
 14 15  1  0  0  0  0
 14 16  1  0  0  0  0
M  END
$$$$
default_name
  -OEChem-01062215323D

 19 18  0     0  0  0  0  0  0999 V2000
   -2.2056   -4.0049    0.0000 H   0  0  0  0  0  0  0  0  0  0  0  0
   -2.2496   -2.9169    0.0000 C   0  0  0  0  0  0  0  0  0  0  0  0
   -2.7696   -2.5709    0.8910 H   0  0  0  0  0  0  0  0  0  0  0  0
   -2.7696   -2.5709   -0.8910 H   0  0  0  0  0  0  0  0  0  0  0  0
   -0.8406   -2.3699    0.0000 C   0  0  0  0  0  0  0  0  0  0  0  0
    0.1164   -3.1329    0.0000 O   0  0  0  0  0  0  0  0  0  0  0  0
   -0.7136   -1.0459    0.0000 N   0  0  0  0  0  0  0  0  0  0  0  0
   -1.5436   -0.4719    0.0000 H   0  0  0  0  0  0  0  0  0  0  0  0
    0.5724   -0.3469    0.0000 C   0  0  0  0  0  0  0  0  0  0  0  0
    0.4148    0.6950    0.2819 H   0  0  0  0  0  0  0  0  0  0  0  0
    1.2303   -0.8054    0.7395 H   0  0  0  0  0  0  0  0  0  0  0  0
    1.2627   -0.3883   -1.3663 C   0  0  0  0  0  0  0  0  0  0  0  0
    2.0002    0.5303   -1.7179 O   0  0  0  0  0  0  0  0  0  0  0  0
    1.0158   -1.4610   -2.1289 N   0  0  0  0  0  0  0  0  0  0  0  0
    0.3971   -2.1641   -1.7562 H   0  0  0  0  0  0  0  0  0  0  0  0
    1.5763   -1.6893   -3.4623 C   0  0  0  0  0  0  0  0  0  0  0  0
    2.2276   -0.8619   -3.7542 H   0  0  0  0  0  0  0  0  0  0  0  0
    2.1611   -2.6102   -3.4662 H   0  0  0  0  0  0  0  0  0  0  0  0
    0.7714   -1.7730   -4.1937 H   0  0  0  0  0  0  0  0  0  0  0  0
  5  6  2  0  0  0  0
  5  7  1  0  0  0  0
  2  3  1  0  0  0  0
  2  4  1  0  0  0  0
  2  5  1  0  0  0  0
  1  2  1  0  0  0  0
 12 13  2  0  0  0  0
 12 14  1  0  0  0  0
  9 10  1  0  0  0  0
  9 11  1  0  0  0  0
  9 12  1  0  0  0  0
  7  8  1  0  0  0  0
  7  9  1  0  0  0  0
 16 17  1  0  0  0  0
 16 18  1  0  0  0  0
 16 19  1  0  0  0  0
 14 15  1  0  0  0  0
 14 16  1  0  0  0  0
M  END
$$$$
default_name
  -OEChem-01062215323D

 19 18  0     0  0  0  0  0  0999 V2000
   -2.2056   -4.0049    0.0000 H   0  0  0  0  0  0  0  0  0  0  0  0
   -2.2496   -2.9169    0.0000 C   0  0  0  0  0  0  0  0  0  0  0  0
   -2.7696   -2.5709    0.8910 H   0  0  0  0  0  0  0  0  0  0  0  0
   -2.7696   -2.5709   -0.8910 H   0  0  0  0  0  0  0  0  0  0  0  0
   -0.8406   -2.3699    0.0000 C   0  0  0  0  0  0  0  0  0  0  0  0
    0.1164   -3.1329    0.0000 O   0  0  0  0  0  0  0  0  0  0  0  0
   -0.7136   -1.0459    0.0000 N   0  0  0  0  0  0  0  0  0  0  0  0
   -1.5436   -0.4719    0.0000 H   0  0  0  0  0  0  0  0  0  0  0  0
    0.5724   -0.3469    0.0000 C   0  0  0  0  0  0  0  0  0  0  0  0
    0.4148    0.6950    0.2819 H   0  0  0  0  0  0  0  0  0  0  0  0
    1.2303   -0.8054    0.7395 H   0  0  0  0  0  0  0  0  0  0  0  0
    1.2627   -0.3883   -1.3663 C   0  0  0  0  0  0  0  0  0  0  0  0
    2.1992    0.3692   -1.6124 O   0  0  0  0  0  0  0  0  0  0  0  0
    0.7910   -1.2790   -2.2480 N   0  0  0  0  0  0  0  0  0  0  0  0
    0.0193   -1.8582   -1.9563 H   0  0  0  0  0  0  0  0  0  0  0  0
    1.3113   -1.4748   -3.6027 C   0  0  0  0  0  0  0  0  0  0  0  0
    2.1417   -0.7923   -3.7997 H   0  0  0  0  0  0  0  0  0  0  0  0
    1.6680   -2.4990   -3.7187 H   0  0  0  0  0  0  0  0  0  0  0  0
    0.5241   -1.2846   -4.3335 H   0  0  0  0  0  0  0  0  0  0  0  0
  5  6  2  0  0  0  0
  5  7  1  0  0  0  0
  2  3  1  0  0  0  0
  2  4  1  0  0  0  0
  2  5  1  0  0  0  0
  1  2  1  0  0  0  0
 12 13  2  0  0  0  0
 12 14  1  0  0  0  0
  9 10  1  0  0  0  0
  9 11  1  0  0  0  0
  9 12  1  0  0  0  0
  7  8  1  0  0  0  0
  7  9  1  0  0  0  0
 16 17  1  0  0  0  0
 16 18  1  0  0  0  0
 16 19  1  0  0  0  0
 14 15  1  0  0  0  0
 14 16  1  0  0  0  0
M  END
$$$$
default_name
  -OEChem-01062215323D

 19 18  0     0  0  0  0  0  0999 V2000
   -2.2056   -4.0049    0.0000 H   0  0  0  0  0  0  0  0  0  0  0  0
   -2.2496   -2.9169    0.0000 C   0  0  0  0  0  0  0  0  0  0  0  0
   -2.7696   -2.5709    0.8910 H   0  0  0  0  0  0  0  0  0  0  0  0
   -2.7696   -2.5709   -0.8910 H   0  0  0  0  0  0  0  0  0  0  0  0
   -0.8406   -2.3699    0.0000 C   0  0  0  0  0  0  0  0  0  0  0  0
    0.1164   -3.1329    0.0000 O   0  0  0  0  0  0  0  0  0  0  0  0
   -0.7136   -1.0459    0.0000 N   0  0  0  0  0  0  0  0  0  0  0  0
   -1.5436   -0.4719    0.0000 H   0  0  0  0  0  0  0  0  0  0  0  0
    0.5724   -0.3469    0.0000 C   0  0  0  0  0  0  0  0  0  0  0  0
    0.4148    0.6950    0.2819 H   0  0  0  0  0  0  0  0  0  0  0  0
    1.2303   -0.8054    0.7395 H   0  0  0  0  0  0  0  0  0  0  0  0
    1.2627   -0.3883   -1.3663 C   0  0  0  0  0  0  0  0  0  0  0  0
    2.3535    0.1552   -1.5280 O   0  0  0  0  0  0  0  0  0  0  0  0
    0.6168   -1.0374   -2.3433 N   0  0  0  0  0  0  0  0  0  0  0  0
   -0.2735   -1.4522   -2.1166 H   0  0  0  0  0  0  0  0  0  0  0  0
    1.1059   -1.1899   -3.7151 C   0  0  0  0  0  0  0  0  0  0  0  0
    2.0751   -0.7000   -3.8361 H   0  0  0  0  0  0  0  0  0  0  0  0
    1.2192   -2.2484   -3.9530 H   0  0  0  0  0  0  0  0  0  0  0  0
    0.3990   -0.7395   -4.4132 H   0  0  0  0  0  0  0  0  0  0  0  0
  5  6  2  0  0  0  0
  5  7  1  0  0  0  0
  2  3  1  0  0  0  0
  2  4  1  0  0  0  0
  2  5  1  0  0  0  0
  1  2  1  0  0  0  0
 12 13  2  0  0  0  0
 12 14  1  0  0  0  0
  9 10  1  0  0  0  0
  9 11  1  0  0  0  0
  9 12  1  0  0  0  0
  7  8  1  0  0  0  0
  7  9  1  0  0  0  0
 16 17  1  0  0  0  0
 16 18  1  0  0  0  0
 16 19  1  0  0  0  0
 14 15  1  0  0  0  0
 14 16  1  0  0  0  0
M  END
$$$$
default_name
  -OEChem-01062215323D

 19 18  0     0  0  0  0  0  0999 V2000
   -2.2056   -4.0049    0.0000 H   0  0  0  0  0  0  0  0  0  0  0  0
   -2.2496   -2.9169    0.0000 C   0  0  0  0  0  0  0  0  0  0  0  0
   -2.7696   -2.5709    0.8910 H   0  0  0  0  0  0  0  0  0  0  0  0
   -2.7696   -2.5709   -0.8910 H   0  0  0  0  0  0  0  0  0  0  0  0
   -0.8406   -2.3699    0.0000 C   0  0  0  0  0  0  0  0  0  0  0  0
    0.1164   -3.1329    0.0000 O   0  0  0  0  0  0  0  0  0  0  0  0
   -0.7136   -1.0459    0.0000 N   0  0  0  0  0  0  0  0  0  0  0  0
   -1.5436   -0.4719    0.0000 H   0  0  0  0  0  0  0  0  0  0  0  0
    0.5724   -0.3469    0.0000 C   0  0  0  0  0  0  0  0  0  0  0  0
    0.4148    0.6950    0.2819 H   0  0  0  0  0  0  0  0  0  0  0  0
    1.2303   -0.8054    0.7395 H   0  0  0  0  0  0  0  0  0  0  0  0
    1.2627   -0.3883   -1.3663 C   0  0  0  0  0  0  0  0  0  0  0  0
    2.4525   -0.0969   -1.4703 O   0  0  0  0  0  0  0  0  0  0  0  0
    0.5050   -0.7527   -2.4085 N   0  0  0  0  0  0  0  0  0  0  0  0
   -0.4615   -0.9736   -2.2261 H   0  0  0  0  0  0  0  0  0  0  0  0
    0.9740   -0.8542   -3.7919 C   0  0  0  0  0  0  0  0  0  0  0  0
    2.0324   -0.5912   -3.8610 H   0  0  0  0  0  0  0  0  0  0  0  0
    0.8452   -1.8753   -4.1533 H   0  0  0  0  0  0  0  0  0  0  0  0
    0.4047   -0.1747   -4.4275 H   0  0  0  0  0  0  0  0  0  0  0  0
  5  6  2  0  0  0  0
  5  7  1  0  0  0  0
  2  3  1  0  0  0  0
  2  4  1  0  0  0  0
  2  5  1  0  0  0  0
  1  2  1  0  0  0  0
 12 13  2  0  0  0  0
 12 14  1  0  0  0  0
  9 10  1  0  0  0  0
  9 11  1  0  0  0  0
  9 12  1  0  0  0  0
  7  8  1  0  0  0  0
  7  9  1  0  0  0  0
 16 17  1  0  0  0  0
 16 18  1  0  0  0  0
 16 19  1  0  0  0  0
 14 15  1  0  0  0  0
 14 16  1  0  0  0  0
M  END
$$$$
default_name
  -OEChem-01062215323D

 19 18  0     0  0  0  0  0  0999 V2000
   -2.2056   -4.0049    0.0000 H   0  0  0  0  0  0  0  0  0  0  0  0
   -2.2496   -2.9169    0.0000 C   0  0  0  0  0  0  0  0  0  0  0  0
   -2.7696   -2.5709    0.8910 H   0  0  0  0  0  0  0  0  0  0  0  0
   -2.7696   -2.5709   -0.8910 H   0  0  0  0  0  0  0  0  0  0  0  0
   -0.8406   -2.3699    0.0000 C   0  0  0  0  0  0  0  0  0  0  0  0
    0.1164   -3.1329    0.0000 O   0  0  0  0  0  0  0  0  0  0  0  0
   -0.7136   -1.0459    0.0000 N   0  0  0  0  0  0  0  0  0  0  0  0
   -1.5436   -0.4719    0.0000 H   0  0  0  0  0  0  0  0  0  0  0  0
    0.5724   -0.3469    0.0000 C   0  0  0  0  0  0  0  0  0  0  0  0
    0.4148    0.6950    0.2819 H   0  0  0  0  0  0  0  0  0  0  0  0
    1.2303   -0.8054    0.7395 H   0  0  0  0  0  0  0  0  0  0  0  0
    1.2627   -0.3883   -1.3663 C   0  0  0  0  0  0  0  0  0  0  0  0
    2.4896   -0.3700   -1.4433 O   0  0  0  0  0  0  0  0  0  0  0  0
    0.4631   -0.4442   -2.4390 N   0  0  0  0  0  0  0  0  0  0  0  0
   -0.5318   -0.4552   -2.2773 H   0  0  0  0  0  0  0  0  0  0  0  0
    0.9247   -0.4906   -3.8279 C   0  0  0  0  0  0  0  0  0  0  0  0
    2.0164   -0.4733   -3.8727 H   0  0  0  0  0  0  0  0  0  0  0  0
    0.5715   -1.4052   -4.3059 H   0  0  0  0  0  0  0  0  0  0  0  0
    0.5406    0.3711   -4.3754 H   0  0  0  0  0  0  0  0  0  0  0  0
  5  6  2  0  0  0  0
  5  7  1  0  0  0  0
  2  3  1  0  0  0  0
  2  4  1  0  0  0  0
  2  5  1  0  0  0  0
  1  2  1  0  0  0  0
 12 13  2  0  0  0  0
 12 14  1  0  0  0  0
  9 10  1  0  0  0  0
  9 11  1  0  0  0  0
  9 12  1  0  0  0  0
  7  8  1  0  0  0  0
  7  9  1  0  0  0  0
 16 17  1  0  0  0  0
 16 18  1  0  0  0  0
 16 19  1  0  0  0  0
 14 15  1  0  0  0  0
 14 16  1  0  0  0  0
M  END
$$$$
default_name
  -OEChem-01062215323D

 19 18  0     0  0  0  0  0  0999 V2000
   -2.2056   -4.0049    0.0000 H   0  0  0  0  0  0  0  0  0  0  0  0
   -2.2496   -2.9169    0.0000 C   0  0  0  0  0  0  0  0  0  0  0  0
   -2.7696   -2.5709    0.8910 H   0  0  0  0  0  0  0  0  0  0  0  0
   -2.7696   -2.5709   -0.8910 H   0  0  0  0  0  0  0  0  0  0  0  0
   -0.8406   -2.3699    0.0000 C   0  0  0  0  0  0  0  0  0  0  0  0
    0.1164   -3.1329    0.0000 O   0  0  0  0  0  0  0  0  0  0  0  0
   -0.7136   -1.0459    0.0000 N   0  0  0  0  0  0  0  0  0  0  0  0
   -1.5436   -0.4719    0.0000 H   0  0  0  0  0  0  0  0  0  0  0  0
    0.5724   -0.3469    0.0000 C   0  0  0  0  0  0  0  0  0  0  0  0
    0.4148    0.6950    0.2819 H   0  0  0  0  0  0  0  0  0  0  0  0
    1.2303   -0.8054    0.7395 H   0  0  0  0  0  0  0  0  0  0  0  0
    1.2627   -0.3883   -1.3663 C   0  0  0  0  0  0  0  0  0  0  0  0
    2.4621   -0.6455   -1.4488 O   0  0  0  0  0  0  0  0  0  0  0  0
    0.4942   -0.1331   -2.4327 N   0  0  0  0  0  0  0  0  0  0  0  0
   -0.4796    0.0677   -2.2668 H   0  0  0  0  0  0  0  0  0  0  0  0
    0.9613   -0.1237   -3.8205 C   0  0  0  0  0  0  0  0  0  0  0  0
    2.0282   -0.3544   -3.8703 H   0  0  0  0  0  0  0  0  0  0  0  0
    0.4168   -0.8701   -4.4003 H   0  0  0  0  0  0  0  0  0  0  0  0
    0.7976    0.8610   -4.2604 H   0  0  0  0  0  0  0  0  0  0  0  0
  5  6  2  0  0  0  0
  5  7  1  0  0  0  0
  2  3  1  0  0  0  0
  2  4  1  0  0  0  0
  2  5  1  0  0  0  0
  1  2  1  0  0  0  0
 12 13  2  0  0  0  0
 12 14  1  0  0  0  0
  9 10  1  0  0  0  0
  9 11  1  0  0  0  0
  9 12  1  0  0  0  0
  7  8  1  0  0  0  0
  7  9  1  0  0  0  0
 16 17  1  0  0  0  0
 16 18  1  0  0  0  0
 16 19  1  0  0  0  0
 14 15  1  0  0  0  0
 14 16  1  0  0  0  0
M  END
$$$$
default_name
  -OEChem-01062215323D

 19 18  0     0  0  0  0  0  0999 V2000
   -2.2056   -4.0049    0.0000 H   0  0  0  0  0  0  0  0  0  0  0  0
   -2.2496   -2.9169    0.0000 C   0  0  0  0  0  0  0  0  0  0  0  0
   -2.7696   -2.5709    0.8910 H   0  0  0  0  0  0  0  0  0  0  0  0
   -2.7696   -2.5709   -0.8910 H   0  0  0  0  0  0  0  0  0  0  0  0
   -0.8406   -2.3699    0.0000 C   0  0  0  0  0  0  0  0  0  0  0  0
    0.1164   -3.1329    0.0000 O   0  0  0  0  0  0  0  0  0  0  0  0
   -0.7136   -1.0459    0.0000 N   0  0  0  0  0  0  0  0  0  0  0  0
   -1.5436   -0.4719    0.0000 H   0  0  0  0  0  0  0  0  0  0  0  0
    0.5724   -0.3469    0.0000 C   0  0  0  0  0  0  0  0  0  0  0  0
    0.4148    0.6950    0.2819 H   0  0  0  0  0  0  0  0  0  0  0  0
    1.2303   -0.8054    0.7395 H   0  0  0  0  0  0  0  0  0  0  0  0
    1.2627   -0.3883   -1.3663 C   0  0  0  0  0  0  0  0  0  0  0  0
    2.3720   -0.9047   -1.4865 O   0  0  0  0  0  0  0  0  0  0  0  0
    0.5960    0.1596   -2.3902 N   0  0  0  0  0  0  0  0  0  0  0  0
   -0.3085    0.5596   -2.1953 H   0  0  0  0  0  0  0  0  0  0  0  0
    1.0813    0.2213   -3.7703 C   0  0  0  0  0  0  0  0  0  0  0  0
    2.0671   -0.2426   -3.8540 H   0  0  0  0  0  0  0  0  0  0  0  0
    0.3915   -0.3065   -4.4302 H   0  0  0  0  0  0  0  0  0  0  0  0
    1.1581    1.2613   -4.0904 H   0  0  0  0  0  0  0  0  0  0  0  0
  5  6  2  0  0  0  0
  5  7  1  0  0  0  0
  2  3  1  0  0  0  0
  2  4  1  0  0  0  0
  2  5  1  0  0  0  0
  1  2  1  0  0  0  0
 12 13  2  0  0  0  0
 12 14  1  0  0  0  0
  9 10  1  0  0  0  0
  9 11  1  0  0  0  0
  9 12  1  0  0  0  0
  7  8  1  0  0  0  0
  7  9  1  0  0  0  0
 16 17  1  0  0  0  0
 16 18  1  0  0  0  0
 16 19  1  0  0  0  0
 14 15  1  0  0  0  0
 14 16  1  0  0  0  0
M  END
$$$$
default_name
  -OEChem-01062215323D

 19 18  0     0  0  0  0  0  0999 V2000
   -2.2056   -4.0049    0.0000 H   0  0  0  0  0  0  0  0  0  0  0  0
   -2.2496   -2.9169    0.0000 C   0  0  0  0  0  0  0  0  0  0  0  0
   -2.7696   -2.5709    0.8910 H   0  0  0  0  0  0  0  0  0  0  0  0
   -2.7696   -2.5709   -0.8910 H   0  0  0  0  0  0  0  0  0  0  0  0
   -0.8406   -2.3699    0.0000 C   0  0  0  0  0  0  0  0  0  0  0  0
    0.1164   -3.1329    0.0000 O   0  0  0  0  0  0  0  0  0  0  0  0
   -0.7136   -1.0459    0.0000 N   0  0  0  0  0  0  0  0  0  0  0  0
   -1.5436   -0.4719    0.0000 H   0  0  0  0  0  0  0  0  0  0  0  0
    0.5724   -0.3469    0.0000 C   0  0  0  0  0  0  0  0  0  0  0  0
    0.4148    0.6950    0.2819 H   0  0  0  0  0  0  0  0  0  0  0  0
    1.2303   -0.8054    0.7395 H   0  0  0  0  0  0  0  0  0  0  0  0
    1.2627   -0.3883   -1.3663 C   0  0  0  0  0  0  0  0  0  0  0  0
    2.2253   -1.1298   -1.5538 O   0  0  0  0  0  0  0  0  0  0  0  0
    0.7616    0.4138   -2.3142 N   0  0  0  0  0  0  0  0  0  0  0  0
   -0.0302    0.9868   -2.0676 H   0  0  0  0  0  0  0  0  0  0  0  0
    1.2766    0.5211   -3.6808 C   0  0  0  0  0  0  0  0  0  0  0  0
    2.1304   -0.1454   -3.8250 H   0  0  0  0  0  0  0  0  0  0  0  0
    0.4975    0.2472   -4.3934 H   0  0  0  0  0  0  0  0  0  0  0  0
    1.5976    1.5449   -3.8769 H   0  0  0  0  0  0  0  0  0  0  0  0
  5  6  2  0  0  0  0
  5  7  1  0  0  0  0
  2  3  1  0  0  0  0
  2  4  1  0  0  0  0
  2  5  1  0  0  0  0
  1  2  1  0  0  0  0
 12 13  2  0  0  0  0
 12 14  1  0  0  0  0
  9 10  1  0  0  0  0
  9 11  1  0  0  0  0
  9 12  1  0  0  0  0
  7  8  1  0  0  0  0
  7  9  1  0  0  0  0
 16 17  1  0  0  0  0
 16 18  1  0  0  0  0
 16 19  1  0  0  0  0
 14 15  1  0  0  0  0
 14 16  1  0  0  0  0
M  END
$$$$
default_name
  -OEChem-01062215323D

 19 18  0     0  0  0  0  0  0999 V2000
   -2.2056   -4.0049    0.0000 H   0  0  0  0  0  0  0  0  0  0  0  0
   -2.2496   -2.9169    0.0000 C   0  0  0  0  0  0  0  0  0  0  0  0
   -2.7696   -2.5709    0.8910 H   0  0  0  0  0  0  0  0  0  0  0  0
   -2.7696   -2.5709   -0.8910 H   0  0  0  0  0  0  0  0  0  0  0  0
   -0.8406   -2.3699    0.0000 C   0  0  0  0  0  0  0  0  0  0  0  0
    0.1164   -3.1329    0.0000 O   0  0  0  0  0  0  0  0  0  0  0  0
   -0.7136   -1.0459    0.0000 N   0  0  0  0  0  0  0  0  0  0  0  0
   -1.5436   -0.4719    0.0000 H   0  0  0  0  0  0  0  0  0  0  0  0
    0.5724   -0.3469    0.0000 C   0  0  0  0  0  0  0  0  0  0  0  0
    0.4148    0.6950    0.2819 H   0  0  0  0  0  0  0  0  0  0  0  0
    1.2303   -0.8054    0.7395 H   0  0  0  0  0  0  0  0  0  0  0  0
    1.2627   -0.3883   -1.3663 C   0  0  0  0  0  0  0  0  0  0  0  0
    2.0322   -1.3055   -1.6460 O   0  0  0  0  0  0  0  0  0  0  0  0
    0.9797    0.6122   -2.2100 N   0  0  0  0  0  0  0  0  0  0  0  0
    0.3364    1.3204   -1.8925 H   0  0  0  0  0  0  0  0  0  0  0  0
    1.5337    0.7550   -3.5579 C   0  0  0  0  0  0  0  0  0  0  0  0
    2.2138   -0.0696   -3.7852 H   0  0  0  0  0  0  0  0  0  0  0  0
    0.7274    0.7533   -4.2926 H   0  0  0  0  0  0  0  0  0  0  0  0
    2.0862    1.6925   -3.6346 H   0  0  0  0  0  0  0  0  0  0  0  0
  5  6  2  0  0  0  0
  5  7  1  0  0  0  0
  2  3  1  0  0  0  0
  2  4  1  0  0  0  0
  2  5  1  0  0  0  0
  1  2  1  0  0  0  0
 12 13  2  0  0  0  0
 12 14  1  0  0  0  0
  9 10  1  0  0  0  0
  9 11  1  0  0  0  0
  9 12  1  0  0  0  0
  7  8  1  0  0  0  0
  7  9  1  0  0  0  0
 16 17  1  0  0  0  0
 16 18  1  0  0  0  0
 16 19  1  0  0  0  0
 14 15  1  0  0  0  0
 14 16  1  0  0  0  0
M  END
$$$$
default_name
  -OEChem-01062215323D

 19 18  0     0  0  0  0  0  0999 V2000
   -2.2056   -4.0049    0.0000 H   0  0  0  0  0  0  0  0  0  0  0  0
   -2.2496   -2.9169    0.0000 C   0  0  0  0  0  0  0  0  0  0  0  0
   -2.7696   -2.5709    0.8910 H   0  0  0  0  0  0  0  0  0  0  0  0
   -2.7696   -2.5709   -0.8910 H   0  0  0  0  0  0  0  0  0  0  0  0
   -0.8406   -2.3699    0.0000 C   0  0  0  0  0  0  0  0  0  0  0  0
    0.1164   -3.1329    0.0000 O   0  0  0  0  0  0  0  0  0  0  0  0
   -0.7136   -1.0459    0.0000 N   0  0  0  0  0  0  0  0  0  0  0  0
   -1.5436   -0.4719    0.0000 H   0  0  0  0  0  0  0  0  0  0  0  0
    0.5724   -0.3469    0.0000 C   0  0  0  0  0  0  0  0  0  0  0  0
    0.4148    0.6950    0.2819 H   0  0  0  0  0  0  0  0  0  0  0  0
    1.2303   -0.8054    0.7395 H   0  0  0  0  0  0  0  0  0  0  0  0
    1.2627   -0.3883   -1.3663 C   0  0  0  0  0  0  0  0  0  0  0  0
    1.8056   -1.4199   -1.7570 O   0  0  0  0  0  0  0  0  0  0  0  0
    1.2355    0.7413   -2.0847 N   0  0  0  0  0  0  0  0  0  0  0  0
    0.7663    1.5374   -1.6819 H   0  0  0  0  0  0  0  0  0  0  0  0
    1.8353    0.9073   -3.4102 C   0  0  0  0  0  0  0  0  0  0  0  0
    2.3116   -0.0202   -3.7373 H   0  0  0  0  0  0  0  0  0  0  0  0
    1.0657    1.1772   -4.1345 H   0  0  0  0  0  0  0  0  0  0  0  0
    2.5904    1.6939   -3.3798 H   0  0  0  0  0  0  0  0  0  0  0  0
  5  6  2  0  0  0  0
  5  7  1  0  0  0  0
  2  3  1  0  0  0  0
  2  4  1  0  0  0  0
  2  5  1  0  0  0  0
  1  2  1  0  0  0  0
 12 13  2  0  0  0  0
 12 14  1  0  0  0  0
  9 10  1  0  0  0  0
  9 11  1  0  0  0  0
  9 12  1  0  0  0  0
  7  8  1  0  0  0  0
  7  9  1  0  0  0  0
 16 17  1  0  0  0  0
 16 18  1  0  0  0  0
 16 19  1  0  0  0  0
 14 15  1  0  0  0  0
 14 16  1  0  0  0  0
M  END
$$$$
default_name
  -OEChem-01062215323D

 19 18  0     0  0  0  0  0  0999 V2000
   -2.2056   -4.0049    0.0000 H   0  0  0  0  0  0  0  0  0  0  0  0
   -2.2496   -2.9169    0.0000 C   0  0  0  0  0  0  0  0  0  0  0  0
   -2.7696   -2.5709    0.8910 H   0  0  0  0  0  0  0  0  0  0  0  0
   -2.7696   -2.5709   -0.8910 H   0  0  0  0  0  0  0  0  0  0  0  0
   -0.8406   -2.3699    0.0000 C   0  0  0  0  0  0  0  0  0  0  0  0
    0.1164   -3.1329    0.0000 O   0  0  0  0  0  0  0  0  0  0  0  0
   -0.7136   -1.0459    0.0000 N   0  0  0  0  0  0  0  0  0  0  0  0
   -1.5436   -0.4719    0.0000 H   0  0  0  0  0  0  0  0  0  0  0  0
    0.5724   -0.3469    0.0000 C   0  0  0  0  0  0  0  0  0  0  0  0
    0.4148    0.6950    0.2819 H   0  0  0  0  0  0  0  0  0  0  0  0
    1.2303   -0.8054    0.7395 H   0  0  0  0  0  0  0  0  0  0  0  0
    1.2627   -0.3883   -1.3663 C   0  0  0  0  0  0  0  0  0  0  0  0
    1.5612   -1.4651   -1.8791 O   0  0  0  0  0  0  0  0  0  0  0  0
    1.5115    0.7924   -1.9468 N   0  0  0  0  0  0  0  0  0  0  0  0
    1.2303    1.6233   -1.4501 H   0  0  0  0  0  0  0  0  0  0  0  0
    2.1608    0.9675   -3.2476 C   0  0  0  0  0  0  0  0  0  0  0  0
    2.4170   -0.0007   -3.6846 H   0  0  0  0  0  0  0  0  0  0  0  0
    1.4893    1.4902   -3.9300 H   0  0  0  0  0  0  0  0  0  0  0  0
    3.0761    1.5491   -3.1301 H   0  0  0  0  0  0  0  0  0  0  0  0
  5  6  2  0  0  0  0
  5  7  1  0  0  0  0
  2  3  1  0  0  0  0
  2  4  1  0  0  0  0
  2  5  1  0  0  0  0
  1  2  1  0  0  0  0
 12 13  2  0  0  0  0
 12 14  1  0  0  0  0
  9 10  1  0  0  0  0
  9 11  1  0  0  0  0
  9 12  1  0  0  0  0
  7  8  1  0  0  0  0
  7  9  1  0  0  0  0
 16 17  1  0  0  0  0
 16 18  1  0  0  0  0
 16 19  1  0  0  0  0
 14 15  1  0  0  0  0
 14 16  1  0  0  0  0
M  END
$$$$
default_name
  -OEChem-01062215323D

 19 18  0     0  0  0  0  0  0999 V2000
   -2.2056   -4.0049    0.0000 H   0  0  0  0  0  0  0  0  0  0  0  0
   -2.2496   -2.9169    0.0000 C   0  0  0  0  0  0  0  0  0  0  0  0
   -2.7696   -2.5709    0.8910 H   0  0  0  0  0  0  0  0  0  0  0  0
   -2.7696   -2.5709   -0.8910 H   0  0  0  0  0  0  0  0  0  0  0  0
   -0.8406   -2.3699    0.0000 C   0  0  0  0  0  0  0  0  0  0  0  0
    0.1164   -3.1329    0.0000 O   0  0  0  0  0  0  0  0  0  0  0  0
   -0.7136   -1.0459    0.0000 N   0  0  0  0  0  0  0  0  0  0  0  0
   -1.5436   -0.4719    0.0000 H   0  0  0  0  0  0  0  0  0  0  0  0
    0.5724   -0.3469    0.0000 C   0  0  0  0  0  0  0  0  0  0  0  0
    0.4148    0.6950    0.2819 H   0  0  0  0  0  0  0  0  0  0  0  0
    1.2303   -0.8054    0.7395 H   0  0  0  0  0  0  0  0  0  0  0  0
    1.2627   -0.3883   -1.3663 C   0  0  0  0  0  0  0  0  0  0  0  0
    1.3155   -1.4381   -2.0041 O   0  0  0  0  0  0  0  0  0  0  0  0
    1.7890    0.7619   -1.8057 N   0  0  0  0  0  0  0  0  0  0  0  0
    1.6966    1.5720   -1.2129 H   0  0  0  0  0  0  0  0  0  0  0  0
    2.4879    0.9315   -3.0812 C   0  0  0  0  0  0  0  0  0  0  0  0
    2.5231   -0.0123   -3.6307 H   0  0  0  0  0  0  0  0  0  0  0  0
    1.9693    1.6709   -3.6930 H   0  0  0  0  0  0  0  0  0  0  0  0
    3.5100    1.2680   -2.9023 H   0  0  0  0  0  0  0  0  0  0  0  0
  5  6  2  0  0  0  0
  5  7  1  0  0  0  0
  2  3  1  0  0  0  0
  2  4  1  0  0  0  0
  2  5  1  0  0  0  0
  1  2  1  0  0  0  0
 12 13  2  0  0  0  0
 12 14  1  0  0  0  0
  9 10  1  0  0  0  0
  9 11  1  0  0  0  0
  9 12  1  0  0  0  0
  7  8  1  0  0  0  0
  7  9  1  0  0  0  0
 16 17  1  0  0  0  0
 16 18  1  0  0  0  0
 16 19  1  0  0  0  0
 14 15  1  0  0  0  0
 14 16  1  0  0  0  0
M  END
$$$$
default_name
  -OEChem-01062215323D

 19 18  0     0  0  0  0  0  0999 V2000
   -2.2056   -4.0049    0.0000 H   0  0  0  0  0  0  0  0  0  0  0  0
   -2.2496   -2.9169    0.0000 C   0  0  0  0  0  0  0  0  0  0  0  0
   -2.7696   -2.5709    0.8910 H   0  0  0  0  0  0  0  0  0  0  0  0
   -2.7696   -2.5709   -0.8910 H   0  0  0  0  0  0  0  0  0  0  0  0
   -0.8406   -2.3699    0.0000 C   0  0  0  0  0  0  0  0  0  0  0  0
    0.1164   -3.1329    0.0000 O   0  0  0  0  0  0  0  0  0  0  0  0
   -0.7136   -1.0459    0.0000 N   0  0  0  0  0  0  0  0  0  0  0  0
   -1.5436   -0.4719    0.0000 H   0  0  0  0  0  0  0  0  0  0  0  0
    0.5724   -0.3469    0.0000 C   0  0  0  0  0  0  0  0  0  0  0  0
    0.4148    0.6950    0.2819 H   0  0  0  0  0  0  0  0  0  0  0  0
    1.2303   -0.8054    0.7395 H   0  0  0  0  0  0  0  0  0  0  0  0
    1.2627   -0.3883   -1.3663 C   0  0  0  0  0  0  0  0  0  0  0  0
    1.0854   -1.3407   -2.1233 O   0  0  0  0  0  0  0  0  0  0  0  0
    2.0489    0.6519   -1.6710 N   0  0  0  0  0  0  0  0  0  0  0  0
    2.1335    1.3871   -0.9866 H   0  0  0  0  0  0  0  0  0  0  0  0
    2.7944    0.8019   -2.9224 C   0  0  0  0  0  0  0  0  0  0  0  0
    2.6224   -0.0544   -3.5792 H   0  0  0  0  0  0  0  0  0  0  0  0
    2.4729    1.7068   -3.4396 H   0  0  0  0  0  0  0  0  0  0  0  0
    3.8626    0.8697   -2.7121 H   0  0  0  0  0  0  0  0  0  0  0  0
  5  6  2  0  0  0  0
  5  7  1  0  0  0  0
  2  3  1  0  0  0  0
  2  4  1  0  0  0  0
  2  5  1  0  0  0  0
  1  2  1  0  0  0  0
 12 13  2  0  0  0  0
 12 14  1  0  0  0  0
  9 10  1  0  0  0  0
  9 11  1  0  0  0  0
  9 12  1  0  0  0  0
  7  8  1  0  0  0  0
  7  9  1  0  0  0  0
 16 17  1  0  0  0  0
 16 18  1  0  0  0  0
 16 19  1  0  0  0  0
 14 15  1  0  0  0  0
 14 16  1  0  0  0  0
M  END
$$$$
default_name
  -OEChem-01062215323D

 19 18  0     0  0  0  0  0  0999 V2000
   -2.2056   -4.0049    0.0000 H   0  0  0  0  0  0  0  0  0  0  0  0
   -2.2496   -2.9169    0.0000 C   0  0  0  0  0  0  0  0  0  0  0  0
   -2.7696   -2.5709    0.8910 H   0  0  0  0  0  0  0  0  0  0  0  0
   -2.7696   -2.5709   -0.8910 H   0  0  0  0  0  0  0  0  0  0  0  0
   -0.8406   -2.3699    0.0000 C   0  0  0  0  0  0  0  0  0  0  0  0
    0.1164   -3.1329    0.0000 O   0  0  0  0  0  0  0  0  0  0  0  0
   -0.7136   -1.0459    0.0000 N   0  0  0  0  0  0  0  0  0  0  0  0
   -1.5436   -0.4719    0.0000 H   0  0  0  0  0  0  0  0  0  0  0  0
    0.5724   -0.3469    0.0000 C   0  0  0  0  0  0  0  0  0  0  0  0
    0.4148    0.6950    0.2819 H   0  0  0  0  0  0  0  0  0  0  0  0
    1.2303   -0.8054    0.7395 H   0  0  0  0  0  0  0  0  0  0  0  0
    1.2627   -0.3883   -1.3663 C   0  0  0  0  0  0  0  0  0  0  0  0
    0.8863   -1.1795   -2.2288 O   0  0  0  0  0  0  0  0  0  0  0  0
    2.2737    0.4699   -1.5519 N   0  0  0  0  0  0  0  0  0  0  0  0
    2.5112    1.0812   -0.7864 H   0  0  0  0  0  0  0  0  0  0  0  0
    3.0594    0.5873   -2.7820 C   0  0  0  0  0  0  0  0  0  0  0  0
    2.7083   -0.1239   -3.5337 H   0  0  0  0  0  0  0  0  0  0  0  0
    2.9660    1.5957   -3.1871 H   0  0  0  0  0  0  0  0  0  0  0  0
    4.1098    0.3813   -2.5723 H   0  0  0  0  0  0  0  0  0  0  0  0
  5  6  2  0  0  0  0
  5  7  1  0  0  0  0
  2  3  1  0  0  0  0
  2  4  1  0  0  0  0
  2  5  1  0  0  0  0
  1  2  1  0  0  0  0
 12 13  2  0  0  0  0
 12 14  1  0  0  0  0
  9 10  1  0  0  0  0
  9 11  1  0  0  0  0
  9 12  1  0  0  0  0
  7  8  1  0  0  0  0
  7  9  1  0  0  0  0
 16 17  1  0  0  0  0
 16 18  1  0  0  0  0
 16 19  1  0  0  0  0
 14 15  1  0  0  0  0
 14 16  1  0  0  0  0
M  END
$$$$
default_name
  -OEChem-01062215323D

 19 18  0     0  0  0  0  0  0999 V2000
   -2.2056   -4.0049    0.0000 H   0  0  0  0  0  0  0  0  0  0  0  0
   -2.2496   -2.9169    0.0000 C   0  0  0  0  0  0  0  0  0  0  0  0
   -2.7696   -2.5709    0.8910 H   0  0  0  0  0  0  0  0  0  0  0  0
   -2.7696   -2.5709   -0.8910 H   0  0  0  0  0  0  0  0  0  0  0  0
   -0.8406   -2.3699    0.0000 C   0  0  0  0  0  0  0  0  0  0  0  0
    0.1164   -3.1329    0.0000 O   0  0  0  0  0  0  0  0  0  0  0  0
   -0.7136   -1.0459    0.0000 N   0  0  0  0  0  0  0  0  0  0  0  0
   -1.5436   -0.4719    0.0000 H   0  0  0  0  0  0  0  0  0  0  0  0
    0.5724   -0.3469    0.0000 C   0  0  0  0  0  0  0  0  0  0  0  0
    0.4657    0.6013    0.5287 H   0  0  0  0  0  0  0  0  0  0  0  0
    1.3101   -0.9521    0.5287 H   0  0  0  0  0  0  0  0  0  0  0  0
    1.0879   -0.0667   -1.4145 C   0  0  0  0  0  0  0  0  0  0  0  0
    0.4360   -0.4210   -2.3948 O   0  0  0  0  0  0  0  0  0  0  0  0
    2.2615    0.5712   -1.5079 N   0  0  0  0  0  0  0  0  0  0  0  0
    2.7239    0.8226   -0.6482 H   0  0  0  0  0  0  0  0  0  0  0  0
    2.9232    0.9309   -2.7637 C   0  0  0  0  0  0  0  0  0  0  0  0
    2.3274    0.6071   -3.6206 H   0  0  0  0  0  0  0  0  0  0  0  0
    3.0519    2.0127   -2.8187 H   0  0  0  0  0  0  0  0  0  0  0  0
    3.9010    0.4505   -2.8187 H   0  0  0  0  0  0  0  0  0  0  0  0
  5  6  2  0  0  0  0
  5  7  1  0  0  0  0
  2  3  1  0  0  0  0
  2  4  1  0  0  0  0
  2  5  1  0  0  0  0
  1  2  1  0  0  0  0
 12 13  2  0  0  0  0
 12 14  1  0  0  0  0
  9 10  1  0  0  0  0
  9 11  1  0  0  0  0
  9 12  1  0  0  0  0
  7  8  1  0  0  0  0
  7  9  1  0  0  0  0
 16 17  1  0  0  0  0
 16 18  1  0  0  0  0
 16 19  1  0  0  0  0
 14 15  1  0  0  0  0
 14 16  1  0  0  0  0
M  END
$$$$
default_name
  -OEChem-01062215323D

 19 18  0     0  0  0  0  0  0999 V2000
   -2.2056   -4.0049    0.0000 H   0  0  0  0  0  0  0  0  0  0  0  0
   -2.2496   -2.9169    0.0000 C   0  0  0  0  0  0  0  0  0  0  0  0
   -2.7696   -2.5709    0.8910 H   0  0  0  0  0  0  0  0  0  0  0  0
   -2.7696   -2.5709   -0.8910 H   0  0  0  0  0  0  0  0  0  0  0  0
   -0.8406   -2.3699    0.0000 C   0  0  0  0  0  0  0  0  0  0  0  0
    0.1164   -3.1329    0.0000 O   0  0  0  0  0  0  0  0  0  0  0  0
   -0.7136   -1.0459    0.0000 N   0  0  0  0  0  0  0  0  0  0  0  0
   -1.5436   -0.4719    0.0000 H   0  0  0  0  0  0  0  0  0  0  0  0
    0.5724   -0.3469    0.0000 C   0  0  0  0  0  0  0  0  0  0  0  0
    0.4657    0.6013    0.5287 H   0  0  0  0  0  0  0  0  0  0  0  0
    1.3101   -0.9521    0.5287 H   0  0  0  0  0  0  0  0  0  0  0  0
    1.0879   -0.0667   -1.4145 C   0  0  0  0  0  0  0  0  0  0  0  0
    0.3343   -0.1638   -2.3810 O   0  0  0  0  0  0  0  0  0  0  0  0
    2.3765    0.2808   -1.5236 N   0  0  0  0  0  0  0  0  0  0  0  0
    2.9171    0.3344   -0.6745 H   0  0  0  0  0  0  0  0  0  0  0  0
    3.0587    0.5884   -2.7822 C   0  0  0  0  0  0  0  0  0  0  0  0
    2.3713    0.4960   -3.6266 H   0  0  0  0  0  0  0  0  0  0  0  0
    3.4424    1.6092   -2.7563 H   0  0  0  0  0  0  0  0  0  0  0  0
    3.8891   -0.1027   -2.9326 H   0  0  0  0  0  0  0  0  0  0  0  0
  5  6  2  0  0  0  0
  5  7  1  0  0  0  0
  2  3  1  0  0  0  0
  2  4  1  0  0  0  0
  2  5  1  0  0  0  0
  1  2  1  0  0  0  0
 12 13  2  0  0  0  0
 12 14  1  0  0  0  0
  9 10  1  0  0  0  0
  9 11  1  0  0  0  0
  9 12  1  0  0  0  0
  7  8  1  0  0  0  0
  7  9  1  0  0  0  0
 16 17  1  0  0  0  0
 16 18  1  0  0  0  0
 16 19  1  0  0  0  0
 14 15  1  0  0  0  0
 14 16  1  0  0  0  0
M  END
$$$$
default_name
  -OEChem-01062215323D

 19 18  0     0  0  0  0  0  0999 V2000
   -2.2056   -4.0049    0.0000 H   0  0  0  0  0  0  0  0  0  0  0  0
   -2.2496   -2.9169    0.0000 C   0  0  0  0  0  0  0  0  0  0  0  0
   -2.7696   -2.5709    0.8910 H   0  0  0  0  0  0  0  0  0  0  0  0
   -2.7696   -2.5709   -0.8910 H   0  0  0  0  0  0  0  0  0  0  0  0
   -0.8406   -2.3699    0.0000 C   0  0  0  0  0  0  0  0  0  0  0  0
    0.1164   -3.1329    0.0000 O   0  0  0  0  0  0  0  0  0  0  0  0
   -0.7136   -1.0459    0.0000 N   0  0  0  0  0  0  0  0  0  0  0  0
   -1.5436   -0.4719    0.0000 H   0  0  0  0  0  0  0  0  0  0  0  0
    0.5724   -0.3469    0.0000 C   0  0  0  0  0  0  0  0  0  0  0  0
    0.4657    0.6013    0.5287 H   0  0  0  0  0  0  0  0  0  0  0  0
    1.3101   -0.9521    0.5287 H   0  0  0  0  0  0  0  0  0  0  0  0
    1.0879   -0.0667   -1.4145 C   0  0  0  0  0  0  0  0  0  0  0  0
    0.2981    0.1078   -2.3404 O   0  0  0  0  0  0  0  0  0  0  0  0
    2.4173   -0.0259   -1.5694 N   0  0  0  0  0  0  0  0  0  0  0  0
    2.9858   -0.1810   -0.7516 H   0  0  0  0  0  0  0  0  0  0  0  0
    3.1069    0.2269   -2.8362 C   0  0  0  0  0  0  0  0  0  0  0  0
    2.3870    0.3788   -3.6441 H   0  0  0  0  0  0  0  0  0  0  0  0
    3.7261    1.1207   -2.7497 H   0  0  0  0  0  0  0  0  0  0  0  0
    3.7400   -0.6243   -3.0903 H   0  0  0  0  0  0  0  0  0  0  0  0
  5  6  2  0  0  0  0
  5  7  1  0  0  0  0
  2  3  1  0  0  0  0
  2  4  1  0  0  0  0
  2  5  1  0  0  0  0
  1  2  1  0  0  0  0
 12 13  2  0  0  0  0
 12 14  1  0  0  0  0
  9 10  1  0  0  0  0
  9 11  1  0  0  0  0
  9 12  1  0  0  0  0
  7  8  1  0  0  0  0
  7  9  1  0  0  0  0
 16 17  1  0  0  0  0
 16 18  1  0  0  0  0
 16 19  1  0  0  0  0
 14 15  1  0  0  0  0
 14 16  1  0  0  0  0
M  END
$$$$
default_name
  -OEChem-01062215323D

 19 18  0     0  0  0  0  0  0999 V2000
   -2.2056   -4.0049    0.0000 H   0  0  0  0  0  0  0  0  0  0  0  0
   -2.2496   -2.9169    0.0000 C   0  0  0  0  0  0  0  0  0  0  0  0
   -2.7696   -2.5709    0.8910 H   0  0  0  0  0  0  0  0  0  0  0  0
   -2.7696   -2.5709   -0.8910 H   0  0  0  0  0  0  0  0  0  0  0  0
   -0.8406   -2.3699    0.0000 C   0  0  0  0  0  0  0  0  0  0  0  0
    0.1164   -3.1329    0.0000 O   0  0  0  0  0  0  0  0  0  0  0  0
   -0.7136   -1.0459    0.0000 N   0  0  0  0  0  0  0  0  0  0  0  0
   -1.5436   -0.4719    0.0000 H   0  0  0  0  0  0  0  0  0  0  0  0
    0.5724   -0.3469    0.0000 C   0  0  0  0  0  0  0  0  0  0  0  0
    0.4657    0.6013    0.5287 H   0  0  0  0  0  0  0  0  0  0  0  0
    1.3101   -0.9521    0.5287 H   0  0  0  0  0  0  0  0  0  0  0  0
    1.0879   -0.0667   -1.4145 C   0  0  0  0  0  0  0  0  0  0  0  0
    0.3300    0.3752   -2.2758 O   0  0  0  0  0  0  0  0  0  0  0  0
    2.3813   -0.3279   -1.6424 N   0  0  0  0  0  0  0  0  0  0  0  0
    2.9253   -0.6886   -0.8742 H   0  0  0  0  0  0  0  0  0  0  0  0
    3.0644   -0.1292   -2.9222 C   0  0  0  0  0  0  0  0  0  0  0  0
    2.3732    0.2634   -3.6720 H   0  0  0  0  0  0  0  0  0  0  0  0
    3.8837    0.5804   -2.7993 H   0  0  0  0  0  0  0  0  0  0  0  0
    3.4638   -1.0788   -3.2810 H   0  0  0  0  0  0  0  0  0  0  0  0
  5  6  2  0  0  0  0
  5  7  1  0  0  0  0
  2  3  1  0  0  0  0
  2  4  1  0  0  0  0
  2  5  1  0  0  0  0
  1  2  1  0  0  0  0
 12 13  2  0  0  0  0
 12 14  1  0  0  0  0
  9 10  1  0  0  0  0
  9 11  1  0  0  0  0
  9 12  1  0  0  0  0
  7  8  1  0  0  0  0
  7  9  1  0  0  0  0
 16 17  1  0  0  0  0
 16 18  1  0  0  0  0
 16 19  1  0  0  0  0
 14 15  1  0  0  0  0
 14 16  1  0  0  0  0
M  END
$$$$
default_name
  -OEChem-01062215323D

 19 18  0     0  0  0  0  0  0999 V2000
   -2.2056   -4.0049    0.0000 H   0  0  0  0  0  0  0  0  0  0  0  0
   -2.2496   -2.9169    0.0000 C   0  0  0  0  0  0  0  0  0  0  0  0
   -2.7696   -2.5709    0.8910 H   0  0  0  0  0  0  0  0  0  0  0  0
   -2.7696   -2.5709   -0.8910 H   0  0  0  0  0  0  0  0  0  0  0  0
   -0.8406   -2.3699    0.0000 C   0  0  0  0  0  0  0  0  0  0  0  0
    0.1164   -3.1329    0.0000 O   0  0  0  0  0  0  0  0  0  0  0  0
   -0.7136   -1.0459    0.0000 N   0  0  0  0  0  0  0  0  0  0  0  0
   -1.5436   -0.4719    0.0000 H   0  0  0  0  0  0  0  0  0  0  0  0
    0.5724   -0.3469    0.0000 C   0  0  0  0  0  0  0  0  0  0  0  0
    0.4657    0.6013    0.5287 H   0  0  0  0  0  0  0  0  0  0  0  0
    1.3101   -0.9521    0.5287 H   0  0  0  0  0  0  0  0  0  0  0  0
    1.0879   -0.0667   -1.4145 C   0  0  0  0  0  0  0  0  0  0  0  0
    0.4278    0.6202   -2.1916 O   0  0  0  0  0  0  0  0  0  0  0  0
    2.2708   -0.6046   -1.7375 N   0  0  0  0  0  0  0  0  0  0  0  0
    2.7396   -1.1537   -1.0340 H   0  0  0  0  0  0  0  0  0  0  0  0
    2.9342   -0.4555   -3.0343 C   0  0  0  0  0  0  0  0  0  0  0  0
    2.3310    0.1577   -3.7083 H   0  0  0  0  0  0  0  0  0  0  0  0
    3.9044    0.0252   -2.9017 H   0  0  0  0  0  0  0  0  0  0  0  0
    3.0793   -1.4351   -3.4917 H   0  0  0  0  0  0  0  0  0  0  0  0
  5  6  2  0  0  0  0
  5  7  1  0  0  0  0
  2  3  1  0  0  0  0
  2  4  1  0  0  0  0
  2  5  1  0  0  0  0
  1  2  1  0  0  0  0
 12 13  2  0  0  0  0
 12 14  1  0  0  0  0
  9 10  1  0  0  0  0
  9 11  1  0  0  0  0
  9 12  1  0  0  0  0
  7  8  1  0  0  0  0
  7  9  1  0  0  0  0
 16 17  1  0  0  0  0
 16 18  1  0  0  0  0
 16 19  1  0  0  0  0
 14 15  1  0  0  0  0
 14 16  1  0  0  0  0
M  END
$$$$
default_name
  -OEChem-01062215323D

 19 18  0     0  0  0  0  0  0999 V2000
   -2.2056   -4.0049    0.0000 H   0  0  0  0  0  0  0  0  0  0  0  0
   -2.2496   -2.9169    0.0000 C   0  0  0  0  0  0  0  0  0  0  0  0
   -2.7696   -2.5709    0.8910 H   0  0  0  0  0  0  0  0  0  0  0  0
   -2.7696   -2.5709   -0.8910 H   0  0  0  0  0  0  0  0  0  0  0  0
   -0.8406   -2.3699    0.0000 C   0  0  0  0  0  0  0  0  0  0  0  0
    0.1164   -3.1329    0.0000 O   0  0  0  0  0  0  0  0  0  0  0  0
   -0.7136   -1.0459    0.0000 N   0  0  0  0  0  0  0  0  0  0  0  0
   -1.5436   -0.4719    0.0000 H   0  0  0  0  0  0  0  0  0  0  0  0
    0.5724   -0.3469    0.0000 C   0  0  0  0  0  0  0  0  0  0  0  0
    0.4657    0.6013    0.5287 H   0  0  0  0  0  0  0  0  0  0  0  0
    1.3101   -0.9521    0.5287 H   0  0  0  0  0  0  0  0  0  0  0  0
    1.0879   -0.0667   -1.4145 C   0  0  0  0  0  0  0  0  0  0  0  0
    0.5848    0.8262   -2.0936 O   0  0  0  0  0  0  0  0  0  0  0  0
    2.0935   -0.8372   -1.8482 N   0  0  0  0  0  0  0  0  0  0  0  0
    2.4416   -1.5446   -1.2201 H   0  0  0  0  0  0  0  0  0  0  0  0
    2.7251   -0.7297   -3.1649 C   0  0  0  0  0  0  0  0  0  0  0  0
    2.2632    0.0688   -3.7506 H   0  0  0  0  0  0  0  0  0  0  0  0
    3.7868   -0.5071   -3.0500 H   0  0  0  0  0  0  0  0  0  0  0  0
    2.6128   -1.6690   -3.7080 H   0  0  0  0  0  0  0  0  0  0  0  0
  5  6  2  0  0  0  0
  5  7  1  0  0  0  0
  2  3  1  0  0  0  0
  2  4  1  0  0  0  0
  2  5  1  0  0  0  0
  1  2  1  0  0  0  0
 12 13  2  0  0  0  0
 12 14  1  0  0  0  0
  9 10  1  0  0  0  0
  9 11  1  0  0  0  0
  9 12  1  0  0  0  0
  7  8  1  0  0  0  0
  7  9  1  0  0  0  0
 16 17  1  0  0  0  0
 16 18  1  0  0  0  0
 16 19  1  0  0  0  0
 14 15  1  0  0  0  0
 14 16  1  0  0  0  0
M  END
$$$$
default_name
  -OEChem-01062215323D

 19 18  0     0  0  0  0  0  0999 V2000
   -2.2056   -4.0049    0.0000 H   0  0  0  0  0  0  0  0  0  0  0  0
   -2.2496   -2.9169    0.0000 C   0  0  0  0  0  0  0  0  0  0  0  0
   -2.7696   -2.5709    0.8910 H   0  0  0  0  0  0  0  0  0  0  0  0
   -2.7696   -2.5709   -0.8910 H   0  0  0  0  0  0  0  0  0  0  0  0
   -0.8406   -2.3699    0.0000 C   0  0  0  0  0  0  0  0  0  0  0  0
    0.1164   -3.1329    0.0000 O   0  0  0  0  0  0  0  0  0  0  0  0
   -0.7136   -1.0459    0.0000 N   0  0  0  0  0  0  0  0  0  0  0  0
   -1.5436   -0.4719    0.0000 H   0  0  0  0  0  0  0  0  0  0  0  0
    0.5724   -0.3469    0.0000 C   0  0  0  0  0  0  0  0  0  0  0  0
    0.4657    0.6013    0.5287 H   0  0  0  0  0  0  0  0  0  0  0  0
    1.3101   -0.9521    0.5287 H   0  0  0  0  0  0  0  0  0  0  0  0
    1.0879   -0.0667   -1.4145 C   0  0  0  0  0  0  0  0  0  0  0  0
    0.7904    0.9791   -1.9884 O   0  0  0  0  0  0  0  0  0  0  0  0
    1.8614   -1.0099   -1.9670 N   0  0  0  0  0  0  0  0  0  0  0  0
    2.0514   -1.8348   -1.4197 H   0  0  0  0  0  0  0  0  0  0  0  0
    2.4514   -0.9333   -3.3049 C   0  0  0  0  0  0  0  0  0  0  0  0
    2.1745    0.0028   -3.7960 H   0  0  0  0  0  0  0  0  0  0  0  0
    3.5389   -0.9802   -3.2341 H   0  0  0  0  0  0  0  0  0  0  0  0
    2.0960   -1.7645   -3.9153 H   0  0  0  0  0  0  0  0  0  0  0  0
  5  6  2  0  0  0  0
  5  7  1  0  0  0  0
  2  3  1  0  0  0  0
  2  4  1  0  0  0  0
  2  5  1  0  0  0  0
  1  2  1  0  0  0  0
 12 13  2  0  0  0  0
 12 14  1  0  0  0  0
  9 10  1  0  0  0  0
  9 11  1  0  0  0  0
  9 12  1  0  0  0  0
  7  8  1  0  0  0  0
  7  9  1  0  0  0  0
 16 17  1  0  0  0  0
 16 18  1  0  0  0  0
 16 19  1  0  0  0  0
 14 15  1  0  0  0  0
 14 16  1  0  0  0  0
M  END
$$$$
default_name
  -OEChem-01062215323D

 19 18  0     0  0  0  0  0  0999 V2000
   -2.2056   -4.0049    0.0000 H   0  0  0  0  0  0  0  0  0  0  0  0
   -2.2496   -2.9169    0.0000 C   0  0  0  0  0  0  0  0  0  0  0  0
   -2.7696   -2.5709    0.8910 H   0  0  0  0  0  0  0  0  0  0  0  0
   -2.7696   -2.5709   -0.8910 H   0  0  0  0  0  0  0  0  0  0  0  0
   -0.8406   -2.3699    0.0000 C   0  0  0  0  0  0  0  0  0  0  0  0
    0.1164   -3.1329    0.0000 O   0  0  0  0  0  0  0  0  0  0  0  0
   -0.7136   -1.0459    0.0000 N   0  0  0  0  0  0  0  0  0  0  0  0
   -1.5436   -0.4719    0.0000 H   0  0  0  0  0  0  0  0  0  0  0  0
    0.5724   -0.3469    0.0000 C   0  0  0  0  0  0  0  0  0  0  0  0
    0.4657    0.6013    0.5287 H   0  0  0  0  0  0  0  0  0  0  0  0
    1.3101   -0.9521    0.5287 H   0  0  0  0  0  0  0  0  0  0  0  0
    1.0879   -0.0667   -1.4145 C   0  0  0  0  0  0  0  0  0  0  0  0
    1.0305    1.0684   -1.8831 O   0  0  0  0  0  0  0  0  0  0  0  0
    1.5902   -1.1108   -2.0858 N   0  0  0  0  0  0  0  0  0  0  0  0
    1.5957   -2.0044   -1.6194 H   0  0  0  0  0  0  0  0  0  0  0  0
    2.1317   -1.0523   -3.4450 C   0  0  0  0  0  0  0  0  0  0  0  0
    2.0709   -0.0358   -3.8414 H   0  0  0  0  0  0  0  0  0  0  0  0
    3.1777   -1.3619   -3.4414 H   0  0  0  0  0  0  0  0  0  0  0  0
    1.5641   -1.7152   -4.0994 H   0  0  0  0  0  0  0  0  0  0  0  0
  5  6  2  0  0  0  0
  5  7  1  0  0  0  0
  2  3  1  0  0  0  0
  2  4  1  0  0  0  0
  2  5  1  0  0  0  0
  1  2  1  0  0  0  0
 12 13  2  0  0  0  0
 12 14  1  0  0  0  0
  9 10  1  0  0  0  0
  9 11  1  0  0  0  0
  9 12  1  0  0  0  0
  7  8  1  0  0  0  0
  7  9  1  0  0  0  0
 16 17  1  0  0  0  0
 16 18  1  0  0  0  0
 16 19  1  0  0  0  0
 14 15  1  0  0  0  0
 14 16  1  0  0  0  0
M  END
$$$$
default_name
  -OEChem-01062215323D

 19 18  0     0  0  0  0  0  0999 V2000
   -2.2056   -4.0049    0.0000 H   0  0  0  0  0  0  0  0  0  0  0  0
   -2.2496   -2.9169    0.0000 C   0  0  0  0  0  0  0  0  0  0  0  0
   -2.7696   -2.5709    0.8910 H   0  0  0  0  0  0  0  0  0  0  0  0
   -2.7696   -2.5709   -0.8910 H   0  0  0  0  0  0  0  0  0  0  0  0
   -0.8406   -2.3699    0.0000 C   0  0  0  0  0  0  0  0  0  0  0  0
    0.1164   -3.1329    0.0000 O   0  0  0  0  0  0  0  0  0  0  0  0
   -0.7136   -1.0459    0.0000 N   0  0  0  0  0  0  0  0  0  0  0  0
   -1.5436   -0.4719    0.0000 H   0  0  0  0  0  0  0  0  0  0  0  0
    0.5724   -0.3469    0.0000 C   0  0  0  0  0  0  0  0  0  0  0  0
    0.4657    0.6013    0.5287 H   0  0  0  0  0  0  0  0  0  0  0  0
    1.3101   -0.9521    0.5287 H   0  0  0  0  0  0  0  0  0  0  0  0
    1.0879   -0.0667   -1.4145 C   0  0  0  0  0  0  0  0  0  0  0  0
    1.2887    1.0882   -1.7851 O   0  0  0  0  0  0  0  0  0  0  0  0
    1.2986   -1.1331   -2.1965 N   0  0  0  0  0  0  0  0  0  0  0  0
    1.1055   -2.0419   -1.8055 H   0  0  0  0  0  0  0  0  0  0  0  0
    1.7879   -1.0786   -3.5756 C   0  0  0  0  0  0  0  0  0  0  0  0
    1.9594   -0.0443   -3.8838 H   0  0  0  0  0  0  0  0  0  0  0  0
    2.7276   -1.6262   -3.6577 H   0  0  0  0  0  0  0  0  0  0  0  0
    1.0535   -1.5244   -4.2477 H   0  0  0  0  0  0  0  0  0  0  0  0
  5  6  2  0  0  0  0
  5  7  1  0  0  0  0
  2  3  1  0  0  0  0
  2  4  1  0  0  0  0
  2  5  1  0  0  0  0
  1  2  1  0  0  0  0
 12 13  2  0  0  0  0
 12 14  1  0  0  0  0
  9 10  1  0  0  0  0
  9 11  1  0  0  0  0
  9 12  1  0  0  0  0
  7  8  1  0  0  0  0
  7  9  1  0  0  0  0
 16 17  1  0  0  0  0
 16 18  1  0  0  0  0
 16 19  1  0  0  0  0
 14 15  1  0  0  0  0
 14 16  1  0  0  0  0
M  END
$$$$
default_name
  -OEChem-01062215323D

 19 18  0     0  0  0  0  0  0999 V2000
   -2.2056   -4.0049    0.0000 H   0  0  0  0  0  0  0  0  0  0  0  0
   -2.2496   -2.9169    0.0000 C   0  0  0  0  0  0  0  0  0  0  0  0
   -2.7696   -2.5709    0.8910 H   0  0  0  0  0  0  0  0  0  0  0  0
   -2.7696   -2.5709   -0.8910 H   0  0  0  0  0  0  0  0  0  0  0  0
   -0.8406   -2.3699    0.0000 C   0  0  0  0  0  0  0  0  0  0  0  0
    0.1164   -3.1329    0.0000 O   0  0  0  0  0  0  0  0  0  0  0  0
   -0.7136   -1.0459    0.0000 N   0  0  0  0  0  0  0  0  0  0  0  0
   -1.5436   -0.4719    0.0000 H   0  0  0  0  0  0  0  0  0  0  0  0
    0.5724   -0.3469    0.0000 C   0  0  0  0  0  0  0  0  0  0  0  0
    0.4657    0.6013    0.5287 H   0  0  0  0  0  0  0  0  0  0  0  0
    1.3101   -0.9521    0.5287 H   0  0  0  0  0  0  0  0  0  0  0  0
    1.0879   -0.0667   -1.4145 C   0  0  0  0  0  0  0  0  0  0  0  0
    1.5476    1.0370   -1.7009 O   0  0  0  0  0  0  0  0  0  0  0  0
    1.0063   -1.0752   -2.2916 N   0  0  0  0  0  0  0  0  0  0  0  0
    0.6142   -1.9447   -1.9653 H   0  0  0  0  0  0  0  0  0  0  0  0
    1.4432   -1.0104   -3.6877 C   0  0  0  0  0  0  0  0  0  0  0  0
    1.8477   -0.0222   -3.9201 H   0  0  0  0  0  0  0  0  0  0  0  0
    2.2195   -1.7551   -3.8684 H   0  0  0  0  0  0  0  0  0  0  0  0
    0.5988   -1.2051   -4.3501 H   0  0  0  0  0  0  0  0  0  0  0  0
  5  6  2  0  0  0  0
  5  7  1  0  0  0  0
  2  3  1  0  0  0  0
  2  4  1  0  0  0  0
  2  5  1  0  0  0  0
  1  2  1  0  0  0  0
 12 13  2  0  0  0  0
 12 14  1  0  0  0  0
  9 10  1  0  0  0  0
  9 11  1  0  0  0  0
  9 12  1  0  0  0  0
  7  8  1  0  0  0  0
  7  9  1  0  0  0  0
 16 17  1  0  0  0  0
 16 18  1  0  0  0  0
 16 19  1  0  0  0  0
 14 15  1  0  0  0  0
 14 16  1  0  0  0  0
M  END
$$$$
default_name
  -OEChem-01062215323D

 19 18  0     0  0  0  0  0  0999 V2000
   -2.2056   -4.0049    0.0000 H   0  0  0  0  0  0  0  0  0  0  0  0
   -2.2496   -2.9169    0.0000 C   0  0  0  0  0  0  0  0  0  0  0  0
   -2.7696   -2.5709    0.8910 H   0  0  0  0  0  0  0  0  0  0  0  0
   -2.7696   -2.5709   -0.8910 H   0  0  0  0  0  0  0  0  0  0  0  0
   -0.8406   -2.3699    0.0000 C   0  0  0  0  0  0  0  0  0  0  0  0
    0.1164   -3.1329    0.0000 O   0  0  0  0  0  0  0  0  0  0  0  0
   -0.7136   -1.0459    0.0000 N   0  0  0  0  0  0  0  0  0  0  0  0
   -1.5436   -0.4719    0.0000 H   0  0  0  0  0  0  0  0  0  0  0  0
    0.5724   -0.3469    0.0000 C   0  0  0  0  0  0  0  0  0  0  0  0
    0.4657    0.6013    0.5287 H   0  0  0  0  0  0  0  0  0  0  0  0
    1.3101   -0.9521    0.5287 H   0  0  0  0  0  0  0  0  0  0  0  0
    1.0879   -0.0667   -1.4145 C   0  0  0  0  0  0  0  0  0  0  0  0
    1.7893    0.9183   -1.6363 O   0  0  0  0  0  0  0  0  0  0  0  0
    0.7333   -0.9412   -2.3645 N   0  0  0  0  0  0  0  0  0  0  0  0
    0.1554   -1.7195   -2.0879 H   0  0  0  0  0  0  0  0  0  0  0  0
    1.1214   -0.8524   -3.7737 C   0  0  0  0  0  0  0  0  0  0  0  0
    1.7433    0.0290   -3.9480 H   0  0  0  0  0  0  0  0  0  0  0  0
    1.6879   -1.7397   -4.0591 H   0  0  0  0  0  0  0  0  0  0  0  0
    0.2311   -0.7790   -4.3997 H   0  0  0  0  0  0  0  0  0  0  0  0
  5  6  2  0  0  0  0
  5  7  1  0  0  0  0
  2  3  1  0  0  0  0
  2  4  1  0  0  0  0
  2  5  1  0  0  0  0
  1  2  1  0  0  0  0
 12 13  2  0  0  0  0
 12 14  1  0  0  0  0
  9 10  1  0  0  0  0
  9 11  1  0  0  0  0
  9 12  1  0  0  0  0
  7  8  1  0  0  0  0
  7  9  1  0  0  0  0
 16 17  1  0  0  0  0
 16 18  1  0  0  0  0
 16 19  1  0  0  0  0
 14 15  1  0  0  0  0
 14 16  1  0  0  0  0
M  END
$$$$
default_name
  -OEChem-01062215323D

 19 18  0     0  0  0  0  0  0999 V2000
   -2.2056   -4.0049    0.0000 H   0  0  0  0  0  0  0  0  0  0  0  0
   -2.2496   -2.9169    0.0000 C   0  0  0  0  0  0  0  0  0  0  0  0
   -2.7696   -2.5709    0.8910 H   0  0  0  0  0  0  0  0  0  0  0  0
   -2.7696   -2.5709   -0.8910 H   0  0  0  0  0  0  0  0  0  0  0  0
   -0.8406   -2.3699    0.0000 C   0  0  0  0  0  0  0  0  0  0  0  0
    0.1164   -3.1329    0.0000 O   0  0  0  0  0  0  0  0  0  0  0  0
   -0.7136   -1.0459    0.0000 N   0  0  0  0  0  0  0  0  0  0  0  0
   -1.5436   -0.4719    0.0000 H   0  0  0  0  0  0  0  0  0  0  0  0
    0.5724   -0.3469    0.0000 C   0  0  0  0  0  0  0  0  0  0  0  0
    0.4657    0.6013    0.5287 H   0  0  0  0  0  0  0  0  0  0  0  0
    1.3101   -0.9521    0.5287 H   0  0  0  0  0  0  0  0  0  0  0  0
    1.0879   -0.0667   -1.4145 C   0  0  0  0  0  0  0  0  0  0  0  0
    1.9975    0.7403   -1.5957 O   0  0  0  0  0  0  0  0  0  0  0  0
    0.4982   -0.7402   -2.4104 N   0  0  0  0  0  0  0  0  0  0  0  0
   -0.2398   -1.3815   -2.1650 H   0  0  0  0  0  0  0  0  0  0  0  0
    0.8441   -0.6153   -3.8277 C   0  0  0  0  0  0  0  0  0  0  0  0
    1.6535    0.1058   -3.9655 H   0  0  0  0  0  0  0  0  0  0  0  0
    1.1691   -1.5812   -4.2168 H   0  0  0  0  0  0  0  0  0  0  0  0
   -0.0245   -0.2752   -4.3931 H   0  0  0  0  0  0  0  0  0  0  0  0
  5  6  2  0  0  0  0
  5  7  1  0  0  0  0
  2  3  1  0  0  0  0
  2  4  1  0  0  0  0
  2  5  1  0  0  0  0
  1  2  1  0  0  0  0
 12 13  2  0  0  0  0
 12 14  1  0  0  0  0
  9 10  1  0  0  0  0
  9 11  1  0  0  0  0
  9 12  1  0  0  0  0
  7  8  1  0  0  0  0
  7  9  1  0  0  0  0
 16 17  1  0  0  0  0
 16 18  1  0  0  0  0
 16 19  1  0  0  0  0
 14 15  1  0  0  0  0
 14 16  1  0  0  0  0
M  END
$$$$
default_name
  -OEChem-01062215323D

 19 18  0     0  0  0  0  0  0999 V2000
   -2.2056   -4.0049    0.0000 H   0  0  0  0  0  0  0  0  0  0  0  0
   -2.2496   -2.9169    0.0000 C   0  0  0  0  0  0  0  0  0  0  0  0
   -2.7696   -2.5709    0.8910 H   0  0  0  0  0  0  0  0  0  0  0  0
   -2.7696   -2.5709   -0.8910 H   0  0  0  0  0  0  0  0  0  0  0  0
   -0.8406   -2.3699    0.0000 C   0  0  0  0  0  0  0  0  0  0  0  0
    0.1164   -3.1329    0.0000 O   0  0  0  0  0  0  0  0  0  0  0  0
   -0.7136   -1.0459    0.0000 N   0  0  0  0  0  0  0  0  0  0  0  0
   -1.5436   -0.4719    0.0000 H   0  0  0  0  0  0  0  0  0  0  0  0
    0.5724   -0.3469    0.0000 C   0  0  0  0  0  0  0  0  0  0  0  0
    0.4657    0.6013    0.5287 H   0  0  0  0  0  0  0  0  0  0  0  0
    1.3101   -0.9521    0.5287 H   0  0  0  0  0  0  0  0  0  0  0  0
    1.0879   -0.0667   -1.4145 C   0  0  0  0  0  0  0  0  0  0  0  0
    2.1580    0.5150   -1.5819 O   0  0  0  0  0  0  0  0  0  0  0  0
    0.3169   -0.4857   -2.4260 N   0  0  0  0  0  0  0  0  0  0  0  0
   -0.5444   -0.9539   -2.1912 H   0  0  0  0  0  0  0  0  0  0  0  0
    0.6305   -0.3153   -3.8462 C   0  0  0  0  0  0  0  0  0  0  0  0
    1.5842    0.2031   -3.9715 H   0  0  0  0  0  0  0  0  0  0  0  0
    0.6984   -1.2902   -4.3307 H   0  0  0  0  0  0  0  0  0  0  0  0
   -0.1507    0.2719   -4.3307 H   0  0  0  0  0  0  0  0  0  0  0  0
  5  6  2  0  0  0  0
  5  7  1  0  0  0  0
  2  3  1  0  0  0  0
  2  4  1  0  0  0  0
  2  5  1  0  0  0  0
  1  2  1  0  0  0  0
 12 13  2  0  0  0  0
 12 14  1  0  0  0  0
  9 10  1  0  0  0  0
  9 11  1  0  0  0  0
  9 12  1  0  0  0  0
  7  8  1  0  0  0  0
  7  9  1  0  0  0  0
 16 17  1  0  0  0  0
 16 18  1  0  0  0  0
 16 19  1  0  0  0  0
 14 15  1  0  0  0  0
 14 16  1  0  0  0  0
M  END
$$$$
default_name
  -OEChem-01062215323D

 19 18  0     0  0  0  0  0  0999 V2000
   -2.2056   -4.0049    0.0000 H   0  0  0  0  0  0  0  0  0  0  0  0
   -2.2496   -2.9169    0.0000 C   0  0  0  0  0  0  0  0  0  0  0  0
   -2.7696   -2.5709    0.8910 H   0  0  0  0  0  0  0  0  0  0  0  0
   -2.7696   -2.5709   -0.8910 H   0  0  0  0  0  0  0  0  0  0  0  0
   -0.8406   -2.3699    0.0000 C   0  0  0  0  0  0  0  0  0  0  0  0
    0.1164   -3.1329    0.0000 O   0  0  0  0  0  0  0  0  0  0  0  0
   -0.7136   -1.0459    0.0000 N   0  0  0  0  0  0  0  0  0  0  0  0
   -1.5436   -0.4719    0.0000 H   0  0  0  0  0  0  0  0  0  0  0  0
    0.5724   -0.3469    0.0000 C   0  0  0  0  0  0  0  0  0  0  0  0
    0.4657    0.6013    0.5287 H   0  0  0  0  0  0  0  0  0  0  0  0
    1.3101   -0.9521    0.5287 H   0  0  0  0  0  0  0  0  0  0  0  0
    1.0879   -0.0667   -1.4145 C   0  0  0  0  0  0  0  0  0  0  0  0
    2.2598    0.2578   -1.5957 O   0  0  0  0  0  0  0  0  0  0  0  0
    0.2020   -0.1953   -2.4104 N   0  0  0  0  0  0  0  0  0  0  0  0
   -0.7376   -0.4657   -2.1650 H   0  0  0  0  0  0  0  0  0  0  0  0
    0.4949    0.0271   -3.8277 C   0  0  0  0  0  0  0  0  0  0  0  0
    1.5403    0.3141   -3.9655 H   0  0  0  0  0  0  0  0  0  0  0  0
    0.3079   -0.8868   -4.3931 H   0  0  0  0  0  0  0  0  0  0  0  0
   -0.1388    0.8252   -4.2168 H   0  0  0  0  0  0  0  0  0  0  0  0
  5  6  2  0  0  0  0
  5  7  1  0  0  0  0
  2  3  1  0  0  0  0
  2  4  1  0  0  0  0
  2  5  1  0  0  0  0
  1  2  1  0  0  0  0
 12 13  2  0  0  0  0
 12 14  1  0  0  0  0
  9 10  1  0  0  0  0
  9 11  1  0  0  0  0
  9 12  1  0  0  0  0
  7  8  1  0  0  0  0
  7  9  1  0  0  0  0
 16 17  1  0  0  0  0
 16 18  1  0  0  0  0
 16 19  1  0  0  0  0
 14 15  1  0  0  0  0
 14 16  1  0  0  0  0
M  END
$$$$
default_name
  -OEChem-01062215323D

 19 18  0     0  0  0  0  0  0999 V2000
   -2.2056   -4.0049    0.0000 H   0  0  0  0  0  0  0  0  0  0  0  0
   -2.2496   -2.9169    0.0000 C   0  0  0  0  0  0  0  0  0  0  0  0
   -2.7696   -2.5709    0.8910 H   0  0  0  0  0  0  0  0  0  0  0  0
   -2.7696   -2.5709   -0.8910 H   0  0  0  0  0  0  0  0  0  0  0  0
   -0.8406   -2.3699    0.0000 C   0  0  0  0  0  0  0  0  0  0  0  0
    0.1164   -3.1329    0.0000 O   0  0  0  0  0  0  0  0  0  0  0  0
   -0.7136   -1.0459    0.0000 N   0  0  0  0  0  0  0  0  0  0  0  0
   -1.5436   -0.4719    0.0000 H   0  0  0  0  0  0  0  0  0  0  0  0
    0.5724   -0.3469    0.0000 C   0  0  0  0  0  0  0  0  0  0  0  0
    0.4657    0.6013    0.5287 H   0  0  0  0  0  0  0  0  0  0  0  0
    1.3101   -0.9521    0.5287 H   0  0  0  0  0  0  0  0  0  0  0  0
    1.0879   -0.0667   -1.4145 C   0  0  0  0  0  0  0  0  0  0  0  0
    2.2960   -0.0138   -1.6363 O   0  0  0  0  0  0  0  0  0  0  0  0
    0.1611    0.1114   -2.3645 N   0  0  0  0  0  0  0  0  0  0  0  0
   -0.8062    0.0497   -2.0879 H   0  0  0  0  0  0  0  0  0  0  0  0
    0.4468    0.3887   -3.7737 C   0  0  0  0  0  0  0  0  0  0  0  0
    1.5247    0.4313   -3.9480 H   0  0  0  0  0  0  0  0  0  0  0  0
    0.0242   -0.3983   -4.3997 H   0  0  0  0  0  0  0  0  0  0  0  0
    0.0103    1.3468   -4.0591 H   0  0  0  0  0  0  0  0  0  0  0  0
  5  6  2  0  0  0  0
  5  7  1  0  0  0  0
  2  3  1  0  0  0  0
  2  4  1  0  0  0  0
  2  5  1  0  0  0  0
  1  2  1  0  0  0  0
 12 13  2  0  0  0  0
 12 14  1  0  0  0  0
  9 10  1  0  0  0  0
  9 11  1  0  0  0  0
  9 12  1  0  0  0  0
  7  8  1  0  0  0  0
  7  9  1  0  0  0  0
 16 17  1  0  0  0  0
 16 18  1  0  0  0  0
 16 19  1  0  0  0  0
 14 15  1  0  0  0  0
 14 16  1  0  0  0  0
M  END
$$$$
default_name
  -OEChem-01062215323D

 19 18  0     0  0  0  0  0  0999 V2000
   -2.2056   -4.0049    0.0000 H   0  0  0  0  0  0  0  0  0  0  0  0
   -2.2496   -2.9169    0.0000 C   0  0  0  0  0  0  0  0  0  0  0  0
   -2.7696   -2.5709    0.8910 H   0  0  0  0  0  0  0  0  0  0  0  0
   -2.7696   -2.5709   -0.8910 H   0  0  0  0  0  0  0  0  0  0  0  0
   -0.8406   -2.3699    0.0000 C   0  0  0  0  0  0  0  0  0  0  0  0
    0.1164   -3.1329    0.0000 O   0  0  0  0  0  0  0  0  0  0  0  0
   -0.7136   -1.0459    0.0000 N   0  0  0  0  0  0  0  0  0  0  0  0
   -1.5436   -0.4719    0.0000 H   0  0  0  0  0  0  0  0  0  0  0  0
    0.5724   -0.3469    0.0000 C   0  0  0  0  0  0  0  0  0  0  0  0
    0.4657    0.6013    0.5287 H   0  0  0  0  0  0  0  0  0  0  0  0
    1.3101   -0.9521    0.5287 H   0  0  0  0  0  0  0  0  0  0  0  0
    1.0879   -0.0667   -1.4145 C   0  0  0  0  0  0  0  0  0  0  0  0
    2.2641   -0.2812   -1.7009 O   0  0  0  0  0  0  0  0  0  0  0  0
    0.1972    0.4134   -2.2916 N   0  0  0  0  0  0  0  0  0  0  0  0
   -0.7457    0.5573   -1.9653 H   0  0  0  0  0  0  0  0  0  0  0  0
    0.4892    0.7448   -3.6876 C   0  0  0  0  0  0  0  0  0  0  0  0
    1.5384    0.5467   -3.9201 H   0  0  0  0  0  0  0  0  0  0  0  0
   -0.1334    0.1420   -4.3501 H   0  0  0  0  0  0  0  0  0  0  0  0
    0.2865    1.8012   -3.8684 H   0  0  0  0  0  0  0  0  0  0  0  0
  5  6  2  0  0  0  0
  5  7  1  0  0  0  0
  2  3  1  0  0  0  0
  2  4  1  0  0  0  0
  2  5  1  0  0  0  0
  1  2  1  0  0  0  0
 12 13  2  0  0  0  0
 12 14  1  0  0  0  0
  9 10  1  0  0  0  0
  9 11  1  0  0  0  0
  9 12  1  0  0  0  0
  7  8  1  0  0  0  0
  7  9  1  0  0  0  0
 16 17  1  0  0  0  0
 16 18  1  0  0  0  0
 16 19  1  0  0  0  0
 14 15  1  0  0  0  0
 14 16  1  0  0  0  0
M  END
$$$$
default_name
  -OEChem-01062215323D

 19 18  0     0  0  0  0  0  0999 V2000
   -2.2056   -4.0049    0.0000 H   0  0  0  0  0  0  0  0  0  0  0  0
   -2.2496   -2.9169    0.0000 C   0  0  0  0  0  0  0  0  0  0  0  0
   -2.7696   -2.5709    0.8910 H   0  0  0  0  0  0  0  0  0  0  0  0
   -2.7696   -2.5709   -0.8910 H   0  0  0  0  0  0  0  0  0  0  0  0
   -0.8406   -2.3699    0.0000 C   0  0  0  0  0  0  0  0  0  0  0  0
    0.1164   -3.1329    0.0000 O   0  0  0  0  0  0  0  0  0  0  0  0
   -0.7136   -1.0459    0.0000 N   0  0  0  0  0  0  0  0  0  0  0  0
   -1.5436   -0.4719    0.0000 H   0  0  0  0  0  0  0  0  0  0  0  0
    0.5724   -0.3469    0.0000 C   0  0  0  0  0  0  0  0  0  0  0  0
    0.4657    0.6013    0.5287 H   0  0  0  0  0  0  0  0  0  0  0  0
    1.3101   -0.9521    0.5287 H   0  0  0  0  0  0  0  0  0  0  0  0
    1.0879   -0.0667   -1.4145 C   0  0  0  0  0  0  0  0  0  0  0  0
    2.1663   -0.5263   -1.7851 O   0  0  0  0  0  0  0  0  0  0  0  0
    0.3076    0.6901   -2.1965 N   0  0  0  0  0  0  0  0  0  0  0  0
   -0.5601    1.0224   -1.8055 H   0  0  0  0  0  0  0  0  0  0  0  0
    0.6195    1.0710   -3.5756 C   0  0  0  0  0  0  0  0  0  0  0  0
    1.5806    0.6525   -3.8838 H   0  0  0  0  0  0  0  0  0  0  0  0
   -0.1541    0.6972   -4.2477 H   0  0  0  0  0  0  0  0  0  0  0  0
    0.6710    2.1575   -3.6577 H   0  0  0  0  0  0  0  0  0  0  0  0
  5  6  2  0  0  0  0
  5  7  1  0  0  0  0
  2  3  1  0  0  0  0
  2  4  1  0  0  0  0
  2  5  1  0  0  0  0
  1  2  1  0  0  0  0
 12 13  2  0  0  0  0
 12 14  1  0  0  0  0
  9 10  1  0  0  0  0
  9 11  1  0  0  0  0
  9 12  1  0  0  0  0
  7  8  1  0  0  0  0
  7  9  1  0  0  0  0
 16 17  1  0  0  0  0
 16 18  1  0  0  0  0
 16 19  1  0  0  0  0
 14 15  1  0  0  0  0
 14 16  1  0  0  0  0
M  END
$$$$
default_name
  -OEChem-01062215323D

 19 18  0     0  0  0  0  0  0999 V2000
   -2.2056   -4.0049    0.0000 H   0  0  0  0  0  0  0  0  0  0  0  0
   -2.2496   -2.9169    0.0000 C   0  0  0  0  0  0  0  0  0  0  0  0
   -2.7696   -2.5709    0.8910 H   0  0  0  0  0  0  0  0  0  0  0  0
   -2.7696   -2.5709   -0.8910 H   0  0  0  0  0  0  0  0  0  0  0  0
   -0.8406   -2.3699    0.0000 C   0  0  0  0  0  0  0  0  0  0  0  0
    0.1164   -3.1329    0.0000 O   0  0  0  0  0  0  0  0  0  0  0  0
   -0.7136   -1.0459    0.0000 N   0  0  0  0  0  0  0  0  0  0  0  0
   -1.5436   -0.4719    0.0000 H   0  0  0  0  0  0  0  0  0  0  0  0
    0.5724   -0.3469    0.0000 C   0  0  0  0  0  0  0  0  0  0  0  0
    0.4657    0.6013    0.5287 H   0  0  0  0  0  0  0  0  0  0  0  0
    1.3101   -0.9521    0.5287 H   0  0  0  0  0  0  0  0  0  0  0  0
    1.0879   -0.0667   -1.4145 C   0  0  0  0  0  0  0  0  0  0  0  0
    2.0092   -0.7322   -1.8831 O   0  0  0  0  0  0  0  0  0  0  0  0
    0.4849    0.9227   -2.0858 N   0  0  0  0  0  0  0  0  0  0  0  0
   -0.2620    1.4133   -1.6194 H   0  0  0  0  0  0  0  0  0  0  0  0
    0.8285    1.3453   -3.4450 C   0  0  0  0  0  0  0  0  0  0  0  0
    1.6484    0.7414   -3.8414 H   0  0  0  0  0  0  0  0  0  0  0  0
   -0.0365    1.2295   -4.0994 H   0  0  0  0  0  0  0  0  0  0  0  0
    1.1375    2.3914   -3.4413 H   0  0  0  0  0  0  0  0  0  0  0  0
  5  6  2  0  0  0  0
  5  7  1  0  0  0  0
  2  3  1  0  0  0  0
  2  4  1  0  0  0  0
  2  5  1  0  0  0  0
  1  2  1  0  0  0  0
 12 13  2  0  0  0  0
 12 14  1  0  0  0  0
  9 10  1  0  0  0  0
  9 11  1  0  0  0  0
  9 12  1  0  0  0  0
  7  8  1  0  0  0  0
  7  9  1  0  0  0  0
 16 17  1  0  0  0  0
 16 18  1  0  0  0  0
 16 19  1  0  0  0  0
 14 15  1  0  0  0  0
 14 16  1  0  0  0  0
M  END
$$$$
default_name
  -OEChem-01062215323D

 19 18  0     0  0  0  0  0  0999 V2000
   -2.2056   -4.0049    0.0000 H   0  0  0  0  0  0  0  0  0  0  0  0
   -2.2496   -2.9169    0.0000 C   0  0  0  0  0  0  0  0  0  0  0  0
   -2.7696   -2.5709    0.8910 H   0  0  0  0  0  0  0  0  0  0  0  0
   -2.7696   -2.5709   -0.8910 H   0  0  0  0  0  0  0  0  0  0  0  0
   -0.8406   -2.3699    0.0000 C   0  0  0  0  0  0  0  0  0  0  0  0
    0.1164   -3.1329    0.0000 O   0  0  0  0  0  0  0  0  0  0  0  0
   -0.7136   -1.0459    0.0000 N   0  0  0  0  0  0  0  0  0  0  0  0
   -1.5436   -0.4719    0.0000 H   0  0  0  0  0  0  0  0  0  0  0  0
    0.5724   -0.3469    0.0000 C   0  0  0  0  0  0  0  0  0  0  0  0
    0.4657    0.6013    0.5287 H   0  0  0  0  0  0  0  0  0  0  0  0
    1.3101   -0.9521    0.5287 H   0  0  0  0  0  0  0  0  0  0  0  0
    1.0879   -0.0667   -1.4145 C   0  0  0  0  0  0  0  0  0  0  0  0
    1.8037   -0.8851   -1.9884 O   0  0  0  0  0  0  0  0  0  0  0  0
    0.7171    1.0954   -1.9670 N   0  0  0  0  0  0  0  0  0  0  0  0
    0.1282    1.7035   -1.4197 H   0  0  0  0  0  0  0  0  0  0  0  0
    1.1023    1.5489   -3.3049 C   0  0  0  0  0  0  0  0  0  0  0  0
    1.7371    0.8074   -3.7960 H   0  0  0  0  0  0  0  0  0  0  0  0
    0.2114    1.7027   -3.9153 H   0  0  0  0  0  0  0  0  0  0  0  0
    1.6543    2.4870   -3.2341 H   0  0  0  0  0  0  0  0  0  0  0  0
  5  6  2  0  0  0  0
  5  7  1  0  0  0  0
  2  3  1  0  0  0  0
  2  4  1  0  0  0  0
  2  5  1  0  0  0  0
  1  2  1  0  0  0  0
 12 13  2  0  0  0  0
 12 14  1  0  0  0  0
  9 10  1  0  0  0  0
  9 11  1  0  0  0  0
  9 12  1  0  0  0  0
  7  8  1  0  0  0  0
  7  9  1  0  0  0  0
 16 17  1  0  0  0  0
 16 18  1  0  0  0  0
 16 19  1  0  0  0  0
 14 15  1  0  0  0  0
 14 16  1  0  0  0  0
M  END
$$$$
default_name
  -OEChem-01062215323D

 19 18  0     0  0  0  0  0  0999 V2000
   -2.2056   -4.0049    0.0000 H   0  0  0  0  0  0  0  0  0  0  0  0
   -2.2496   -2.9169    0.0000 C   0  0  0  0  0  0  0  0  0  0  0  0
   -2.7696   -2.5709    0.8910 H   0  0  0  0  0  0  0  0  0  0  0  0
   -2.7696   -2.5709   -0.8910 H   0  0  0  0  0  0  0  0  0  0  0  0
   -0.8406   -2.3699    0.0000 C   0  0  0  0  0  0  0  0  0  0  0  0
    0.1164   -3.1329    0.0000 O   0  0  0  0  0  0  0  0  0  0  0  0
   -0.7136   -1.0459    0.0000 N   0  0  0  0  0  0  0  0  0  0  0  0
   -1.5436   -0.4719    0.0000 H   0  0  0  0  0  0  0  0  0  0  0  0
    0.5724   -0.3469    0.0000 C   0  0  0  0  0  0  0  0  0  0  0  0
    0.4657    0.6013    0.5287 H   0  0  0  0  0  0  0  0  0  0  0  0
    1.3101   -0.9521    0.5287 H   0  0  0  0  0  0  0  0  0  0  0  0
    1.0879   -0.0667   -1.4145 C   0  0  0  0  0  0  0  0  0  0  0  0
    1.5636   -0.9745   -2.0936 O   0  0  0  0  0  0  0  0  0  0  0  0
    0.9882    1.1963   -1.8482 N   0  0  0  0  0  0  0  0  0  0  0  0
    0.5839    1.8731   -1.2201 H   0  0  0  0  0  0  0  0  0  0  0  0
    1.4220    1.6679   -3.1649 C   0  0  0  0  0  0  0  0  0  0  0  0
    1.8408    0.8459   -3.7506 H   0  0  0  0  0  0  0  0  0  0  0  0
    0.5727    2.0844   -3.7080 H   0  0  0  0  0  0  0  0  0  0  0  0
    2.1862    2.4377   -3.0500 H   0  0  0  0  0  0  0  0  0  0  0  0
  5  6  2  0  0  0  0
  5  7  1  0  0  0  0
  2  3  1  0  0  0  0
  2  4  1  0  0  0  0
  2  5  1  0  0  0  0
  1  2  1  0  0  0  0
 12 13  2  0  0  0  0
 12 14  1  0  0  0  0
  9 10  1  0  0  0  0
  9 11  1  0  0  0  0
  9 12  1  0  0  0  0
  7  8  1  0  0  0  0
  7  9  1  0  0  0  0
 16 17  1  0  0  0  0
 16 18  1  0  0  0  0
 16 19  1  0  0  0  0
 14 15  1  0  0  0  0
 14 16  1  0  0  0  0
M  END
$$$$
default_name
  -OEChem-01062215323D

 19 18  0     0  0  0  0  0  0999 V2000
   -2.2056   -4.0049    0.0000 H   0  0  0  0  0  0  0  0  0  0  0  0
   -2.2496   -2.9169    0.0000 C   0  0  0  0  0  0  0  0  0  0  0  0
   -2.7696   -2.5709    0.8910 H   0  0  0  0  0  0  0  0  0  0  0  0
   -2.7696   -2.5709   -0.8910 H   0  0  0  0  0  0  0  0  0  0  0  0
   -0.8406   -2.3699    0.0000 C   0  0  0  0  0  0  0  0  0  0  0  0
    0.1164   -3.1329    0.0000 O   0  0  0  0  0  0  0  0  0  0  0  0
   -0.7136   -1.0459    0.0000 N   0  0  0  0  0  0  0  0  0  0  0  0
   -1.5436   -0.4719    0.0000 H   0  0  0  0  0  0  0  0  0  0  0  0
    0.5724   -0.3469    0.0000 C   0  0  0  0  0  0  0  0  0  0  0  0
    0.4657    0.6013    0.5287 H   0  0  0  0  0  0  0  0  0  0  0  0
    1.3101   -0.9521    0.5287 H   0  0  0  0  0  0  0  0  0  0  0  0
    1.0879   -0.0667   -1.4145 C   0  0  0  0  0  0  0  0  0  0  0  0
    1.3053   -0.9942   -2.1916 O   0  0  0  0  0  0  0  0  0  0  0  0
    1.2799    1.2186   -1.7375 N   0  0  0  0  0  0  0  0  0  0  0  0
    1.0741    1.9106   -1.0340 H   0  0  0  0  0  0  0  0  0  0  0  0
    1.7658    1.6941   -3.0343 C   0  0  0  0  0  0  0  0  0  0  0  0
    1.9522    0.8545   -3.7083 H   0  0  0  0  0  0  0  0  0  0  0  0
    1.0227    2.3487   -3.4917 H   0  0  0  0  0  0  0  0  0  0  0  0
    2.6968    2.2468   -2.9017 H   0  0  0  0  0  0  0  0  0  0  0  0
  5  6  2  0  0  0  0
  5  7  1  0  0  0  0
  2  3  1  0  0  0  0
  2  4  1  0  0  0  0
  2  5  1  0  0  0  0
  1  2  1  0  0  0  0
 12 13  2  0  0  0  0
 12 14  1  0  0  0  0
  9 10  1  0  0  0  0
  9 11  1  0  0  0  0
  9 12  1  0  0  0  0
  7  8  1  0  0  0  0
  7  9  1  0  0  0  0
 16 17  1  0  0  0  0
 16 18  1  0  0  0  0
 16 19  1  0  0  0  0
 14 15  1  0  0  0  0
 14 16  1  0  0  0  0
M  END
$$$$
default_name
  -OEChem-01062215323D

 19 18  0     0  0  0  0  0  0999 V2000
   -2.2056   -4.0049    0.0000 H   0  0  0  0  0  0  0  0  0  0  0  0
   -2.2496   -2.9169    0.0000 C   0  0  0  0  0  0  0  0  0  0  0  0
   -2.7696   -2.5709    0.8910 H   0  0  0  0  0  0  0  0  0  0  0  0
   -2.7696   -2.5709   -0.8910 H   0  0  0  0  0  0  0  0  0  0  0  0
   -0.8406   -2.3699    0.0000 C   0  0  0  0  0  0  0  0  0  0  0  0
    0.1164   -3.1329    0.0000 O   0  0  0  0  0  0  0  0  0  0  0  0
   -0.7136   -1.0459    0.0000 N   0  0  0  0  0  0  0  0  0  0  0  0
   -1.5436   -0.4719    0.0000 H   0  0  0  0  0  0  0  0  0  0  0  0
    0.5724   -0.3469    0.0000 C   0  0  0  0  0  0  0  0  0  0  0  0
    0.4657    0.6013    0.5287 H   0  0  0  0  0  0  0  0  0  0  0  0
    1.3101   -0.9521    0.5287 H   0  0  0  0  0  0  0  0  0  0  0  0
    1.0879   -0.0667   -1.4145 C   0  0  0  0  0  0  0  0  0  0  0  0
    1.0465   -0.9430   -2.2758 O   0  0  0  0  0  0  0  0  0  0  0  0
    1.5722    1.1607   -1.6424 N   0  0  0  0  0  0  0  0  0  0  0  0
    1.5653    1.8134   -0.8742 H   0  0  0  0  0  0  0  0  0  0  0  0
    2.1104    1.6260   -2.9222 C   0  0  0  0  0  0  0  0  0  0  0  0
    2.0640    0.8324   -3.6720 H   0  0  0  0  0  0  0  0  0  0  0  0
    1.5308    2.4775   -3.2810 H   0  0  0  0  0  0  0  0  0  0  0  0
    3.1515    1.9275   -2.7993 H   0  0  0  0  0  0  0  0  0  0  0  0
  5  6  2  0  0  0  0
  5  7  1  0  0  0  0
  2  3  1  0  0  0  0
  2  4  1  0  0  0  0
  2  5  1  0  0  0  0
  1  2  1  0  0  0  0
 12 13  2  0  0  0  0
 12 14  1  0  0  0  0
  9 10  1  0  0  0  0
  9 11  1  0  0  0  0
  9 12  1  0  0  0  0
  7  8  1  0  0  0  0
  7  9  1  0  0  0  0
 16 17  1  0  0  0  0
 16 18  1  0  0  0  0
 16 19  1  0  0  0  0
 14 15  1  0  0  0  0
 14 16  1  0  0  0  0
M  END
$$$$
default_name
  -OEChem-01062215323D

 19 18  0     0  0  0  0  0  0999 V2000
   -2.2056   -4.0049    0.0000 H   0  0  0  0  0  0  0  0  0  0  0  0
   -2.2496   -2.9169    0.0000 C   0  0  0  0  0  0  0  0  0  0  0  0
   -2.7696   -2.5709    0.8910 H   0  0  0  0  0  0  0  0  0  0  0  0
   -2.7696   -2.5709   -0.8910 H   0  0  0  0  0  0  0  0  0  0  0  0
   -0.8406   -2.3699    0.0000 C   0  0  0  0  0  0  0  0  0  0  0  0
    0.1164   -3.1329    0.0000 O   0  0  0  0  0  0  0  0  0  0  0  0
   -0.7136   -1.0459    0.0000 N   0  0  0  0  0  0  0  0  0  0  0  0
   -1.5436   -0.4719    0.0000 H   0  0  0  0  0  0  0  0  0  0  0  0
    0.5724   -0.3469    0.0000 C   0  0  0  0  0  0  0  0  0  0  0  0
    0.4657    0.6013    0.5287 H   0  0  0  0  0  0  0  0  0  0  0  0
    1.3101   -0.9521    0.5287 H   0  0  0  0  0  0  0  0  0  0  0  0
    1.0879   -0.0667   -1.4145 C   0  0  0  0  0  0  0  0  0  0  0  0
    0.8047   -0.8244   -2.3404 O   0  0  0  0  0  0  0  0  0  0  0  0
    1.8452    1.0267   -1.5694 N   0  0  0  0  0  0  0  0  0  0  0  0
    2.0242    1.5882   -0.7516 H   0  0  0  0  0  0  0  0  0  0  0  0
    2.4323    1.4680   -2.8362 C   0  0  0  0  0  0  0  0  0  0  0  0
    2.1683    0.7811   -3.6441 H   0  0  0  0  0  0  0  0  0  0  0  0
    2.0624    2.4622   -3.0903 H   0  0  0  0  0  0  0  0  0  0  0  0
    3.5192    1.5014   -2.7497 H   0  0  0  0  0  0  0  0  0  0  0  0
  5  6  2  0  0  0  0
  5  7  1  0  0  0  0
  2  3  1  0  0  0  0
  2  4  1  0  0  0  0
  2  5  1  0  0  0  0
  1  2  1  0  0  0  0
 12 13  2  0  0  0  0
 12 14  1  0  0  0  0
  9 10  1  0  0  0  0
  9 11  1  0  0  0  0
  9 12  1  0  0  0  0
  7  8  1  0  0  0  0
  7  9  1  0  0  0  0
 16 17  1  0  0  0  0
 16 18  1  0  0  0  0
 16 19  1  0  0  0  0
 14 15  1  0  0  0  0
 14 16  1  0  0  0  0
M  END
$$$$
default_name
  -OEChem-01062215323D

 19 18  0     0  0  0  0  0  0999 V2000
   -2.2056   -4.0049    0.0000 H   0  0  0  0  0  0  0  0  0  0  0  0
   -2.2496   -2.9169    0.0000 C   0  0  0  0  0  0  0  0  0  0  0  0
   -2.7696   -2.5709    0.8910 H   0  0  0  0  0  0  0  0  0  0  0  0
   -2.7696   -2.5709   -0.8910 H   0  0  0  0  0  0  0  0  0  0  0  0
   -0.8406   -2.3699    0.0000 C   0  0  0  0  0  0  0  0  0  0  0  0
    0.1164   -3.1329    0.0000 O   0  0  0  0  0  0  0  0  0  0  0  0
   -0.7136   -1.0459    0.0000 N   0  0  0  0  0  0  0  0  0  0  0  0
   -1.5436   -0.4719    0.0000 H   0  0  0  0  0  0  0  0  0  0  0  0
    0.5724   -0.3469    0.0000 C   0  0  0  0  0  0  0  0  0  0  0  0
    0.4657    0.6013    0.5287 H   0  0  0  0  0  0  0  0  0  0  0  0
    1.3101   -0.9521    0.5287 H   0  0  0  0  0  0  0  0  0  0  0  0
    1.0879   -0.0667   -1.4145 C   0  0  0  0  0  0  0  0  0  0  0  0
    0.5965   -0.6463   -2.3810 O   0  0  0  0  0  0  0  0  0  0  0  0
    2.0803    0.8257   -1.5236 N   0  0  0  0  0  0  0  0  0  0  0  0
    2.4194    1.2502   -0.6745 H   0  0  0  0  0  0  0  0  0  0  0  0
    2.7096    1.2309   -2.7822 C   0  0  0  0  0  0  0  0  0  0  0  0
    2.2582    0.7043   -3.6266 H   0  0  0  0  0  0  0  0  0  0  0  0
    2.5812    2.3036   -2.9326 H   0  0  0  0  0  0  0  0  0  0  0  0
    3.7748    0.9977   -2.7563 H   0  0  0  0  0  0  0  0  0  0  0  0
  5  6  2  0  0  0  0
  5  7  1  0  0  0  0
  2  3  1  0  0  0  0
  2  4  1  0  0  0  0
  2  5  1  0  0  0  0
  1  2  1  0  0  0  0
 12 13  2  0  0  0  0
 12 14  1  0  0  0  0
  9 10  1  0  0  0  0
  9 11  1  0  0  0  0
  9 12  1  0  0  0  0
  7  8  1  0  0  0  0
  7  9  1  0  0  0  0
 16 17  1  0  0  0  0
 16 18  1  0  0  0  0
 16 19  1  0  0  0  0
 14 15  1  0  0  0  0
 14 16  1  0  0  0  0
M  END
$$$$
default_name
  -OEChem-01062215323D

 19 18  0     0  0  0  0  0  0999 V2000
   -2.2056   -4.0049    0.0000 H   0  0  0  0  0  0  0  0  0  0  0  0
   -2.2496   -2.9169    0.0000 C   0  0  0  0  0  0  0  0  0  0  0  0
   -2.7696   -2.5709    0.8910 H   0  0  0  0  0  0  0  0  0  0  0  0
   -2.7696   -2.5709   -0.8910 H   0  0  0  0  0  0  0  0  0  0  0  0
   -0.8406   -2.3699    0.0000 C   0  0  0  0  0  0  0  0  0  0  0  0
    0.1164   -3.1329    0.0000 O   0  0  0  0  0  0  0  0  0  0  0  0
   -0.7136   -1.0459    0.0000 N   0  0  0  0  0  0  0  0  0  0  0  0
   -1.5436   -0.4719    0.0000 H   0  0  0  0  0  0  0  0  0  0  0  0
    0.5724   -0.3469    0.0000 C   0  0  0  0  0  0  0  0  0  0  0  0
    0.5455    0.4546    0.7395 H   0  0  0  0  0  0  0  0  0  0  0  0
    1.3610   -1.0458    0.2819 H   0  0  0  0  0  0  0  0  0  0  0  0
    0.9130    0.2550   -1.3663 C   0  0  0  0  0  0  0  0  0  0  0  0
    0.1400    0.1236   -2.3132 O   0  0  0  0  0  0  0  0  0  0  0  0
    2.0751    0.9141   -1.4566 N   0  0  0  0  0  0  0  0  0  0  0  0
    2.6438    0.9700   -0.6261 H   0  0  0  0  0  0  0  0  0  0  0  0
    2.5816    1.5594   -2.6696 C   0  0  0  0  0  0  0  0  0  0  0  0
    1.8799    1.4304   -3.4972 H   0  0  0  0  0  0  0  0  0  0  0  0
    2.7180    2.6270   -2.4926 H   0  0  0  0  0  0  0  0  0  0  0  0
    3.5381    1.1181   -2.9527 H   0  0  0  0  0  0  0  0  0  0  0  0
  5  6  2  0  0  0  0
  5  7  1  0  0  0  0
  2  3  1  0  0  0  0
  2  4  1  0  0  0  0
  2  5  1  0  0  0  0
  1  2  1  0  0  0  0
 12 13  2  0  0  0  0
 12 14  1  0  0  0  0
  9 10  1  0  0  0  0
  9 11  1  0  0  0  0
  9 12  1  0  0  0  0
  7  8  1  0  0  0  0
  7  9  1  0  0  0  0
 16 17  1  0  0  0  0
 16 18  1  0  0  0  0
 16 19  1  0  0  0  0
 14 15  1  0  0  0  0
 14 16  1  0  0  0  0
M  END
$$$$
default_name
  -OEChem-01062215323D

 19 18  0     0  0  0  0  0  0999 V2000
   -2.2056   -4.0049    0.0000 H   0  0  0  0  0  0  0  0  0  0  0  0
   -2.2496   -2.9169    0.0000 C   0  0  0  0  0  0  0  0  0  0  0  0
   -2.7696   -2.5709    0.8910 H   0  0  0  0  0  0  0  0  0  0  0  0
   -2.7696   -2.5709   -0.8910 H   0  0  0  0  0  0  0  0  0  0  0  0
   -0.8406   -2.3699    0.0000 C   0  0  0  0  0  0  0  0  0  0  0  0
    0.1164   -3.1329    0.0000 O   0  0  0  0  0  0  0  0  0  0  0  0
   -0.7136   -1.0459    0.0000 N   0  0  0  0  0  0  0  0  0  0  0  0
   -1.5436   -0.4719    0.0000 H   0  0  0  0  0  0  0  0  0  0  0  0
    0.5724   -0.3469    0.0000 C   0  0  0  0  0  0  0  0  0  0  0  0
    0.5455    0.4546    0.7395 H   0  0  0  0  0  0  0  0  0  0  0  0
    1.3610   -1.0458    0.2819 H   0  0  0  0  0  0  0  0  0  0  0  0
    0.9130    0.2550   -1.3663 C   0  0  0  0  0  0  0  0  0  0  0  0
    0.0444    0.3694   -2.2288 O   0  0  0  0  0  0  0  0  0  0  0  0
    2.1831    0.6365   -1.5519 N   0  0  0  0  0  0  0  0  0  0  0  0
    2.8253    0.5034   -0.7864 H   0  0  0  0  0  0  0  0  0  0  0  0
    2.7089    1.2321   -2.7820 C   0  0  0  0  0  0  0  0  0  0  0  0
    1.9212    1.3243   -3.5337 H   0  0  0  0  0  0  0  0  0  0  0  0
    3.1074    2.2256   -2.5723 H   0  0  0  0  0  0  0  0  0  0  0  0
    3.5044    0.6052   -3.1871 H   0  0  0  0  0  0  0  0  0  0  0  0
  5  6  2  0  0  0  0
  5  7  1  0  0  0  0
  2  3  1  0  0  0  0
  2  4  1  0  0  0  0
  2  5  1  0  0  0  0
  1  2  1  0  0  0  0
 12 13  2  0  0  0  0
 12 14  1  0  0  0  0
  9 10  1  0  0  0  0
  9 11  1  0  0  0  0
  9 12  1  0  0  0  0
  7  8  1  0  0  0  0
  7  9  1  0  0  0  0
 16 17  1  0  0  0  0
 16 18  1  0  0  0  0
 16 19  1  0  0  0  0
 14 15  1  0  0  0  0
 14 16  1  0  0  0  0
M  END
$$$$
default_name
  -OEChem-01062215323D

 19 18  0     0  0  0  0  0  0999 V2000
   -2.2056   -4.0049    0.0000 H   0  0  0  0  0  0  0  0  0  0  0  0
   -2.2496   -2.9169    0.0000 C   0  0  0  0  0  0  0  0  0  0  0  0
   -2.7696   -2.5709    0.8910 H   0  0  0  0  0  0  0  0  0  0  0  0
   -2.7696   -2.5709   -0.8910 H   0  0  0  0  0  0  0  0  0  0  0  0
   -0.8406   -2.3699    0.0000 C   0  0  0  0  0  0  0  0  0  0  0  0
    0.1164   -3.1329    0.0000 O   0  0  0  0  0  0  0  0  0  0  0  0
   -0.7136   -1.0459    0.0000 N   0  0  0  0  0  0  0  0  0  0  0  0
   -1.5436   -0.4719    0.0000 H   0  0  0  0  0  0  0  0  0  0  0  0
    0.5724   -0.3469    0.0000 C   0  0  0  0  0  0  0  0  0  0  0  0
    0.5455    0.4546    0.7395 H   0  0  0  0  0  0  0  0  0  0  0  0
    1.3610   -1.0458    0.2819 H   0  0  0  0  0  0  0  0  0  0  0  0
    0.9130    0.2550   -1.3663 C   0  0  0  0  0  0  0  0  0  0  0  0
    0.0174    0.6241   -2.1233 O   0  0  0  0  0  0  0  0  0  0  0  0
    2.2136    0.3489   -1.6710 N   0  0  0  0  0  0  0  0  0  0  0  0
    2.8765    0.0200   -0.9866 H   0  0  0  0  0  0  0  0  0  0  0  0
    2.7449    0.8930   -2.9224 C   0  0  0  0  0  0  0  0  0  0  0  0
    1.9328    1.2144   -3.5792 H   0  0  0  0  0  0  0  0  0  0  0  0
    3.3827    1.7525   -2.7121 H   0  0  0  0  0  0  0  0  0  0  0  0
    3.3295    0.1310   -3.4396 H   0  0  0  0  0  0  0  0  0  0  0  0
  5  6  2  0  0  0  0
  5  7  1  0  0  0  0
  2  3  1  0  0  0  0
  2  4  1  0  0  0  0
  2  5  1  0  0  0  0
  1  2  1  0  0  0  0
 12 13  2  0  0  0  0
 12 14  1  0  0  0  0
  9 10  1  0  0  0  0
  9 11  1  0  0  0  0
  9 12  1  0  0  0  0
  7  8  1  0  0  0  0
  7  9  1  0  0  0  0
 16 17  1  0  0  0  0
 16 18  1  0  0  0  0
 16 19  1  0  0  0  0
 14 15  1  0  0  0  0
 14 16  1  0  0  0  0
M  END
$$$$
default_name
  -OEChem-01062215323D

 19 18  0     0  0  0  0  0  0999 V2000
   -2.2056   -4.0049    0.0000 H   0  0  0  0  0  0  0  0  0  0  0  0
   -2.2496   -2.9169    0.0000 C   0  0  0  0  0  0  0  0  0  0  0  0
   -2.7696   -2.5709    0.8910 H   0  0  0  0  0  0  0  0  0  0  0  0
   -2.7696   -2.5709   -0.8910 H   0  0  0  0  0  0  0  0  0  0  0  0
   -0.8406   -2.3699    0.0000 C   0  0  0  0  0  0  0  0  0  0  0  0
    0.1164   -3.1329    0.0000 O   0  0  0  0  0  0  0  0  0  0  0  0
   -0.7136   -1.0459    0.0000 N   0  0  0  0  0  0  0  0  0  0  0  0
   -1.5436   -0.4719    0.0000 H   0  0  0  0  0  0  0  0  0  0  0  0
    0.5724   -0.3469    0.0000 C   0  0  0  0  0  0  0  0  0  0  0  0
    0.5455    0.4546    0.7395 H   0  0  0  0  0  0  0  0  0  0  0  0
    1.3610   -1.0458    0.2819 H   0  0  0  0  0  0  0  0  0  0  0  0
    0.9130    0.2550   -1.3663 C   0  0  0  0  0  0  0  0  0  0  0  0
    0.0609    0.8702   -2.0041 O   0  0  0  0  0  0  0  0  0  0  0  0
    2.1645    0.0710   -1.8057 N   0  0  0  0  0  0  0  0  0  0  0  0
    2.7940   -0.4471   -1.2129 H   0  0  0  0  0  0  0  0  0  0  0  0
    2.6870    0.5652   -3.0812 C   0  0  0  0  0  0  0  0  0  0  0  0
    1.9141    1.1081   -3.6307 H   0  0  0  0  0  0  0  0  0  0  0  0
    3.5252    1.2399   -2.9023 H   0  0  0  0  0  0  0  0  0  0  0  0
    3.0253   -0.2721   -3.6930 H   0  0  0  0  0  0  0  0  0  0  0  0
  5  6  2  0  0  0  0
  5  7  1  0  0  0  0
  2  3  1  0  0  0  0
  2  4  1  0  0  0  0
  2  5  1  0  0  0  0
  1  2  1  0  0  0  0
 12 13  2  0  0  0  0
 12 14  1  0  0  0  0
  9 10  1  0  0  0  0
  9 11  1  0  0  0  0
  9 12  1  0  0  0  0
  7  8  1  0  0  0  0
  7  9  1  0  0  0  0
 16 17  1  0  0  0  0
 16 18  1  0  0  0  0
 16 19  1  0  0  0  0
 14 15  1  0  0  0  0
 14 16  1  0  0  0  0
M  END
$$$$
default_name
  -OEChem-01062215323D

 19 18  0     0  0  0  0  0  0999 V2000
   -2.2056   -4.0049    0.0000 H   0  0  0  0  0  0  0  0  0  0  0  0
   -2.2496   -2.9169    0.0000 C   0  0  0  0  0  0  0  0  0  0  0  0
   -2.7696   -2.5709    0.8910 H   0  0  0  0  0  0  0  0  0  0  0  0
   -2.7696   -2.5709   -0.8910 H   0  0  0  0  0  0  0  0  0  0  0  0
   -0.8406   -2.3699    0.0000 C   0  0  0  0  0  0  0  0  0  0  0  0
    0.1164   -3.1329    0.0000 O   0  0  0  0  0  0  0  0  0  0  0  0
   -0.7136   -1.0459    0.0000 N   0  0  0  0  0  0  0  0  0  0  0  0
   -1.5436   -0.4719    0.0000 H   0  0  0  0  0  0  0  0  0  0  0  0
    0.5724   -0.3469    0.0000 C   0  0  0  0  0  0  0  0  0  0  0  0
    0.5455    0.4546    0.7395 H   0  0  0  0  0  0  0  0  0  0  0  0
    1.3610   -1.0458    0.2819 H   0  0  0  0  0  0  0  0  0  0  0  0
    0.9130    0.2550   -1.3663 C   0  0  0  0  0  0  0  0  0  0  0  0
    0.1718    1.0911   -1.8791 O   0  0  0  0  0  0  0  0  0  0  0  0
    2.0392   -0.1784   -1.9468 N   0  0  0  0  0  0  0  0  0  0  0  0
    2.5835   -0.8663   -1.4501 H   0  0  0  0  0  0  0  0  0  0  0  0
    2.5393    0.2712   -3.2476 C   0  0  0  0  0  0  0  0  0  0  0  0
    1.8662    1.0128   -3.6846 H   0  0  0  0  0  0  0  0  0  0  0  0
    3.5252    0.7229   -3.1301 H   0  0  0  0  0  0  0  0  0  0  0  0
    2.6127   -0.5766   -3.9300 H   0  0  0  0  0  0  0  0  0  0  0  0
  5  6  2  0  0  0  0
  5  7  1  0  0  0  0
  2  3  1  0  0  0  0
  2  4  1  0  0  0  0
  2  5  1  0  0  0  0
  1  2  1  0  0  0  0
 12 13  2  0  0  0  0
 12 14  1  0  0  0  0
  9 10  1  0  0  0  0
  9 11  1  0  0  0  0
  9 12  1  0  0  0  0
  7  8  1  0  0  0  0
  7  9  1  0  0  0  0
 16 17  1  0  0  0  0
 16 18  1  0  0  0  0
 16 19  1  0  0  0  0
 14 15  1  0  0  0  0
 14 16  1  0  0  0  0
M  END
$$$$
default_name
  -OEChem-01062215323D

 19 18  0     0  0  0  0  0  0999 V2000
   -2.2056   -4.0049    0.0000 H   0  0  0  0  0  0  0  0  0  0  0  0
   -2.2496   -2.9169    0.0000 C   0  0  0  0  0  0  0  0  0  0  0  0
   -2.7696   -2.5709    0.8910 H   0  0  0  0  0  0  0  0  0  0  0  0
   -2.7696   -2.5709   -0.8910 H   0  0  0  0  0  0  0  0  0  0  0  0
   -0.8406   -2.3699    0.0000 C   0  0  0  0  0  0  0  0  0  0  0  0
    0.1164   -3.1329    0.0000 O   0  0  0  0  0  0  0  0  0  0  0  0
   -0.7136   -1.0459    0.0000 N   0  0  0  0  0  0  0  0  0  0  0  0
   -1.5436   -0.4719    0.0000 H   0  0  0  0  0  0  0  0  0  0  0  0
    0.5724   -0.3469    0.0000 C   0  0  0  0  0  0  0  0  0  0  0  0
    0.5455    0.4546    0.7395 H   0  0  0  0  0  0  0  0  0  0  0  0
    1.3610   -1.0458    0.2819 H   0  0  0  0  0  0  0  0  0  0  0  0
    0.9130    0.2550   -1.3663 C   0  0  0  0  0  0  0  0  0  0  0  0
    0.3427    1.2716   -1.7570 O   0  0  0  0  0  0  0  0  0  0  0  0
    1.8462   -0.3823   -2.0847 N   0  0  0  0  0  0  0  0  0  0  0  0
    2.2591   -1.2090   -1.6819 H   0  0  0  0  0  0  0  0  0  0  0  0
    2.3118    0.0308   -3.4102 C   0  0  0  0  0  0  0  0  0  0  0  0
    1.7924    0.9349   -3.7373 H   0  0  0  0  0  0  0  0  0  0  0  0
    3.3825    0.2366   -3.3798 H   0  0  0  0  0  0  0  0  0  0  0  0
    2.1197   -0.7618   -4.1345 H   0  0  0  0  0  0  0  0  0  0  0  0
  5  6  2  0  0  0  0
  5  7  1  0  0  0  0
  2  3  1  0  0  0  0
  2  4  1  0  0  0  0
  2  5  1  0  0  0  0
  1  2  1  0  0  0  0
 12 13  2  0  0  0  0
 12 14  1  0  0  0  0
  9 10  1  0  0  0  0
  9 11  1  0  0  0  0
  9 12  1  0  0  0  0
  7  8  1  0  0  0  0
  7  9  1  0  0  0  0
 16 17  1  0  0  0  0
 16 18  1  0  0  0  0
 16 19  1  0  0  0  0
 14 15  1  0  0  0  0
 14 16  1  0  0  0  0
M  END
$$$$
default_name
  -OEChem-01062215323D

 19 18  0     0  0  0  0  0  0999 V2000
   -2.2056   -4.0049    0.0000 H   0  0  0  0  0  0  0  0  0  0  0  0
   -2.2496   -2.9169    0.0000 C   0  0  0  0  0  0  0  0  0  0  0  0
   -2.7696   -2.5709    0.8910 H   0  0  0  0  0  0  0  0  0  0  0  0
   -2.7696   -2.5709   -0.8910 H   0  0  0  0  0  0  0  0  0  0  0  0
   -0.8406   -2.3699    0.0000 C   0  0  0  0  0  0  0  0  0  0  0  0
    0.1164   -3.1329    0.0000 O   0  0  0  0  0  0  0  0  0  0  0  0
   -0.7136   -1.0459    0.0000 N   0  0  0  0  0  0  0  0  0  0  0  0
   -1.5436   -0.4719    0.0000 H   0  0  0  0  0  0  0  0  0  0  0  0
    0.5724   -0.3469    0.0000 C   0  0  0  0  0  0  0  0  0  0  0  0
    0.5455    0.4546    0.7395 H   0  0  0  0  0  0  0  0  0  0  0  0
    1.3610   -1.0458    0.2819 H   0  0  0  0  0  0  0  0  0  0  0  0
    0.9130    0.2550   -1.3663 C   0  0  0  0  0  0  0  0  0  0  0  0
    0.5619    1.3995   -1.6460 O   0  0  0  0  0  0  0  0  0  0  0  0
    1.5987   -0.5267   -2.2100 N   0  0  0  0  0  0  0  0  0  0  0  0
    1.8432   -1.4517   -1.8925 H   0  0  0  0  0  0  0  0  0  0  0  0
    2.0199   -0.1395   -3.5579 C   0  0  0  0  0  0  0  0  0  0  0  0
    1.6978    0.8797   -3.7852 H   0  0  0  0  0  0  0  0  0  0  0  0
    3.1071   -0.1857   -3.6346 H   0  0  0  0  0  0  0  0  0  0  0  0
    1.5799   -0.8151   -4.2926 H   0  0  0  0  0  0  0  0  0  0  0  0
  5  6  2  0  0  0  0
  5  7  1  0  0  0  0
  2  3  1  0  0  0  0
  2  4  1  0  0  0  0
  2  5  1  0  0  0  0
  1  2  1  0  0  0  0
 12 13  2  0  0  0  0
 12 14  1  0  0  0  0
  9 10  1  0  0  0  0
  9 11  1  0  0  0  0
  9 12  1  0  0  0  0
  7  8  1  0  0  0  0
  7  9  1  0  0  0  0
 16 17  1  0  0  0  0
 16 18  1  0  0  0  0
 16 19  1  0  0  0  0
 14 15  1  0  0  0  0
 14 16  1  0  0  0  0
M  END
$$$$
default_name
  -OEChem-01062215323D

 19 18  0     0  0  0  0  0  0999 V2000
   -2.2056   -4.0049    0.0000 H   0  0  0  0  0  0  0  0  0  0  0  0
   -2.2496   -2.9169    0.0000 C   0  0  0  0  0  0  0  0  0  0  0  0
   -2.7696   -2.5709    0.8910 H   0  0  0  0  0  0  0  0  0  0  0  0
   -2.7696   -2.5709   -0.8910 H   0  0  0  0  0  0  0  0  0  0  0  0
   -0.8406   -2.3699    0.0000 C   0  0  0  0  0  0  0  0  0  0  0  0
    0.1164   -3.1329    0.0000 O   0  0  0  0  0  0  0  0  0  0  0  0
   -0.7136   -1.0459    0.0000 N   0  0  0  0  0  0  0  0  0  0  0  0
   -1.5436   -0.4719    0.0000 H   0  0  0  0  0  0  0  0  0  0  0  0
    0.5724   -0.3469    0.0000 C   0  0  0  0  0  0  0  0  0  0  0  0
    0.5455    0.4546    0.7395 H   0  0  0  0  0  0  0  0  0  0  0  0
    1.3610   -1.0458    0.2819 H   0  0  0  0  0  0  0  0  0  0  0  0
    0.9130    0.2550   -1.3663 C   0  0  0  0  0  0  0  0  0  0  0  0
    0.8144    1.4660   -1.5538 O   0  0  0  0  0  0  0  0  0  0  0  0
    1.3136   -0.6018   -2.3142 N   0  0  0  0  0  0  0  0  0  0  0  0
    1.3639   -1.5779   -2.0676 H   0  0  0  0  0  0  0  0  0  0  0  0
    1.6837   -0.2280   -3.6808 C   0  0  0  0  0  0  0  0  0  0  0  0
    1.5889    0.8510   -3.8250 H   0  0  0  0  0  0  0  0  0  0  0  0
    2.7175   -0.5154   -3.8769 H   0  0  0  0  0  0  0  0  0  0  0  0
    1.0302   -0.7328   -4.3934 H   0  0  0  0  0  0  0  0  0  0  0  0
  5  6  2  0  0  0  0
  5  7  1  0  0  0  0
  2  3  1  0  0  0  0
  2  4  1  0  0  0  0
  2  5  1  0  0  0  0
  1  2  1  0  0  0  0
 12 13  2  0  0  0  0
 12 14  1  0  0  0  0
  9 10  1  0  0  0  0
  9 11  1  0  0  0  0
  9 12  1  0  0  0  0
  7  8  1  0  0  0  0
  7  9  1  0  0  0  0
 16 17  1  0  0  0  0
 16 18  1  0  0  0  0
 16 19  1  0  0  0  0
 14 15  1  0  0  0  0
 14 16  1  0  0  0  0
M  END
$$$$
default_name
  -OEChem-01062215323D

 19 18  0     0  0  0  0  0  0999 V2000
   -2.2056   -4.0049    0.0000 H   0  0  0  0  0  0  0  0  0  0  0  0
   -2.2496   -2.9169    0.0000 C   0  0  0  0  0  0  0  0  0  0  0  0
   -2.7696   -2.5709    0.8910 H   0  0  0  0  0  0  0  0  0  0  0  0
   -2.7696   -2.5709   -0.8910 H   0  0  0  0  0  0  0  0  0  0  0  0
   -0.8406   -2.3699    0.0000 C   0  0  0  0  0  0  0  0  0  0  0  0
    0.1164   -3.1329    0.0000 O   0  0  0  0  0  0  0  0  0  0  0  0
   -0.7136   -1.0459    0.0000 N   0  0  0  0  0  0  0  0  0  0  0  0
   -1.5436   -0.4719    0.0000 H   0  0  0  0  0  0  0  0  0  0  0  0
    0.5724   -0.3469    0.0000 C   0  0  0  0  0  0  0  0  0  0  0  0
    0.5455    0.4546    0.7395 H   0  0  0  0  0  0  0  0  0  0  0  0
    1.3610   -1.0458    0.2819 H   0  0  0  0  0  0  0  0  0  0  0  0
    0.9130    0.2550   -1.3663 C   0  0  0  0  0  0  0  0  0  0  0  0
    1.0830    1.4666   -1.4865 O   0  0  0  0  0  0  0  0  0  0  0  0
    1.0102   -0.6025   -2.3902 N   0  0  0  0  0  0  0  0  0  0  0  0
    0.8540   -1.5791   -2.1953 H   0  0  0  0  0  0  0  0  0  0  0  0
    1.3260   -0.2289   -3.7703 C   0  0  0  0  0  0  0  0  0  0  0  0
    1.4729    0.8507   -3.8540 H   0  0  0  0  0  0  0  0  0  0  0  0
    2.2405   -0.7300   -4.0904 H   0  0  0  0  0  0  0  0  0  0  0  0
    0.5079   -0.5206   -4.4302 H   0  0  0  0  0  0  0  0  0  0  0  0
  5  6  2  0  0  0  0
  5  7  1  0  0  0  0
  2  3  1  0  0  0  0
  2  4  1  0  0  0  0
  2  5  1  0  0  0  0
  1  2  1  0  0  0  0
 12 13  2  0  0  0  0
 12 14  1  0  0  0  0
  9 10  1  0  0  0  0
  9 11  1  0  0  0  0
  9 12  1  0  0  0  0
  7  8  1  0  0  0  0
  7  9  1  0  0  0  0
 16 17  1  0  0  0  0
 16 18  1  0  0  0  0
 16 19  1  0  0  0  0
 14 15  1  0  0  0  0
 14 16  1  0  0  0  0
M  END
$$$$
default_name
  -OEChem-01062215323D

 19 18  0     0  0  0  0  0  0999 V2000
   -2.2056   -4.0049    0.0000 H   0  0  0  0  0  0  0  0  0  0  0  0
   -2.2496   -2.9169    0.0000 C   0  0  0  0  0  0  0  0  0  0  0  0
   -2.7696   -2.5709    0.8910 H   0  0  0  0  0  0  0  0  0  0  0  0
   -2.7696   -2.5709   -0.8910 H   0  0  0  0  0  0  0  0  0  0  0  0
   -0.8406   -2.3699    0.0000 C   0  0  0  0  0  0  0  0  0  0  0  0
    0.1164   -3.1329    0.0000 O   0  0  0  0  0  0  0  0  0  0  0  0
   -0.7136   -1.0459    0.0000 N   0  0  0  0  0  0  0  0  0  0  0  0
   -1.5436   -0.4719    0.0000 H   0  0  0  0  0  0  0  0  0  0  0  0
    0.5724   -0.3469    0.0000 C   0  0  0  0  0  0  0  0  0  0  0  0
    0.5455    0.4546    0.7395 H   0  0  0  0  0  0  0  0  0  0  0  0
    1.3610   -1.0458    0.2819 H   0  0  0  0  0  0  0  0  0  0  0  0
    0.9130    0.2550   -1.3663 C   0  0  0  0  0  0  0  0  0  0  0  0
    1.3495    1.4013   -1.4488 O   0  0  0  0  0  0  0  0  0  0  0  0
    0.7093   -0.5288   -2.4327 N   0  0  0  0  0  0  0  0  0  0  0  0
    0.3482   -1.4552   -2.2668 H   0  0  0  0  0  0  0  0  0  0  0  0
    0.9712   -0.1419   -3.8205 C   0  0  0  0  0  0  0  0  0  0  0  0
    1.3579    0.8789   -3.8703 H   0  0  0  0  0  0  0  0  0  0  0  0
    1.7084   -0.8148   -4.2604 H   0  0  0  0  0  0  0  0  0  0  0  0
    0.0486   -0.1929   -4.4003 H   0  0  0  0  0  0  0  0  0  0  0  0
  5  6  2  0  0  0  0
  5  7  1  0  0  0  0
  2  3  1  0  0  0  0
  2  4  1  0  0  0  0
  2  5  1  0  0  0  0
  1  2  1  0  0  0  0
 12 13  2  0  0  0  0
 12 14  1  0  0  0  0
  9 10  1  0  0  0  0
  9 11  1  0  0  0  0
  9 12  1  0  0  0  0
  7  8  1  0  0  0  0
  7  9  1  0  0  0  0
 16 17  1  0  0  0  0
 16 18  1  0  0  0  0
 16 19  1  0  0  0  0
 14 15  1  0  0  0  0
 14 16  1  0  0  0  0
M  END
$$$$
default_name
  -OEChem-01062215323D

 19 18  0     0  0  0  0  0  0999 V2000
   -2.2056   -4.0049    0.0000 H   0  0  0  0  0  0  0  0  0  0  0  0
   -2.2496   -2.9169    0.0000 C   0  0  0  0  0  0  0  0  0  0  0  0
   -2.7696   -2.5709    0.8910 H   0  0  0  0  0  0  0  0  0  0  0  0
   -2.7696   -2.5709   -0.8910 H   0  0  0  0  0  0  0  0  0  0  0  0
   -0.8406   -2.3699    0.0000 C   0  0  0  0  0  0  0  0  0  0  0  0
    0.1164   -3.1329    0.0000 O   0  0  0  0  0  0  0  0  0  0  0  0
   -0.7136   -1.0459    0.0000 N   0  0  0  0  0  0  0  0  0  0  0  0
   -1.5436   -0.4719    0.0000 H   0  0  0  0  0  0  0  0  0  0  0  0
    0.5724   -0.3469    0.0000 C   0  0  0  0  0  0  0  0  0  0  0  0
    0.5455    0.4546    0.7395 H   0  0  0  0  0  0  0  0  0  0  0  0
    1.3610   -1.0458    0.2819 H   0  0  0  0  0  0  0  0  0  0  0  0
    0.9130    0.2550   -1.3663 C   0  0  0  0  0  0  0  0  0  0  0  0
    1.5957    1.2745   -1.4433 O   0  0  0  0  0  0  0  0  0  0  0  0
    0.4313   -0.3856   -2.4390 N   0  0  0  0  0  0  0  0  0  0  0  0
   -0.1191   -1.2145   -2.2773 H   0  0  0  0  0  0  0  0  0  0  0  0
    0.6434    0.0269   -3.8279 C   0  0  0  0  0  0  0  0  0  0  0  0
    1.2516    0.9336   -3.8727 H   0  0  0  0  0  0  0  0  0  0  0  0
    1.1576   -0.7641   -4.3754 H   0  0  0  0  0  0  0  0  0  0  0  0
   -0.3162    0.2280   -4.3059 H   0  0  0  0  0  0  0  0  0  0  0  0
  5  6  2  0  0  0  0
  5  7  1  0  0  0  0
  2  3  1  0  0  0  0
  2  4  1  0  0  0  0
  2  5  1  0  0  0  0
  1  2  1  0  0  0  0
 12 13  2  0  0  0  0
 12 14  1  0  0  0  0
  9 10  1  0  0  0  0
  9 11  1  0  0  0  0
  9 12  1  0  0  0  0
  7  8  1  0  0  0  0
  7  9  1  0  0  0  0
 16 17  1  0  0  0  0
 16 18  1  0  0  0  0
 16 19  1  0  0  0  0
 14 15  1  0  0  0  0
 14 16  1  0  0  0  0
M  END
$$$$
default_name
  -OEChem-01062215323D

 19 18  0     0  0  0  0  0  0999 V2000
   -2.2056   -4.0049    0.0000 H   0  0  0  0  0  0  0  0  0  0  0  0
   -2.2496   -2.9169    0.0000 C   0  0  0  0  0  0  0  0  0  0  0  0
   -2.7696   -2.5709    0.8910 H   0  0  0  0  0  0  0  0  0  0  0  0
   -2.7696   -2.5709   -0.8910 H   0  0  0  0  0  0  0  0  0  0  0  0
   -0.8406   -2.3699    0.0000 C   0  0  0  0  0  0  0  0  0  0  0  0
    0.1164   -3.1329    0.0000 O   0  0  0  0  0  0  0  0  0  0  0  0
   -0.7136   -1.0459    0.0000 N   0  0  0  0  0  0  0  0  0  0  0  0
   -1.5436   -0.4719    0.0000 H   0  0  0  0  0  0  0  0  0  0  0  0
    0.5724   -0.3469    0.0000 C   0  0  0  0  0  0  0  0  0  0  0  0
    0.5455    0.4546    0.7395 H   0  0  0  0  0  0  0  0  0  0  0  0
    1.3610   -1.0458    0.2819 H   0  0  0  0  0  0  0  0  0  0  0  0
    0.9130    0.2550   -1.3663 C   0  0  0  0  0  0  0  0  0  0  0  0
    1.8048    1.0949   -1.4703 O   0  0  0  0  0  0  0  0  0  0  0  0
    0.1952   -0.1828   -2.4085 N   0  0  0  0  0  0  0  0  0  0  0  0
   -0.5159   -0.8736   -2.2261 H   0  0  0  0  0  0  0  0  0  0  0  0
    0.3651    0.2661   -3.7919 C   0  0  0  0  0  0  0  0  0  0  0  0
    1.1614    1.0111   -3.8610 H   0  0  0  0  0  0  0  0  0  0  0  0
    0.6256   -0.5813   -4.4275 H   0  0  0  0  0  0  0  0  0  0  0  0
   -0.5619    0.7133   -4.1533 H   0  0  0  0  0  0  0  0  0  0  0  0
  5  6  2  0  0  0  0
  5  7  1  0  0  0  0
  2  3  1  0  0  0  0
  2  4  1  0  0  0  0
  2  5  1  0  0  0  0
  1  2  1  0  0  0  0
 12 13  2  0  0  0  0
 12 14  1  0  0  0  0
  9 10  1  0  0  0  0
  9 11  1  0  0  0  0
  9 12  1  0  0  0  0
  7  8  1  0  0  0  0
  7  9  1  0  0  0  0
 16 17  1  0  0  0  0
 16 18  1  0  0  0  0
 16 19  1  0  0  0  0
 14 15  1  0  0  0  0
 14 16  1  0  0  0  0
M  END
$$$$
default_name
  -OEChem-01062215323D

 19 18  0     0  0  0  0  0  0999 V2000
   -2.2056   -4.0049    0.0000 H   0  0  0  0  0  0  0  0  0  0  0  0
   -2.2496   -2.9169    0.0000 C   0  0  0  0  0  0  0  0  0  0  0  0
   -2.7696   -2.5709    0.8910 H   0  0  0  0  0  0  0  0  0  0  0  0
   -2.7696   -2.5709   -0.8910 H   0  0  0  0  0  0  0  0  0  0  0  0
   -0.8406   -2.3699    0.0000 C   0  0  0  0  0  0  0  0  0  0  0  0
    0.1164   -3.1329    0.0000 O   0  0  0  0  0  0  0  0  0  0  0  0
   -0.7136   -1.0459    0.0000 N   0  0  0  0  0  0  0  0  0  0  0  0
   -1.5436   -0.4719    0.0000 H   0  0  0  0  0  0  0  0  0  0  0  0
    0.5724   -0.3469    0.0000 C   0  0  0  0  0  0  0  0  0  0  0  0
    0.5455    0.4546    0.7395 H   0  0  0  0  0  0  0  0  0  0  0  0
    1.3610   -1.0458    0.2819 H   0  0  0  0  0  0  0  0  0  0  0  0
    0.9130    0.2550   -1.3663 C   0  0  0  0  0  0  0  0  0  0  0  0
    1.9625    0.8747   -1.5280 O   0  0  0  0  0  0  0  0  0  0  0  0
    0.0171    0.0659   -2.3433 N   0  0  0  0  0  0  0  0  0  0  0  0
   -0.8152   -0.4556   -2.1166 H   0  0  0  0  0  0  0  0  0  0  0  0
    0.1551    0.5593   -3.7151 C   0  0  0  0  0  0  0  0  0  0  0  0
    1.0933    1.1062   -3.8361 H   0  0  0  0  0  0  0  0  0  0  0  0
    0.1486   -0.2788   -4.4132 H   0  0  0  0  0  0  0  0  0  0  0  0
   -0.6715    1.2301   -3.9530 H   0  0  0  0  0  0  0  0  0  0  0  0
  5  6  2  0  0  0  0
  5  7  1  0  0  0  0
  2  3  1  0  0  0  0
  2  4  1  0  0  0  0
  2  5  1  0  0  0  0
  1  2  1  0  0  0  0
 12 13  2  0  0  0  0
 12 14  1  0  0  0  0
  9 10  1  0  0  0  0
  9 11  1  0  0  0  0
  9 12  1  0  0  0  0
  7  8  1  0  0  0  0
  7  9  1  0  0  0  0
 16 17  1  0  0  0  0
 16 18  1  0  0  0  0
 16 19  1  0  0  0  0
 14 15  1  0  0  0  0
 14 16  1  0  0  0  0
M  END
$$$$
default_name
  -OEChem-01062215323D

 19 18  0     0  0  0  0  0  0999 V2000
   -2.2056   -4.0049    0.0000 H   0  0  0  0  0  0  0  0  0  0  0  0
   -2.2496   -2.9169    0.0000 C   0  0  0  0  0  0  0  0  0  0  0  0
   -2.7696   -2.5709    0.8910 H   0  0  0  0  0  0  0  0  0  0  0  0
   -2.7696   -2.5709   -0.8910 H   0  0  0  0  0  0  0  0  0  0  0  0
   -0.8406   -2.3699    0.0000 C   0  0  0  0  0  0  0  0  0  0  0  0
    0.1164   -3.1329    0.0000 O   0  0  0  0  0  0  0  0  0  0  0  0
   -0.7136   -1.0459    0.0000 N   0  0  0  0  0  0  0  0  0  0  0  0
   -1.5436   -0.4719    0.0000 H   0  0  0  0  0  0  0  0  0  0  0  0
    0.5724   -0.3469    0.0000 C   0  0  0  0  0  0  0  0  0  0  0  0
    0.5455    0.4546    0.7395 H   0  0  0  0  0  0  0  0  0  0  0  0
    1.3610   -1.0458    0.2819 H   0  0  0  0  0  0  0  0  0  0  0  0
    0.9130    0.2550   -1.3663 C   0  0  0  0  0  0  0  0  0  0  0  0
    2.0581    0.6289   -1.6124 O   0  0  0  0  0  0  0  0  0  0  0  0
   -0.0909    0.3435   -2.2480 N   0  0  0  0  0  0  0  0  0  0  0  0
   -0.9967    0.0110   -1.9563 H   0  0  0  0  0  0  0  0  0  0  0  0
    0.0278    0.8866   -3.6027 C   0  0  0  0  0  0  0  0  0  0  0  0
    1.0521    1.2123   -3.7997 H   0  0  0  0  0  0  0  0  0  0  0  0
   -0.2408    0.1226   -4.3335 H   0  0  0  0  0  0  0  0  0  0  0  0
   -0.6377    1.7430   -3.7187 H   0  0  0  0  0  0  0  0  0  0  0  0
  5  6  2  0  0  0  0
  5  7  1  0  0  0  0
  2  3  1  0  0  0  0
  2  4  1  0  0  0  0
  2  5  1  0  0  0  0
  1  2  1  0  0  0  0
 12 13  2  0  0  0  0
 12 14  1  0  0  0  0
  9 10  1  0  0  0  0
  9 11  1  0  0  0  0
  9 12  1  0  0  0  0
  7  8  1  0  0  0  0
  7  9  1  0  0  0  0
 16 17  1  0  0  0  0
 16 18  1  0  0  0  0
 16 19  1  0  0  0  0
 14 15  1  0  0  0  0
 14 16  1  0  0  0  0
M  END
$$$$
default_name
  -OEChem-01062215323D

 19 18  0     0  0  0  0  0  0999 V2000
   -2.2056   -4.0049    0.0000 H   0  0  0  0  0  0  0  0  0  0  0  0
   -2.2496   -2.9169    0.0000 C   0  0  0  0  0  0  0  0  0  0  0  0
   -2.7696   -2.5709    0.8910 H   0  0  0  0  0  0  0  0  0  0  0  0
   -2.7696   -2.5709   -0.8910 H   0  0  0  0  0  0  0  0  0  0  0  0
   -0.8406   -2.3699    0.0000 C   0  0  0  0  0  0  0  0  0  0  0  0
    0.1164   -3.1329    0.0000 O   0  0  0  0  0  0  0  0  0  0  0  0
   -0.7136   -1.0459    0.0000 N   0  0  0  0  0  0  0  0  0  0  0  0
   -1.5436   -0.4719    0.0000 H   0  0  0  0  0  0  0  0  0  0  0  0
    0.5724   -0.3469    0.0000 C   0  0  0  0  0  0  0  0  0  0  0  0
    0.5455    0.4546    0.7395 H   0  0  0  0  0  0  0  0  0  0  0  0
    1.3610   -1.0458    0.2819 H   0  0  0  0  0  0  0  0  0  0  0  0
    0.9130    0.2550   -1.3663 C   0  0  0  0  0  0  0  0  0  0  0  0
    2.0851    0.3742   -1.7179 O   0  0  0  0  0  0  0  0  0  0  0  0
   -0.1214    0.6311   -2.1289 N   0  0  0  0  0  0  0  0  0  0  0  0
   -1.0479    0.4943   -1.7562 H   0  0  0  0  0  0  0  0  0  0  0  0
   -0.0082    1.2257   -3.4623 C   0  0  0  0  0  0  0  0  0  0  0  0
    1.0404    1.3222   -3.7542 H   0  0  0  0  0  0  0  0  0  0  0  0
   -0.5161    0.5958   -4.1937 H   0  0  0  0  0  0  0  0  0  0  0  0
   -0.4628    2.2172   -3.4662 H   0  0  0  0  0  0  0  0  0  0  0  0
  5  6  2  0  0  0  0
  5  7  1  0  0  0  0
  2  3  1  0  0  0  0
  2  4  1  0  0  0  0
  2  5  1  0  0  0  0
  1  2  1  0  0  0  0
 12 13  2  0  0  0  0
 12 14  1  0  0  0  0
  9 10  1  0  0  0  0
  9 11  1  0  0  0  0
  9 12  1  0  0  0  0
  7  8  1  0  0  0  0
  7  9  1  0  0  0  0
 16 17  1  0  0  0  0
 16 18  1  0  0  0  0
 16 19  1  0  0  0  0
 14 15  1  0  0  0  0
 14 16  1  0  0  0  0
M  END
$$$$
default_name
  -OEChem-01062215323D

 19 18  0     0  0  0  0  0  0999 V2000
   -2.2056   -4.0049    0.0000 H   0  0  0  0  0  0  0  0  0  0  0  0
   -2.2496   -2.9169    0.0000 C   0  0  0  0  0  0  0  0  0  0  0  0
   -2.7696   -2.5709    0.8910 H   0  0  0  0  0  0  0  0  0  0  0  0
   -2.7696   -2.5709   -0.8910 H   0  0  0  0  0  0  0  0  0  0  0  0
   -0.8406   -2.3699    0.0000 C   0  0  0  0  0  0  0  0  0  0  0  0
    0.1164   -3.1329    0.0000 O   0  0  0  0  0  0  0  0  0  0  0  0
   -0.7136   -1.0459    0.0000 N   0  0  0  0  0  0  0  0  0  0  0  0
   -1.5436   -0.4719    0.0000 H   0  0  0  0  0  0  0  0  0  0  0  0
    0.5724   -0.3469    0.0000 C   0  0  0  0  0  0  0  0  0  0  0  0
    0.5455    0.4546    0.7395 H   0  0  0  0  0  0  0  0  0  0  0  0
    1.3610   -1.0458    0.2819 H   0  0  0  0  0  0  0  0  0  0  0  0
    0.9130    0.2550   -1.3663 C   0  0  0  0  0  0  0  0  0  0  0  0
    2.0416    0.1280   -1.8371 O   0  0  0  0  0  0  0  0  0  0  0  0
   -0.0723    0.9091   -1.9942 N   0  0  0  0  0  0  0  0  0  0  0  0
   -0.9654    0.9615   -1.5298 H   0  0  0  0  0  0  0  0  0  0  0  0
    0.0497    1.5534   -3.3035 C   0  0  0  0  0  0  0  0  0  0  0  0
    1.0592    1.4284   -3.7027 H   0  0  0  0  0  0  0  0  0  0  0  0
   -0.6586    1.1083   -4.0035 H   0  0  0  0  0  0  0  0  0  0  0  0
   -0.1587    2.6203   -3.2128 H   0  0  0  0  0  0  0  0  0  0  0  0
  5  6  2  0  0  0  0
  5  7  1  0  0  0  0
  2  3  1  0  0  0  0
  2  4  1  0  0  0  0
  2  5  1  0  0  0  0
  1  2  1  0  0  0  0
 12 13  2  0  0  0  0
 12 14  1  0  0  0  0
  9 10  1  0  0  0  0
  9 11  1  0  0  0  0
  9 12  1  0  0  0  0
  7  8  1  0  0  0  0
  7  9  1  0  0  0  0
 16 17  1  0  0  0  0
 16 18  1  0  0  0  0
 16 19  1  0  0  0  0
 14 15  1  0  0  0  0
 14 16  1  0  0  0  0
M  END
$$$$
default_name
  -OEChem-01062215323D

 19 18  0     0  0  0  0  0  0999 V2000
   -2.2056   -4.0049    0.0000 H   0  0  0  0  0  0  0  0  0  0  0  0
   -2.2496   -2.9169    0.0000 C   0  0  0  0  0  0  0  0  0  0  0  0
   -2.7696   -2.5709    0.8910 H   0  0  0  0  0  0  0  0  0  0  0  0
   -2.7696   -2.5709   -0.8910 H   0  0  0  0  0  0  0  0  0  0  0  0
   -0.8406   -2.3699    0.0000 C   0  0  0  0  0  0  0  0  0  0  0  0
    0.1164   -3.1329    0.0000 O   0  0  0  0  0  0  0  0  0  0  0  0
   -0.7136   -1.0459    0.0000 N   0  0  0  0  0  0  0  0  0  0  0  0
   -1.5436   -0.4719    0.0000 H   0  0  0  0  0  0  0  0  0  0  0  0
    0.5724   -0.3469    0.0000 C   0  0  0  0  0  0  0  0  0  0  0  0
    0.5455    0.4546    0.7395 H   0  0  0  0  0  0  0  0  0  0  0  0
    1.3610   -1.0458    0.2819 H   0  0  0  0  0  0  0  0  0  0  0  0
    0.9130    0.2550   -1.3663 C   0  0  0  0  0  0  0  0  0  0  0  0
    1.9307   -0.0928   -1.9621 O   0  0  0  0  0  0  0  0  0  0  0  0
    0.0530    1.1585   -1.8531 N   0  0  0  0  0  0  0  0  0  0  0  0
   -0.7549    1.3807   -1.2926 H   0  0  0  0  0  0  0  0  0  0  0  0
    0.1974    1.8475   -3.1371 C   0  0  0  0  0  0  0  0  0  0  0  0
    1.1071    1.5238   -3.6488 H   0  0  0  0  0  0  0  0  0  0  0  0
   -0.6585    1.6253   -3.7757 H   0  0  0  0  0  0  0  0  0  0  0  0
    0.2539    2.9248   -2.9758 H   0  0  0  0  0  0  0  0  0  0  0  0
  5  6  2  0  0  0  0
  5  7  1  0  0  0  0
  2  3  1  0  0  0  0
  2  4  1  0  0  0  0
  2  5  1  0  0  0  0
  1  2  1  0  0  0  0
 12 13  2  0  0  0  0
 12 14  1  0  0  0  0
  9 10  1  0  0  0  0
  9 11  1  0  0  0  0
  9 12  1  0  0  0  0
  7  8  1  0  0  0  0
  7  9  1  0  0  0  0
 16 17  1  0  0  0  0
 16 18  1  0  0  0  0
 16 19  1  0  0  0  0
 14 15  1  0  0  0  0
 14 16  1  0  0  0  0
M  END
$$$$
default_name
  -OEChem-01062215323D

 19 18  0     0  0  0  0  0  0999 V2000
   -2.2056   -4.0049    0.0000 H   0  0  0  0  0  0  0  0  0  0  0  0
   -2.2496   -2.9169    0.0000 C   0  0  0  0  0  0  0  0  0  0  0  0
   -2.7696   -2.5709    0.8910 H   0  0  0  0  0  0  0  0  0  0  0  0
   -2.7696   -2.5709   -0.8910 H   0  0  0  0  0  0  0  0  0  0  0  0
   -0.8406   -2.3699    0.0000 C   0  0  0  0  0  0  0  0  0  0  0  0
    0.1164   -3.1329    0.0000 O   0  0  0  0  0  0  0  0  0  0  0  0
   -0.7136   -1.0459    0.0000 N   0  0  0  0  0  0  0  0  0  0  0  0
   -1.5436   -0.4719    0.0000 H   0  0  0  0  0  0  0  0  0  0  0  0
    0.5724   -0.3469    0.0000 C   0  0  0  0  0  0  0  0  0  0  0  0
    0.5455    0.4546    0.7395 H   0  0  0  0  0  0  0  0  0  0  0  0
    1.3610   -1.0458    0.2819 H   0  0  0  0  0  0  0  0  0  0  0  0
    0.9130    0.2550   -1.3663 C   0  0  0  0  0  0  0  0  0  0  0  0
    1.7598   -0.2733   -2.0842 O   0  0  0  0  0  0  0  0  0  0  0  0
    0.2460    1.3624   -1.7152 N   0  0  0  0  0  0  0  0  0  0  0  0
   -0.4305    1.7234   -1.0608 H   0  0  0  0  0  0  0  0  0  0  0  0
    0.4249    2.0879   -2.9745 C   0  0  0  0  0  0  0  0  0  0  0  0
    1.1808    1.6017   -3.5961 H   0  0  0  0  0  0  0  0  0  0  0  0
   -0.5159    2.1116   -3.5260 H   0  0  0  0  0  0  0  0  0  0  0  0
    0.7469    3.1100   -2.7713 H   0  0  0  0  0  0  0  0  0  0  0  0
  5  6  2  0  0  0  0
  5  7  1  0  0  0  0
  2  3  1  0  0  0  0
  2  4  1  0  0  0  0
  2  5  1  0  0  0  0
  1  2  1  0  0  0  0
 12 13  2  0  0  0  0
 12 14  1  0  0  0  0
  9 10  1  0  0  0  0
  9 11  1  0  0  0  0
  9 12  1  0  0  0  0
  7  8  1  0  0  0  0
  7  9  1  0  0  0  0
 16 17  1  0  0  0  0
 16 18  1  0  0  0  0
 16 19  1  0  0  0  0
 14 15  1  0  0  0  0
 14 16  1  0  0  0  0
M  END
$$$$
default_name
  -OEChem-01062215323D

 19 18  0     0  0  0  0  0  0999 V2000
   -2.2056   -4.0049    0.0000 H   0  0  0  0  0  0  0  0  0  0  0  0
   -2.2496   -2.9169    0.0000 C   0  0  0  0  0  0  0  0  0  0  0  0
   -2.7696   -2.5709    0.8910 H   0  0  0  0  0  0  0  0  0  0  0  0
   -2.7696   -2.5709   -0.8910 H   0  0  0  0  0  0  0  0  0  0  0  0
   -0.8406   -2.3699    0.0000 C   0  0  0  0  0  0  0  0  0  0  0  0
    0.1164   -3.1329    0.0000 O   0  0  0  0  0  0  0  0  0  0  0  0
   -0.7136   -1.0459    0.0000 N   0  0  0  0  0  0  0  0  0  0  0  0
   -1.5436   -0.4719    0.0000 H   0  0  0  0  0  0  0  0  0  0  0  0
    0.5724   -0.3469    0.0000 C   0  0  0  0  0  0  0  0  0  0  0  0
    0.5455    0.4546    0.7395 H   0  0  0  0  0  0  0  0  0  0  0  0
    1.3610   -1.0458    0.2819 H   0  0  0  0  0  0  0  0  0  0  0  0
    0.9130    0.2550   -1.3663 C   0  0  0  0  0  0  0  0  0  0  0  0
    1.5406   -0.4012   -2.1952 O   0  0  0  0  0  0  0  0  0  0  0  0
    0.4935    1.5068   -1.5899 N   0  0  0  0  0  0  0  0  0  0  0  0
   -0.0145    1.9661   -0.8502 H   0  0  0  0  0  0  0  0  0  0  0  0
    0.7168    2.2581   -2.8267 C   0  0  0  0  0  0  0  0  0  0  0  0
    1.2754    1.6569   -3.5482 H   0  0  0  0  0  0  0  0  0  0  0  0
   -0.2404    2.5339   -3.2712 H   0  0  0  0  0  0  0  0  0  0  0  0
    1.2867    3.1633   -2.6132 H   0  0  0  0  0  0  0  0  0  0  0  0
  5  6  2  0  0  0  0
  5  7  1  0  0  0  0
  2  3  1  0  0  0  0
  2  4  1  0  0  0  0
  2  5  1  0  0  0  0
  1  2  1  0  0  0  0
 12 13  2  0  0  0  0
 12 14  1  0  0  0  0
  9 10  1  0  0  0  0
  9 11  1  0  0  0  0
  9 12  1  0  0  0  0
  7  8  1  0  0  0  0
  7  9  1  0  0  0  0
 16 17  1  0  0  0  0
 16 18  1  0  0  0  0
 16 19  1  0  0  0  0
 14 15  1  0  0  0  0
 14 16  1  0  0  0  0
M  END
$$$$
default_name
  -OEChem-01062215323D

 19 18  0     0  0  0  0  0  0999 V2000
   -2.2056   -4.0049    0.0000 H   0  0  0  0  0  0  0  0  0  0  0  0
   -2.2496   -2.9169    0.0000 C   0  0  0  0  0  0  0  0  0  0  0  0
   -2.7696   -2.5709    0.8910 H   0  0  0  0  0  0  0  0  0  0  0  0
   -2.7696   -2.5709   -0.8910 H   0  0  0  0  0  0  0  0  0  0  0  0
   -0.8406   -2.3699    0.0000 C   0  0  0  0  0  0  0  0  0  0  0  0
    0.1164   -3.1329    0.0000 O   0  0  0  0  0  0  0  0  0  0  0  0
   -0.7136   -1.0459    0.0000 N   0  0  0  0  0  0  0  0  0  0  0  0
   -1.5436   -0.4719    0.0000 H   0  0  0  0  0  0  0  0  0  0  0  0
    0.5724   -0.3469    0.0000 C   0  0  0  0  0  0  0  0  0  0  0  0
    0.5455    0.4546    0.7395 H   0  0  0  0  0  0  0  0  0  0  0  0
    1.3610   -1.0458    0.2819 H   0  0  0  0  0  0  0  0  0  0  0  0
    0.9130    0.2550   -1.3663 C   0  0  0  0  0  0  0  0  0  0  0  0
    1.2881   -0.4677   -2.2874 O   0  0  0  0  0  0  0  0  0  0  0  0
    0.7786    1.5819   -1.4857 N   0  0  0  0  0  0  0  0  0  0  0  0
    0.4647    2.0923   -0.6751 H   0  0  0  0  0  0  0  0  0  0  0  0
    1.0530    2.3467   -2.7039 C   0  0  0  0  0  0  0  0  0  0  0  0
    1.3844    1.6856   -3.5084 H   0  0  0  0  0  0  0  0  0  0  0  0
    0.1491    2.8637   -3.0289 H   0  0  0  0  0  0  0  0  0  0  0  0
    1.8365    3.0811   -2.5124 H   0  0  0  0  0  0  0  0  0  0  0  0
  5  6  2  0  0  0  0
  5  7  1  0  0  0  0
  2  3  1  0  0  0  0
  2  4  1  0  0  0  0
  2  5  1  0  0  0  0
  1  2  1  0  0  0  0
 12 13  2  0  0  0  0
 12 14  1  0  0  0  0
  9 10  1  0  0  0  0
  9 11  1  0  0  0  0
  9 12  1  0  0  0  0
  7  8  1  0  0  0  0
  7  9  1  0  0  0  0
 16 17  1  0  0  0  0
 16 18  1  0  0  0  0
 16 19  1  0  0  0  0
 14 15  1  0  0  0  0
 14 16  1  0  0  0  0
M  END
$$$$
default_name
  -OEChem-01062215323D

 19 18  0     0  0  0  0  0  0999 V2000
   -2.2056   -4.0049    0.0000 H   0  0  0  0  0  0  0  0  0  0  0  0
   -2.2496   -2.9169    0.0000 C   0  0  0  0  0  0  0  0  0  0  0  0
   -2.7696   -2.5709    0.8910 H   0  0  0  0  0  0  0  0  0  0  0  0
   -2.7696   -2.5709   -0.8910 H   0  0  0  0  0  0  0  0  0  0  0  0
   -0.8406   -2.3699    0.0000 C   0  0  0  0  0  0  0  0  0  0  0  0
    0.1164   -3.1329    0.0000 O   0  0  0  0  0  0  0  0  0  0  0  0
   -0.7136   -1.0459    0.0000 N   0  0  0  0  0  0  0  0  0  0  0  0
   -1.5436   -0.4719    0.0000 H   0  0  0  0  0  0  0  0  0  0  0  0
    0.5724   -0.3469    0.0000 C   0  0  0  0  0  0  0  0  0  0  0  0
    0.5455    0.4546    0.7395 H   0  0  0  0  0  0  0  0  0  0  0  0
    1.3610   -1.0458    0.2819 H   0  0  0  0  0  0  0  0  0  0  0  0
    0.9130    0.2550   -1.3663 C   0  0  0  0  0  0  0  0  0  0  0  0
    1.0195   -0.4684   -2.3547 O   0  0  0  0  0  0  0  0  0  0  0  0
    1.0820    1.5826   -1.4097 N   0  0  0  0  0  0  0  0  0  0  0  0
    0.9747    2.0935   -0.5474 H   0  0  0  0  0  0  0  0  0  0  0  0
    1.4107    2.3475   -2.6143 C   0  0  0  0  0  0  0  0  0  0  0  0
    1.5003    1.6859   -3.4793 H   0  0  0  0  0  0  0  0  0  0  0  0
    0.6261    3.0782   -2.8154 H   0  0  0  0  0  0  0  0  0  0  0  0
    2.3588    2.8688   -2.4756 H   0  0  0  0  0  0  0  0  0  0  0  0
  5  6  2  0  0  0  0
  5  7  1  0  0  0  0
  2  3  1  0  0  0  0
  2  4  1  0  0  0  0
  2  5  1  0  0  0  0
  1  2  1  0  0  0  0
 12 13  2  0  0  0  0
 12 14  1  0  0  0  0
  9 10  1  0  0  0  0
  9 11  1  0  0  0  0
  9 12  1  0  0  0  0
  7  8  1  0  0  0  0
  7  9  1  0  0  0  0
 16 17  1  0  0  0  0
 16 18  1  0  0  0  0
 16 19  1  0  0  0  0
 14 15  1  0  0  0  0
 14 16  1  0  0  0  0
M  END
$$$$
default_name
  -OEChem-01062215323D

 19 18  0     0  0  0  0  0  0999 V2000
   -2.2056   -4.0049    0.0000 H   0  0  0  0  0  0  0  0  0  0  0  0
   -2.2496   -2.9169    0.0000 C   0  0  0  0  0  0  0  0  0  0  0  0
   -2.7696   -2.5709    0.8910 H   0  0  0  0  0  0  0  0  0  0  0  0
   -2.7696   -2.5709   -0.8910 H   0  0  0  0  0  0  0  0  0  0  0  0
   -0.8406   -2.3699    0.0000 C   0  0  0  0  0  0  0  0  0  0  0  0
    0.1164   -3.1329    0.0000 O   0  0  0  0  0  0  0  0  0  0  0  0
   -0.7136   -1.0459    0.0000 N   0  0  0  0  0  0  0  0  0  0  0  0
   -1.5436   -0.4719    0.0000 H   0  0  0  0  0  0  0  0  0  0  0  0
    0.5724   -0.3469    0.0000 C   0  0  0  0  0  0  0  0  0  0  0  0
    0.5455    0.4546    0.7395 H   0  0  0  0  0  0  0  0  0  0  0  0
    1.3610   -1.0458    0.2819 H   0  0  0  0  0  0  0  0  0  0  0  0
    0.9130    0.2550   -1.3663 C   0  0  0  0  0  0  0  0  0  0  0  0
    0.7530   -0.4031   -2.3924 O   0  0  0  0  0  0  0  0  0  0  0  0
    1.3829    1.5089   -1.3672 N   0  0  0  0  0  0  0  0  0  0  0  0
    1.4805    1.9696   -0.4759 H   0  0  0  0  0  0  0  0  0  0  0  0
    1.7655    2.2606   -2.5642 C   0  0  0  0  0  0  0  0  0  0  0  0
    1.6154    1.6577   -3.4631 H   0  0  0  0  0  0  0  0  0  0  0  0
    1.1582    3.1630   -2.6454 H   0  0  0  0  0  0  0  0  0  0  0  0
    2.8180    2.5411   -2.5055 H   0  0  0  0  0  0  0  0  0  0  0  0
  5  6  2  0  0  0  0
  5  7  1  0  0  0  0
  2  3  1  0  0  0  0
  2  4  1  0  0  0  0
  2  5  1  0  0  0  0
  1  2  1  0  0  0  0
 12 13  2  0  0  0  0
 12 14  1  0  0  0  0
  9 10  1  0  0  0  0
  9 11  1  0  0  0  0
  9 12  1  0  0  0  0
  7  8  1  0  0  0  0
  7  9  1  0  0  0  0
 16 17  1  0  0  0  0
 16 18  1  0  0  0  0
 16 19  1  0  0  0  0
 14 15  1  0  0  0  0
 14 16  1  0  0  0  0
M  END
$$$$
default_name
  -OEChem-01062215323D

 19 18  0     0  0  0  0  0  0999 V2000
   -2.2056   -4.0049    0.0000 H   0  0  0  0  0  0  0  0  0  0  0  0
   -2.2496   -2.9169    0.0000 C   0  0  0  0  0  0  0  0  0  0  0  0
   -2.7696   -2.5709    0.8910 H   0  0  0  0  0  0  0  0  0  0  0  0
   -2.7696   -2.5709   -0.8910 H   0  0  0  0  0  0  0  0  0  0  0  0
   -0.8406   -2.3699    0.0000 C   0  0  0  0  0  0  0  0  0  0  0  0
    0.1164   -3.1329    0.0000 O   0  0  0  0  0  0  0  0  0  0  0  0
   -0.7136   -1.0459    0.0000 N   0  0  0  0  0  0  0  0  0  0  0  0
   -1.5436   -0.4719    0.0000 H   0  0  0  0  0  0  0  0  0  0  0  0
    0.5724   -0.3469    0.0000 C   0  0  0  0  0  0  0  0  0  0  0  0
    0.5455    0.4546    0.7395 H   0  0  0  0  0  0  0  0  0  0  0  0
    1.3610   -1.0458    0.2819 H   0  0  0  0  0  0  0  0  0  0  0  0
    0.9130    0.2550   -1.3663 C   0  0  0  0  0  0  0  0  0  0  0  0
    0.5068   -0.2763   -2.3979 O   0  0  0  0  0  0  0  0  0  0  0  0
    1.6609    1.3657   -1.3609 N   0  0  0  0  0  0  0  0  0  0  0  0
    1.9477    1.7289   -0.4654 H   0  0  0  0  0  0  0  0  0  0  0  0
    2.0933    2.0918   -2.5568 C   0  0  0  0  0  0  0  0  0  0  0  0
    1.7216    1.6029   -3.4607 H   0  0  0  0  0  0  0  0  0  0  0  0
    1.7090    3.1123   -2.5304 H   0  0  0  0  0  0  0  0  0  0  0  0
    3.1828    2.1202   -2.5999 H   0  0  0  0  0  0  0  0  0  0  0  0
  5  6  2  0  0  0  0
  5  7  1  0  0  0  0
  2  3  1  0  0  0  0
  2  4  1  0  0  0  0
  2  5  1  0  0  0  0
  1  2  1  0  0  0  0
 12 13  2  0  0  0  0
 12 14  1  0  0  0  0
  9 10  1  0  0  0  0
  9 11  1  0  0  0  0
  9 12  1  0  0  0  0
  7  8  1  0  0  0  0
  7  9  1  0  0  0  0
 16 17  1  0  0  0  0
 16 18  1  0  0  0  0
 16 19  1  0  0  0  0
 14 15  1  0  0  0  0
 14 16  1  0  0  0  0
M  END
$$$$
default_name
  -OEChem-01062215323D

 19 18  0     0  0  0  0  0  0999 V2000
   -2.2056   -4.0049    0.0000 H   0  0  0  0  0  0  0  0  0  0  0  0
   -2.2496   -2.9169    0.0000 C   0  0  0  0  0  0  0  0  0  0  0  0
   -2.7696   -2.5709    0.8910 H   0  0  0  0  0  0  0  0  0  0  0  0
   -2.7696   -2.5709   -0.8910 H   0  0  0  0  0  0  0  0  0  0  0  0
   -0.8406   -2.3699    0.0000 C   0  0  0  0  0  0  0  0  0  0  0  0
    0.1164   -3.1329    0.0000 O   0  0  0  0  0  0  0  0  0  0  0  0
   -0.7136   -1.0459    0.0000 N   0  0  0  0  0  0  0  0  0  0  0  0
   -1.5436   -0.4719    0.0000 H   0  0  0  0  0  0  0  0  0  0  0  0
    0.5724   -0.3469    0.0000 C   0  0  0  0  0  0  0  0  0  0  0  0
    0.5455    0.4546    0.7395 H   0  0  0  0  0  0  0  0  0  0  0  0
    1.3610   -1.0458    0.2819 H   0  0  0  0  0  0  0  0  0  0  0  0
    0.9130    0.2550   -1.3663 C   0  0  0  0  0  0  0  0  0  0  0  0
    0.2977   -0.0966   -2.3709 O   0  0  0  0  0  0  0  0  0  0  0  0
    1.8970    1.1628   -1.3914 N   0  0  0  0  0  0  0  0  0  0  0  0
    2.3445    1.3880   -0.5166 H   0  0  0  0  0  0  0  0  0  0  0  0
    2.3716    1.8526   -2.5927 C   0  0  0  0  0  0  0  0  0  0  0  0
    1.8118    1.5254   -3.4723 H   0  0  0  0  0  0  0  0  0  0  0  0
    2.2410    2.9295   -2.4783 H   0  0  0  0  0  0  0  0  0  0  0  0
    3.4285    1.6349   -2.7524 H   0  0  0  0  0  0  0  0  0  0  0  0
  5  6  2  0  0  0  0
  5  7  1  0  0  0  0
  2  3  1  0  0  0  0
  2  4  1  0  0  0  0
  2  5  1  0  0  0  0
  1  2  1  0  0  0  0
 12 13  2  0  0  0  0
 12 14  1  0  0  0  0
  9 10  1  0  0  0  0
  9 11  1  0  0  0  0
  9 12  1  0  0  0  0
  7  8  1  0  0  0  0
  7  9  1  0  0  0  0
 16 17  1  0  0  0  0
 16 18  1  0  0  0  0
 16 19  1  0  0  0  0
 14 15  1  0  0  0  0
 14 16  1  0  0  0  0
M  END
$$$$
default_name
  -OEChem-01062215323D

 19 18  0     0  0  0  0  0  0999 V2000
   -2.2056   -4.0049    0.0000 H   0  0  0  0  0  0  0  0  0  0  0  0
   -2.2496   -2.9169    0.0000 C   0  0  0  0  0  0  0  0  0  0  0  0
   -2.7696   -2.5709    0.8910 H   0  0  0  0  0  0  0  0  0  0  0  0
   -2.7696   -2.5709   -0.8910 H   0  0  0  0  0  0  0  0  0  0  0  0
   -0.8406   -2.3699    0.0000 C   0  0  0  0  0  0  0  0  0  0  0  0
    0.1164   -3.1329    0.0000 O   0  0  0  0  0  0  0  0  0  0  0  0
   -0.7136   -1.0459    0.0000 N   0  0  0  0  0  0  0  0  0  0  0  0
   -1.5436   -0.4719    0.0000 H   0  0  0  0  0  0  0  0  0  0  0  0
    0.5724   -0.3469    0.0000 C   0  0  0  0  0  0  0  0  0  0  0  0
    0.6485    0.2650    0.8999 H   0  0  0  0  0  0  0  0  0  0  0  0
    1.3797   -1.0803    0.0159 H   0  0  0  0  0  0  0  0  0  0  0  0
    0.7501    0.5547   -1.2250 C   0  0  0  0  0  0  0  0  0  0  0  0
   -0.1358    0.6311   -2.0740 O   0  0  0  0  0  0  0  0  0  0  0  0
    1.9014    1.2337   -1.3059 N   0  0  0  0  0  0  0  0  0  0  0  0
    2.5691    1.1073   -0.5614 H   0  0  0  0  0  0  0  0  0  0  0  0
    2.2633    2.1450   -2.3935 C   0  0  0  0  0  0  0  0  0  0  0  0
    1.4629    2.1976   -3.1355 H   0  0  0  0  0  0  0  0  0  0  0  0
    2.4357    3.1463   -1.9966 H   0  0  0  0  0  0  0  0  0  0  0  0
    3.1711    1.7934   -2.8856 H   0  0  0  0  0  0  0  0  0  0  0  0
  5  6  2  0  0  0  0
  5  7  1  0  0  0  0
  2  3  1  0  0  0  0
  2  4  1  0  0  0  0
  2  5  1  0  0  0  0
  1  2  1  0  0  0  0
 12 13  2  0  0  0  0
 12 14  1  0  0  0  0
  9 10  1  0  0  0  0
  9 11  1  0  0  0  0
  9 12  1  0  0  0  0
  7  8  1  0  0  0  0
  7  9  1  0  0  0  0
 16 17  1  0  0  0  0
 16 18  1  0  0  0  0
 16 19  1  0  0  0  0
 14 15  1  0  0  0  0
 14 16  1  0  0  0  0
M  END
$$$$
default_name
  -OEChem-01062215323D

 19 18  0     0  0  0  0  0  0999 V2000
   -2.2056   -4.0049    0.0000 H   0  0  0  0  0  0  0  0  0  0  0  0
   -2.2496   -2.9169    0.0000 C   0  0  0  0  0  0  0  0  0  0  0  0
   -2.7696   -2.5709    0.8910 H   0  0  0  0  0  0  0  0  0  0  0  0
   -2.7696   -2.5709   -0.8910 H   0  0  0  0  0  0  0  0  0  0  0  0
   -0.8406   -2.3699    0.0000 C   0  0  0  0  0  0  0  0  0  0  0  0
    0.1164   -3.1329    0.0000 O   0  0  0  0  0  0  0  0  0  0  0  0
   -0.7136   -1.0459    0.0000 N   0  0  0  0  0  0  0  0  0  0  0  0
   -1.5436   -0.4719    0.0000 H   0  0  0  0  0  0  0  0  0  0  0  0
    0.5724   -0.3469    0.0000 C   0  0  0  0  0  0  0  0  0  0  0  0
    0.6485    0.2650    0.8999 H   0  0  0  0  0  0  0  0  0  0  0  0
    1.3797   -1.0803    0.0159 H   0  0  0  0  0  0  0  0  0  0  0  0
    0.7501    0.5547   -1.2250 C   0  0  0  0  0  0  0  0  0  0  0  0
   -0.2167    0.8498   -1.9247 O   0  0  0  0  0  0  0  0  0  0  0  0
    1.9928    0.9866   -1.4745 N   0  0  0  0  0  0  0  0  0  0  0  0
    2.7227    0.6921   -0.8447 H   0  0  0  0  0  0  0  0  0  0  0  0
    2.3710    1.8537   -2.5922 C   0  0  0  0  0  0  0  0  0  0  0  0
    1.4978    2.1031   -3.2000 H   0  0  0  0  0  0  0  0  0  0  0  0
    2.8065    2.7791   -2.2130 H   0  0  0  0  0  0  0  0  0  0  0  0
    3.1013    1.3468   -3.2244 H   0  0  0  0  0  0  0  0  0  0  0  0
  5  6  2  0  0  0  0
  5  7  1  0  0  0  0
  2  3  1  0  0  0  0
  2  4  1  0  0  0  0
  2  5  1  0  0  0  0
  1  2  1  0  0  0  0
 12 13  2  0  0  0  0
 12 14  1  0  0  0  0
  9 10  1  0  0  0  0
  9 11  1  0  0  0  0
  9 12  1  0  0  0  0
  7  8  1  0  0  0  0
  7  9  1  0  0  0  0
 16 17  1  0  0  0  0
 16 18  1  0  0  0  0
 16 19  1  0  0  0  0
 14 15  1  0  0  0  0
 14 16  1  0  0  0  0
M  END
$$$$
default_name
  -OEChem-01062215323D

 19 18  0     0  0  0  0  0  0999 V2000
   -2.2056   -4.0049    0.0000 H   0  0  0  0  0  0  0  0  0  0  0  0
   -2.2496   -2.9169    0.0000 C   0  0  0  0  0  0  0  0  0  0  0  0
   -2.7696   -2.5709    0.8910 H   0  0  0  0  0  0  0  0  0  0  0  0
   -2.7696   -2.5709   -0.8910 H   0  0  0  0  0  0  0  0  0  0  0  0
   -0.8406   -2.3699    0.0000 C   0  0  0  0  0  0  0  0  0  0  0  0
    0.1164   -3.1329    0.0000 O   0  0  0  0  0  0  0  0  0  0  0  0
   -0.7136   -1.0459    0.0000 N   0  0  0  0  0  0  0  0  0  0  0  0
   -1.5436   -0.4719    0.0000 H   0  0  0  0  0  0  0  0  0  0  0  0
    0.5724   -0.3469    0.0000 C   0  0  0  0  0  0  0  0  0  0  0  0
    0.6485    0.2650    0.8999 H   0  0  0  0  0  0  0  0  0  0  0  0
    1.3797   -1.0803    0.0159 H   0  0  0  0  0  0  0  0  0  0  0  0
    0.7501    0.5547   -1.2250 C   0  0  0  0  0  0  0  0  0  0  0  0
   -0.2268    1.0734   -1.7616 O   0  0  0  0  0  0  0  0  0  0  0  0
    2.0042    0.7341   -1.6587 N   0  0  0  0  0  0  0  0  0  0  0  0
    2.7419    0.2677   -1.1543 H   0  0  0  0  0  0  0  0  0  0  0  0
    2.3845    1.5560   -2.8094 C   0  0  0  0  0  0  0  0  0  0  0  0
    1.5022    2.0066   -3.2704 H   0  0  0  0  0  0  0  0  0  0  0  0
    3.0557    2.3541   -2.4896 H   0  0  0  0  0  0  0  0  0  0  0  0
    2.8897    0.9400   -3.5545 H   0  0  0  0  0  0  0  0  0  0  0  0
  5  6  2  0  0  0  0
  5  7  1  0  0  0  0
  2  3  1  0  0  0  0
  2  4  1  0  0  0  0
  2  5  1  0  0  0  0
  1  2  1  0  0  0  0
 12 13  2  0  0  0  0
 12 14  1  0  0  0  0
  9 10  1  0  0  0  0
  9 11  1  0  0  0  0
  9 12  1  0  0  0  0
  7  8  1  0  0  0  0
  7  9  1  0  0  0  0
 16 17  1  0  0  0  0
 16 18  1  0  0  0  0
 16 19  1  0  0  0  0
 14 15  1  0  0  0  0
 14 16  1  0  0  0  0
M  END
$$$$
default_name
  -OEChem-01062215323D

 19 18  0     0  0  0  0  0  0999 V2000
   -2.2056   -4.0049    0.0000 H   0  0  0  0  0  0  0  0  0  0  0  0
   -2.2496   -2.9169    0.0000 C   0  0  0  0  0  0  0  0  0  0  0  0
   -2.7696   -2.5709    0.8910 H   0  0  0  0  0  0  0  0  0  0  0  0
   -2.7696   -2.5709   -0.8910 H   0  0  0  0  0  0  0  0  0  0  0  0
   -0.8406   -2.3699    0.0000 C   0  0  0  0  0  0  0  0  0  0  0  0
    0.1164   -3.1329    0.0000 O   0  0  0  0  0  0  0  0  0  0  0  0
   -0.7136   -1.0459    0.0000 N   0  0  0  0  0  0  0  0  0  0  0  0
   -1.5436   -0.4719    0.0000 H   0  0  0  0  0  0  0  0  0  0  0  0
    0.5724   -0.3469    0.0000 C   0  0  0  0  0  0  0  0  0  0  0  0
    0.6485    0.2650    0.8999 H   0  0  0  0  0  0  0  0  0  0  0  0
    1.3797   -1.0803    0.0159 H   0  0  0  0  0  0  0  0  0  0  0  0
    0.7501    0.5547   -1.2250 C   0  0  0  0  0  0  0  0  0  0  0  0
   -0.1654    1.2866   -1.5958 O   0  0  0  0  0  0  0  0  0  0  0  0
    1.9349    0.4934   -1.8459 N   0  0  0  0  0  0  0  0  0  0  0  0
    2.6254   -0.1369   -1.4690 H   0  0  0  0  0  0  0  0  0  0  0  0
    2.3028    1.2721   -3.0302 C   0  0  0  0  0  0  0  0  0  0  0  0
    1.4757    1.9146   -3.3419 H   0  0  0  0  0  0  0  0  0  0  0  0
    3.1662    1.9004   -2.8075 H   0  0  0  0  0  0  0  0  0  0  0  0
    2.5509    0.6008   -3.8533 H   0  0  0  0  0  0  0  0  0  0  0  0
  5  6  2  0  0  0  0
  5  7  1  0  0  0  0
  2  3  1  0  0  0  0
  2  4  1  0  0  0  0
  2  5  1  0  0  0  0
  1  2  1  0  0  0  0
 12 13  2  0  0  0  0
 12 14  1  0  0  0  0
  9 10  1  0  0  0  0
  9 11  1  0  0  0  0
  9 12  1  0  0  0  0
  7  8  1  0  0  0  0
  7  9  1  0  0  0  0
 16 17  1  0  0  0  0
 16 18  1  0  0  0  0
 16 19  1  0  0  0  0
 14 15  1  0  0  0  0
 14 16  1  0  0  0  0
M  END
$$$$
default_name
  -OEChem-01062215323D

 19 18  0     0  0  0  0  0  0999 V2000
   -2.2056   -4.0049    0.0000 H   0  0  0  0  0  0  0  0  0  0  0  0
   -2.2496   -2.9169    0.0000 C   0  0  0  0  0  0  0  0  0  0  0  0
   -2.7696   -2.5709    0.8910 H   0  0  0  0  0  0  0  0  0  0  0  0
   -2.7696   -2.5709   -0.8910 H   0  0  0  0  0  0  0  0  0  0  0  0
   -0.8406   -2.3699    0.0000 C   0  0  0  0  0  0  0  0  0  0  0  0
    0.1164   -3.1329    0.0000 O   0  0  0  0  0  0  0  0  0  0  0  0
   -0.7136   -1.0459    0.0000 N   0  0  0  0  0  0  0  0  0  0  0  0
   -1.5436   -0.4719    0.0000 H   0  0  0  0  0  0  0  0  0  0  0  0
    0.5724   -0.3469    0.0000 C   0  0  0  0  0  0  0  0  0  0  0  0
    0.6485    0.2650    0.8999 H   0  0  0  0  0  0  0  0  0  0  0  0
    1.3797   -1.0803    0.0159 H   0  0  0  0  0  0  0  0  0  0  0  0
    0.7501    0.5547   -1.2250 C   0  0  0  0  0  0  0  0  0  0  0  0
   -0.0368    1.4748   -1.4386 O   0  0  0  0  0  0  0  0  0  0  0  0
    1.7896    0.2808   -2.0235 N   0  0  0  0  0  0  0  0  0  0  0  0
    2.3812   -0.4942   -1.7674 H   0  0  0  0  0  0  0  0  0  0  0  0
    2.1314    1.0215   -3.2395 C   0  0  0  0  0  0  0  0  0  0  0  0
    1.4201    1.8334   -3.4098 H   0  0  0  0  0  0  0  0  0  0  0  0
    3.1306    1.4488   -3.1451 H   0  0  0  0  0  0  0  0  0  0  0  0
    2.1078    0.3523   -4.1005 H   0  0  0  0  0  0  0  0  0  0  0  0
  5  6  2  0  0  0  0
  5  7  1  0  0  0  0
  2  3  1  0  0  0  0
  2  4  1  0  0  0  0
  2  5  1  0  0  0  0
  1  2  1  0  0  0  0
 12 13  2  0  0  0  0
 12 14  1  0  0  0  0
  9 10  1  0  0  0  0
  9 11  1  0  0  0  0
  9 12  1  0  0  0  0
  7  8  1  0  0  0  0
  7  9  1  0  0  0  0
 16 17  1  0  0  0  0
 16 18  1  0  0  0  0
 16 19  1  0  0  0  0
 14 15  1  0  0  0  0
 14 16  1  0  0  0  0
M  END
$$$$
default_name
  -OEChem-01062215323D

 19 18  0     0  0  0  0  0  0999 V2000
   -2.2056   -4.0049    0.0000 H   0  0  0  0  0  0  0  0  0  0  0  0
   -2.2496   -2.9169    0.0000 C   0  0  0  0  0  0  0  0  0  0  0  0
   -2.7696   -2.5709    0.8910 H   0  0  0  0  0  0  0  0  0  0  0  0
   -2.7696   -2.5709   -0.8910 H   0  0  0  0  0  0  0  0  0  0  0  0
   -0.8406   -2.3699    0.0000 C   0  0  0  0  0  0  0  0  0  0  0  0
    0.1164   -3.1329    0.0000 O   0  0  0  0  0  0  0  0  0  0  0  0
   -0.7136   -1.0459    0.0000 N   0  0  0  0  0  0  0  0  0  0  0  0
   -1.5436   -0.4719    0.0000 H   0  0  0  0  0  0  0  0  0  0  0  0
    0.5724   -0.3469    0.0000 C   0  0  0  0  0  0  0  0  0  0  0  0
    0.6485    0.2650    0.8999 H   0  0  0  0  0  0  0  0  0  0  0  0
    1.3797   -1.0803    0.0159 H   0  0  0  0  0  0  0  0  0  0  0  0
    0.7501    0.5547   -1.2250 C   0  0  0  0  0  0  0  0  0  0  0  0
    0.1505    1.6253   -1.3007 O   0  0  0  0  0  0  0  0  0  0  0  0
    1.5782    0.1109   -2.1792 N   0  0  0  0  0  0  0  0  0  0  0  0
    2.0258   -0.7797   -2.0291 H   0  0  0  0  0  0  0  0  0  0  0  0
    1.8821    0.8212   -3.4231 C   0  0  0  0  0  0  0  0  0  0  0  0
    1.3393    1.7685   -3.4693 H   0  0  0  0  0  0  0  0  0  0  0  0
    2.9513    1.0300   -3.4793 H   0  0  0  0  0  0  0  0  0  0  0  0
    1.5907    0.2114   -4.2793 H   0  0  0  0  0  0  0  0  0  0  0  0
  5  6  2  0  0  0  0
  5  7  1  0  0  0  0
  2  3  1  0  0  0  0
  2  4  1  0  0  0  0
  2  5  1  0  0  0  0
  1  2  1  0  0  0  0
 12 13  2  0  0  0  0
 12 14  1  0  0  0  0
  9 10  1  0  0  0  0
  9 11  1  0  0  0  0
  9 12  1  0  0  0  0
  7  8  1  0  0  0  0
  7  9  1  0  0  0  0
 16 17  1  0  0  0  0
 16 18  1  0  0  0  0
 16 19  1  0  0  0  0
 14 15  1  0  0  0  0
 14 16  1  0  0  0  0
M  END
$$$$
default_name
  -OEChem-01062215323D

 19 18  0     0  0  0  0  0  0999 V2000
   -2.2056   -4.0049    0.0000 H   0  0  0  0  0  0  0  0  0  0  0  0
   -2.2496   -2.9169    0.0000 C   0  0  0  0  0  0  0  0  0  0  0  0
   -2.7696   -2.5709    0.8910 H   0  0  0  0  0  0  0  0  0  0  0  0
   -2.7696   -2.5709   -0.8910 H   0  0  0  0  0  0  0  0  0  0  0  0
   -0.8406   -2.3699    0.0000 C   0  0  0  0  0  0  0  0  0  0  0  0
    0.1164   -3.1329    0.0000 O   0  0  0  0  0  0  0  0  0  0  0  0
   -0.7136   -1.0459    0.0000 N   0  0  0  0  0  0  0  0  0  0  0  0
   -1.5436   -0.4719    0.0000 H   0  0  0  0  0  0  0  0  0  0  0  0
    0.5724   -0.3469    0.0000 C   0  0  0  0  0  0  0  0  0  0  0  0
    0.6485    0.2650    0.8999 H   0  0  0  0  0  0  0  0  0  0  0  0
    1.3797   -1.0803    0.0159 H   0  0  0  0  0  0  0  0  0  0  0  0
    0.7501    0.5547   -1.2250 C   0  0  0  0  0  0  0  0  0  0  0  0
    0.3835    1.7277   -1.1915 O   0  0  0  0  0  0  0  0  0  0  0  0
    1.3150   -0.0047   -2.3025 N   0  0  0  0  0  0  0  0  0  0  0  0
    1.5836   -0.9741   -2.2363 H   0  0  0  0  0  0  0  0  0  0  0  0
    1.5719    0.6849   -3.5685 C   0  0  0  0  0  0  0  0  0  0  0  0
    1.2388    1.7243   -3.5164 H   0  0  0  0  0  0  0  0  0  0  0  0
    2.6404    0.6728   -3.7874 H   0  0  0  0  0  0  0  0  0  0  0  0
    1.0348    0.1877   -4.3773 H   0  0  0  0  0  0  0  0  0  0  0  0
  5  6  2  0  0  0  0
  5  7  1  0  0  0  0
  2  3  1  0  0  0  0
  2  4  1  0  0  0  0
  2  5  1  0  0  0  0
  1  2  1  0  0  0  0
 12 13  2  0  0  0  0
 12 14  1  0  0  0  0
  9 10  1  0  0  0  0
  9 11  1  0  0  0  0
  9 12  1  0  0  0  0
  7  8  1  0  0  0  0
  7  9  1  0  0  0  0
 16 17  1  0  0  0  0
 16 18  1  0  0  0  0
 16 19  1  0  0  0  0
 14 15  1  0  0  0  0
 14 16  1  0  0  0  0
M  END
$$$$
default_name
  -OEChem-01062215323D

 19 18  0     0  0  0  0  0  0999 V2000
   -2.2056   -4.0049    0.0000 H   0  0  0  0  0  0  0  0  0  0  0  0
   -2.2496   -2.9169    0.0000 C   0  0  0  0  0  0  0  0  0  0  0  0
   -2.7696   -2.5709    0.8910 H   0  0  0  0  0  0  0  0  0  0  0  0
   -2.7696   -2.5709   -0.8910 H   0  0  0  0  0  0  0  0  0  0  0  0
   -0.8406   -2.3699    0.0000 C   0  0  0  0  0  0  0  0  0  0  0  0
    0.1164   -3.1329    0.0000 O   0  0  0  0  0  0  0  0  0  0  0  0
   -0.7136   -1.0459    0.0000 N   0  0  0  0  0  0  0  0  0  0  0  0
   -1.5436   -0.4719    0.0000 H   0  0  0  0  0  0  0  0  0  0  0  0
    0.5724   -0.3469    0.0000 C   0  0  0  0  0  0  0  0  0  0  0  0
    0.6485    0.2650    0.8999 H   0  0  0  0  0  0  0  0  0  0  0  0
    1.3797   -1.0803    0.0159 H   0  0  0  0  0  0  0  0  0  0  0  0
    0.7501    0.5547   -1.2250 C   0  0  0  0  0  0  0  0  0  0  0  0
    0.6464    1.7751   -1.1185 O   0  0  0  0  0  0  0  0  0  0  0  0
    1.0181   -0.0583   -2.3850 N   0  0  0  0  0  0  0  0  0  0  0  0
    1.0846   -1.0641   -2.3750 H   0  0  0  0  0  0  0  0  0  0  0  0
    1.2218    0.6217   -3.6657 C   0  0  0  0  0  0  0  0  0  0  0  0
    1.1253    1.7038   -3.5479 H   0  0  0  0  0  0  0  0  0  0  0  0
    2.2193    0.4013   -4.0483 H   0  0  0  0  0  0  0  0  0  0  0  0
    0.4780    0.2829   -4.3881 H   0  0  0  0  0  0  0  0  0  0  0  0
  5  6  2  0  0  0  0
  5  7  1  0  0  0  0
  2  3  1  0  0  0  0
  2  4  1  0  0  0  0
  2  5  1  0  0  0  0
  1  2  1  0  0  0  0
 12 13  2  0  0  0  0
 12 14  1  0  0  0  0
  9 10  1  0  0  0  0
  9 11  1  0  0  0  0
  9 12  1  0  0  0  0
  7  8  1  0  0  0  0
  7  9  1  0  0  0  0
 16 17  1  0  0  0  0
 16 18  1  0  0  0  0
 16 19  1  0  0  0  0
 14 15  1  0  0  0  0
 14 16  1  0  0  0  0
M  END
$$$$
default_name
  -OEChem-01062215323D

 19 18  0     0  0  0  0  0  0999 V2000
   -2.2056   -4.0049    0.0000 H   0  0  0  0  0  0  0  0  0  0  0  0
   -2.2496   -2.9169    0.0000 C   0  0  0  0  0  0  0  0  0  0  0  0
   -2.7696   -2.5709    0.8910 H   0  0  0  0  0  0  0  0  0  0  0  0
   -2.7696   -2.5709   -0.8910 H   0  0  0  0  0  0  0  0  0  0  0  0
   -0.8406   -2.3699    0.0000 C   0  0  0  0  0  0  0  0  0  0  0  0
    0.1164   -3.1329    0.0000 O   0  0  0  0  0  0  0  0  0  0  0  0
   -0.7136   -1.0459    0.0000 N   0  0  0  0  0  0  0  0  0  0  0  0
   -1.5436   -0.4719    0.0000 H   0  0  0  0  0  0  0  0  0  0  0  0
    0.5724   -0.3469    0.0000 C   0  0  0  0  0  0  0  0  0  0  0  0
    0.6485    0.2650    0.8999 H   0  0  0  0  0  0  0  0  0  0  0  0
    1.3797   -1.0803    0.0159 H   0  0  0  0  0  0  0  0  0  0  0  0
    0.7501    0.5547   -1.2250 C   0  0  0  0  0  0  0  0  0  0  0  0
    0.9213    1.7642   -1.0866 O   0  0  0  0  0  0  0  0  0  0  0  0
    0.7077   -0.0460   -2.4210 N   0  0  0  0  0  0  0  0  0  0  0  0
    0.5628   -1.0435   -2.4355 H   0  0  0  0  0  0  0  0  0  0  0  0
    0.8558    0.6362   -3.7082 C   0  0  0  0  0  0  0  0  0  0  0  0
    1.0067    1.7085   -3.5617 H   0  0  0  0  0  0  0  0  0  0  0  0
    1.7165    0.2341   -4.2443 H   0  0  0  0  0  0  0  0  0  0  0  0
   -0.0417    0.4904   -4.3107 H   0  0  0  0  0  0  0  0  0  0  0  0
  5  6  2  0  0  0  0
  5  7  1  0  0  0  0
  2  3  1  0  0  0  0
  2  4  1  0  0  0  0
  2  5  1  0  0  0  0
  1  2  1  0  0  0  0
 12 13  2  0  0  0  0
 12 14  1  0  0  0  0
  9 10  1  0  0  0  0
  9 11  1  0  0  0  0
  9 12  1  0  0  0  0
  7  8  1  0  0  0  0
  7  9  1  0  0  0  0
 16 17  1  0  0  0  0
 16 18  1  0  0  0  0
 16 19  1  0  0  0  0
 14 15  1  0  0  0  0
 14 16  1  0  0  0  0
M  END
$$$$
default_name
  -OEChem-01062215323D

 19 18  0     0  0  0  0  0  0999 V2000
   -2.2056   -4.0049    0.0000 H   0  0  0  0  0  0  0  0  0  0  0  0
   -2.2496   -2.9169    0.0000 C   0  0  0  0  0  0  0  0  0  0  0  0
   -2.7696   -2.5709    0.8910 H   0  0  0  0  0  0  0  0  0  0  0  0
   -2.7696   -2.5709   -0.8910 H   0  0  0  0  0  0  0  0  0  0  0  0
   -0.8406   -2.3699    0.0000 C   0  0  0  0  0  0  0  0  0  0  0  0
    0.1164   -3.1329    0.0000 O   0  0  0  0  0  0  0  0  0  0  0  0
   -0.7136   -1.0459    0.0000 N   0  0  0  0  0  0  0  0  0  0  0  0
   -1.5436   -0.4719    0.0000 H   0  0  0  0  0  0  0  0  0  0  0  0
    0.5724   -0.3469    0.0000 C   0  0  0  0  0  0  0  0  0  0  0  0
    0.6485    0.2650    0.8999 H   0  0  0  0  0  0  0  0  0  0  0  0
    1.3797   -1.0803    0.0159 H   0  0  0  0  0  0  0  0  0  0  0  0
    0.7501    0.5547   -1.2250 C   0  0  0  0  0  0  0  0  0  0  0  0
    1.1894    1.6959   -1.0980 O   0  0  0  0  0  0  0  0  0  0  0  0
    0.4049    0.0312   -2.4081 N   0  0  0  0  0  0  0  0  0  0  0  0
    0.0539   -0.9138   -2.4139 H   0  0  0  0  0  0  0  0  0  0  0  0
    0.4988    0.7272   -3.6930 C   0  0  0  0  0  0  0  0  0  0  0  0
    0.8909    1.7380   -3.5568 H   0  0  0  0  0  0  0  0  0  0  0  0
    1.1663    0.1825   -4.3621 H   0  0  0  0  0  0  0  0  0  0  0  0
   -0.4890    0.7962   -4.1506 H   0  0  0  0  0  0  0  0  0  0  0  0
  5  6  2  0  0  0  0
  5  7  1  0  0  0  0
  2  3  1  0  0  0  0
  2  4  1  0  0  0  0
  2  5  1  0  0  0  0
  1  2  1  0  0  0  0
 12 13  2  0  0  0  0
 12 14  1  0  0  0  0
  9 10  1  0  0  0  0
  9 11  1  0  0  0  0
  9 12  1  0  0  0  0
  7  8  1  0  0  0  0
  7  9  1  0  0  0  0
 16 17  1  0  0  0  0
 16 18  1  0  0  0  0
 16 19  1  0  0  0  0
 14 15  1  0  0  0  0
 14 16  1  0  0  0  0
M  END
$$$$
default_name
  -OEChem-01062215323D

 19 18  0     0  0  0  0  0  0999 V2000
   -2.2056   -4.0049    0.0000 H   0  0  0  0  0  0  0  0  0  0  0  0
   -2.2496   -2.9169    0.0000 C   0  0  0  0  0  0  0  0  0  0  0  0
   -2.7696   -2.5709    0.8910 H   0  0  0  0  0  0  0  0  0  0  0  0
   -2.7696   -2.5709   -0.8910 H   0  0  0  0  0  0  0  0  0  0  0  0
   -0.8406   -2.3699    0.0000 C   0  0  0  0  0  0  0  0  0  0  0  0
    0.1164   -3.1329    0.0000 O   0  0  0  0  0  0  0  0  0  0  0  0
   -0.7136   -1.0459    0.0000 N   0  0  0  0  0  0  0  0  0  0  0  0
   -1.5436   -0.4719    0.0000 H   0  0  0  0  0  0  0  0  0  0  0  0
    0.5724   -0.3469    0.0000 C   0  0  0  0  0  0  0  0  0  0  0  0
    0.6485    0.2650    0.8999 H   0  0  0  0  0  0  0  0  0  0  0  0
    1.3797   -1.0803    0.0159 H   0  0  0  0  0  0  0  0  0  0  0  0
    0.7501    0.5547   -1.2250 C   0  0  0  0  0  0  0  0  0  0  0  0
    1.4325    1.5747   -1.1519 O   0  0  0  0  0  0  0  0  0  0  0  0
    0.1304    0.1680   -2.3472 N   0  0  0  0  0  0  0  0  0  0  0  0
   -0.4076   -0.6837   -2.3116 H   0  0  0  0  0  0  0  0  0  0  0  0
    0.1751    0.8885   -3.6212 C   0  0  0  0  0  0  0  0  0  0  0  0
    0.7860    1.7903   -3.5335 H   0  0  0  0  0  0  0  0  0  0  0  0
    0.6063    0.2502   -4.3935 H   0  0  0  0  0  0  0  0  0  0  0  0
   -0.8333    1.1793   -3.9186 H   0  0  0  0  0  0  0  0  0  0  0  0
  5  6  2  0  0  0  0
  5  7  1  0  0  0  0
  2  3  1  0  0  0  0
  2  4  1  0  0  0  0
  2  5  1  0  0  0  0
  1  2  1  0  0  0  0
 12 13  2  0  0  0  0
 12 14  1  0  0  0  0
  9 10  1  0  0  0  0
  9 11  1  0  0  0  0
  9 12  1  0  0  0  0
  7  8  1  0  0  0  0
  7  9  1  0  0  0  0
 16 17  1  0  0  0  0
 16 18  1  0  0  0  0
 16 19  1  0  0  0  0
 14 15  1  0  0  0  0
 14 16  1  0  0  0  0
M  END
$$$$
default_name
  -OEChem-01062215323D

 19 18  0     0  0  0  0  0  0999 V2000
   -2.2056   -4.0049    0.0000 H   0  0  0  0  0  0  0  0  0  0  0  0
   -2.2496   -2.9169    0.0000 C   0  0  0  0  0  0  0  0  0  0  0  0
   -2.7696   -2.5709    0.8910 H   0  0  0  0  0  0  0  0  0  0  0  0
   -2.7696   -2.5709   -0.8910 H   0  0  0  0  0  0  0  0  0  0  0  0
   -0.8406   -2.3699    0.0000 C   0  0  0  0  0  0  0  0  0  0  0  0
    0.1164   -3.1329    0.0000 O   0  0  0  0  0  0  0  0  0  0  0  0
   -0.7136   -1.0459    0.0000 N   0  0  0  0  0  0  0  0  0  0  0  0
   -1.5436   -0.4719    0.0000 H   0  0  0  0  0  0  0  0  0  0  0  0
    0.5724   -0.3469    0.0000 C   0  0  0  0  0  0  0  0  0  0  0  0
    0.6485    0.2650    0.8999 H   0  0  0  0  0  0  0  0  0  0  0  0
    1.3797   -1.0803    0.0159 H   0  0  0  0  0  0  0  0  0  0  0  0
    0.7501    0.5547   -1.2250 C   0  0  0  0  0  0  0  0  0  0  0  0
    1.6341    1.4089   -1.2446 O   0  0  0  0  0  0  0  0  0  0  0  0
   -0.0972    0.3552   -2.2425 N   0  0  0  0  0  0  0  0  0  0  0  0
   -0.7901   -0.3691   -2.1355 H   0  0  0  0  0  0  0  0  0  0  0  0
   -0.0932    1.1093   -3.4977 C   0  0  0  0  0  0  0  0  0  0  0  0
    0.6990    1.8618   -3.4935 H   0  0  0  0  0  0  0  0  0  0  0  0
    0.0746    0.4325   -4.3365 H   0  0  0  0  0  0  0  0  0  0  0  0
   -1.0512    1.6137   -3.6305 H   0  0  0  0  0  0  0  0  0  0  0  0
  5  6  2  0  0  0  0
  5  7  1  0  0  0  0
  2  3  1  0  0  0  0
  2  4  1  0  0  0  0
  2  5  1  0  0  0  0
  1  2  1  0  0  0  0
 12 13  2  0  0  0  0
 12 14  1  0  0  0  0
  9 10  1  0  0  0  0
  9 11  1  0  0  0  0
  9 12  1  0  0  0  0
  7  8  1  0  0  0  0
  7  9  1  0  0  0  0
 16 17  1  0  0  0  0
 16 18  1  0  0  0  0
 16 19  1  0  0  0  0
 14 15  1  0  0  0  0
 14 16  1  0  0  0  0
M  END
$$$$
default_name
  -OEChem-01062215323D

 19 18  0     0  0  0  0  0  0999 V2000
   -2.2056   -4.0049    0.0000 H   0  0  0  0  0  0  0  0  0  0  0  0
   -2.2496   -2.9169    0.0000 C   0  0  0  0  0  0  0  0  0  0  0  0
   -2.7696   -2.5709    0.8910 H   0  0  0  0  0  0  0  0  0  0  0  0
   -2.7696   -2.5709   -0.8910 H   0  0  0  0  0  0  0  0  0  0  0  0
   -0.8406   -2.3699    0.0000 C   0  0  0  0  0  0  0  0  0  0  0  0
    0.1164   -3.1329    0.0000 O   0  0  0  0  0  0  0  0  0  0  0  0
   -0.7136   -1.0459    0.0000 N   0  0  0  0  0  0  0  0  0  0  0  0
   -1.5436   -0.4719    0.0000 H   0  0  0  0  0  0  0  0  0  0  0  0
    0.5724   -0.3469    0.0000 C   0  0  0  0  0  0  0  0  0  0  0  0
    0.6485    0.2650    0.8999 H   0  0  0  0  0  0  0  0  0  0  0  0
    1.3797   -1.0803    0.0159 H   0  0  0  0  0  0  0  0  0  0  0  0
    0.7501    0.5547   -1.2250 C   0  0  0  0  0  0  0  0  0  0  0  0
    1.7803    1.2099   -1.3699 O   0  0  0  0  0  0  0  0  0  0  0  0
   -0.2623    0.5800   -2.1010 N   0  0  0  0  0  0  0  0  0  0  0  0
   -1.0676    0.0087   -1.8977 H   0  0  0  0  0  0  0  0  0  0  0  0
   -0.2879    1.3743   -3.3309 C   0  0  0  0  0  0  0  0  0  0  0  0
    0.6359    1.9478   -3.4394 H   0  0  0  0  0  0  0  0  0  0  0  0
   -0.3926    0.7169   -4.1950 H   0  0  0  0  0  0  0  0  0  0  0  0
   -1.1279    2.0698   -3.3060 H   0  0  0  0  0  0  0  0  0  0  0  0
  5  6  2  0  0  0  0
  5  7  1  0  0  0  0
  2  3  1  0  0  0  0
  2  4  1  0  0  0  0
  2  5  1  0  0  0  0
  1  2  1  0  0  0  0
 12 13  2  0  0  0  0
 12 14  1  0  0  0  0
  9 10  1  0  0  0  0
  9 11  1  0  0  0  0
  9 12  1  0  0  0  0
  7  8  1  0  0  0  0
  7  9  1  0  0  0  0
 16 17  1  0  0  0  0
 16 18  1  0  0  0  0
 16 19  1  0  0  0  0
 14 15  1  0  0  0  0
 14 16  1  0  0  0  0
M  END
$$$$
default_name
  -OEChem-01062215323D

 19 18  0     0  0  0  0  0  0999 V2000
   -2.2056   -4.0049    0.0000 H   0  0  0  0  0  0  0  0  0  0  0  0
   -2.2496   -2.9169    0.0000 C   0  0  0  0  0  0  0  0  0  0  0  0
   -2.7696   -2.5709    0.8910 H   0  0  0  0  0  0  0  0  0  0  0  0
   -2.7696   -2.5709   -0.8910 H   0  0  0  0  0  0  0  0  0  0  0  0
   -0.8406   -2.3699    0.0000 C   0  0  0  0  0  0  0  0  0  0  0  0
    0.1164   -3.1329    0.0000 O   0  0  0  0  0  0  0  0  0  0  0  0
   -0.7136   -1.0459    0.0000 N   0  0  0  0  0  0  0  0  0  0  0  0
   -1.5436   -0.4719    0.0000 H   0  0  0  0  0  0  0  0  0  0  0  0
    0.5724   -0.3469    0.0000 C   0  0  0  0  0  0  0  0  0  0  0  0
    0.6485    0.2650    0.8999 H   0  0  0  0  0  0  0  0  0  0  0  0
    1.3797   -1.0803    0.0159 H   0  0  0  0  0  0  0  0  0  0  0  0
    0.7501    0.5547   -1.2250 C   0  0  0  0  0  0  0  0  0  0  0  0
    1.8612    0.9911   -1.5192 O   0  0  0  0  0  0  0  0  0  0  0  0
   -0.3537    0.8271   -1.9324 N   0  0  0  0  0  0  0  0  0  0  0  0
   -1.2212    0.4240   -1.6143 H   0  0  0  0  0  0  0  0  0  0  0  0
   -0.3956    1.6656   -3.1321 C   0  0  0  0  0  0  0  0  0  0  0  0
    0.6010    2.0422   -3.3750 H   0  0  0  0  0  0  0  0  0  0  0  0
   -0.7634    1.0841   -3.9785 H   0  0  0  0  0  0  0  0  0  0  0  0
   -1.0581    2.5164   -2.9671 H   0  0  0  0  0  0  0  0  0  0  0  0
  5  6  2  0  0  0  0
  5  7  1  0  0  0  0
  2  3  1  0  0  0  0
  2  4  1  0  0  0  0
  2  5  1  0  0  0  0
  1  2  1  0  0  0  0
 12 13  2  0  0  0  0
 12 14  1  0  0  0  0
  9 10  1  0  0  0  0
  9 11  1  0  0  0  0
  9 12  1  0  0  0  0
  7  8  1  0  0  0  0
  7  9  1  0  0  0  0
 16 17  1  0  0  0  0
 16 18  1  0  0  0  0
 16 19  1  0  0  0  0
 14 15  1  0  0  0  0
 14 16  1  0  0  0  0
M  END
$$$$
default_name
  -OEChem-01062215323D

 19 18  0     0  0  0  0  0  0999 V2000
   -2.2056   -4.0049    0.0000 H   0  0  0  0  0  0  0  0  0  0  0  0
   -2.2496   -2.9169    0.0000 C   0  0  0  0  0  0  0  0  0  0  0  0
   -2.7696   -2.5709    0.8910 H   0  0  0  0  0  0  0  0  0  0  0  0
   -2.7696   -2.5709   -0.8910 H   0  0  0  0  0  0  0  0  0  0  0  0
   -0.8406   -2.3699    0.0000 C   0  0  0  0  0  0  0  0  0  0  0  0
    0.1164   -3.1329    0.0000 O   0  0  0  0  0  0  0  0  0  0  0  0
   -0.7136   -1.0459    0.0000 N   0  0  0  0  0  0  0  0  0  0  0  0
   -1.5436   -0.4719    0.0000 H   0  0  0  0  0  0  0  0  0  0  0  0
    0.5724   -0.3469    0.0000 C   0  0  0  0  0  0  0  0  0  0  0  0
    0.6485    0.2650    0.8999 H   0  0  0  0  0  0  0  0  0  0  0  0
    1.3797   -1.0803    0.0159 H   0  0  0  0  0  0  0  0  0  0  0  0
    0.7501    0.5547   -1.2250 C   0  0  0  0  0  0  0  0  0  0  0  0
    1.8713    0.7675   -1.6823 O   0  0  0  0  0  0  0  0  0  0  0  0
   -0.3651    1.0796   -1.7482 N   0  0  0  0  0  0  0  0  0  0  0  0
   -1.2404    0.8484   -1.3048 H   0  0  0  0  0  0  0  0  0  0  0  0
   -0.4091    1.9633   -2.9149 C   0  0  0  0  0  0  0  0  0  0  0  0
    0.5966    2.1387   -3.3046 H   0  0  0  0  0  0  0  0  0  0  0  0
   -1.0125    1.5090   -3.7019 H   0  0  0  0  0  0  0  0  0  0  0  0
   -0.8465    2.9232   -2.6371 H   0  0  0  0  0  0  0  0  0  0  0  0
  5  6  2  0  0  0  0
  5  7  1  0  0  0  0
  2  3  1  0  0  0  0
  2  4  1  0  0  0  0
  2  5  1  0  0  0  0
  1  2  1  0  0  0  0
 12 13  2  0  0  0  0
 12 14  1  0  0  0  0
  9 10  1  0  0  0  0
  9 11  1  0  0  0  0
  9 12  1  0  0  0  0
  7  8  1  0  0  0  0
  7  9  1  0  0  0  0
 16 17  1  0  0  0  0
 16 18  1  0  0  0  0
 16 19  1  0  0  0  0
 14 15  1  0  0  0  0
 14 16  1  0  0  0  0
M  END
$$$$
default_name
  -OEChem-01062215323D

 19 18  0     0  0  0  0  0  0999 V2000
   -2.2056   -4.0049    0.0000 H   0  0  0  0  0  0  0  0  0  0  0  0
   -2.2496   -2.9169    0.0000 C   0  0  0  0  0  0  0  0  0  0  0  0
   -2.7696   -2.5709    0.8910 H   0  0  0  0  0  0  0  0  0  0  0  0
   -2.7696   -2.5709   -0.8910 H   0  0  0  0  0  0  0  0  0  0  0  0
   -0.8406   -2.3699    0.0000 C   0  0  0  0  0  0  0  0  0  0  0  0
    0.1164   -3.1329    0.0000 O   0  0  0  0  0  0  0  0  0  0  0  0
   -0.7136   -1.0459    0.0000 N   0  0  0  0  0  0  0  0  0  0  0  0
   -1.5436   -0.4719    0.0000 H   0  0  0  0  0  0  0  0  0  0  0  0
    0.5724   -0.3469    0.0000 C   0  0  0  0  0  0  0  0  0  0  0  0
    0.6485    0.2650    0.8999 H   0  0  0  0  0  0  0  0  0  0  0  0
    1.3797   -1.0803    0.0159 H   0  0  0  0  0  0  0  0  0  0  0  0
    0.7501    0.5547   -1.2250 C   0  0  0  0  0  0  0  0  0  0  0  0
    1.8099    0.5543   -1.8481 O   0  0  0  0  0  0  0  0  0  0  0  0
   -0.2958    1.3203   -1.5610 N   0  0  0  0  0  0  0  0  0  0  0  0
   -1.1239    1.2530   -0.9901 H   0  0  0  0  0  0  0  0  0  0  0  0
   -0.3274    2.2472   -2.6942 C   0  0  0  0  0  0  0  0  0  0  0  0
    0.6231    2.2307   -3.2330 H   0  0  0  0  0  0  0  0  0  0  0  0
   -1.1231    1.9628   -3.3840 H   0  0  0  0  0  0  0  0  0  0  0  0
   -0.5077    3.2624   -2.3382 H   0  0  0  0  0  0  0  0  0  0  0  0
  5  6  2  0  0  0  0
  5  7  1  0  0  0  0
  2  3  1  0  0  0  0
  2  4  1  0  0  0  0
  2  5  1  0  0  0  0
  1  2  1  0  0  0  0
 12 13  2  0  0  0  0
 12 14  1  0  0  0  0
  9 10  1  0  0  0  0
  9 11  1  0  0  0  0
  9 12  1  0  0  0  0
  7  8  1  0  0  0  0
  7  9  1  0  0  0  0
 16 17  1  0  0  0  0
 16 18  1  0  0  0  0
 16 19  1  0  0  0  0
 14 15  1  0  0  0  0
 14 16  1  0  0  0  0
M  END
$$$$
default_name
  -OEChem-01062215323D

 19 18  0     0  0  0  0  0  0999 V2000
   -2.2056   -4.0049    0.0000 H   0  0  0  0  0  0  0  0  0  0  0  0
   -2.2496   -2.9169    0.0000 C   0  0  0  0  0  0  0  0  0  0  0  0
   -2.7696   -2.5709    0.8910 H   0  0  0  0  0  0  0  0  0  0  0  0
   -2.7696   -2.5709   -0.8910 H   0  0  0  0  0  0  0  0  0  0  0  0
   -0.8406   -2.3699    0.0000 C   0  0  0  0  0  0  0  0  0  0  0  0
    0.1164   -3.1329    0.0000 O   0  0  0  0  0  0  0  0  0  0  0  0
   -0.7136   -1.0459    0.0000 N   0  0  0  0  0  0  0  0  0  0  0  0
   -1.5436   -0.4719    0.0000 H   0  0  0  0  0  0  0  0  0  0  0  0
    0.5724   -0.3469    0.0000 C   0  0  0  0  0  0  0  0  0  0  0  0
    0.6485    0.2650    0.8999 H   0  0  0  0  0  0  0  0  0  0  0  0
    1.3797   -1.0803    0.0159 H   0  0  0  0  0  0  0  0  0  0  0  0
    0.7501    0.5547   -1.2250 C   0  0  0  0  0  0  0  0  0  0  0  0
    1.6812    0.3661   -2.0053 O   0  0  0  0  0  0  0  0  0  0  0  0
   -0.1505    1.5329   -1.3834 N   0  0  0  0  0  0  0  0  0  0  0  0
   -0.8796    1.6102   -0.6917 H   0  0  0  0  0  0  0  0  0  0  0  0
   -0.1560    2.4978   -2.4849 C   0  0  0  0  0  0  0  0  0  0  0  0
    0.6787    2.3119   -3.1652 H   0  0  0  0  0  0  0  0  0  0  0  0
   -1.0875    2.4144   -3.0465 H   0  0  0  0  0  0  0  0  0  0  0  0
   -0.0646    3.5109   -2.0910 H   0  0  0  0  0  0  0  0  0  0  0  0
  5  6  2  0  0  0  0
  5  7  1  0  0  0  0
  2  3  1  0  0  0  0
  2  4  1  0  0  0  0
  2  5  1  0  0  0  0
  1  2  1  0  0  0  0
 12 13  2  0  0  0  0
 12 14  1  0  0  0  0
  9 10  1  0  0  0  0
  9 11  1  0  0  0  0
  9 12  1  0  0  0  0
  7  8  1  0  0  0  0
  7  9  1  0  0  0  0
 16 17  1  0  0  0  0
 16 18  1  0  0  0  0
 16 19  1  0  0  0  0
 14 15  1  0  0  0  0
 14 16  1  0  0  0  0
M  END
$$$$
default_name
  -OEChem-01062215323D

 19 18  0     0  0  0  0  0  0999 V2000
   -2.2056   -4.0049    0.0000 H   0  0  0  0  0  0  0  0  0  0  0  0
   -2.2496   -2.9169    0.0000 C   0  0  0  0  0  0  0  0  0  0  0  0
   -2.7696   -2.5709    0.8910 H   0  0  0  0  0  0  0  0  0  0  0  0
   -2.7696   -2.5709   -0.8910 H   0  0  0  0  0  0  0  0  0  0  0  0
   -0.8406   -2.3699    0.0000 C   0  0  0  0  0  0  0  0  0  0  0  0
    0.1164   -3.1329    0.0000 O   0  0  0  0  0  0  0  0  0  0  0  0
   -0.7136   -1.0459    0.0000 N   0  0  0  0  0  0  0  0  0  0  0  0
   -1.5436   -0.4719    0.0000 H   0  0  0  0  0  0  0  0  0  0  0  0
    0.5724   -0.3469    0.0000 C   0  0  0  0  0  0  0  0  0  0  0  0
    0.6485    0.2650    0.8999 H   0  0  0  0  0  0  0  0  0  0  0  0
    1.3797   -1.0803    0.0159 H   0  0  0  0  0  0  0  0  0  0  0  0
    0.7501    0.5547   -1.2250 C   0  0  0  0  0  0  0  0  0  0  0  0
    1.4940    0.2156   -2.1432 O   0  0  0  0  0  0  0  0  0  0  0  0
    0.0609    1.7028   -1.2277 N   0  0  0  0  0  0  0  0  0  0  0  0
   -0.5243    1.8958   -0.4300 H   0  0  0  0  0  0  0  0  0  0  0  0
    0.0932    2.6981   -2.3013 C   0  0  0  0  0  0  0  0  0  0  0  0
    0.7595    2.3769   -3.1056 H   0  0  0  0  0  0  0  0  0  0  0  0
   -0.9081    2.8331   -2.7123 H   0  0  0  0  0  0  0  0  0  0  0  0
    0.4525    3.6518   -1.9123 H   0  0  0  0  0  0  0  0  0  0  0  0
  5  6  2  0  0  0  0
  5  7  1  0  0  0  0
  2  3  1  0  0  0  0
  2  4  1  0  0  0  0
  2  5  1  0  0  0  0
  1  2  1  0  0  0  0
 12 13  2  0  0  0  0
 12 14  1  0  0  0  0
  9 10  1  0  0  0  0
  9 11  1  0  0  0  0
  9 12  1  0  0  0  0
  7  8  1  0  0  0  0
  7  9  1  0  0  0  0
 16 17  1  0  0  0  0
 16 18  1  0  0  0  0
 16 19  1  0  0  0  0
 14 15  1  0  0  0  0
 14 16  1  0  0  0  0
M  END
$$$$
default_name
  -OEChem-01062215323D

 19 18  0     0  0  0  0  0  0999 V2000
   -2.2056   -4.0049    0.0000 H   0  0  0  0  0  0  0  0  0  0  0  0
   -2.2496   -2.9169    0.0000 C   0  0  0  0  0  0  0  0  0  0  0  0
   -2.7696   -2.5709    0.8910 H   0  0  0  0  0  0  0  0  0  0  0  0
   -2.7696   -2.5709   -0.8910 H   0  0  0  0  0  0  0  0  0  0  0  0
   -0.8406   -2.3699    0.0000 C   0  0  0  0  0  0  0  0  0  0  0  0
    0.1164   -3.1329    0.0000 O   0  0  0  0  0  0  0  0  0  0  0  0
   -0.7136   -1.0459    0.0000 N   0  0  0  0  0  0  0  0  0  0  0  0
   -1.5436   -0.4719    0.0000 H   0  0  0  0  0  0  0  0  0  0  0  0
    0.5724   -0.3469    0.0000 C   0  0  0  0  0  0  0  0  0  0  0  0
    0.6485    0.2650    0.8999 H   0  0  0  0  0  0  0  0  0  0  0  0
    1.3797   -1.0803    0.0159 H   0  0  0  0  0  0  0  0  0  0  0  0
    0.7501    0.5547   -1.2250 C   0  0  0  0  0  0  0  0  0  0  0  0
    1.2610    0.1132   -2.2524 O   0  0  0  0  0  0  0  0  0  0  0  0
    0.3241    1.8184   -1.1044 N   0  0  0  0  0  0  0  0  0  0  0  0
   -0.0820    2.0902   -0.2227 H   0  0  0  0  0  0  0  0  0  0  0  0
    0.4035    2.8345   -2.1559 C   0  0  0  0  0  0  0  0  0  0  0  0
    0.8600    2.4211   -3.0585 H   0  0  0  0  0  0  0  0  0  0  0  0
   -0.5973    3.1904   -2.4042 H   0  0  0  0  0  0  0  0  0  0  0  0
    1.0083    3.6754   -1.8142 H   0  0  0  0  0  0  0  0  0  0  0  0
  5  6  2  0  0  0  0
  5  7  1  0  0  0  0
  2  3  1  0  0  0  0
  2  4  1  0  0  0  0
  2  5  1  0  0  0  0
  1  2  1  0  0  0  0
 12 13  2  0  0  0  0
 12 14  1  0  0  0  0
  9 10  1  0  0  0  0
  9 11  1  0  0  0  0
  9 12  1  0  0  0  0
  7  8  1  0  0  0  0
  7  9  1  0  0  0  0
 16 17  1  0  0  0  0
 16 18  1  0  0  0  0
 16 19  1  0  0  0  0
 14 15  1  0  0  0  0
 14 16  1  0  0  0  0
M  END
$$$$
default_name
  -OEChem-01062215323D

 19 18  0     0  0  0  0  0  0999 V2000
   -2.2056   -4.0049    0.0000 H   0  0  0  0  0  0  0  0  0  0  0  0
   -2.2496   -2.9169    0.0000 C   0  0  0  0  0  0  0  0  0  0  0  0
   -2.7696   -2.5709    0.8910 H   0  0  0  0  0  0  0  0  0  0  0  0
   -2.7696   -2.5709   -0.8910 H   0  0  0  0  0  0  0  0  0  0  0  0
   -0.8406   -2.3699    0.0000 C   0  0  0  0  0  0  0  0  0  0  0  0
    0.1164   -3.1329    0.0000 O   0  0  0  0  0  0  0  0  0  0  0  0
   -0.7136   -1.0459    0.0000 N   0  0  0  0  0  0  0  0  0  0  0  0
   -1.5436   -0.4719    0.0000 H   0  0  0  0  0  0  0  0  0  0  0  0
    0.5724   -0.3469    0.0000 C   0  0  0  0  0  0  0  0  0  0  0  0
    0.6485    0.2650    0.8999 H   0  0  0  0  0  0  0  0  0  0  0  0
    1.3797   -1.0803    0.0159 H   0  0  0  0  0  0  0  0  0  0  0  0
    0.7501    0.5547   -1.2250 C   0  0  0  0  0  0  0  0  0  0  0  0
    0.9981    0.0658   -2.3254 O   0  0  0  0  0  0  0  0  0  0  0  0
    0.6210    1.8719   -1.0219 N   0  0  0  0  0  0  0  0  0  0  0  0
    0.4170    2.1801   -0.0841 H   0  0  0  0  0  0  0  0  0  0  0  0
    0.7535    2.8976   -2.0586 C   0  0  0  0  0  0  0  0  0  0  0  0
    0.9735    2.4415   -3.0270 H   0  0  0  0  0  0  0  0  0  0  0  0
   -0.1761    3.4619   -2.1433 H   0  0  0  0  0  0  0  0  0  0  0  0
    1.5651    3.5803   -1.8035 H   0  0  0  0  0  0  0  0  0  0  0  0
  5  6  2  0  0  0  0
  5  7  1  0  0  0  0
  2  3  1  0  0  0  0
  2  4  1  0  0  0  0
  2  5  1  0  0  0  0
  1  2  1  0  0  0  0
 12 13  2  0  0  0  0
 12 14  1  0  0  0  0
  9 10  1  0  0  0  0
  9 11  1  0  0  0  0
  9 12  1  0  0  0  0
  7  8  1  0  0  0  0
  7  9  1  0  0  0  0
 16 17  1  0  0  0  0
 16 18  1  0  0  0  0
 16 19  1  0  0  0  0
 14 15  1  0  0  0  0
 14 16  1  0  0  0  0
M  END
$$$$
default_name
  -OEChem-01062215323D

 19 18  0     0  0  0  0  0  0999 V2000
   -2.2056   -4.0049    0.0000 H   0  0  0  0  0  0  0  0  0  0  0  0
   -2.2496   -2.9169    0.0000 C   0  0  0  0  0  0  0  0  0  0  0  0
   -2.7696   -2.5709    0.8910 H   0  0  0  0  0  0  0  0  0  0  0  0
   -2.7696   -2.5709   -0.8910 H   0  0  0  0  0  0  0  0  0  0  0  0
   -0.8406   -2.3699    0.0000 C   0  0  0  0  0  0  0  0  0  0  0  0
    0.1164   -3.1329    0.0000 O   0  0  0  0  0  0  0  0  0  0  0  0
   -0.7136   -1.0459    0.0000 N   0  0  0  0  0  0  0  0  0  0  0  0
   -1.5436   -0.4719    0.0000 H   0  0  0  0  0  0  0  0  0  0  0  0
    0.5724   -0.3469    0.0000 C   0  0  0  0  0  0  0  0  0  0  0  0
    0.6485    0.2650    0.8999 H   0  0  0  0  0  0  0  0  0  0  0  0
    1.3797   -1.0803    0.0159 H   0  0  0  0  0  0  0  0  0  0  0  0
    0.7501    0.5547   -1.2250 C   0  0  0  0  0  0  0  0  0  0  0  0
    0.7232    0.0767   -2.3574 O   0  0  0  0  0  0  0  0  0  0  0  0
    0.9314    1.8597   -0.9859 N   0  0  0  0  0  0  0  0  0  0  0  0
    0.9388    2.1596   -0.0235 H   0  0  0  0  0  0  0  0  0  0  0  0
    1.1196    2.8831   -2.0162 C   0  0  0  0  0  0  0  0  0  0  0  0
    1.0921    2.4368   -3.0132 H   0  0  0  0  0  0  0  0  0  0  0  0
    0.3267    3.6291   -1.9472 H   0  0  0  0  0  0  0  0  0  0  0  0
    2.0849    3.3727   -1.8808 H   0  0  0  0  0  0  0  0  0  0  0  0
  5  6  2  0  0  0  0
  5  7  1  0  0  0  0
  2  3  1  0  0  0  0
  2  4  1  0  0  0  0
  2  5  1  0  0  0  0
  1  2  1  0  0  0  0
 12 13  2  0  0  0  0
 12 14  1  0  0  0  0
  9 10  1  0  0  0  0
  9 11  1  0  0  0  0
  9 12  1  0  0  0  0
  7  8  1  0  0  0  0
  7  9  1  0  0  0  0
 16 17  1  0  0  0  0
 16 18  1  0  0  0  0
 16 19  1  0  0  0  0
 14 15  1  0  0  0  0
 14 16  1  0  0  0  0
M  END
$$$$
default_name
  -OEChem-01062215323D

 19 18  0     0  0  0  0  0  0999 V2000
   -2.2056   -4.0049    0.0000 H   0  0  0  0  0  0  0  0  0  0  0  0
   -2.2496   -2.9169    0.0000 C   0  0  0  0  0  0  0  0  0  0  0  0
   -2.7696   -2.5709    0.8910 H   0  0  0  0  0  0  0  0  0  0  0  0
   -2.7696   -2.5709   -0.8910 H   0  0  0  0  0  0  0  0  0  0  0  0
   -0.8406   -2.3699    0.0000 C   0  0  0  0  0  0  0  0  0  0  0  0
    0.1164   -3.1329    0.0000 O   0  0  0  0  0  0  0  0  0  0  0  0
   -0.7136   -1.0459    0.0000 N   0  0  0  0  0  0  0  0  0  0  0  0
   -1.5436   -0.4719    0.0000 H   0  0  0  0  0  0  0  0  0  0  0  0
    0.5724   -0.3469    0.0000 C   0  0  0  0  0  0  0  0  0  0  0  0
    0.6485    0.2650    0.8999 H   0  0  0  0  0  0  0  0  0  0  0  0
    1.3797   -1.0803    0.0159 H   0  0  0  0  0  0  0  0  0  0  0  0
    0.7501    0.5547   -1.2250 C   0  0  0  0  0  0  0  0  0  0  0  0
    0.4551    0.1450   -2.3460 O   0  0  0  0  0  0  0  0  0  0  0  0
    1.2342    1.7825   -0.9988 N   0  0  0  0  0  0  0  0  0  0  0  0
    1.4477    2.0298   -0.0452 H   0  0  0  0  0  0  0  0  0  0  0  0
    1.4766    2.7921   -2.0313 C   0  0  0  0  0  0  0  0  0  0  0  0
    1.2079    2.4073   -3.0181 H   0  0  0  0  0  0  0  0  0  0  0  0
    0.8768    3.6806   -1.8295 H   0  0  0  0  0  0  0  0  0  0  0  0
    2.5321    3.0670   -2.0409 H   0  0  0  0  0  0  0  0  0  0  0  0
  5  6  2  0  0  0  0
  5  7  1  0  0  0  0
  2  3  1  0  0  0  0
  2  4  1  0  0  0  0
  2  5  1  0  0  0  0
  1  2  1  0  0  0  0
 12 13  2  0  0  0  0
 12 14  1  0  0  0  0
  9 10  1  0  0  0  0
  9 11  1  0  0  0  0
  9 12  1  0  0  0  0
  7  8  1  0  0  0  0
  7  9  1  0  0  0  0
 16 17  1  0  0  0  0
 16 18  1  0  0  0  0
 16 19  1  0  0  0  0
 14 15  1  0  0  0  0
 14 16  1  0  0  0  0
M  END
$$$$
default_name
  -OEChem-01062215323D

 19 18  0     0  0  0  0  0  0999 V2000
   -2.2056   -4.0049    0.0000 H   0  0  0  0  0  0  0  0  0  0  0  0
   -2.2496   -2.9169    0.0000 C   0  0  0  0  0  0  0  0  0  0  0  0
   -2.7696   -2.5709    0.8910 H   0  0  0  0  0  0  0  0  0  0  0  0
   -2.7696   -2.5709   -0.8910 H   0  0  0  0  0  0  0  0  0  0  0  0
   -0.8406   -2.3699    0.0000 C   0  0  0  0  0  0  0  0  0  0  0  0
    0.1164   -3.1329    0.0000 O   0  0  0  0  0  0  0  0  0  0  0  0
   -0.7136   -1.0459    0.0000 N   0  0  0  0  0  0  0  0  0  0  0  0
   -1.5436   -0.4719    0.0000 H   0  0  0  0  0  0  0  0  0  0  0  0
    0.5724   -0.3469    0.0000 C   0  0  0  0  0  0  0  0  0  0  0  0
    0.6485    0.2650    0.8999 H   0  0  0  0  0  0  0  0  0  0  0  0
    1.3797   -1.0803    0.0159 H   0  0  0  0  0  0  0  0  0  0  0  0
    0.7501    0.5547   -1.2250 C   0  0  0  0  0  0  0  0  0  0  0  0
    0.2119    0.2662   -2.2920 O   0  0  0  0  0  0  0  0  0  0  0  0
    1.5087    1.6457   -1.0597 N   0  0  0  0  0  0  0  0  0  0  0  0
    1.9091    1.7998   -0.1475 H   0  0  0  0  0  0  0  0  0  0  0  0
    1.8003    2.6308   -2.1031 C   0  0  0  0  0  0  0  0  0  0  0  0
    1.3128    2.3550   -3.0414 H   0  0  0  0  0  0  0  0  0  0  0  0
    1.4369    3.6130   -1.7980 H   0  0  0  0  0  0  0  0  0  0  0  0
    2.8765    2.6839   -2.2729 H   0  0  0  0  0  0  0  0  0  0  0  0
  5  6  2  0  0  0  0
  5  7  1  0  0  0  0
  2  3  1  0  0  0  0
  2  4  1  0  0  0  0
  2  5  1  0  0  0  0
  1  2  1  0  0  0  0
 12 13  2  0  0  0  0
 12 14  1  0  0  0  0
  9 10  1  0  0  0  0
  9 11  1  0  0  0  0
  9 12  1  0  0  0  0
  7  8  1  0  0  0  0
  7  9  1  0  0  0  0
 16 17  1  0  0  0  0
 16 18  1  0  0  0  0
 16 19  1  0  0  0  0
 14 15  1  0  0  0  0
 14 16  1  0  0  0  0
M  END
$$$$
default_name
  -OEChem-01062215323D

 19 18  0     0  0  0  0  0  0999 V2000
   -2.2056   -4.0049    0.0000 H   0  0  0  0  0  0  0  0  0  0  0  0
   -2.2496   -2.9169    0.0000 C   0  0  0  0  0  0  0  0  0  0  0  0
   -2.7696   -2.5709    0.8910 H   0  0  0  0  0  0  0  0  0  0  0  0
   -2.7696   -2.5709   -0.8910 H   0  0  0  0  0  0  0  0  0  0  0  0
   -0.8406   -2.3699    0.0000 C   0  0  0  0  0  0  0  0  0  0  0  0
    0.1164   -3.1329    0.0000 O   0  0  0  0  0  0  0  0  0  0  0  0
   -0.7136   -1.0459    0.0000 N   0  0  0  0  0  0  0  0  0  0  0  0
   -1.5436   -0.4719    0.0000 H   0  0  0  0  0  0  0  0  0  0  0  0
    0.5724   -0.3469    0.0000 C   0  0  0  0  0  0  0  0  0  0  0  0
    0.6485    0.2650    0.8999 H   0  0  0  0  0  0  0  0  0  0  0  0
    1.3797   -1.0803    0.0159 H   0  0  0  0  0  0  0  0  0  0  0  0
    0.7501    0.5547   -1.2250 C   0  0  0  0  0  0  0  0  0  0  0  0
    0.0104    0.4320   -2.1993 O   0  0  0  0  0  0  0  0  0  0  0  0
    1.7363    1.4585   -1.1644 N   0  0  0  0  0  0  0  0  0  0  0  0
    2.2917    1.4852   -0.3236 H   0  0  0  0  0  0  0  0  0  0  0  0
    2.0686    2.4100   -2.2266 C   0  0  0  0  0  0  0  0  0  0  0  0
    1.3998    2.2835   -3.0814 H   0  0  0  0  0  0  0  0  0  0  0  0
    1.9686    3.4307   -1.8550 H   0  0  0  0  0  0  0  0  0  0  0  0
    3.0944    2.2495   -2.5610 H   0  0  0  0  0  0  0  0  0  0  0  0
  5  6  2  0  0  0  0
  5  7  1  0  0  0  0
  2  3  1  0  0  0  0
  2  4  1  0  0  0  0
  2  5  1  0  0  0  0
  1  2  1  0  0  0  0
 12 13  2  0  0  0  0
 12 14  1  0  0  0  0
  9 10  1  0  0  0  0
  9 11  1  0  0  0  0
  9 12  1  0  0  0  0
  7  8  1  0  0  0  0
  7  9  1  0  0  0  0
 16 17  1  0  0  0  0
 16 18  1  0  0  0  0
 16 19  1  0  0  0  0
 14 15  1  0  0  0  0
 14 16  1  0  0  0  0
M  END
$$$$
default_name
  -OEChem-01062215323D

 19 18  0     0  0  0  0  0  0999 V2000
   -2.2056   -4.0049    0.0000 H   0  0  0  0  0  0  0  0  0  0  0  0
   -2.2496   -2.9169    0.0000 C   0  0  0  0  0  0  0  0  0  0  0  0
   -2.7696   -2.5709    0.8910 H   0  0  0  0  0  0  0  0  0  0  0  0
   -2.7696   -2.5709   -0.8910 H   0  0  0  0  0  0  0  0  0  0  0  0
   -0.8406   -2.3699    0.0000 C   0  0  0  0  0  0  0  0  0  0  0  0
    0.1164   -3.1329    0.0000 O   0  0  0  0  0  0  0  0  0  0  0  0
   -0.7136   -1.0459    0.0000 N   0  0  0  0  0  0  0  0  0  0  0  0
   -1.5436   -0.4719    0.0000 H   0  0  0  0  0  0  0  0  0  0  0  0
    0.5724   -0.3469    0.0000 C   0  0  0  0  0  0  0  0  0  0  0  0
    0.7679    0.0454    0.9989 H   0  0  0  0  0  0  0  0  0  0  0  0
    1.3649   -1.0530   -0.2512 H   0  0  0  0  0  0  0  0  0  0  0  0
    0.6102    0.8121   -1.0002 C   0  0  0  0  0  0  0  0  0  0  0  0
   -0.3727    1.0668   -1.6934 O   0  0  0  0  0  0  0  0  0  0  0  0
    1.7523    1.5081   -1.0663 N   0  0  0  0  0  0  0  0  0  0  0  0
    2.5050    1.2253   -0.4584 H   0  0  0  0  0  0  0  0  0  0  0  0
    1.9899    2.6479   -1.9543 C   0  0  0  0  0  0  0  0  0  0  0  0
    1.1048    2.8564   -2.5601 H   0  0  0  0  0  0  0  0  0  0  0  0
    2.2244    3.5351   -1.3645 H   0  0  0  0  0  0  0  0  0  0  0  0
    2.8248    2.4304   -2.6217 H   0  0  0  0  0  0  0  0  0  0  0  0
  5  6  2  0  0  0  0
  5  7  1  0  0  0  0
  2  3  1  0  0  0  0
  2  4  1  0  0  0  0
  2  5  1  0  0  0  0
  1  2  1  0  0  0  0
 12 13  2  0  0  0  0
 12 14  1  0  0  0  0
  9 10  1  0  0  0  0
  9 11  1  0  0  0  0
  9 12  1  0  0  0  0
  7  8  1  0  0  0  0
  7  9  1  0  0  0  0
 16 17  1  0  0  0  0
 16 18  1  0  0  0  0
 16 19  1  0  0  0  0
 14 15  1  0  0  0  0
 14 16  1  0  0  0  0
M  END
$$$$
default_name
  -OEChem-01062215323D

 19 18  0     0  0  0  0  0  0999 V2000
   -2.2056   -4.0049    0.0000 H   0  0  0  0  0  0  0  0  0  0  0  0
   -2.2496   -2.9169    0.0000 C   0  0  0  0  0  0  0  0  0  0  0  0
   -2.7696   -2.5709    0.8910 H   0  0  0  0  0  0  0  0  0  0  0  0
   -2.7696   -2.5709   -0.8910 H   0  0  0  0  0  0  0  0  0  0  0  0
   -0.8406   -2.3699    0.0000 C   0  0  0  0  0  0  0  0  0  0  0  0
    0.1164   -3.1329    0.0000 O   0  0  0  0  0  0  0  0  0  0  0  0
   -0.7136   -1.0459    0.0000 N   0  0  0  0  0  0  0  0  0  0  0  0
   -1.5436   -0.4719    0.0000 H   0  0  0  0  0  0  0  0  0  0  0  0
    0.5724   -0.3469    0.0000 C   0  0  0  0  0  0  0  0  0  0  0  0
    0.7679    0.0454    0.9989 H   0  0  0  0  0  0  0  0  0  0  0  0
    1.3649   -1.0530   -0.2512 H   0  0  0  0  0  0  0  0  0  0  0  0
    0.6102    0.8121   -1.0002 C   0  0  0  0  0  0  0  0  0  0  0  0
   -0.4314    1.2448   -1.4894 O   0  0  0  0  0  0  0  0  0  0  0  0
    1.8186    1.3071   -1.2966 N   0  0  0  0  0  0  0  0  0  0  0  0
    2.6165    0.8876   -0.8455 H   0  0  0  0  0  0  0  0  0  0  0  0
    2.0681    2.4110   -2.2258 C   0  0  0  0  0  0  0  0  0  0  0  0
    1.1301    2.7796   -2.6482 H   0  0  0  0  0  0  0  0  0  0  0  0
    2.5603    3.2320   -1.7029 H   0  0  0  0  0  0  0  0  0  0  0  0
    2.7073    2.0716   -3.0420 H   0  0  0  0  0  0  0  0  0  0  0  0
  5  6  2  0  0  0  0
  5  7  1  0  0  0  0
  2  3  1  0  0  0  0
  2  4  1  0  0  0  0
  2  5  1  0  0  0  0
  1  2  1  0  0  0  0
 12 13  2  0  0  0  0
 12 14  1  0  0  0  0
  9 10  1  0  0  0  0
  9 11  1  0  0  0  0
  9 12  1  0  0  0  0
  7  8  1  0  0  0  0
  7  9  1  0  0  0  0
 16 17  1  0  0  0  0
 16 18  1  0  0  0  0
 16 19  1  0  0  0  0
 14 15  1  0  0  0  0
 14 16  1  0  0  0  0
M  END
$$$$
default_name
  -OEChem-01062215323D

 19 18  0     0  0  0  0  0  0999 V2000
   -2.2056   -4.0049    0.0000 H   0  0  0  0  0  0  0  0  0  0  0  0
   -2.2496   -2.9169    0.0000 C   0  0  0  0  0  0  0  0  0  0  0  0
   -2.7696   -2.5709    0.8910 H   0  0  0  0  0  0  0  0  0  0  0  0
   -2.7696   -2.5709   -0.8910 H   0  0  0  0  0  0  0  0  0  0  0  0
   -0.8406   -2.3699    0.0000 C   0  0  0  0  0  0  0  0  0  0  0  0
    0.1164   -3.1329    0.0000 O   0  0  0  0  0  0  0  0  0  0  0  0
   -0.7136   -1.0459    0.0000 N   0  0  0  0  0  0  0  0  0  0  0  0
   -1.5436   -0.4719    0.0000 H   0  0  0  0  0  0  0  0  0  0  0  0
    0.5724   -0.3469    0.0000 C   0  0  0  0  0  0  0  0  0  0  0  0
    0.7679    0.0454    0.9989 H   0  0  0  0  0  0  0  0  0  0  0  0
    1.3649   -1.0530   -0.2512 H   0  0  0  0  0  0  0  0  0  0  0  0
    0.6102    0.8121   -1.0002 C   0  0  0  0  0  0  0  0  0  0  0  0
   -0.4180    1.4252   -1.2798 O   0  0  0  0  0  0  0  0  0  0  0  0
    1.8035    1.1033   -1.5333 N   0  0  0  0  0  0  0  0  0  0  0  0
    2.5912    0.5450   -1.2434 H   0  0  0  0  0  0  0  0  0  0  0  0
    2.0504    2.1707   -2.5049 C   0  0  0  0  0  0  0  0  0  0  0  0
    1.1244    2.7017   -2.7387 H   0  0  0  0  0  0  0  0  0  0  0  0
    2.7673    2.8847   -2.0975 H   0  0  0  0  0  0  0  0  0  0  0  0
    2.4508    1.7476   -3.4272 H   0  0  0  0  0  0  0  0  0  0  0  0
  5  6  2  0  0  0  0
  5  7  1  0  0  0  0
  2  3  1  0  0  0  0
  2  4  1  0  0  0  0
  2  5  1  0  0  0  0
  1  2  1  0  0  0  0
 12 13  2  0  0  0  0
 12 14  1  0  0  0  0
  9 10  1  0  0  0  0
  9 11  1  0  0  0  0
  9 12  1  0  0  0  0
  7  8  1  0  0  0  0
  7  9  1  0  0  0  0
 16 17  1  0  0  0  0
 16 18  1  0  0  0  0
 16 19  1  0  0  0  0
 14 15  1  0  0  0  0
 14 16  1  0  0  0  0
M  END
$$$$
default_name
  -OEChem-01062215323D

 19 18  0     0  0  0  0  0  0999 V2000
   -2.2056   -4.0049    0.0000 H   0  0  0  0  0  0  0  0  0  0  0  0
   -2.2496   -2.9169    0.0000 C   0  0  0  0  0  0  0  0  0  0  0  0
   -2.7696   -2.5709    0.8910 H   0  0  0  0  0  0  0  0  0  0  0  0
   -2.7696   -2.5709   -0.8910 H   0  0  0  0  0  0  0  0  0  0  0  0
   -0.8406   -2.3699    0.0000 C   0  0  0  0  0  0  0  0  0  0  0  0
    0.1164   -3.1329    0.0000 O   0  0  0  0  0  0  0  0  0  0  0  0
   -0.7136   -1.0459    0.0000 N   0  0  0  0  0  0  0  0  0  0  0  0
   -1.5436   -0.4719    0.0000 H   0  0  0  0  0  0  0  0  0  0  0  0
    0.5724   -0.3469    0.0000 C   0  0  0  0  0  0  0  0  0  0  0  0
    0.7679    0.0454    0.9989 H   0  0  0  0  0  0  0  0  0  0  0  0
    1.3649   -1.0530   -0.2512 H   0  0  0  0  0  0  0  0  0  0  0  0
    0.6102    0.8121   -1.0002 C   0  0  0  0  0  0  0  0  0  0  0  0
   -0.3336    1.5960   -1.0788 O   0  0  0  0  0  0  0  0  0  0  0  0
    1.7082    0.9105   -1.7604 N   0  0  0  0  0  0  0  0  0  0  0  0
    2.4309    0.2209   -1.6250 H   0  0  0  0  0  0  0  0  0  0  0  0
    1.9379    1.9433   -2.7726 C   0  0  0  0  0  0  0  0  0  0  0  0
    1.0879    2.6280   -2.8254 H   0  0  0  0  0  0  0  0  0  0  0  0
    2.8312    2.5168   -2.5215 H   0  0  0  0  0  0  0  0  0  0  0  0
    2.0728    1.4804   -3.7511 H   0  0  0  0  0  0  0  0  0  0  0  0
  5  6  2  0  0  0  0
  5  7  1  0  0  0  0
  2  3  1  0  0  0  0
  2  4  1  0  0  0  0
  2  5  1  0  0  0  0
  1  2  1  0  0  0  0
 12 13  2  0  0  0  0
 12 14  1  0  0  0  0
  9 10  1  0  0  0  0
  9 11  1  0  0  0  0
  9 12  1  0  0  0  0
  7  8  1  0  0  0  0
  7  9  1  0  0  0  0
 16 17  1  0  0  0  0
 16 18  1  0  0  0  0
 16 19  1  0  0  0  0
 14 15  1  0  0  0  0
 14 16  1  0  0  0  0
M  END
$$$$
default_name
  -OEChem-01062215323D

 19 18  0     0  0  0  0  0  0999 V2000
   -2.2056   -4.0049    0.0000 H   0  0  0  0  0  0  0  0  0  0  0  0
   -2.2496   -2.9169    0.0000 C   0  0  0  0  0  0  0  0  0  0  0  0
   -2.7696   -2.5709    0.8910 H   0  0  0  0  0  0  0  0  0  0  0  0
   -2.7696   -2.5709   -0.8910 H   0  0  0  0  0  0  0  0  0  0  0  0
   -0.8406   -2.3699    0.0000 C   0  0  0  0  0  0  0  0  0  0  0  0
    0.1164   -3.1329    0.0000 O   0  0  0  0  0  0  0  0  0  0  0  0
   -0.7136   -1.0459    0.0000 N   0  0  0  0  0  0  0  0  0  0  0  0
   -1.5436   -0.4719    0.0000 H   0  0  0  0  0  0  0  0  0  0  0  0
    0.5724   -0.3469    0.0000 C   0  0  0  0  0  0  0  0  0  0  0  0
    0.7679    0.0454    0.9989 H   0  0  0  0  0  0  0  0  0  0  0  0
    1.3649   -1.0530   -0.2512 H   0  0  0  0  0  0  0  0  0  0  0  0
    0.6102    0.8121   -1.0002 C   0  0  0  0  0  0  0  0  0  0  0  0
   -0.1838    1.7453   -0.9000 O   0  0  0  0  0  0  0  0  0  0  0  0
    1.5390    0.7418   -1.9622 N   0  0  0  0  0  0  0  0  0  0  0  0
    2.1466   -0.0626   -1.9642 H   0  0  0  0  0  0  0  0  0  0  0  0
    1.7385    1.7445   -3.0106 C   0  0  0  0  0  0  0  0  0  0  0  0
    1.0233    2.5635   -2.9026 H   0  0  0  0  0  0  0  0  0  0  0  0
    2.7477    2.1533   -2.9458 H   0  0  0  0  0  0  0  0  0  0  0  0
    1.5990    1.2883   -3.9916 H   0  0  0  0  0  0  0  0  0  0  0  0
  5  6  2  0  0  0  0
  5  7  1  0  0  0  0
  2  3  1  0  0  0  0
  2  4  1  0  0  0  0
  2  5  1  0  0  0  0
  1  2  1  0  0  0  0
 12 13  2  0  0  0  0
 12 14  1  0  0  0  0
  9 10  1  0  0  0  0
  9 11  1  0  0  0  0
  9 12  1  0  0  0  0
  7  8  1  0  0  0  0
  7  9  1  0  0  0  0
 16 17  1  0  0  0  0
 16 18  1  0  0  0  0
 16 19  1  0  0  0  0
 14 15  1  0  0  0  0
 14 16  1  0  0  0  0
M  END
$$$$
default_name
  -OEChem-01062215323D

 19 18  0     0  0  0  0  0  0999 V2000
   -2.2056   -4.0049    0.0000 H   0  0  0  0  0  0  0  0  0  0  0  0
   -2.2496   -2.9169    0.0000 C   0  0  0  0  0  0  0  0  0  0  0  0
   -2.7696   -2.5709    0.8910 H   0  0  0  0  0  0  0  0  0  0  0  0
   -2.7696   -2.5709   -0.8910 H   0  0  0  0  0  0  0  0  0  0  0  0
   -0.8406   -2.3699    0.0000 C   0  0  0  0  0  0  0  0  0  0  0  0
    0.1164   -3.1329    0.0000 O   0  0  0  0  0  0  0  0  0  0  0  0
   -0.7136   -1.0459    0.0000 N   0  0  0  0  0  0  0  0  0  0  0  0
   -1.5436   -0.4719    0.0000 H   0  0  0  0  0  0  0  0  0  0  0  0
    0.5724   -0.3469    0.0000 C   0  0  0  0  0  0  0  0  0  0  0  0
    0.7679    0.0454    0.9989 H   0  0  0  0  0  0  0  0  0  0  0  0
    1.3649   -1.0530   -0.2512 H   0  0  0  0  0  0  0  0  0  0  0  0
    0.6102    0.8121   -1.0002 C   0  0  0  0  0  0  0  0  0  0  0  0
    0.0212    1.8632   -0.7558 O   0  0  0  0  0  0  0  0  0  0  0  0
    1.3075    0.6088   -2.1251 N   0  0  0  0  0  0  0  0  0  0  0  0
    1.7575   -0.2861   -2.2380 H   0  0  0  0  0  0  0  0  0  0  0  0
    1.4656    1.5876   -3.2027 C   0  0  0  0  0  0  0  0  0  0  0  0
    0.9348    2.5127   -2.9648 H   0  0  0  0  0  0  0  0  0  0  0  0
    2.5224    1.8190   -3.3417 H   0  0  0  0  0  0  0  0  0  0  0  0
    1.0619    1.1844   -4.1324 H   0  0  0  0  0  0  0  0  0  0  0  0
  5  6  2  0  0  0  0
  5  7  1  0  0  0  0
  2  3  1  0  0  0  0
  2  4  1  0  0  0  0
  2  5  1  0  0  0  0
  1  2  1  0  0  0  0
 12 13  2  0  0  0  0
 12 14  1  0  0  0  0
  9 10  1  0  0  0  0
  9 11  1  0  0  0  0
  9 12  1  0  0  0  0
  7  8  1  0  0  0  0
  7  9  1  0  0  0  0
 16 17  1  0  0  0  0
 16 18  1  0  0  0  0
 16 19  1  0  0  0  0
 14 15  1  0  0  0  0
 14 16  1  0  0  0  0
M  END
$$$$
default_name
  -OEChem-01062215323D

 19 18  0     0  0  0  0  0  0999 V2000
   -2.2056   -4.0049    0.0000 H   0  0  0  0  0  0  0  0  0  0  0  0
   -2.2496   -2.9169    0.0000 C   0  0  0  0  0  0  0  0  0  0  0  0
   -2.7696   -2.5709    0.8910 H   0  0  0  0  0  0  0  0  0  0  0  0
   -2.7696   -2.5709   -0.8910 H   0  0  0  0  0  0  0  0  0  0  0  0
   -0.8406   -2.3699    0.0000 C   0  0  0  0  0  0  0  0  0  0  0  0
    0.1164   -3.1329    0.0000 O   0  0  0  0  0  0  0  0  0  0  0  0
   -0.7136   -1.0459    0.0000 N   0  0  0  0  0  0  0  0  0  0  0  0
   -1.5436   -0.4719    0.0000 H   0  0  0  0  0  0  0  0  0  0  0  0
    0.5724   -0.3469    0.0000 C   0  0  0  0  0  0  0  0  0  0  0  0
    0.7679    0.0454    0.9989 H   0  0  0  0  0  0  0  0  0  0  0  0
    1.3649   -1.0530   -0.2512 H   0  0  0  0  0  0  0  0  0  0  0  0
    0.6102    0.8121   -1.0002 C   0  0  0  0  0  0  0  0  0  0  0  0
    0.2673    1.9414   -0.6558 O   0  0  0  0  0  0  0  0  0  0  0  0
    1.0296    0.5205   -2.2380 N   0  0  0  0  0  0  0  0  0  0  0  0
    1.2903   -0.4346   -2.4277 H   0  0  0  0  0  0  0  0  0  0  0  0
    1.1378    1.4835   -3.3358 C   0  0  0  0  0  0  0  0  0  0  0  0
    0.8286    2.4789   -3.0080 H   0  0  0  0  0  0  0  0  0  0  0  0
    2.1708    1.5368   -3.6821 H   0  0  0  0  0  0  0  0  0  0  0  0
    0.4978    1.1757   -4.1638 H   0  0  0  0  0  0  0  0  0  0  0  0
  5  6  2  0  0  0  0
  5  7  1  0  0  0  0
  2  3  1  0  0  0  0
  2  4  1  0  0  0  0
  2  5  1  0  0  0  0
  1  2  1  0  0  0  0
 12 13  2  0  0  0  0
 12 14  1  0  0  0  0
  9 10  1  0  0  0  0
  9 11  1  0  0  0  0
  9 12  1  0  0  0  0
  7  8  1  0  0  0  0
  7  9  1  0  0  0  0
 16 17  1  0  0  0  0
 16 18  1  0  0  0  0
 16 19  1  0  0  0  0
 14 15  1  0  0  0  0
 14 16  1  0  0  0  0
M  END
$$$$
default_name
  -OEChem-01062215323D

 19 18  0     0  0  0  0  0  0999 V2000
   -2.2056   -4.0049    0.0000 H   0  0  0  0  0  0  0  0  0  0  0  0
   -2.2496   -2.9169    0.0000 C   0  0  0  0  0  0  0  0  0  0  0  0
   -2.7696   -2.5709    0.8910 H   0  0  0  0  0  0  0  0  0  0  0  0
   -2.7696   -2.5709   -0.8910 H   0  0  0  0  0  0  0  0  0  0  0  0
   -0.8406   -2.3699    0.0000 C   0  0  0  0  0  0  0  0  0  0  0  0
    0.1164   -3.1329    0.0000 O   0  0  0  0  0  0  0  0  0  0  0  0
   -0.7136   -1.0459    0.0000 N   0  0  0  0  0  0  0  0  0  0  0  0
   -1.5436   -0.4719    0.0000 H   0  0  0  0  0  0  0  0  0  0  0  0
    0.5724   -0.3469    0.0000 C   0  0  0  0  0  0  0  0  0  0  0  0
    0.7679    0.0454    0.9989 H   0  0  0  0  0  0  0  0  0  0  0  0
    1.3649   -1.0530   -0.2512 H   0  0  0  0  0  0  0  0  0  0  0  0
    0.6102    0.8121   -1.0002 C   0  0  0  0  0  0  0  0  0  0  0  0
    0.5379    1.9747   -0.6070 O   0  0  0  0  0  0  0  0  0  0  0  0
    0.7240    0.4828   -2.2932 N   0  0  0  0  0  0  0  0  0  0  0  0
    0.7768   -0.4978   -2.5204 H   0  0  0  0  0  0  0  0  0  0  0  0
    0.7776    1.4391   -3.4008 C   0  0  0  0  0  0  0  0  0  0  0  0
    0.7118    2.4646   -3.0290 H   0  0  0  0  0  0  0  0  0  0  0  0
    1.7168    1.3257   -3.9438 H   0  0  0  0  0  0  0  0  0  0  0  0
   -0.0546    1.2628   -4.0837 H   0  0  0  0  0  0  0  0  0  0  0  0
  5  6  2  0  0  0  0
  5  7  1  0  0  0  0
  2  3  1  0  0  0  0
  2  4  1  0  0  0  0
  2  5  1  0  0  0  0
  1  2  1  0  0  0  0
 12 13  2  0  0  0  0
 12 14  1  0  0  0  0
  9 10  1  0  0  0  0
  9 11  1  0  0  0  0
  9 12  1  0  0  0  0
  7  8  1  0  0  0  0
  7  9  1  0  0  0  0
 16 17  1  0  0  0  0
 16 18  1  0  0  0  0
 16 19  1  0  0  0  0
 14 15  1  0  0  0  0
 14 16  1  0  0  0  0
M  END
$$$$
default_name
  -OEChem-01062215323D

 19 18  0     0  0  0  0  0  0999 V2000
   -2.2056   -4.0049    0.0000 H   0  0  0  0  0  0  0  0  0  0  0  0
   -2.2496   -2.9169    0.0000 C   0  0  0  0  0  0  0  0  0  0  0  0
   -2.7696   -2.5709    0.8910 H   0  0  0  0  0  0  0  0  0  0  0  0
   -2.7696   -2.5709   -0.8910 H   0  0  0  0  0  0  0  0  0  0  0  0
   -0.8406   -2.3699    0.0000 C   0  0  0  0  0  0  0  0  0  0  0  0
    0.1164   -3.1329    0.0000 O   0  0  0  0  0  0  0  0  0  0  0  0
   -0.7136   -1.0459    0.0000 N   0  0  0  0  0  0  0  0  0  0  0  0
   -1.5436   -0.4719    0.0000 H   0  0  0  0  0  0  0  0  0  0  0  0
    0.5724   -0.3469    0.0000 C   0  0  0  0  0  0  0  0  0  0  0  0
    0.7679    0.0454    0.9989 H   0  0  0  0  0  0  0  0  0  0  0  0
    1.3649   -1.0530   -0.2512 H   0  0  0  0  0  0  0  0  0  0  0  0
    0.6102    0.8121   -1.0002 C   0  0  0  0  0  0  0  0  0  0  0  0
    0.8144    1.9608   -0.6126 O   0  0  0  0  0  0  0  0  0  0  0  0
    0.4117    0.4985   -2.2868 N   0  0  0  0  0  0  0  0  0  0  0  0
    0.2519   -0.4715   -2.5098 H   0  0  0  0  0  0  0  0  0  0  0  0
    0.4093    1.4576   -3.3933 C   0  0  0  0  0  0  0  0  0  0  0  0
    0.5924    2.4706   -3.0266 H   0  0  0  0  0  0  0  0  0  0  0  0
    1.1913    1.2003   -4.1090 H   0  0  0  0  0  0  0  0  0  0  0  0
   -0.5578    1.4399   -3.8975 H   0  0  0  0  0  0  0  0  0  0  0  0
  5  6  2  0  0  0  0
  5  7  1  0  0  0  0
  2  3  1  0  0  0  0
  2  4  1  0  0  0  0
  2  5  1  0  0  0  0
  1  2  1  0  0  0  0
 12 13  2  0  0  0  0
 12 14  1  0  0  0  0
  9 10  1  0  0  0  0
  9 11  1  0  0  0  0
  9 12  1  0  0  0  0
  7  8  1  0  0  0  0
  7  9  1  0  0  0  0
 16 17  1  0  0  0  0
 16 18  1  0  0  0  0
 16 19  1  0  0  0  0
 14 15  1  0  0  0  0
 14 16  1  0  0  0  0
M  END
$$$$
default_name
  -OEChem-01062215323D

 19 18  0     0  0  0  0  0  0999 V2000
   -2.2056   -4.0049    0.0000 H   0  0  0  0  0  0  0  0  0  0  0  0
   -2.2496   -2.9169    0.0000 C   0  0  0  0  0  0  0  0  0  0  0  0
   -2.7696   -2.5709    0.8910 H   0  0  0  0  0  0  0  0  0  0  0  0
   -2.7696   -2.5709   -0.8910 H   0  0  0  0  0  0  0  0  0  0  0  0
   -0.8406   -2.3699    0.0000 C   0  0  0  0  0  0  0  0  0  0  0  0
    0.1164   -3.1329    0.0000 O   0  0  0  0  0  0  0  0  0  0  0  0
   -0.7136   -1.0459    0.0000 N   0  0  0  0  0  0  0  0  0  0  0  0
   -1.5436   -0.4719    0.0000 H   0  0  0  0  0  0  0  0  0  0  0  0
    0.5724   -0.3469    0.0000 C   0  0  0  0  0  0  0  0  0  0  0  0
    0.7679    0.0454    0.9989 H   0  0  0  0  0  0  0  0  0  0  0  0
    1.3649   -1.0530   -0.2512 H   0  0  0  0  0  0  0  0  0  0  0  0
    0.6102    0.8121   -1.0002 C   0  0  0  0  0  0  0  0  0  0  0  0
    1.0781    1.9007   -0.6723 O   0  0  0  0  0  0  0  0  0  0  0  0
    0.1140    0.5664   -2.2194 N   0  0  0  0  0  0  0  0  0  0  0  0
   -0.2486   -0.3574   -2.3965 H   0  0  0  0  0  0  0  0  0  0  0  0
    0.0583    1.5377   -3.3138 C   0  0  0  0  0  0  0  0  0  0  0  0
    0.4786    2.4965   -3.0009 H   0  0  0  0  0  0  0  0  0  0  0  0
    0.6301    1.1690   -4.1665 H   0  0  0  0  0  0  0  0  0  0  0  0
   -0.9774    1.6948   -3.6181 H   0  0  0  0  0  0  0  0  0  0  0  0
  5  6  2  0  0  0  0
  5  7  1  0  0  0  0
  2  3  1  0  0  0  0
  2  4  1  0  0  0  0
  2  5  1  0  0  0  0
  1  2  1  0  0  0  0
 12 13  2  0  0  0  0
 12 14  1  0  0  0  0
  9 10  1  0  0  0  0
  9 11  1  0  0  0  0
  9 12  1  0  0  0  0
  7  8  1  0  0  0  0
  7  9  1  0  0  0  0
 16 17  1  0  0  0  0
 16 18  1  0  0  0  0
 16 19  1  0  0  0  0
 14 15  1  0  0  0  0
 14 16  1  0  0  0  0
M  END
$$$$
default_name
  -OEChem-01062215323D

 19 18  0     0  0  0  0  0  0999 V2000
   -2.2056   -4.0049    0.0000 H   0  0  0  0  0  0  0  0  0  0  0  0
   -2.2496   -2.9169    0.0000 C   0  0  0  0  0  0  0  0  0  0  0  0
   -2.7696   -2.5709    0.8910 H   0  0  0  0  0  0  0  0  0  0  0  0
   -2.7696   -2.5709   -0.8910 H   0  0  0  0  0  0  0  0  0  0  0  0
   -0.8406   -2.3699    0.0000 C   0  0  0  0  0  0  0  0  0  0  0  0
    0.1164   -3.1329    0.0000 O   0  0  0  0  0  0  0  0  0  0  0  0
   -0.7136   -1.0459    0.0000 N   0  0  0  0  0  0  0  0  0  0  0  0
   -1.5436   -0.4719    0.0000 H   0  0  0  0  0  0  0  0  0  0  0  0
    0.5724   -0.3469    0.0000 C   0  0  0  0  0  0  0  0  0  0  0  0
    0.7679    0.0454    0.9989 H   0  0  0  0  0  0  0  0  0  0  0  0
    1.3649   -1.0530   -0.2512 H   0  0  0  0  0  0  0  0  0  0  0  0
    0.6102    0.8121   -1.0002 C   0  0  0  0  0  0  0  0  0  0  0  0
    1.3110    1.7984   -0.7820 O   0  0  0  0  0  0  0  0  0  0  0  0
   -0.1490    0.6819   -2.0955 N   0  0  0  0  0  0  0  0  0  0  0  0
   -0.6905   -0.1633   -2.1883 H   0  0  0  0  0  0  0  0  0  0  0  0
   -0.2517    1.6738   -3.1678 C   0  0  0  0  0  0  0  0  0  0  0  0
    0.3781    2.5406   -2.9535 H   0  0  0  0  0  0  0  0  0  0  0  0
    0.0715    1.2341   -4.1122 H   0  0  0  0  0  0  0  0  0  0  0  0
   -1.2849    2.0102   -3.2643 H   0  0  0  0  0  0  0  0  0  0  0  0
  5  6  2  0  0  0  0
  5  7  1  0  0  0  0
  2  3  1  0  0  0  0
  2  4  1  0  0  0  0
  2  5  1  0  0  0  0
  1  2  1  0  0  0  0
 12 13  2  0  0  0  0
 12 14  1  0  0  0  0
  9 10  1  0  0  0  0
  9 11  1  0  0  0  0
  9 12  1  0  0  0  0
  7  8  1  0  0  0  0
  7  9  1  0  0  0  0
 16 17  1  0  0  0  0
 16 18  1  0  0  0  0
 16 19  1  0  0  0  0
 14 15  1  0  0  0  0
 14 16  1  0  0  0  0
M  END
$$$$
default_name
  -OEChem-01062215323D

 19 18  0     0  0  0  0  0  0999 V2000
   -2.2056   -4.0049    0.0000 H   0  0  0  0  0  0  0  0  0  0  0  0
   -2.2496   -2.9169    0.0000 C   0  0  0  0  0  0  0  0  0  0  0  0
   -2.7696   -2.5709    0.8910 H   0  0  0  0  0  0  0  0  0  0  0  0
   -2.7696   -2.5709   -0.8910 H   0  0  0  0  0  0  0  0  0  0  0  0
   -0.8406   -2.3699    0.0000 C   0  0  0  0  0  0  0  0  0  0  0  0
    0.1164   -3.1329    0.0000 O   0  0  0  0  0  0  0  0  0  0  0  0
   -0.7136   -1.0459    0.0000 N   0  0  0  0  0  0  0  0  0  0  0  0
   -1.5436   -0.4719    0.0000 H   0  0  0  0  0  0  0  0  0  0  0  0
    0.5724   -0.3469    0.0000 C   0  0  0  0  0  0  0  0  0  0  0  0
    0.7679    0.0454    0.9989 H   0  0  0  0  0  0  0  0  0  0  0  0
    1.3649   -1.0530   -0.2512 H   0  0  0  0  0  0  0  0  0  0  0  0
    0.6102    0.8121   -1.0002 C   0  0  0  0  0  0  0  0  0  0  0  0
    1.4971    1.6610   -0.9342 O   0  0  0  0  0  0  0  0  0  0  0  0
   -0.3592    0.8371   -1.9236 N   0  0  0  0  0  0  0  0  0  0  0  0
   -1.0438    0.0976   -1.8994 H   0  0  0  0  0  0  0  0  0  0  0  0
   -0.4996    1.8568   -2.9651 C   0  0  0  0  0  0  0  0  0  0  0  0
    0.2978    2.6000   -2.8878 H   0  0  0  0  0  0  0  0  0  0  0  0
   -0.4464    1.3910   -3.9500 H   0  0  0  0  0  0  0  0  0  0  0  0
   -1.4593    2.3645   -2.8603 H   0  0  0  0  0  0  0  0  0  0  0  0
  5  6  2  0  0  0  0
  5  7  1  0  0  0  0
  2  3  1  0  0  0  0
  2  4  1  0  0  0  0
  2  5  1  0  0  0  0
  1  2  1  0  0  0  0
 12 13  2  0  0  0  0
 12 14  1  0  0  0  0
  9 10  1  0  0  0  0
  9 11  1  0  0  0  0
  9 12  1  0  0  0  0
  7  8  1  0  0  0  0
  7  9  1  0  0  0  0
 16 17  1  0  0  0  0
 16 18  1  0  0  0  0
 16 19  1  0  0  0  0
 14 15  1  0  0  0  0
 14 16  1  0  0  0  0
M  END
$$$$
default_name
  -OEChem-01062215323D

 19 18  0     0  0  0  0  0  0999 V2000
   -2.2056   -4.0049    0.0000 H   0  0  0  0  0  0  0  0  0  0  0  0
   -2.2496   -2.9169    0.0000 C   0  0  0  0  0  0  0  0  0  0  0  0
   -2.7696   -2.5709    0.8910 H   0  0  0  0  0  0  0  0  0  0  0  0
   -2.7696   -2.5709   -0.8910 H   0  0  0  0  0  0  0  0  0  0  0  0
   -0.8406   -2.3699    0.0000 C   0  0  0  0  0  0  0  0  0  0  0  0
    0.1164   -3.1329    0.0000 O   0  0  0  0  0  0  0  0  0  0  0  0
   -0.7136   -1.0459    0.0000 N   0  0  0  0  0  0  0  0  0  0  0  0
   -1.5436   -0.4719    0.0000 H   0  0  0  0  0  0  0  0  0  0  0  0
    0.5724   -0.3469    0.0000 C   0  0  0  0  0  0  0  0  0  0  0  0
    0.7679    0.0454    0.9989 H   0  0  0  0  0  0  0  0  0  0  0  0
    1.3649   -1.0530   -0.2512 H   0  0  0  0  0  0  0  0  0  0  0  0
    0.6102    0.8121   -1.0002 C   0  0  0  0  0  0  0  0  0  0  0  0
    1.6238    1.4977   -1.1186 O   0  0  0  0  0  0  0  0  0  0  0  0
   -0.5023    1.0215   -1.7154 N   0  0  0  0  0  0  0  0  0  0  0  0
   -1.2843    0.4075   -1.5494 H   0  0  0  0  0  0  0  0  0  0  0  0
   -0.6683    2.0742   -2.7197 C   0  0  0  0  0  0  0  0  0  0  0  0
    0.2431    2.6704   -2.8083 H   0  0  0  0  0  0  0  0  0  0  0  0
   -0.8884    1.6291   -3.6909 H   0  0  0  0  0  0  0  0  0  0  0  0
   -1.4888    2.7337   -2.4336 H   0  0  0  0  0  0  0  0  0  0  0  0
  5  6  2  0  0  0  0
  5  7  1  0  0  0  0
  2  3  1  0  0  0  0
  2  4  1  0  0  0  0
  2  5  1  0  0  0  0
  1  2  1  0  0  0  0
 12 13  2  0  0  0  0
 12 14  1  0  0  0  0
  9 10  1  0  0  0  0
  9 11  1  0  0  0  0
  9 12  1  0  0  0  0
  7  8  1  0  0  0  0
  7  9  1  0  0  0  0
 16 17  1  0  0  0  0
 16 18  1  0  0  0  0
 16 19  1  0  0  0  0
 14 15  1  0  0  0  0
 14 16  1  0  0  0  0
M  END
$$$$
default_name
  -OEChem-01062215323D

 19 18  0     0  0  0  0  0  0999 V2000
   -2.2056   -4.0049    0.0000 H   0  0  0  0  0  0  0  0  0  0  0  0
   -2.2496   -2.9169    0.0000 C   0  0  0  0  0  0  0  0  0  0  0  0
   -2.7696   -2.5709    0.8910 H   0  0  0  0  0  0  0  0  0  0  0  0
   -2.7696   -2.5709   -0.8910 H   0  0  0  0  0  0  0  0  0  0  0  0
   -0.8406   -2.3699    0.0000 C   0  0  0  0  0  0  0  0  0  0  0  0
    0.1164   -3.1329    0.0000 O   0  0  0  0  0  0  0  0  0  0  0  0
   -0.7136   -1.0459    0.0000 N   0  0  0  0  0  0  0  0  0  0  0  0
   -1.5436   -0.4719    0.0000 H   0  0  0  0  0  0  0  0  0  0  0  0
    0.5724   -0.3469    0.0000 C   0  0  0  0  0  0  0  0  0  0  0  0
    0.7679    0.0454    0.9989 H   0  0  0  0  0  0  0  0  0  0  0  0
    1.3649   -1.0530   -0.2512 H   0  0  0  0  0  0  0  0  0  0  0  0
    0.6102    0.8121   -1.0002 C   0  0  0  0  0  0  0  0  0  0  0  0
    1.6825    1.3198   -1.3225 O   0  0  0  0  0  0  0  0  0  0  0  0
   -0.5686    1.2224   -1.4851 N   0  0  0  0  0  0  0  0  0  0  0  0
   -1.3957    0.7452   -1.1623 H   0  0  0  0  0  0  0  0  0  0  0  0
   -0.7465    2.3111   -2.4481 C   0  0  0  0  0  0  0  0  0  0  0  0
    0.2178    2.7472   -2.7202 H   0  0  0  0  0  0  0  0  0  0  0  0
   -1.2243    1.9321   -3.3525 H   0  0  0  0  0  0  0  0  0  0  0  0
   -1.3712    3.0925   -2.0134 H   0  0  0  0  0  0  0  0  0  0  0  0
  5  6  2  0  0  0  0
  5  7  1  0  0  0  0
  2  3  1  0  0  0  0
  2  4  1  0  0  0  0
  2  5  1  0  0  0  0
  1  2  1  0  0  0  0
 12 13  2  0  0  0  0
 12 14  1  0  0  0  0
  9 10  1  0  0  0  0
  9 11  1  0  0  0  0
  9 12  1  0  0  0  0
  7  8  1  0  0  0  0
  7  9  1  0  0  0  0
 16 17  1  0  0  0  0
 16 18  1  0  0  0  0
 16 19  1  0  0  0  0
 14 15  1  0  0  0  0
 14 16  1  0  0  0  0
M  END
$$$$
default_name
  -OEChem-01062215323D

 19 18  0     0  0  0  0  0  0999 V2000
   -2.2056   -4.0049    0.0000 H   0  0  0  0  0  0  0  0  0  0  0  0
   -2.2496   -2.9169    0.0000 C   0  0  0  0  0  0  0  0  0  0  0  0
   -2.7696   -2.5709    0.8910 H   0  0  0  0  0  0  0  0  0  0  0  0
   -2.7696   -2.5709   -0.8910 H   0  0  0  0  0  0  0  0  0  0  0  0
   -0.8406   -2.3699    0.0000 C   0  0  0  0  0  0  0  0  0  0  0  0
    0.1164   -3.1329    0.0000 O   0  0  0  0  0  0  0  0  0  0  0  0
   -0.7136   -1.0459    0.0000 N   0  0  0  0  0  0  0  0  0  0  0  0
   -1.5436   -0.4719    0.0000 H   0  0  0  0  0  0  0  0  0  0  0  0
    0.5724   -0.3469    0.0000 C   0  0  0  0  0  0  0  0  0  0  0  0
    0.7679    0.0454    0.9989 H   0  0  0  0  0  0  0  0  0  0  0  0
    1.3649   -1.0530   -0.2512 H   0  0  0  0  0  0  0  0  0  0  0  0
    0.6102    0.8121   -1.0002 C   0  0  0  0  0  0  0  0  0  0  0  0
    1.6692    1.1393   -1.5321 O   0  0  0  0  0  0  0  0  0  0  0  0
   -0.5535    1.4262   -1.2484 N   0  0  0  0  0  0  0  0  0  0  0  0
   -1.3705    1.0877   -0.7644 H   0  0  0  0  0  0  0  0  0  0  0  0
   -0.7287    2.5514   -2.1690 C   0  0  0  0  0  0  0  0  0  0  0  0
    0.2235    2.8251   -2.6297 H   0  0  0  0  0  0  0  0  0  0  0  0
   -1.4312    2.2794   -2.9579 H   0  0  0  0  0  0  0  0  0  0  0  0
   -1.1147    3.4165   -1.6282 H   0  0  0  0  0  0  0  0  0  0  0  0
  5  6  2  0  0  0  0
  5  7  1  0  0  0  0
  2  3  1  0  0  0  0
  2  4  1  0  0  0  0
  2  5  1  0  0  0  0
  1  2  1  0  0  0  0
 12 13  2  0  0  0  0
 12 14  1  0  0  0  0
  9 10  1  0  0  0  0
  9 11  1  0  0  0  0
  9 12  1  0  0  0  0
  7  8  1  0  0  0  0
  7  9  1  0  0  0  0
 16 17  1  0  0  0  0
 16 18  1  0  0  0  0
 16 19  1  0  0  0  0
 14 15  1  0  0  0  0
 14 16  1  0  0  0  0
M  END
$$$$
default_name
  -OEChem-01062215323D

 19 18  0     0  0  0  0  0  0999 V2000
   -2.2056   -4.0049    0.0000 H   0  0  0  0  0  0  0  0  0  0  0  0
   -2.2496   -2.9169    0.0000 C   0  0  0  0  0  0  0  0  0  0  0  0
   -2.7696   -2.5709    0.8910 H   0  0  0  0  0  0  0  0  0  0  0  0
   -2.7696   -2.5709   -0.8910 H   0  0  0  0  0  0  0  0  0  0  0  0
   -0.8406   -2.3699    0.0000 C   0  0  0  0  0  0  0  0  0  0  0  0
    0.1164   -3.1329    0.0000 O   0  0  0  0  0  0  0  0  0  0  0  0
   -0.7136   -1.0459    0.0000 N   0  0  0  0  0  0  0  0  0  0  0  0
   -1.5436   -0.4719    0.0000 H   0  0  0  0  0  0  0  0  0  0  0  0
    0.5724   -0.3469    0.0000 C   0  0  0  0  0  0  0  0  0  0  0  0
    0.7679    0.0454    0.9989 H   0  0  0  0  0  0  0  0  0  0  0  0
    1.3649   -1.0530   -0.2512 H   0  0  0  0  0  0  0  0  0  0  0  0
    0.6102    0.8121   -1.0002 C   0  0  0  0  0  0  0  0  0  0  0  0
    1.5848    0.9686   -1.7332 O   0  0  0  0  0  0  0  0  0  0  0  0
   -0.4582    1.6190   -1.0214 N   0  0  0  0  0  0  0  0  0  0  0  0
   -1.2102    1.4118   -0.3829 H   0  0  0  0  0  0  0  0  0  0  0  0
   -0.6163    2.7787   -1.9013 C   0  0  0  0  0  0  0  0  0  0  0  0
    0.2600    2.8988   -2.5430 H   0  0  0  0  0  0  0  0  0  0  0  0
   -1.4951    2.6473   -2.5339 H   0  0  0  0  0  0  0  0  0  0  0  0
   -0.7367    3.6837   -1.3043 H   0  0  0  0  0  0  0  0  0  0  0  0
  5  6  2  0  0  0  0
  5  7  1  0  0  0  0
  2  3  1  0  0  0  0
  2  4  1  0  0  0  0
  2  5  1  0  0  0  0
  1  2  1  0  0  0  0
 12 13  2  0  0  0  0
 12 14  1  0  0  0  0
  9 10  1  0  0  0  0
  9 11  1  0  0  0  0
  9 12  1  0  0  0  0
  7  8  1  0  0  0  0
  7  9  1  0  0  0  0
 16 17  1  0  0  0  0
 16 18  1  0  0  0  0
 16 19  1  0  0  0  0
 14 15  1  0  0  0  0
 14 16  1  0  0  0  0
M  END
$$$$
default_name
  -OEChem-01062215323D

 19 18  0     0  0  0  0  0  0999 V2000
   -2.2056   -4.0049    0.0000 H   0  0  0  0  0  0  0  0  0  0  0  0
   -2.2496   -2.9169    0.0000 C   0  0  0  0  0  0  0  0  0  0  0  0
   -2.7696   -2.5709    0.8910 H   0  0  0  0  0  0  0  0  0  0  0  0
   -2.7696   -2.5709   -0.8910 H   0  0  0  0  0  0  0  0  0  0  0  0
   -0.8406   -2.3699    0.0000 C   0  0  0  0  0  0  0  0  0  0  0  0
    0.1164   -3.1329    0.0000 O   0  0  0  0  0  0  0  0  0  0  0  0
   -0.7136   -1.0459    0.0000 N   0  0  0  0  0  0  0  0  0  0  0  0
   -1.5436   -0.4719    0.0000 H   0  0  0  0  0  0  0  0  0  0  0  0
    0.5724   -0.3469    0.0000 C   0  0  0  0  0  0  0  0  0  0  0  0
    0.7679    0.0454    0.9989 H   0  0  0  0  0  0  0  0  0  0  0  0
    1.3649   -1.0530   -0.2512 H   0  0  0  0  0  0  0  0  0  0  0  0
    0.6102    0.8121   -1.0002 C   0  0  0  0  0  0  0  0  0  0  0  0
    1.4349    0.8192   -1.9119 O   0  0  0  0  0  0  0  0  0  0  0  0
   -0.2890    1.7877   -0.8195 N   0  0  0  0  0  0  0  0  0  0  0  0
   -0.9258    1.6953   -0.0436 H   0  0  0  0  0  0  0  0  0  0  0  0
   -0.4168    2.9776   -1.6633 C   0  0  0  0  0  0  0  0  0  0  0  0
    0.3246    2.9633   -2.4658 H   0  0  0  0  0  0  0  0  0  0  0  0
   -1.4116    3.0108   -2.1096 H   0  0  0  0  0  0  0  0  0  0  0  0
   -0.2630    3.8758   -1.0638 H   0  0  0  0  0  0  0  0  0  0  0  0
  5  6  2  0  0  0  0
  5  7  1  0  0  0  0
  2  3  1  0  0  0  0
  2  4  1  0  0  0  0
  2  5  1  0  0  0  0
  1  2  1  0  0  0  0
 12 13  2  0  0  0  0
 12 14  1  0  0  0  0
  9 10  1  0  0  0  0
  9 11  1  0  0  0  0
  9 12  1  0  0  0  0
  7  8  1  0  0  0  0
  7  9  1  0  0  0  0
 16 17  1  0  0  0  0
 16 18  1  0  0  0  0
 16 19  1  0  0  0  0
 14 15  1  0  0  0  0
 14 16  1  0  0  0  0
M  END
$$$$
default_name
  -OEChem-01062215323D

 19 18  0     0  0  0  0  0  0999 V2000
   -2.2056   -4.0049    0.0000 H   0  0  0  0  0  0  0  0  0  0  0  0
   -2.2496   -2.9169    0.0000 C   0  0  0  0  0  0  0  0  0  0  0  0
   -2.7696   -2.5709    0.8910 H   0  0  0  0  0  0  0  0  0  0  0  0
   -2.7696   -2.5709   -0.8910 H   0  0  0  0  0  0  0  0  0  0  0  0
   -0.8406   -2.3699    0.0000 C   0  0  0  0  0  0  0  0  0  0  0  0
    0.1164   -3.1329    0.0000 O   0  0  0  0  0  0  0  0  0  0  0  0
   -0.7136   -1.0459    0.0000 N   0  0  0  0  0  0  0  0  0  0  0  0
   -1.5436   -0.4719    0.0000 H   0  0  0  0  0  0  0  0  0  0  0  0
    0.5724   -0.3469    0.0000 C   0  0  0  0  0  0  0  0  0  0  0  0
    0.7679    0.0454    0.9989 H   0  0  0  0  0  0  0  0  0  0  0  0
    1.3649   -1.0530   -0.2512 H   0  0  0  0  0  0  0  0  0  0  0  0
    0.6102    0.8121   -1.0002 C   0  0  0  0  0  0  0  0  0  0  0  0
    1.2300    0.7014   -2.0562 O   0  0  0  0  0  0  0  0  0  0  0  0
   -0.0575    1.9207   -0.6566 N   0  0  0  0  0  0  0  0  0  0  0  0
   -0.5368    1.9189    0.2302 H   0  0  0  0  0  0  0  0  0  0  0  0
   -0.1439    3.1345   -1.4712 C   0  0  0  0  0  0  0  0  0  0  0  0
    0.4131    3.0141   -2.4036 H   0  0  0  0  0  0  0  0  0  0  0  0
   -1.1864    3.3451   -1.7137 H   0  0  0  0  0  0  0  0  0  0  0  0
    0.2742    3.9797   -0.9230 H   0  0  0  0  0  0  0  0  0  0  0  0
  5  6  2  0  0  0  0
  5  7  1  0  0  0  0
  2  3  1  0  0  0  0
  2  4  1  0  0  0  0
  2  5  1  0  0  0  0
  1  2  1  0  0  0  0
 12 13  2  0  0  0  0
 12 14  1  0  0  0  0
  9 10  1  0  0  0  0
  9 11  1  0  0  0  0
  9 12  1  0  0  0  0
  7  8  1  0  0  0  0
  7  9  1  0  0  0  0
 16 17  1  0  0  0  0
 16 18  1  0  0  0  0
 16 19  1  0  0  0  0
 14 15  1  0  0  0  0
 14 16  1  0  0  0  0
M  END
$$$$
default_name
  -OEChem-01062215323D

 19 18  0     0  0  0  0  0  0999 V2000
   -2.2056   -4.0049    0.0000 H   0  0  0  0  0  0  0  0  0  0  0  0
   -2.2496   -2.9169    0.0000 C   0  0  0  0  0  0  0  0  0  0  0  0
   -2.7696   -2.5709    0.8910 H   0  0  0  0  0  0  0  0  0  0  0  0
   -2.7696   -2.5709   -0.8910 H   0  0  0  0  0  0  0  0  0  0  0  0
   -0.8406   -2.3699    0.0000 C   0  0  0  0  0  0  0  0  0  0  0  0
    0.1164   -3.1329    0.0000 O   0  0  0  0  0  0  0  0  0  0  0  0
   -0.7136   -1.0459    0.0000 N   0  0  0  0  0  0  0  0  0  0  0  0
   -1.5436   -0.4719    0.0000 H   0  0  0  0  0  0  0  0  0  0  0  0
    0.5724   -0.3469    0.0000 C   0  0  0  0  0  0  0  0  0  0  0  0
    0.7679    0.0454    0.9989 H   0  0  0  0  0  0  0  0  0  0  0  0
    1.3649   -1.0530   -0.2512 H   0  0  0  0  0  0  0  0  0  0  0  0
    0.6102    0.8121   -1.0002 C   0  0  0  0  0  0  0  0  0  0  0  0
    0.9838    0.6232   -2.1561 O   0  0  0  0  0  0  0  0  0  0  0  0
    0.2204    2.0091   -0.5437 N   0  0  0  0  0  0  0  0  0  0  0  0
   -0.0696    2.0674    0.4199 H   0  0  0  0  0  0  0  0  0  0  0  0
    0.1838    3.2386   -1.3381 C   0  0  0  0  0  0  0  0  0  0  0  0
    0.5193    3.0479   -2.3604 H   0  0  0  0  0  0  0  0  0  0  0  0
   -0.8348    3.6274   -1.3733 H   0  0  0  0  0  0  0  0  0  0  0  0
    0.8382    3.9884   -0.8916 H   0  0  0  0  0  0  0  0  0  0  0  0
  5  6  2  0  0  0  0
  5  7  1  0  0  0  0
  2  3  1  0  0  0  0
  2  4  1  0  0  0  0
  2  5  1  0  0  0  0
  1  2  1  0  0  0  0
 12 13  2  0  0  0  0
 12 14  1  0  0  0  0
  9 10  1  0  0  0  0
  9 11  1  0  0  0  0
  9 12  1  0  0  0  0
  7  8  1  0  0  0  0
  7  9  1  0  0  0  0
 16 17  1  0  0  0  0
 16 18  1  0  0  0  0
 16 19  1  0  0  0  0
 14 15  1  0  0  0  0
 14 16  1  0  0  0  0
M  END
$$$$
default_name
  -OEChem-01062215323D

 19 18  0     0  0  0  0  0  0999 V2000
   -2.2056   -4.0049    0.0000 H   0  0  0  0  0  0  0  0  0  0  0  0
   -2.2496   -2.9169    0.0000 C   0  0  0  0  0  0  0  0  0  0  0  0
   -2.7696   -2.5709    0.8910 H   0  0  0  0  0  0  0  0  0  0  0  0
   -2.7696   -2.5709   -0.8910 H   0  0  0  0  0  0  0  0  0  0  0  0
   -0.8406   -2.3699    0.0000 C   0  0  0  0  0  0  0  0  0  0  0  0
    0.1164   -3.1329    0.0000 O   0  0  0  0  0  0  0  0  0  0  0  0
   -0.7136   -1.0459    0.0000 N   0  0  0  0  0  0  0  0  0  0  0  0
   -1.5436   -0.4719    0.0000 H   0  0  0  0  0  0  0  0  0  0  0  0
    0.5724   -0.3469    0.0000 C   0  0  0  0  0  0  0  0  0  0  0  0
    0.7679    0.0454    0.9989 H   0  0  0  0  0  0  0  0  0  0  0  0
    1.3649   -1.0530   -0.2512 H   0  0  0  0  0  0  0  0  0  0  0  0
    0.6102    0.8121   -1.0002 C   0  0  0  0  0  0  0  0  0  0  0  0
    0.7133    0.5899   -2.2050 O   0  0  0  0  0  0  0  0  0  0  0  0
    0.5260    2.0467   -0.4886 N   0  0  0  0  0  0  0  0  0  0  0  0
    0.4439    2.1306    0.5126 H   0  0  0  0  0  0  0  0  0  0  0  0
    0.5441    3.2830   -1.2731 C   0  0  0  0  0  0  0  0  0  0  0  0
    0.6361    3.0622   -2.3394 H   0  0  0  0  0  0  0  0  0  0  0  0
   -0.3807    3.8384   -1.1116 H   0  0  0  0  0  0  0  0  0  0  0  0
    1.3906    3.9013   -0.9717 H   0  0  0  0  0  0  0  0  0  0  0  0
  5  6  2  0  0  0  0
  5  7  1  0  0  0  0
  2  3  1  0  0  0  0
  2  4  1  0  0  0  0
  2  5  1  0  0  0  0
  1  2  1  0  0  0  0
 12 13  2  0  0  0  0
 12 14  1  0  0  0  0
  9 10  1  0  0  0  0
  9 11  1  0  0  0  0
  9 12  1  0  0  0  0
  7  8  1  0  0  0  0
  7  9  1  0  0  0  0
 16 17  1  0  0  0  0
 16 18  1  0  0  0  0
 16 19  1  0  0  0  0
 14 15  1  0  0  0  0
 14 16  1  0  0  0  0
M  END
$$$$
default_name
  -OEChem-01062215323D

 19 18  0     0  0  0  0  0  0999 V2000
   -2.2056   -4.0049    0.0000 H   0  0  0  0  0  0  0  0  0  0  0  0
   -2.2496   -2.9169    0.0000 C   0  0  0  0  0  0  0  0  0  0  0  0
   -2.7696   -2.5709    0.8910 H   0  0  0  0  0  0  0  0  0  0  0  0
   -2.7696   -2.5709   -0.8910 H   0  0  0  0  0  0  0  0  0  0  0  0
   -0.8406   -2.3699    0.0000 C   0  0  0  0  0  0  0  0  0  0  0  0
    0.1164   -3.1329    0.0000 O   0  0  0  0  0  0  0  0  0  0  0  0
   -0.7136   -1.0459    0.0000 N   0  0  0  0  0  0  0  0  0  0  0  0
   -1.5436   -0.4719    0.0000 H   0  0  0  0  0  0  0  0  0  0  0  0
    0.5724   -0.3469    0.0000 C   0  0  0  0  0  0  0  0  0  0  0  0
    0.7679    0.0454    0.9989 H   0  0  0  0  0  0  0  0  0  0  0  0
    1.3649   -1.0530   -0.2512 H   0  0  0  0  0  0  0  0  0  0  0  0
    0.6102    0.8121   -1.0002 C   0  0  0  0  0  0  0  0  0  0  0  0
    0.4367    0.6038   -2.1994 O   0  0  0  0  0  0  0  0  0  0  0  0
    0.8383    2.0310   -0.4949 N   0  0  0  0  0  0  0  0  0  0  0  0
    0.9688    2.1042    0.5019 H   0  0  0  0  0  0  0  0  0  0  0  0
    0.9123    3.2645   -1.2806 C   0  0  0  0  0  0  0  0  0  0  0  0
    0.7555    3.0563   -2.3418 H   0  0  0  0  0  0  0  0  0  0  0  0
    0.1448    3.9638   -0.9464 H   0  0  0  0  0  0  0  0  0  0  0  0
    1.8938    3.7242   -1.1578 H   0  0  0  0  0  0  0  0  0  0  0  0
  5  6  2  0  0  0  0
  5  7  1  0  0  0  0
  2  3  1  0  0  0  0
  2  4  1  0  0  0  0
  2  5  1  0  0  0  0
  1  2  1  0  0  0  0
 12 13  2  0  0  0  0
 12 14  1  0  0  0  0
  9 10  1  0  0  0  0
  9 11  1  0  0  0  0
  9 12  1  0  0  0  0
  7  8  1  0  0  0  0
  7  9  1  0  0  0  0
 16 17  1  0  0  0  0
 16 18  1  0  0  0  0
 16 19  1  0  0  0  0
 14 15  1  0  0  0  0
 14 16  1  0  0  0  0
M  END
$$$$
default_name
  -OEChem-01062215323D

 19 18  0     0  0  0  0  0  0999 V2000
   -2.2056   -4.0049    0.0000 H   0  0  0  0  0  0  0  0  0  0  0  0
   -2.2496   -2.9169    0.0000 C   0  0  0  0  0  0  0  0  0  0  0  0
   -2.7696   -2.5709    0.8910 H   0  0  0  0  0  0  0  0  0  0  0  0
   -2.7696   -2.5709   -0.8910 H   0  0  0  0  0  0  0  0  0  0  0  0
   -0.8406   -2.3699    0.0000 C   0  0  0  0  0  0  0  0  0  0  0  0
    0.1164   -3.1329    0.0000 O   0  0  0  0  0  0  0  0  0  0  0  0
   -0.7136   -1.0459    0.0000 N   0  0  0  0  0  0  0  0  0  0  0  0
   -1.5436   -0.4719    0.0000 H   0  0  0  0  0  0  0  0  0  0  0  0
    0.5724   -0.3469    0.0000 C   0  0  0  0  0  0  0  0  0  0  0  0
    0.7679    0.0454    0.9989 H   0  0  0  0  0  0  0  0  0  0  0  0
    1.3649   -1.0530   -0.2512 H   0  0  0  0  0  0  0  0  0  0  0  0
    0.6102    0.8121   -1.0002 C   0  0  0  0  0  0  0  0  0  0  0  0
    0.1730    0.6639   -2.1397 O   0  0  0  0  0  0  0  0  0  0  0  0
    1.1360    1.9631   -0.5623 N   0  0  0  0  0  0  0  0  0  0  0  0
    1.4693    1.9901    0.3887 H   0  0  0  0  0  0  0  0  0  0  0  0
    1.2634    3.1844   -1.3601 C   0  0  0  0  0  0  0  0  0  0  0  0
    0.8693    3.0303   -2.3675 H   0  0  0  0  0  0  0  0  0  0  0  0
    0.7059    3.9951   -0.8889 H   0  0  0  0  0  0  0  0  0  0  0  0
    2.3135    3.4693   -1.4373 H   0  0  0  0  0  0  0  0  0  0  0  0
  5  6  2  0  0  0  0
  5  7  1  0  0  0  0
  2  3  1  0  0  0  0
  2  4  1  0  0  0  0
  2  5  1  0  0  0  0
  1  2  1  0  0  0  0
 12 13  2  0  0  0  0
 12 14  1  0  0  0  0
  9 10  1  0  0  0  0
  9 11  1  0  0  0  0
  9 12  1  0  0  0  0
  7  8  1  0  0  0  0
  7  9  1  0  0  0  0
 16 17  1  0  0  0  0
 16 18  1  0  0  0  0
 16 19  1  0  0  0  0
 14 15  1  0  0  0  0
 14 16  1  0  0  0  0
M  END
$$$$
default_name
  -OEChem-01062215323D

 19 18  0     0  0  0  0  0  0999 V2000
   -2.2056   -4.0049    0.0000 H   0  0  0  0  0  0  0  0  0  0  0  0
   -2.2496   -2.9169    0.0000 C   0  0  0  0  0  0  0  0  0  0  0  0
   -2.7696   -2.5709    0.8910 H   0  0  0  0  0  0  0  0  0  0  0  0
   -2.7696   -2.5709   -0.8910 H   0  0  0  0  0  0  0  0  0  0  0  0
   -0.8406   -2.3699    0.0000 C   0  0  0  0  0  0  0  0  0  0  0  0
    0.1164   -3.1329    0.0000 O   0  0  0  0  0  0  0  0  0  0  0  0
   -0.7136   -1.0459    0.0000 N   0  0  0  0  0  0  0  0  0  0  0  0
   -1.5436   -0.4719    0.0000 H   0  0  0  0  0  0  0  0  0  0  0  0
    0.5724   -0.3469    0.0000 C   0  0  0  0  0  0  0  0  0  0  0  0
    0.7679    0.0454    0.9989 H   0  0  0  0  0  0  0  0  0  0  0  0
    1.3649   -1.0530   -0.2512 H   0  0  0  0  0  0  0  0  0  0  0  0
    0.6102    0.8121   -1.0002 C   0  0  0  0  0  0  0  0  0  0  0  0
   -0.0598    0.7661   -2.0300 O   0  0  0  0  0  0  0  0  0  0  0  0
    1.3990    1.8476   -0.6862 N   0  0  0  0  0  0  0  0  0  0  0  0
    1.9112    1.7960    0.1805 H   0  0  0  0  0  0  0  0  0  0  0  0
    1.5734    3.0483   -1.5061 C   0  0  0  0  0  0  0  0  0  0  0  0
    0.9698    2.9862   -2.4149 H   0  0  0  0  0  0  0  0  0  0  0  0
    1.2645    3.9300   -0.9432 H   0  0  0  0  0  0  0  0  0  0  0  0
    2.6210    3.1540   -1.7911 H   0  0  0  0  0  0  0  0  0  0  0  0
  5  6  2  0  0  0  0
  5  7  1  0  0  0  0
  2  3  1  0  0  0  0
  2  4  1  0  0  0  0
  2  5  1  0  0  0  0
  1  2  1  0  0  0  0
 12 13  2  0  0  0  0
 12 14  1  0  0  0  0
  9 10  1  0  0  0  0
  9 11  1  0  0  0  0
  9 12  1  0  0  0  0
  7  8  1  0  0  0  0
  7  9  1  0  0  0  0
 16 17  1  0  0  0  0
 16 18  1  0  0  0  0
 16 19  1  0  0  0  0
 14 15  1  0  0  0  0
 14 16  1  0  0  0  0
M  END
$$$$
default_name
  -OEChem-01062215323D

 19 18  0     0  0  0  0  0  0999 V2000
   -2.2056   -4.0049    0.0000 H   0  0  0  0  0  0  0  0  0  0  0  0
   -2.2496   -2.9169    0.0000 C   0  0  0  0  0  0  0  0  0  0  0  0
   -2.7696   -2.5709    0.8910 H   0  0  0  0  0  0  0  0  0  0  0  0
   -2.7696   -2.5709   -0.8910 H   0  0  0  0  0  0  0  0  0  0  0  0
   -0.8406   -2.3699    0.0000 C   0  0  0  0  0  0  0  0  0  0  0  0
    0.1164   -3.1329    0.0000 O   0  0  0  0  0  0  0  0  0  0  0  0
   -0.7136   -1.0459    0.0000 N   0  0  0  0  0  0  0  0  0  0  0  0
   -1.5436   -0.4719    0.0000 H   0  0  0  0  0  0  0  0  0  0  0  0
    0.5724   -0.3469    0.0000 C   0  0  0  0  0  0  0  0  0  0  0  0
    0.7679    0.0454    0.9989 H   0  0  0  0  0  0  0  0  0  0  0  0
    1.3649   -1.0530   -0.2512 H   0  0  0  0  0  0  0  0  0  0  0  0
    0.6102    0.8121   -1.0002 C   0  0  0  0  0  0  0  0  0  0  0  0
   -0.2459    0.9036   -1.8778 O   0  0  0  0  0  0  0  0  0  0  0  0
    1.6092    1.6924   -0.8581 N   0  0  0  0  0  0  0  0  0  0  0  0
    2.2645    1.5351   -0.1084 H   0  0  0  0  0  0  0  0  0  0  0  0
    1.8212    2.8653   -1.7088 C   0  0  0  0  0  0  0  0  0  0  0  0
    1.0501    2.9269   -2.4806 H   0  0  0  0  0  0  0  0  0  0  0  0
    1.7824    3.7731   -1.1054 H   0  0  0  0  0  0  0  0  0  0  0  0
    2.7954    2.7996   -2.1951 H   0  0  0  0  0  0  0  0  0  0  0  0
  5  6  2  0  0  0  0
  5  7  1  0  0  0  0
  2  3  1  0  0  0  0
  2  4  1  0  0  0  0
  2  5  1  0  0  0  0
  1  2  1  0  0  0  0
 12 13  2  0  0  0  0
 12 14  1  0  0  0  0
  9 10  1  0  0  0  0
  9 11  1  0  0  0  0
  9 12  1  0  0  0  0
  7  8  1  0  0  0  0
  7  9  1  0  0  0  0
 16 17  1  0  0  0  0
 16 18  1  0  0  0  0
 16 19  1  0  0  0  0
 14 15  1  0  0  0  0
 14 16  1  0  0  0  0
M  END
$$$$
default_name
  -OEChem-01062215323D

 19 18  0     0  0  0  0  0  0999 V2000
   -2.2056   -4.0049    0.0000 H   0  0  0  0  0  0  0  0  0  0  0  0
   -2.2496   -2.9169    0.0000 C   0  0  0  0  0  0  0  0  0  0  0  0
   -2.7696   -2.5709    0.8910 H   0  0  0  0  0  0  0  0  0  0  0  0
   -2.7696   -2.5709   -0.8910 H   0  0  0  0  0  0  0  0  0  0  0  0
   -0.8406   -2.3699    0.0000 C   0  0  0  0  0  0  0  0  0  0  0  0
    0.1164   -3.1329    0.0000 O   0  0  0  0  0  0  0  0  0  0  0  0
   -0.7136   -1.0459    0.0000 N   0  0  0  0  0  0  0  0  0  0  0  0
   -1.5436   -0.4719    0.0000 H   0  0  0  0  0  0  0  0  0  0  0  0
    0.5724   -0.3469    0.0000 C   0  0  0  0  0  0  0  0  0  0  0  0
    0.8955   -0.1893    1.0299 H   0  0  0  0  0  0  0  0  0  0  0  0
    1.3176   -0.9660   -0.5012 H   0  0  0  0  0  0  0  0  0  0  0  0
    0.5029    1.0096   -0.7073 C   0  0  0  0  0  0  0  0  0  0  0  0
   -0.5544    1.4012   -1.1974 O   0  0  0  0  0  0  0  0  0  0  0  0
    1.6378    1.7186   -0.7540 N   0  0  0  0  0  0  0  0  0  0  0  0
    2.4558    1.3158   -0.3241 H   0  0  0  0  0  0  0  0  0  0  0  0
    1.7802    3.0338   -1.3819 C   0  0  0  0  0  0  0  0  0  0  0  0
    0.8300    3.3619   -1.8103 H   0  0  0  0  0  0  0  0  0  0  0  0
    2.0984    3.7669   -0.6395 H   0  0  0  0  0  0  0  0  0  0  0  0
    2.5230    2.9858   -2.1792 H   0  0  0  0  0  0  0  0  0  0  0  0
  5  6  2  0  0  0  0
  5  7  1  0  0  0  0
  2  3  1  0  0  0  0
  2  4  1  0  0  0  0
  2  5  1  0  0  0  0
  1  2  1  0  0  0  0
 12 13  2  0  0  0  0
 12 14  1  0  0  0  0
  9 10  1  0  0  0  0
  9 11  1  0  0  0  0
  9 12  1  0  0  0  0
  7  8  1  0  0  0  0
  7  9  1  0  0  0  0
 16 17  1  0  0  0  0
 16 18  1  0  0  0  0
 16 19  1  0  0  0  0
 14 15  1  0  0  0  0
 14 16  1  0  0  0  0
M  END
$$$$
default_name
  -OEChem-01062215323D

 19 18  0     0  0  0  0  0  0999 V2000
   -2.2056   -4.0049    0.0000 H   0  0  0  0  0  0  0  0  0  0  0  0
   -2.2496   -2.9169    0.0000 C   0  0  0  0  0  0  0  0  0  0  0  0
   -2.7696   -2.5709    0.8910 H   0  0  0  0  0  0  0  0  0  0  0  0
   -2.7696   -2.5709   -0.8910 H   0  0  0  0  0  0  0  0  0  0  0  0
   -0.8406   -2.3699    0.0000 C   0  0  0  0  0  0  0  0  0  0  0  0
    0.1164   -3.1329    0.0000 O   0  0  0  0  0  0  0  0  0  0  0  0
   -0.7136   -1.0459    0.0000 N   0  0  0  0  0  0  0  0  0  0  0  0
   -1.5436   -0.4719    0.0000 H   0  0  0  0  0  0  0  0  0  0  0  0
    0.5724   -0.3469    0.0000 C   0  0  0  0  0  0  0  0  0  0  0  0
    0.8955   -0.1893    1.0299 H   0  0  0  0  0  0  0  0  0  0  0  0
    1.3176   -0.9660   -0.5012 H   0  0  0  0  0  0  0  0  0  0  0  0
    0.5029    1.0096   -0.7073 C   0  0  0  0  0  0  0  0  0  0  0  0
   -0.5849    1.5272   -0.9527 O   0  0  0  0  0  0  0  0  0  0  0  0
    1.6723    1.5763   -1.0303 N   0  0  0  0  0  0  0  0  0  0  0  0
    2.5137    1.0766   -0.7886 H   0  0  0  0  0  0  0  0  0  0  0  0
    1.8208    2.8660   -1.7077 C   0  0  0  0  0  0  0  0  0  0  0  0
    0.8432    3.3075   -1.9159 H   0  0  0  0  0  0  0  0  0  0  0  0
    2.3856    3.5536   -1.0768 H   0  0  0  0  0  0  0  0  0  0  0  0
    2.3493    2.7303   -2.6522 H   0  0  0  0  0  0  0  0  0  0  0  0
  5  6  2  0  0  0  0
  5  7  1  0  0  0  0
  2  3  1  0  0  0  0
  2  4  1  0  0  0  0
  2  5  1  0  0  0  0
  1  2  1  0  0  0  0
 12 13  2  0  0  0  0
 12 14  1  0  0  0  0
  9 10  1  0  0  0  0
  9 11  1  0  0  0  0
  9 12  1  0  0  0  0
  7  8  1  0  0  0  0
  7  9  1  0  0  0  0
 16 17  1  0  0  0  0
 16 18  1  0  0  0  0
 16 19  1  0  0  0  0
 14 15  1  0  0  0  0
 14 16  1  0  0  0  0
M  END
$$$$
default_name
  -OEChem-01062215323D

 19 18  0     0  0  0  0  0  0999 V2000
   -2.2056   -4.0049    0.0000 H   0  0  0  0  0  0  0  0  0  0  0  0
   -2.2496   -2.9169    0.0000 C   0  0  0  0  0  0  0  0  0  0  0  0
   -2.7696   -2.5709    0.8910 H   0  0  0  0  0  0  0  0  0  0  0  0
   -2.7696   -2.5709   -0.8910 H   0  0  0  0  0  0  0  0  0  0  0  0
   -0.8406   -2.3699    0.0000 C   0  0  0  0  0  0  0  0  0  0  0  0
    0.1164   -3.1329    0.0000 O   0  0  0  0  0  0  0  0  0  0  0  0
   -0.7136   -1.0459    0.0000 N   0  0  0  0  0  0  0  0  0  0  0  0
   -1.5436   -0.4719    0.0000 H   0  0  0  0  0  0  0  0  0  0  0  0
    0.5724   -0.3469    0.0000 C   0  0  0  0  0  0  0  0  0  0  0  0
    0.8955   -0.1893    1.0299 H   0  0  0  0  0  0  0  0  0  0  0  0
    1.3176   -0.9660   -0.5012 H   0  0  0  0  0  0  0  0  0  0  0  0
    0.5029    1.0096   -0.7073 C   0  0  0  0  0  0  0  0  0  0  0  0
   -0.5432    1.6555   -0.7108 O   0  0  0  0  0  0  0  0  0  0  0  0
    1.6252    1.4314   -1.3035 N   0  0  0  0  0  0  0  0  0  0  0  0
    2.4346    0.8332   -1.2477 H   0  0  0  0  0  0  0  0  0  0  0  0
    1.7653    2.6952   -2.0298 C   0  0  0  0  0  0  0  0  0  0  0  0
    0.8252    3.2522   -2.0203 H   0  0  0  0  0  0  0  0  0  0  0  0
    2.5372    3.3081   -1.5625 H   0  0  0  0  0  0  0  0  0  0  0  0
    2.0425    2.4987   -3.0663 H   0  0  0  0  0  0  0  0  0  0  0  0
  5  6  2  0  0  0  0
  5  7  1  0  0  0  0
  2  3  1  0  0  0  0
  2  4  1  0  0  0  0
  2  5  1  0  0  0  0
  1  2  1  0  0  0  0
 12 13  2  0  0  0  0
 12 14  1  0  0  0  0
  9 10  1  0  0  0  0
  9 11  1  0  0  0  0
  9 12  1  0  0  0  0
  7  8  1  0  0  0  0
  7  9  1  0  0  0  0
 16 17  1  0  0  0  0
 16 18  1  0  0  0  0
 16 19  1  0  0  0  0
 14 15  1  0  0  0  0
 14 16  1  0  0  0  0
M  END
$$$$
default_name
  -OEChem-01062215323D

 19 18  0     0  0  0  0  0  0999 V2000
   -2.2056   -4.0049    0.0000 H   0  0  0  0  0  0  0  0  0  0  0  0
   -2.2496   -2.9169    0.0000 C   0  0  0  0  0  0  0  0  0  0  0  0
   -2.7696   -2.5709    0.8910 H   0  0  0  0  0  0  0  0  0  0  0  0
   -2.7696   -2.5709   -0.8910 H   0  0  0  0  0  0  0  0  0  0  0  0
   -0.8406   -2.3699    0.0000 C   0  0  0  0  0  0  0  0  0  0  0  0
    0.1164   -3.1329    0.0000 O   0  0  0  0  0  0  0  0  0  0  0  0
   -0.7136   -1.0459    0.0000 N   0  0  0  0  0  0  0  0  0  0  0  0
   -1.5436   -0.4719    0.0000 H   0  0  0  0  0  0  0  0  0  0  0  0
    0.5724   -0.3469    0.0000 C   0  0  0  0  0  0  0  0  0  0  0  0
    0.8955   -0.1893    1.0299 H   0  0  0  0  0  0  0  0  0  0  0  0
    1.3176   -0.9660   -0.5012 H   0  0  0  0  0  0  0  0  0  0  0  0
    0.5029    1.0096   -0.7073 C   0  0  0  0  0  0  0  0  0  0  0  0
   -0.4321    1.7772   -0.4882 O   0  0  0  0  0  0  0  0  0  0  0  0
    1.4998    1.2940   -1.5548 N   0  0  0  0  0  0  0  0  0  0  0  0
    2.2237    0.6021   -1.6702 H   0  0  0  0  0  0  0  0  0  0  0  0
    1.6174    2.5331   -2.3261 C   0  0  0  0  0  0  0  0  0  0  0  0
    0.7772    3.1996   -2.1164 H   0  0  0  0  0  0  0  0  0  0  0  0
    2.5429    3.0471   -2.0635 H   0  0  0  0  0  0  0  0  0  0  0  0
    1.6236    2.3068   -3.3932 H   0  0  0  0  0  0  0  0  0  0  0  0
  5  6  2  0  0  0  0
  5  7  1  0  0  0  0
  2  3  1  0  0  0  0
  2  4  1  0  0  0  0
  2  5  1  0  0  0  0
  1  2  1  0  0  0  0
 12 13  2  0  0  0  0
 12 14  1  0  0  0  0
  9 10  1  0  0  0  0
  9 11  1  0  0  0  0
  9 12  1  0  0  0  0
  7  8  1  0  0  0  0
  7  9  1  0  0  0  0
 16 17  1  0  0  0  0
 16 18  1  0  0  0  0
 16 19  1  0  0  0  0
 14 15  1  0  0  0  0
 14 16  1  0  0  0  0
M  END
$$$$
default_name
  -OEChem-01062215323D

 19 18  0     0  0  0  0  0  0999 V2000
   -2.2056   -4.0049    0.0000 H   0  0  0  0  0  0  0  0  0  0  0  0
   -2.2496   -2.9169    0.0000 C   0  0  0  0  0  0  0  0  0  0  0  0
   -2.7696   -2.5709    0.8910 H   0  0  0  0  0  0  0  0  0  0  0  0
   -2.7696   -2.5709   -0.8910 H   0  0  0  0  0  0  0  0  0  0  0  0
   -0.8406   -2.3699    0.0000 C   0  0  0  0  0  0  0  0  0  0  0  0
    0.1164   -3.1329    0.0000 O   0  0  0  0  0  0  0  0  0  0  0  0
   -0.7136   -1.0459    0.0000 N   0  0  0  0  0  0  0  0  0  0  0  0
   -1.5436   -0.4719    0.0000 H   0  0  0  0  0  0  0  0  0  0  0  0
    0.5724   -0.3469    0.0000 C   0  0  0  0  0  0  0  0  0  0  0  0
    0.8955   -0.1893    1.0299 H   0  0  0  0  0  0  0  0  0  0  0  0
    1.3176   -0.9660   -0.5012 H   0  0  0  0  0  0  0  0  0  0  0  0
    0.5029    1.0096   -0.7073 C   0  0  0  0  0  0  0  0  0  0  0  0
   -0.2592    1.8842   -0.3001 O   0  0  0  0  0  0  0  0  0  0  0  0
    1.3045    1.1732   -1.7673 N   0  0  0  0  0  0  0  0  0  0  0  0
    1.8956    0.3991   -2.0272 H   0  0  0  0  0  0  0  0  0  0  0  0
    1.3872    2.3907   -2.5766 C   0  0  0  0  0  0  0  0  0  0  0  0
    0.7026    3.1535   -2.1976 H   0  0  0  0  0  0  0  0  0  0  0  0
    2.4024    2.7885   -2.5458 H   0  0  0  0  0  0  0  0  0  0  0  0
    1.1211    2.1676   -3.6106 H   0  0  0  0  0  0  0  0  0  0  0  0
  5  6  2  0  0  0  0
  5  7  1  0  0  0  0
  2  3  1  0  0  0  0
  2  4  1  0  0  0  0
  2  5  1  0  0  0  0
  1  2  1  0  0  0  0
 12 13  2  0  0  0  0
 12 14  1  0  0  0  0
  9 10  1  0  0  0  0
  9 11  1  0  0  0  0
  9 12  1  0  0  0  0
  7  8  1  0  0  0  0
  7  9  1  0  0  0  0
 16 17  1  0  0  0  0
 16 18  1  0  0  0  0
 16 19  1  0  0  0  0
 14 15  1  0  0  0  0
 14 16  1  0  0  0  0
M  END
$$$$
default_name
  -OEChem-01062215323D

 19 18  0     0  0  0  0  0  0999 V2000
   -2.2056   -4.0049    0.0000 H   0  0  0  0  0  0  0  0  0  0  0  0
   -2.2496   -2.9169    0.0000 C   0  0  0  0  0  0  0  0  0  0  0  0
   -2.7696   -2.5709    0.8910 H   0  0  0  0  0  0  0  0  0  0  0  0
   -2.7696   -2.5709   -0.8910 H   0  0  0  0  0  0  0  0  0  0  0  0
   -0.8406   -2.3699    0.0000 C   0  0  0  0  0  0  0  0  0  0  0  0
    0.1164   -3.1329    0.0000 O   0  0  0  0  0  0  0  0  0  0  0  0
   -0.7136   -1.0459    0.0000 N   0  0  0  0  0  0  0  0  0  0  0  0
   -1.5436   -0.4719    0.0000 H   0  0  0  0  0  0  0  0  0  0  0  0
    0.5724   -0.3469    0.0000 C   0  0  0  0  0  0  0  0  0  0  0  0
    0.8955   -0.1893    1.0299 H   0  0  0  0  0  0  0  0  0  0  0  0
    1.3176   -0.9660   -0.5012 H   0  0  0  0  0  0  0  0  0  0  0  0
    0.5029    1.0096   -0.7073 C   0  0  0  0  0  0  0  0  0  0  0  0
   -0.0364    1.9690   -0.1593 O   0  0  0  0  0  0  0  0  0  0  0  0
    1.0528    1.0774   -1.9263 N   0  0  0  0  0  0  0  0  0  0  0  0
    1.4726    0.2381   -2.2944 H   0  0  0  0  0  0  0  0  0  0  0  0
    1.0904    2.2778   -2.7641 C   0  0  0  0  0  0  0  0  0  0  0  0
    0.6064    3.1169   -2.2583 H   0  0  0  0  0  0  0  0  0  0  0  0
    2.1252    2.5498   -2.9763 H   0  0  0  0  0  0  0  0  0  0  0  0
    0.5692    2.0908   -3.7038 H   0  0  0  0  0  0  0  0  0  0  0  0
  5  6  2  0  0  0  0
  5  7  1  0  0  0  0
  2  3  1  0  0  0  0
  2  4  1  0  0  0  0
  2  5  1  0  0  0  0
  1  2  1  0  0  0  0
 12 13  2  0  0  0  0
 12 14  1  0  0  0  0
  9 10  1  0  0  0  0
  9 11  1  0  0  0  0
  9 12  1  0  0  0  0
  7  8  1  0  0  0  0
  7  9  1  0  0  0  0
 16 17  1  0  0  0  0
 16 18  1  0  0  0  0
 16 19  1  0  0  0  0
 14 15  1  0  0  0  0
 14 16  1  0  0  0  0
M  END
$$$$
default_name
  -OEChem-01062215323D

 19 18  0     0  0  0  0  0  0999 V2000
   -2.2056   -4.0049    0.0000 H   0  0  0  0  0  0  0  0  0  0  0  0
   -2.2496   -2.9169    0.0000 C   0  0  0  0  0  0  0  0  0  0  0  0
   -2.7696   -2.5709    0.8910 H   0  0  0  0  0  0  0  0  0  0  0  0
   -2.7696   -2.5709   -0.8910 H   0  0  0  0  0  0  0  0  0  0  0  0
   -0.8406   -2.3699    0.0000 C   0  0  0  0  0  0  0  0  0  0  0  0
    0.1164   -3.1329    0.0000 O   0  0  0  0  0  0  0  0  0  0  0  0
   -0.7136   -1.0459    0.0000 N   0  0  0  0  0  0  0  0  0  0  0  0
   -1.5436   -0.4719    0.0000 H   0  0  0  0  0  0  0  0  0  0  0  0
    0.5724   -0.3469    0.0000 C   0  0  0  0  0  0  0  0  0  0  0  0
    0.8955   -0.1893    1.0299 H   0  0  0  0  0  0  0  0  0  0  0  0
    1.3176   -0.9660   -0.5012 H   0  0  0  0  0  0  0  0  0  0  0  0
    0.5029    1.0096   -0.7073 C   0  0  0  0  0  0  0  0  0  0  0  0
    0.2214    2.0260   -0.0754 O   0  0  0  0  0  0  0  0  0  0  0  0
    0.7618    1.0131   -2.0210 N   0  0  0  0  0  0  0  0  0  0  0  0
    0.9834    0.1300   -2.4537 H   0  0  0  0  0  0  0  0  0  0  0  0
    0.7473    2.2020   -2.8758 C   0  0  0  0  0  0  0  0  0  0  0  0
    0.4952    3.0923   -2.2946 H   0  0  0  0  0  0  0  0  0  0  0  0
    1.7302    2.3474   -3.3258 H   0  0  0  0  0  0  0  0  0  0  0  0
    0.0055    2.0814   -3.6664 H   0  0  0  0  0  0  0  0  0  0  0  0
  5  6  2  0  0  0  0
  5  7  1  0  0  0  0
  2  3  1  0  0  0  0
  2  4  1  0  0  0  0
  2  5  1  0  0  0  0
  1  2  1  0  0  0  0
 12 13  2  0  0  0  0
 12 14  1  0  0  0  0
  9 10  1  0  0  0  0
  9 11  1  0  0  0  0
  9 12  1  0  0  0  0
  7  8  1  0  0  0  0
  7  9  1  0  0  0  0
 16 17  1  0  0  0  0
 16 18  1  0  0  0  0
 16 19  1  0  0  0  0
 14 15  1  0  0  0  0
 14 16  1  0  0  0  0
M  END
$$$$
default_name
  -OEChem-01062215323D

 19 18  0     0  0  0  0  0  0999 V2000
   -2.2056   -4.0049    0.0000 H   0  0  0  0  0  0  0  0  0  0  0  0
   -2.2496   -2.9169    0.0000 C   0  0  0  0  0  0  0  0  0  0  0  0
   -2.7696   -2.5709    0.8910 H   0  0  0  0  0  0  0  0  0  0  0  0
   -2.7696   -2.5709   -0.8910 H   0  0  0  0  0  0  0  0  0  0  0  0
   -0.8406   -2.3699    0.0000 C   0  0  0  0  0  0  0  0  0  0  0  0
    0.1164   -3.1329    0.0000 O   0  0  0  0  0  0  0  0  0  0  0  0
   -0.7136   -1.0459    0.0000 N   0  0  0  0  0  0  0  0  0  0  0  0
   -1.5436   -0.4719    0.0000 H   0  0  0  0  0  0  0  0  0  0  0  0
    0.5724   -0.3469    0.0000 C   0  0  0  0  0  0  0  0  0  0  0  0
    0.8955   -0.1893    1.0299 H   0  0  0  0  0  0  0  0  0  0  0  0
    1.3176   -0.9660   -0.5012 H   0  0  0  0  0  0  0  0  0  0  0  0
    0.5029    1.0096   -0.7073 C   0  0  0  0  0  0  0  0  0  0  0  0
    0.4963    2.0511   -0.0541 O   0  0  0  0  0  0  0  0  0  0  0  0
    0.4513    0.9846   -2.0451 N   0  0  0  0  0  0  0  0  0  0  0  0
    0.4615    0.0822   -2.4941 H   0  0  0  0  0  0  0  0  0  0  0  0
    0.3812    2.1684   -2.9041 C   0  0  0  0  0  0  0  0  0  0  0  0
    0.3765    3.0814   -2.3037 H   0  0  0  0  0  0  0  0  0  0  0  0
    1.2444    2.1949   -3.5705 H   0  0  0  0  0  0  0  0  0  0  0  0
   -0.5314    2.1402   -3.5010 H   0  0  0  0  0  0  0  0  0  0  0  0
  5  6  2  0  0  0  0
  5  7  1  0  0  0  0
  2  3  1  0  0  0  0
  2  4  1  0  0  0  0
  2  5  1  0  0  0  0
  1  2  1  0  0  0  0
 12 13  2  0  0  0  0
 12 14  1  0  0  0  0
  9 10  1  0  0  0  0
  9 11  1  0  0  0  0
  9 12  1  0  0  0  0
  7  8  1  0  0  0  0
  7  9  1  0  0  0  0
 16 17  1  0  0  0  0
 16 18  1  0  0  0  0
 16 19  1  0  0  0  0
 14 15  1  0  0  0  0
 14 16  1  0  0  0  0
M  END
$$$$
default_name
  -OEChem-01062215323D

 19 18  0     0  0  0  0  0  0999 V2000
   -2.2056   -4.0049    0.0000 H   0  0  0  0  0  0  0  0  0  0  0  0
   -2.2496   -2.9169    0.0000 C   0  0  0  0  0  0  0  0  0  0  0  0
   -2.7696   -2.5709    0.8910 H   0  0  0  0  0  0  0  0  0  0  0  0
   -2.7696   -2.5709   -0.8910 H   0  0  0  0  0  0  0  0  0  0  0  0
   -0.8406   -2.3699    0.0000 C   0  0  0  0  0  0  0  0  0  0  0  0
    0.1164   -3.1329    0.0000 O   0  0  0  0  0  0  0  0  0  0  0  0
   -0.7136   -1.0459    0.0000 N   0  0  0  0  0  0  0  0  0  0  0  0
   -1.5436   -0.4719    0.0000 H   0  0  0  0  0  0  0  0  0  0  0  0
    0.5724   -0.3469    0.0000 C   0  0  0  0  0  0  0  0  0  0  0  0
    0.8955   -0.1893    1.0299 H   0  0  0  0  0  0  0  0  0  0  0  0
    1.3176   -0.9660   -0.5012 H   0  0  0  0  0  0  0  0  0  0  0  0
    0.5029    1.0096   -0.7073 C   0  0  0  0  0  0  0  0  0  0  0  0
    0.7698    2.0429   -0.0969 O   0  0  0  0  0  0  0  0  0  0  0  0
    0.1424    0.9940   -1.9968 N   0  0  0  0  0  0  0  0  0  0  0  0
   -0.0576    0.0979   -2.4129 H   0  0  0  0  0  0  0  0  0  0  0  0
    0.0170    2.1794   -2.8472 C   0  0  0  0  0  0  0  0  0  0  0  0
    0.2585    3.0850   -2.2853 H   0  0  0  0  0  0  0  0  0  0  0  0
    0.7007    2.1028   -3.6937 H   0  0  0  0  0  0  0  0  0  0  0  0
   -1.0052    2.2630   -3.2187 H   0  0  0  0  0  0  0  0  0  0  0  0
  5  6  2  0  0  0  0
  5  7  1  0  0  0  0
  2  3  1  0  0  0  0
  2  4  1  0  0  0  0
  2  5  1  0  0  0  0
  1  2  1  0  0  0  0
 12 13  2  0  0  0  0
 12 14  1  0  0  0  0
  9 10  1  0  0  0  0
  9 11  1  0  0  0  0
  9 12  1  0  0  0  0
  7  8  1  0  0  0  0
  7  9  1  0  0  0  0
 16 17  1  0  0  0  0
 16 18  1  0  0  0  0
 16 19  1  0  0  0  0
 14 15  1  0  0  0  0
 14 16  1  0  0  0  0
M  END
$$$$
default_name
  -OEChem-01062215323D

 19 18  0     0  0  0  0  0  0999 V2000
   -2.2056   -4.0049    0.0000 H   0  0  0  0  0  0  0  0  0  0  0  0
   -2.2496   -2.9169    0.0000 C   0  0  0  0  0  0  0  0  0  0  0  0
   -2.7696   -2.5709    0.8910 H   0  0  0  0  0  0  0  0  0  0  0  0
   -2.7696   -2.5709   -0.8910 H   0  0  0  0  0  0  0  0  0  0  0  0
   -0.8406   -2.3699    0.0000 C   0  0  0  0  0  0  0  0  0  0  0  0
    0.1164   -3.1329    0.0000 O   0  0  0  0  0  0  0  0  0  0  0  0
   -0.7136   -1.0459    0.0000 N   0  0  0  0  0  0  0  0  0  0  0  0
   -1.5436   -0.4719    0.0000 H   0  0  0  0  0  0  0  0  0  0  0  0
    0.5724   -0.3469    0.0000 C   0  0  0  0  0  0  0  0  0  0  0  0
    0.8955   -0.1893    1.0299 H   0  0  0  0  0  0  0  0  0  0  0  0
    1.3176   -0.9660   -0.5012 H   0  0  0  0  0  0  0  0  0  0  0  0
    0.5029    1.0096   -0.7073 C   0  0  0  0  0  0  0  0  0  0  0  0
    1.0232    2.0017   -0.2008 O   0  0  0  0  0  0  0  0  0  0  0  0
   -0.1437    1.0405   -1.8794 N   0  0  0  0  0  0  0  0  0  0  0  0
   -0.5385    0.1761   -2.2157 H   0  0  0  0  0  0  0  0  0  0  0  0
   -0.3204    2.2343   -2.7088 C   0  0  0  0  0  0  0  0  0  0  0  0
    0.1491    3.1028   -2.2404 H   0  0  0  0  0  0  0  0  0  0  0  0
    0.1364    2.0774   -3.6869 H   0  0  0  0  0  0  0  0  0  0  0  0
   -1.3834    2.4417   -2.8390 H   0  0  0  0  0  0  0  0  0  0  0  0
  5  6  2  0  0  0  0
  5  7  1  0  0  0  0
  2  3  1  0  0  0  0
  2  4  1  0  0  0  0
  2  5  1  0  0  0  0
  1  2  1  0  0  0  0
 12 13  2  0  0  0  0
 12 14  1  0  0  0  0
  9 10  1  0  0  0  0
  9 11  1  0  0  0  0
  9 12  1  0  0  0  0
  7  8  1  0  0  0  0
  7  9  1  0  0  0  0
 16 17  1  0  0  0  0
 16 18  1  0  0  0  0
 16 19  1  0  0  0  0
 14 15  1  0  0  0  0
 14 16  1  0  0  0  0
M  END
$$$$
default_name
  -OEChem-01062215323D

 19 18  0     0  0  0  0  0  0999 V2000
   -2.2056   -4.0049    0.0000 H   0  0  0  0  0  0  0  0  0  0  0  0
   -2.2496   -2.9169    0.0000 C   0  0  0  0  0  0  0  0  0  0  0  0
   -2.7696   -2.5709    0.8910 H   0  0  0  0  0  0  0  0  0  0  0  0
   -2.7696   -2.5709   -0.8910 H   0  0  0  0  0  0  0  0  0  0  0  0
   -0.8406   -2.3699    0.0000 C   0  0  0  0  0  0  0  0  0  0  0  0
    0.1164   -3.1329    0.0000 O   0  0  0  0  0  0  0  0  0  0  0  0
   -0.7136   -1.0459    0.0000 N   0  0  0  0  0  0  0  0  0  0  0  0
   -1.5436   -0.4719    0.0000 H   0  0  0  0  0  0  0  0  0  0  0  0
    0.5724   -0.3469    0.0000 C   0  0  0  0  0  0  0  0  0  0  0  0
    0.8955   -0.1893    1.0299 H   0  0  0  0  0  0  0  0  0  0  0  0
    1.3176   -0.9660   -0.5012 H   0  0  0  0  0  0  0  0  0  0  0  0
    0.5029    1.0096   -0.7073 C   0  0  0  0  0  0  0  0  0  0  0  0
    1.2392    1.9304   -0.3588 O   0  0  0  0  0  0  0  0  0  0  0  0
   -0.3877    1.1211   -1.7010 N   0  0  0  0  0  0  0  0  0  0  0  0
   -0.9485    0.3115   -1.9159 H   0  0  0  0  0  0  0  0  0  0  0  0
   -0.6080    2.3292   -2.4985 C   0  0  0  0  0  0  0  0  0  0  0  0
    0.0559    3.1335   -2.1723 H   0  0  0  0  0  0  0  0  0  0  0  0
   -0.4102    2.1204   -3.5507 H   0  0  0  0  0  0  0  0  0  0  0  0
   -1.6402    2.6639   -2.3875 H   0  0  0  0  0  0  0  0  0  0  0  0
  5  6  2  0  0  0  0
  5  7  1  0  0  0  0
  2  3  1  0  0  0  0
  2  4  1  0  0  0  0
  2  5  1  0  0  0  0
  1  2  1  0  0  0  0
 12 13  2  0  0  0  0
 12 14  1  0  0  0  0
  9 10  1  0  0  0  0
  9 11  1  0  0  0  0
  9 12  1  0  0  0  0
  7  8  1  0  0  0  0
  7  9  1  0  0  0  0
 16 17  1  0  0  0  0
 16 18  1  0  0  0  0
 16 19  1  0  0  0  0
 14 15  1  0  0  0  0
 14 16  1  0  0  0  0
M  END
$$$$
default_name
  -OEChem-01062215323D

 19 18  0     0  0  0  0  0  0999 V2000
   -2.2056   -4.0049    0.0000 H   0  0  0  0  0  0  0  0  0  0  0  0
   -2.2496   -2.9169    0.0000 C   0  0  0  0  0  0  0  0  0  0  0  0
   -2.7696   -2.5709    0.8910 H   0  0  0  0  0  0  0  0  0  0  0  0
   -2.7696   -2.5709   -0.8910 H   0  0  0  0  0  0  0  0  0  0  0  0
   -0.8406   -2.3699    0.0000 C   0  0  0  0  0  0  0  0  0  0  0  0
    0.1164   -3.1329    0.0000 O   0  0  0  0  0  0  0  0  0  0  0  0
   -0.7136   -1.0459    0.0000 N   0  0  0  0  0  0  0  0  0  0  0  0
   -1.5436   -0.4719    0.0000 H   0  0  0  0  0  0  0  0  0  0  0  0
    0.5724   -0.3469    0.0000 C   0  0  0  0  0  0  0  0  0  0  0  0
    0.8955   -0.1893    1.0299 H   0  0  0  0  0  0  0  0  0  0  0  0
    1.3176   -0.9660   -0.5012 H   0  0  0  0  0  0  0  0  0  0  0  0
    0.5029    1.0096   -0.7073 C   0  0  0  0  0  0  0  0  0  0  0  0
    1.4031    1.8338   -0.5601 O   0  0  0  0  0  0  0  0  0  0  0  0
   -0.5728    1.2301   -1.4737 N   0  0  0  0  0  0  0  0  0  0  0  0
   -1.2596    0.4947   -1.5338 H   0  0  0  0  0  0  0  0  0  0  0  0
   -0.8262    2.4578   -2.2305 C   0  0  0  0  0  0  0  0  0  0  0  0
   -0.0149    3.1752   -2.0854 H   0  0  0  0  0  0  0  0  0  0  0  0
   -0.9018    2.2289   -3.2943 H   0  0  0  0  0  0  0  0  0  0  0  0
   -1.7583    2.9146   -1.8952 H   0  0  0  0  0  0  0  0  0  0  0  0
  5  6  2  0  0  0  0
  5  7  1  0  0  0  0
  2  3  1  0  0  0  0
  2  4  1  0  0  0  0
  2  5  1  0  0  0  0
  1  2  1  0  0  0  0
 12 13  2  0  0  0  0
 12 14  1  0  0  0  0
  9 10  1  0  0  0  0
  9 11  1  0  0  0  0
  9 12  1  0  0  0  0
  7  8  1  0  0  0  0
  7  9  1  0  0  0  0
 16 17  1  0  0  0  0
 16 18  1  0  0  0  0
 16 19  1  0  0  0  0
 14 15  1  0  0  0  0
 14 16  1  0  0  0  0
M  END
$$$$
default_name
  -OEChem-01062215323D

 19 18  0     0  0  0  0  0  0999 V2000
   -2.2056   -4.0049    0.0000 H   0  0  0  0  0  0  0  0  0  0  0  0
   -2.2496   -2.9169    0.0000 C   0  0  0  0  0  0  0  0  0  0  0  0
   -2.7696   -2.5709    0.8910 H   0  0  0  0  0  0  0  0  0  0  0  0
   -2.7696   -2.5709   -0.8910 H   0  0  0  0  0  0  0  0  0  0  0  0
   -0.8406   -2.3699    0.0000 C   0  0  0  0  0  0  0  0  0  0  0  0
    0.1164   -3.1329    0.0000 O   0  0  0  0  0  0  0  0  0  0  0  0
   -0.7136   -1.0459    0.0000 N   0  0  0  0  0  0  0  0  0  0  0  0
   -1.5436   -0.4719    0.0000 H   0  0  0  0  0  0  0  0  0  0  0  0
    0.5724   -0.3469    0.0000 C   0  0  0  0  0  0  0  0  0  0  0  0
    0.8955   -0.1893    1.0299 H   0  0  0  0  0  0  0  0  0  0  0  0
    1.3176   -0.9660   -0.5012 H   0  0  0  0  0  0  0  0  0  0  0  0
    0.5029    1.0096   -0.7073 C   0  0  0  0  0  0  0  0  0  0  0  0
    1.5038    1.7186   -0.7909 O   0  0  0  0  0  0  0  0  0  0  0  0
   -0.6864    1.3602   -1.2130 N   0  0  0  0  0  0  0  0  0  0  0  0
   -1.4506    0.7134   -1.0956 H   0  0  0  0  0  0  0  0  0  0  0  0
   -0.9602    2.6112   -1.9231 C   0  0  0  0  0  0  0  0  0  0  0  0
   -0.0583    3.2249   -1.9857 H   0  0  0  0  0  0  0  0  0  0  0  0
   -1.3050    2.3955   -2.9352 H   0  0  0  0  0  0  0  0  0  0  0  0
   -1.7295    3.1766   -1.3955 H   0  0  0  0  0  0  0  0  0  0  0  0
  5  6  2  0  0  0  0
  5  7  1  0  0  0  0
  2  3  1  0  0  0  0
  2  4  1  0  0  0  0
  2  5  1  0  0  0  0
  1  2  1  0  0  0  0
 12 13  2  0  0  0  0
 12 14  1  0  0  0  0
  9 10  1  0  0  0  0
  9 11  1  0  0  0  0
  9 12  1  0  0  0  0
  7  8  1  0  0  0  0
  7  9  1  0  0  0  0
 16 17  1  0  0  0  0
 16 18  1  0  0  0  0
 16 19  1  0  0  0  0
 14 15  1  0  0  0  0
 14 16  1  0  0  0  0
M  END
$$$$
default_name
  -OEChem-01062215323D

 19 18  0     0  0  0  0  0  0999 V2000
   -2.2056   -4.0049    0.0000 H   0  0  0  0  0  0  0  0  0  0  0  0
   -2.2496   -2.9169    0.0000 C   0  0  0  0  0  0  0  0  0  0  0  0
   -2.7696   -2.5709    0.8910 H   0  0  0  0  0  0  0  0  0  0  0  0
   -2.7696   -2.5709   -0.8910 H   0  0  0  0  0  0  0  0  0  0  0  0
   -0.8406   -2.3699    0.0000 C   0  0  0  0  0  0  0  0  0  0  0  0
    0.1164   -3.1329    0.0000 O   0  0  0  0  0  0  0  0  0  0  0  0
   -0.7136   -1.0459    0.0000 N   0  0  0  0  0  0  0  0  0  0  0  0
   -1.5436   -0.4719    0.0000 H   0  0  0  0  0  0  0  0  0  0  0  0
    0.5724   -0.3469    0.0000 C   0  0  0  0  0  0  0  0  0  0  0  0
    0.8955   -0.1893    1.0299 H   0  0  0  0  0  0  0  0  0  0  0  0
    1.3176   -0.9660   -0.5012 H   0  0  0  0  0  0  0  0  0  0  0  0
    0.5029    1.0096   -0.7073 C   0  0  0  0  0  0  0  0  0  0  0  0
    1.5343    1.5926   -1.0357 O   0  0  0  0  0  0  0  0  0  0  0  0
   -0.7208    1.5025   -0.9366 N   0  0  0  0  0  0  0  0  0  0  0  0
   -1.5085    0.9526   -0.6311 H   0  0  0  0  0  0  0  0  0  0  0  0
   -1.0008    2.7790   -1.5972 C   0  0  0  0  0  0  0  0  0  0  0  0
   -0.0715    3.2793   -1.8801 H   0  0  0  0  0  0  0  0  0  0  0  0
   -1.5921    2.6088   -2.4979 H   0  0  0  0  0  0  0  0  0  0  0  0
   -1.5558    3.4321   -0.9225 H   0  0  0  0  0  0  0  0  0  0  0  0
  5  6  2  0  0  0  0
  5  7  1  0  0  0  0
  2  3  1  0  0  0  0
  2  4  1  0  0  0  0
  2  5  1  0  0  0  0
  1  2  1  0  0  0  0
 12 13  2  0  0  0  0
 12 14  1  0  0  0  0
  9 10  1  0  0  0  0
  9 11  1  0  0  0  0
  9 12  1  0  0  0  0
  7  8  1  0  0  0  0
  7  9  1  0  0  0  0
 16 17  1  0  0  0  0
 16 18  1  0  0  0  0
 16 19  1  0  0  0  0
 14 15  1  0  0  0  0
 14 16  1  0  0  0  0
M  END
$$$$
default_name
  -OEChem-01062215323D

 19 18  0     0  0  0  0  0  0999 V2000
   -2.2056   -4.0049    0.0000 H   0  0  0  0  0  0  0  0  0  0  0  0
   -2.2496   -2.9169    0.0000 C   0  0  0  0  0  0  0  0  0  0  0  0
   -2.7696   -2.5709    0.8910 H   0  0  0  0  0  0  0  0  0  0  0  0
   -2.7696   -2.5709   -0.8910 H   0  0  0  0  0  0  0  0  0  0  0  0
   -0.8406   -2.3699    0.0000 C   0  0  0  0  0  0  0  0  0  0  0  0
    0.1164   -3.1329    0.0000 O   0  0  0  0  0  0  0  0  0  0  0  0
   -0.7136   -1.0459    0.0000 N   0  0  0  0  0  0  0  0  0  0  0  0
   -1.5436   -0.4719    0.0000 H   0  0  0  0  0  0  0  0  0  0  0  0
    0.5724   -0.3469    0.0000 C   0  0  0  0  0  0  0  0  0  0  0  0
    0.8955   -0.1893    1.0299 H   0  0  0  0  0  0  0  0  0  0  0  0
    1.3176   -0.9660   -0.5012 H   0  0  0  0  0  0  0  0  0  0  0  0
    0.5029    1.0096   -0.7073 C   0  0  0  0  0  0  0  0  0  0  0  0
    1.4926    1.4643   -1.2775 O   0  0  0  0  0  0  0  0  0  0  0  0
   -0.6737    1.6474   -0.6635 N   0  0  0  0  0  0  0  0  0  0  0  0
   -1.4293    1.1960   -0.1720 H   0  0  0  0  0  0  0  0  0  0  0  0
   -0.9453    2.9498   -1.2752 C   0  0  0  0  0  0  0  0  0  0  0  0
   -0.0535    3.3347   -1.7757 H   0  0  0  0  0  0  0  0  0  0  0  0
   -1.7437    2.8543   -2.0122 H   0  0  0  0  0  0  0  0  0  0  0  0
   -1.2490    3.6637   -0.5084 H   0  0  0  0  0  0  0  0  0  0  0  0
  5  6  2  0  0  0  0
  5  7  1  0  0  0  0
  2  3  1  0  0  0  0
  2  4  1  0  0  0  0
  2  5  1  0  0  0  0
  1  2  1  0  0  0  0
 12 13  2  0  0  0  0
 12 14  1  0  0  0  0
  9 10  1  0  0  0  0
  9 11  1  0  0  0  0
  9 12  1  0  0  0  0
  7  8  1  0  0  0  0
  7  9  1  0  0  0  0
 16 17  1  0  0  0  0
 16 18  1  0  0  0  0
 16 19  1  0  0  0  0
 14 15  1  0  0  0  0
 14 16  1  0  0  0  0
M  END
$$$$
default_name
  -OEChem-01062215323D

 19 18  0     0  0  0  0  0  0999 V2000
   -2.2056   -4.0049    0.0000 H   0  0  0  0  0  0  0  0  0  0  0  0
   -2.2496   -2.9169    0.0000 C   0  0  0  0  0  0  0  0  0  0  0  0
   -2.7696   -2.5709    0.8910 H   0  0  0  0  0  0  0  0  0  0  0  0
   -2.7696   -2.5709   -0.8910 H   0  0  0  0  0  0  0  0  0  0  0  0
   -0.8406   -2.3699    0.0000 C   0  0  0  0  0  0  0  0  0  0  0  0
    0.1164   -3.1329    0.0000 O   0  0  0  0  0  0  0  0  0  0  0  0
   -0.7136   -1.0459    0.0000 N   0  0  0  0  0  0  0  0  0  0  0  0
   -1.5436   -0.4719    0.0000 H   0  0  0  0  0  0  0  0  0  0  0  0
    0.5724   -0.3469    0.0000 C   0  0  0  0  0  0  0  0  0  0  0  0
    0.8955   -0.1893    1.0299 H   0  0  0  0  0  0  0  0  0  0  0  0
    1.3176   -0.9660   -0.5012 H   0  0  0  0  0  0  0  0  0  0  0  0
    0.5029    1.0096   -0.7073 C   0  0  0  0  0  0  0  0  0  0  0  0
    1.3815    1.3426   -1.5001 O   0  0  0  0  0  0  0  0  0  0  0  0
   -0.5483    1.7848   -0.4121 N   0  0  0  0  0  0  0  0  0  0  0  0
   -1.2185    1.4271    0.2504 H   0  0  0  0  0  0  0  0  0  0  0  0
   -0.7974    3.1119   -0.9788 C   0  0  0  0  0  0  0  0  0  0  0  0
   -0.0055    3.3872   -1.6796 H   0  0  0  0  0  0  0  0  0  0  0  0
   -1.7495    3.1152   -1.5112 H   0  0  0  0  0  0  0  0  0  0  0  0
   -0.8301    3.8556   -0.1815 H   0  0  0  0  0  0  0  0  0  0  0  0
  5  6  2  0  0  0  0
  5  7  1  0  0  0  0
  2  3  1  0  0  0  0
  2  4  1  0  0  0  0
  2  5  1  0  0  0  0
  1  2  1  0  0  0  0
 12 13  2  0  0  0  0
 12 14  1  0  0  0  0
  9 10  1  0  0  0  0
  9 11  1  0  0  0  0
  9 12  1  0  0  0  0
  7  8  1  0  0  0  0
  7  9  1  0  0  0  0
 16 17  1  0  0  0  0
 16 18  1  0  0  0  0
 16 19  1  0  0  0  0
 14 15  1  0  0  0  0
 14 16  1  0  0  0  0
M  END
$$$$
default_name
  -OEChem-01062215323D

 19 18  0     0  0  0  0  0  0999 V2000
   -2.2056   -4.0049    0.0000 H   0  0  0  0  0  0  0  0  0  0  0  0
   -2.2496   -2.9169    0.0000 C   0  0  0  0  0  0  0  0  0  0  0  0
   -2.7696   -2.5709    0.8910 H   0  0  0  0  0  0  0  0  0  0  0  0
   -2.7696   -2.5709   -0.8910 H   0  0  0  0  0  0  0  0  0  0  0  0
   -0.8406   -2.3699    0.0000 C   0  0  0  0  0  0  0  0  0  0  0  0
    0.1164   -3.1329    0.0000 O   0  0  0  0  0  0  0  0  0  0  0  0
   -0.7136   -1.0459    0.0000 N   0  0  0  0  0  0  0  0  0  0  0  0
   -1.5436   -0.4719    0.0000 H   0  0  0  0  0  0  0  0  0  0  0  0
    0.5724   -0.3469    0.0000 C   0  0  0  0  0  0  0  0  0  0  0  0
    0.8955   -0.1893    1.0299 H   0  0  0  0  0  0  0  0  0  0  0  0
    1.3176   -0.9660   -0.5012 H   0  0  0  0  0  0  0  0  0  0  0  0
    0.5029    1.0096   -0.7073 C   0  0  0  0  0  0  0  0  0  0  0  0
    1.2086    1.2356   -1.6882 O   0  0  0  0  0  0  0  0  0  0  0  0
   -0.3531    1.9056   -0.1997 N   0  0  0  0  0  0  0  0  0  0  0  0
   -0.8904    1.6301    0.6075 H   0  0  0  0  0  0  0  0  0  0  0  0
   -0.5672    3.2542   -0.7284 C   0  0  0  0  0  0  0  0  0  0  0  0
    0.0691    3.4334   -1.5985 H   0  0  0  0  0  0  0  0  0  0  0  0
   -1.6089    3.3738   -1.0289 H   0  0  0  0  0  0  0  0  0  0  0  0
   -0.3276    3.9947    0.0359 H   0  0  0  0  0  0  0  0  0  0  0  0
  5  6  2  0  0  0  0
  5  7  1  0  0  0  0
  2  3  1  0  0  0  0
  2  4  1  0  0  0  0
  2  5  1  0  0  0  0
  1  2  1  0  0  0  0
 12 13  2  0  0  0  0
 12 14  1  0  0  0  0
  9 10  1  0  0  0  0
  9 11  1  0  0  0  0
  9 12  1  0  0  0  0
  7  8  1  0  0  0  0
  7  9  1  0  0  0  0
 16 17  1  0  0  0  0
 16 18  1  0  0  0  0
 16 19  1  0  0  0  0
 14 15  1  0  0  0  0
 14 16  1  0  0  0  0
M  END
$$$$
default_name
  -OEChem-01062215323D

 19 18  0     0  0  0  0  0  0999 V2000
   -2.2056   -4.0049    0.0000 H   0  0  0  0  0  0  0  0  0  0  0  0
   -2.2496   -2.9169    0.0000 C   0  0  0  0  0  0  0  0  0  0  0  0
   -2.7696   -2.5709    0.8910 H   0  0  0  0  0  0  0  0  0  0  0  0
   -2.7696   -2.5709   -0.8910 H   0  0  0  0  0  0  0  0  0  0  0  0
   -0.8406   -2.3699    0.0000 C   0  0  0  0  0  0  0  0  0  0  0  0
    0.1164   -3.1329    0.0000 O   0  0  0  0  0  0  0  0  0  0  0  0
   -0.7136   -1.0459    0.0000 N   0  0  0  0  0  0  0  0  0  0  0  0
   -1.5436   -0.4719    0.0000 H   0  0  0  0  0  0  0  0  0  0  0  0
    0.5724   -0.3469    0.0000 C   0  0  0  0  0  0  0  0  0  0  0  0
    0.8955   -0.1893    1.0299 H   0  0  0  0  0  0  0  0  0  0  0  0
    1.3176   -0.9660   -0.5012 H   0  0  0  0  0  0  0  0  0  0  0  0
    0.5029    1.0096   -0.7073 C   0  0  0  0  0  0  0  0  0  0  0  0
    0.9857    1.1508   -1.8290 O   0  0  0  0  0  0  0  0  0  0  0  0
   -0.1014    2.0014   -0.0407 N   0  0  0  0  0  0  0  0  0  0  0  0
   -0.4673    1.7911    0.8747 H   0  0  0  0  0  0  0  0  0  0  0  0
   -0.2704    3.3672   -0.5409 C   0  0  0  0  0  0  0  0  0  0  0  0
    0.1653    3.4700   -1.5377 H   0  0  0  0  0  0  0  0  0  0  0  0
   -1.3317    3.6125   -0.5984 H   0  0  0  0  0  0  0  0  0  0  0  0
    0.2243    4.0716    0.1292 H   0  0  0  0  0  0  0  0  0  0  0  0
  5  6  2  0  0  0  0
  5  7  1  0  0  0  0
  2  3  1  0  0  0  0
  2  4  1  0  0  0  0
  2  5  1  0  0  0  0
  1  2  1  0  0  0  0
 12 13  2  0  0  0  0
 12 14  1  0  0  0  0
  9 10  1  0  0  0  0
  9 11  1  0  0  0  0
  9 12  1  0  0  0  0
  7  8  1  0  0  0  0
  7  9  1  0  0  0  0
 16 17  1  0  0  0  0
 16 18  1  0  0  0  0
 16 19  1  0  0  0  0
 14 15  1  0  0  0  0
 14 16  1  0  0  0  0
M  END
$$$$
default_name
  -OEChem-01062215323D

 19 18  0     0  0  0  0  0  0999 V2000
   -2.2056   -4.0049    0.0000 H   0  0  0  0  0  0  0  0  0  0  0  0
   -2.2496   -2.9169    0.0000 C   0  0  0  0  0  0  0  0  0  0  0  0
   -2.7696   -2.5709    0.8910 H   0  0  0  0  0  0  0  0  0  0  0  0
   -2.7696   -2.5709   -0.8910 H   0  0  0  0  0  0  0  0  0  0  0  0
   -0.8406   -2.3699    0.0000 C   0  0  0  0  0  0  0  0  0  0  0  0
    0.1164   -3.1329    0.0000 O   0  0  0  0  0  0  0  0  0  0  0  0
   -0.7136   -1.0459    0.0000 N   0  0  0  0  0  0  0  0  0  0  0  0
   -1.5436   -0.4719    0.0000 H   0  0  0  0  0  0  0  0  0  0  0  0
    0.5724   -0.3469    0.0000 C   0  0  0  0  0  0  0  0  0  0  0  0
    0.8955   -0.1893    1.0299 H   0  0  0  0  0  0  0  0  0  0  0  0
    1.3176   -0.9660   -0.5012 H   0  0  0  0  0  0  0  0  0  0  0  0
    0.5029    1.0096   -0.7073 C   0  0  0  0  0  0  0  0  0  0  0  0
    0.7280    1.0938   -1.9129 O   0  0  0  0  0  0  0  0  0  0  0  0
    0.1897    2.0657    0.0541 N   0  0  0  0  0  0  0  0  0  0  0  0
    0.0218    1.8992    1.0340 H   0  0  0  0  0  0  0  0  0  0  0  0
    0.0727    3.4430   -0.4292 C   0  0  0  0  0  0  0  0  0  0  0  0
    0.2765    3.4946   -1.5015 H   0  0  0  0  0  0  0  0  0  0  0  0
   -0.9367    3.8150   -0.2489 H   0  0  0  0  0  0  0  0  0  0  0  0
    0.7879    4.0810    0.0918 H   0  0  0  0  0  0  0  0  0  0  0  0
  5  6  2  0  0  0  0
  5  7  1  0  0  0  0
  2  3  1  0  0  0  0
  2  4  1  0  0  0  0
  2  5  1  0  0  0  0
  1  2  1  0  0  0  0
 12 13  2  0  0  0  0
 12 14  1  0  0  0  0
  9 10  1  0  0  0  0
  9 11  1  0  0  0  0
  9 12  1  0  0  0  0
  7  8  1  0  0  0  0
  7  9  1  0  0  0  0
 16 17  1  0  0  0  0
 16 18  1  0  0  0  0
 16 19  1  0  0  0  0
 14 15  1  0  0  0  0
 14 16  1  0  0  0  0
M  END
$$$$
default_name
  -OEChem-01062215323D

 19 18  0     0  0  0  0  0  0999 V2000
   -2.2056   -4.0049    0.0000 H   0  0  0  0  0  0  0  0  0  0  0  0
   -2.2496   -2.9169    0.0000 C   0  0  0  0  0  0  0  0  0  0  0  0
   -2.7696   -2.5709    0.8910 H   0  0  0  0  0  0  0  0  0  0  0  0
   -2.7696   -2.5709   -0.8910 H   0  0  0  0  0  0  0  0  0  0  0  0
   -0.8406   -2.3699    0.0000 C   0  0  0  0  0  0  0  0  0  0  0  0
    0.1164   -3.1329    0.0000 O   0  0  0  0  0  0  0  0  0  0  0  0
   -0.7136   -1.0459    0.0000 N   0  0  0  0  0  0  0  0  0  0  0  0
   -1.5436   -0.4719    0.0000 H   0  0  0  0  0  0  0  0  0  0  0  0
    0.5724   -0.3469    0.0000 C   0  0  0  0  0  0  0  0  0  0  0  0
    0.8955   -0.1893    1.0299 H   0  0  0  0  0  0  0  0  0  0  0  0
    1.3176   -0.9660   -0.5012 H   0  0  0  0  0  0  0  0  0  0  0  0
    0.5029    1.0096   -0.7073 C   0  0  0  0  0  0  0  0  0  0  0  0
    0.4530    1.0687   -1.9342 O   0  0  0  0  0  0  0  0  0  0  0  0
    0.5002    2.0942    0.0781 N   0  0  0  0  0  0  0  0  0  0  0  0
    0.5437    1.9470    1.0744 H   0  0  0  0  0  0  0  0  0  0  0  0
    0.4388    3.4766   -0.4008 C   0  0  0  0  0  0  0  0  0  0  0  0
    0.3952    3.5055   -1.4923 H   0  0  0  0  0  0  0  0  0  0  0  0
   -0.4509    3.9675   -0.0042 H   0  0  0  0  0  0  0  0  0  0  0  0
    1.3249    4.0222   -0.0737 H   0  0  0  0  0  0  0  0  0  0  0  0
  5  6  2  0  0  0  0
  5  7  1  0  0  0  0
  2  3  1  0  0  0  0
  2  4  1  0  0  0  0
  2  5  1  0  0  0  0
  1  2  1  0  0  0  0
 12 13  2  0  0  0  0
 12 14  1  0  0  0  0
  9 10  1  0  0  0  0
  9 11  1  0  0  0  0
  9 12  1  0  0  0  0
  7  8  1  0  0  0  0
  7  9  1  0  0  0  0
 16 17  1  0  0  0  0
 16 18  1  0  0  0  0
 16 19  1  0  0  0  0
 14 15  1  0  0  0  0
 14 16  1  0  0  0  0
M  END
$$$$
default_name
  -OEChem-01062215323D

 19 18  0     0  0  0  0  0  0999 V2000
   -2.2056   -4.0049    0.0000 H   0  0  0  0  0  0  0  0  0  0  0  0
   -2.2496   -2.9169    0.0000 C   0  0  0  0  0  0  0  0  0  0  0  0
   -2.7696   -2.5709    0.8910 H   0  0  0  0  0  0  0  0  0  0  0  0
   -2.7696   -2.5709   -0.8910 H   0  0  0  0  0  0  0  0  0  0  0  0
   -0.8406   -2.3699    0.0000 C   0  0  0  0  0  0  0  0  0  0  0  0
    0.1164   -3.1329    0.0000 O   0  0  0  0  0  0  0  0  0  0  0  0
   -0.7136   -1.0459    0.0000 N   0  0  0  0  0  0  0  0  0  0  0  0
   -1.5436   -0.4719    0.0000 H   0  0  0  0  0  0  0  0  0  0  0  0
    0.5724   -0.3469    0.0000 C   0  0  0  0  0  0  0  0  0  0  0  0
    0.8955   -0.1893    1.0299 H   0  0  0  0  0  0  0  0  0  0  0  0
    1.3176   -0.9660   -0.5012 H   0  0  0  0  0  0  0  0  0  0  0  0
    0.5029    1.0096   -0.7073 C   0  0  0  0  0  0  0  0  0  0  0  0
    0.1795    1.0769   -1.8915 O   0  0  0  0  0  0  0  0  0  0  0  0
    0.8090    2.0848    0.0298 N   0  0  0  0  0  0  0  0  0  0  0  0
    1.0628    1.9313    0.9932 H   0  0  0  0  0  0  0  0  0  0  0  0
    0.8030    3.4655   -0.4577 C   0  0  0  0  0  0  0  0  0  0  0  0
    0.5133    3.5019   -1.5107 H   0  0  0  0  0  0  0  0  0  0  0  0
    0.0928    4.0595    0.1190 H   0  0  0  0  0  0  0  0  0  0  0  0
    1.7986    3.8993   -0.3559 H   0  0  0  0  0  0  0  0  0  0  0  0
  5  6  2  0  0  0  0
  5  7  1  0  0  0  0
  2  3  1  0  0  0  0
  2  4  1  0  0  0  0
  2  5  1  0  0  0  0
  1  2  1  0  0  0  0
 12 13  2  0  0  0  0
 12 14  1  0  0  0  0
  9 10  1  0  0  0  0
  9 11  1  0  0  0  0
  9 12  1  0  0  0  0
  7  8  1  0  0  0  0
  7  9  1  0  0  0  0
 16 17  1  0  0  0  0
 16 18  1  0  0  0  0
 16 19  1  0  0  0  0
 14 15  1  0  0  0  0
 14 16  1  0  0  0  0
M  END
$$$$
default_name
  -OEChem-01062215323D

 19 18  0     0  0  0  0  0  0999 V2000
   -2.2056   -4.0049    0.0000 H   0  0  0  0  0  0  0  0  0  0  0  0
   -2.2496   -2.9169    0.0000 C   0  0  0  0  0  0  0  0  0  0  0  0
   -2.7696   -2.5709    0.8910 H   0  0  0  0  0  0  0  0  0  0  0  0
   -2.7696   -2.5709   -0.8910 H   0  0  0  0  0  0  0  0  0  0  0  0
   -0.8406   -2.3699    0.0000 C   0  0  0  0  0  0  0  0  0  0  0  0
    0.1164   -3.1329    0.0000 O   0  0  0  0  0  0  0  0  0  0  0  0
   -0.7136   -1.0459    0.0000 N   0  0  0  0  0  0  0  0  0  0  0  0
   -1.5436   -0.4719    0.0000 H   0  0  0  0  0  0  0  0  0  0  0  0
    0.5724   -0.3469    0.0000 C   0  0  0  0  0  0  0  0  0  0  0  0
    0.8955   -0.1893    1.0299 H   0  0  0  0  0  0  0  0  0  0  0  0
    1.3176   -0.9660   -0.5012 H   0  0  0  0  0  0  0  0  0  0  0  0
    0.5029    1.0096   -0.7073 C   0  0  0  0  0  0  0  0  0  0  0  0
   -0.0739    1.1181   -1.7876 O   0  0  0  0  0  0  0  0  0  0  0  0
    1.0952    2.0383   -0.0875 N   0  0  0  0  0  0  0  0  0  0  0  0
    1.5438    1.8531    0.7960 H   0  0  0  0  0  0  0  0  0  0  0  0
    1.1404    3.4107   -0.5961 C   0  0  0  0  0  0  0  0  0  0  0  0
    0.6226    3.4841   -1.5556 H   0  0  0  0  0  0  0  0  0  0  0  0
    0.6571    4.0849    0.1122 H   0  0  0  0  0  0  0  0  0  0  0  0
    2.1768    3.7207   -0.7357 H   0  0  0  0  0  0  0  0  0  0  0  0
  5  6  2  0  0  0  0
  5  7  1  0  0  0  0
  2  3  1  0  0  0  0
  2  4  1  0  0  0  0
  2  5  1  0  0  0  0
  1  2  1  0  0  0  0
 12 13  2  0  0  0  0
 12 14  1  0  0  0  0
  9 10  1  0  0  0  0
  9 11  1  0  0  0  0
  9 12  1  0  0  0  0
  7  8  1  0  0  0  0
  7  9  1  0  0  0  0
 16 17  1  0  0  0  0
 16 18  1  0  0  0  0
 16 19  1  0  0  0  0
 14 15  1  0  0  0  0
 14 16  1  0  0  0  0
M  END
$$$$
default_name
  -OEChem-01062215323D

 19 18  0     0  0  0  0  0  0999 V2000
   -2.2056   -4.0049    0.0000 H   0  0  0  0  0  0  0  0  0  0  0  0
   -2.2496   -2.9169    0.0000 C   0  0  0  0  0  0  0  0  0  0  0  0
   -2.7696   -2.5709    0.8910 H   0  0  0  0  0  0  0  0  0  0  0  0
   -2.7696   -2.5709   -0.8910 H   0  0  0  0  0  0  0  0  0  0  0  0
   -0.8406   -2.3699    0.0000 C   0  0  0  0  0  0  0  0  0  0  0  0
    0.1164   -3.1329    0.0000 O   0  0  0  0  0  0  0  0  0  0  0  0
   -0.7136   -1.0459    0.0000 N   0  0  0  0  0  0  0  0  0  0  0  0
   -1.5436   -0.4719    0.0000 H   0  0  0  0  0  0  0  0  0  0  0  0
    0.5724   -0.3469    0.0000 C   0  0  0  0  0  0  0  0  0  0  0  0
    0.8955   -0.1893    1.0299 H   0  0  0  0  0  0  0  0  0  0  0  0
    1.3176   -0.9660   -0.5012 H   0  0  0  0  0  0  0  0  0  0  0  0
    0.5029    1.0096   -0.7073 C   0  0  0  0  0  0  0  0  0  0  0  0
   -0.2899    1.1894   -1.6296 O   0  0  0  0  0  0  0  0  0  0  0  0
    1.3391    1.9577   -0.2660 N   0  0  0  0  0  0  0  0  0  0  0  0
    1.9538    1.7177    0.4961 H   0  0  0  0  0  0  0  0  0  0  0  0
    1.4280    3.3157   -0.8065 C   0  0  0  0  0  0  0  0  0  0  0  0
    0.7158    3.4533   -1.6238 H   0  0  0  0  0  0  0  0  0  0  0  0
    1.2037    4.0419   -0.0240 H   0  0  0  0  0  0  0  0  0  0  0  0
    2.4337    3.4984   -1.1872 H   0  0  0  0  0  0  0  0  0  0  0  0
  5  6  2  0  0  0  0
  5  7  1  0  0  0  0
  2  3  1  0  0  0  0
  2  4  1  0  0  0  0
  2  5  1  0  0  0  0
  1  2  1  0  0  0  0
 12 13  2  0  0  0  0
 12 14  1  0  0  0  0
  9 10  1  0  0  0  0
  9 11  1  0  0  0  0
  9 12  1  0  0  0  0
  7  8  1  0  0  0  0
  7  9  1  0  0  0  0
 16 17  1  0  0  0  0
 16 18  1  0  0  0  0
 16 19  1  0  0  0  0
 14 15  1  0  0  0  0
 14 16  1  0  0  0  0
M  END
$$$$
default_name
  -OEChem-01062215323D

 19 18  0     0  0  0  0  0  0999 V2000
   -2.2056   -4.0049    0.0000 H   0  0  0  0  0  0  0  0  0  0  0  0
   -2.2496   -2.9169    0.0000 C   0  0  0  0  0  0  0  0  0  0  0  0
   -2.7696   -2.5709    0.8910 H   0  0  0  0  0  0  0  0  0  0  0  0
   -2.7696   -2.5709   -0.8910 H   0  0  0  0  0  0  0  0  0  0  0  0
   -0.8406   -2.3699    0.0000 C   0  0  0  0  0  0  0  0  0  0  0  0
    0.1164   -3.1329    0.0000 O   0  0  0  0  0  0  0  0  0  0  0  0
   -0.7136   -1.0459    0.0000 N   0  0  0  0  0  0  0  0  0  0  0  0
   -1.5436   -0.4719    0.0000 H   0  0  0  0  0  0  0  0  0  0  0  0
    0.5724   -0.3469    0.0000 C   0  0  0  0  0  0  0  0  0  0  0  0
    0.8955   -0.1893    1.0299 H   0  0  0  0  0  0  0  0  0  0  0  0
    1.3176   -0.9660   -0.5012 H   0  0  0  0  0  0  0  0  0  0  0  0
    0.5029    1.0096   -0.7073 C   0  0  0  0  0  0  0  0  0  0  0  0
   -0.4538    1.2860   -1.4283 O   0  0  0  0  0  0  0  0  0  0  0  0
    1.5242    1.8487   -0.4933 N   0  0  0  0  0  0  0  0  0  0  0  0
    2.2648    1.5345    0.1141 H   0  0  0  0  0  0  0  0  0  0  0  0
    1.6462    3.1872   -1.0745 C   0  0  0  0  0  0  0  0  0  0  0  0
    0.7866    3.4117   -1.7107 H   0  0  0  0  0  0  0  0  0  0  0  0
    1.6953    3.9334   -0.2804 H   0  0  0  0  0  0  0  0  0  0  0  0
    2.5518    3.2478   -1.6795 H   0  0  0  0  0  0  0  0  0  0  0  0
  5  6  2  0  0  0  0
  5  7  1  0  0  0  0
  2  3  1  0  0  0  0
  2  4  1  0  0  0  0
  2  5  1  0  0  0  0
  1  2  1  0  0  0  0
 12 13  2  0  0  0  0
 12 14  1  0  0  0  0
  9 10  1  0  0  0  0
  9 11  1  0  0  0  0
  9 12  1  0  0  0  0
  7  8  1  0  0  0  0
  7  9  1  0  0  0  0
 16 17  1  0  0  0  0
 16 18  1  0  0  0  0
 16 19  1  0  0  0  0
 14 15  1  0  0  0  0
 14 16  1  0  0  0  0
M  END
$$$$
default_name
  -OEChem-01062215323D

 19 18  0     0  0  0  0  0  0999 V2000
   -2.2056   -4.0049    0.0000 H   0  0  0  0  0  0  0  0  0  0  0  0
   -2.2496   -2.9169    0.0000 C   0  0  0  0  0  0  0  0  0  0  0  0
   -2.7696   -2.5709    0.8910 H   0  0  0  0  0  0  0  0  0  0  0  0
   -2.7696   -2.5709   -0.8910 H   0  0  0  0  0  0  0  0  0  0  0  0
   -0.8406   -2.3699    0.0000 C   0  0  0  0  0  0  0  0  0  0  0  0
    0.1164   -3.1329    0.0000 O   0  0  0  0  0  0  0  0  0  0  0  0
   -0.7136   -1.0459    0.0000 N   0  0  0  0  0  0  0  0  0  0  0  0
   -1.5436   -0.4719    0.0000 H   0  0  0  0  0  0  0  0  0  0  0  0
    0.5724   -0.3469    0.0000 C   0  0  0  0  0  0  0  0  0  0  0  0
    1.0225   -0.4230    0.9907 H   0  0  0  0  0  0  0  0  0  0  0  0
    1.2410   -0.8251   -0.7170 H   0  0  0  0  0  0  0  0  0  0  0  0
    0.4354    1.1338   -0.3661 C   0  0  0  0  0  0  0  0  0  0  0  0
   -0.6687    1.6114   -0.6198 O   0  0  0  0  0  0  0  0  0  0  0  0
    1.5659    1.8510   -0.3903 N   0  0  0  0  0  0  0  0  0  0  0  0
    2.4249    1.3727   -0.1678 H   0  0  0  0  0  0  0  0  0  0  0  0
    1.6483    3.2764   -0.7153 C   0  0  0  0  0  0  0  0  0  0  0  0
    0.6573    3.6797   -0.9371 H   0  0  0  0  0  0  0  0  0  0  0  0
    2.0664    3.8259    0.1292 H   0  0  0  0  0  0  0  0  0  0  0  0
    2.2861    3.4216   -1.5882 H   0  0  0  0  0  0  0  0  0  0  0  0
  5  6  2  0  0  0  0
  5  7  1  0  0  0  0
  2  3  1  0  0  0  0
  2  4  1  0  0  0  0
  2  5  1  0  0  0  0
  1  2  1  0  0  0  0
 12 13  2  0  0  0  0
 12 14  1  0  0  0  0
  9 10  1  0  0  0  0
  9 11  1  0  0  0  0
  9 12  1  0  0  0  0
  7  8  1  0  0  0  0
  7  9  1  0  0  0  0
 16 17  1  0  0  0  0
 16 18  1  0  0  0  0
 16 19  1  0  0  0  0
 14 15  1  0  0  0  0
 14 16  1  0  0  0  0
M  END
$$$$
default_name
  -OEChem-01062215323D

 19 18  0     0  0  0  0  0  0999 V2000
   -2.2056   -4.0049    0.0000 H   0  0  0  0  0  0  0  0  0  0  0  0
   -2.2496   -2.9169    0.0000 C   0  0  0  0  0  0  0  0  0  0  0  0
   -2.7696   -2.5709    0.8910 H   0  0  0  0  0  0  0  0  0  0  0  0
   -2.7696   -2.5709   -0.8910 H   0  0  0  0  0  0  0  0  0  0  0  0
   -0.8406   -2.3699    0.0000 C   0  0  0  0  0  0  0  0  0  0  0  0
    0.1164   -3.1329    0.0000 O   0  0  0  0  0  0  0  0  0  0  0  0
   -0.7136   -1.0459    0.0000 N   0  0  0  0  0  0  0  0  0  0  0  0
   -1.5436   -0.4719    0.0000 H   0  0  0  0  0  0  0  0  0  0  0  0
    0.5724   -0.3469    0.0000 C   0  0  0  0  0  0  0  0  0  0  0  0
    1.0225   -0.4230    0.9907 H   0  0  0  0  0  0  0  0  0  0  0  0
    1.2410   -0.8251   -0.7170 H   0  0  0  0  0  0  0  0  0  0  0  0
    0.4354    1.1338   -0.3661 C   0  0  0  0  0  0  0  0  0  0  0  0
   -0.6669    1.6780   -0.3510 O   0  0  0  0  0  0  0  0  0  0  0  0
    1.5639    1.7757   -0.6938 N   0  0  0  0  0  0  0  0  0  0  0  0
    2.4215    1.2462   -0.6780 H   0  0  0  0  0  0  0  0  0  0  0  0
    1.6460    3.1876   -1.0732 C   0  0  0  0  0  0  0  0  0  0  0  0
    0.6565    3.6510   -1.0531 H   0  0  0  0  0  0  0  0  0  0  0  0
    2.2942    3.7217   -0.3772 H   0  0  0  0  0  0  0  0  0  0  0  0
    2.0516    3.2778   -2.0818 H   0  0  0  0  0  0  0  0  0  0  0  0
  5  6  2  0  0  0  0
  5  7  1  0  0  0  0
  2  3  1  0  0  0  0
  2  4  1  0  0  0  0
  2  5  1  0  0  0  0
  1  2  1  0  0  0  0
 12 13  2  0  0  0  0
 12 14  1  0  0  0  0
  9 10  1  0  0  0  0
  9 11  1  0  0  0  0
  9 12  1  0  0  0  0
  7  8  1  0  0  0  0
  7  9  1  0  0  0  0
 16 17  1  0  0  0  0
 16 18  1  0  0  0  0
 16 19  1  0  0  0  0
 14 15  1  0  0  0  0
 14 16  1  0  0  0  0
M  END
$$$$
default_name
  -OEChem-01062215323D

 19 18  0     0  0  0  0  0  0999 V2000
   -2.2056   -4.0049    0.0000 H   0  0  0  0  0  0  0  0  0  0  0  0
   -2.2496   -2.9169    0.0000 C   0  0  0  0  0  0  0  0  0  0  0  0
   -2.7696   -2.5709    0.8910 H   0  0  0  0  0  0  0  0  0  0  0  0
   -2.7696   -2.5709   -0.8910 H   0  0  0  0  0  0  0  0  0  0  0  0
   -0.8406   -2.3699    0.0000 C   0  0  0  0  0  0  0  0  0  0  0  0
    0.1164   -3.1329    0.0000 O   0  0  0  0  0  0  0  0  0  0  0  0
   -0.7136   -1.0459    0.0000 N   0  0  0  0  0  0  0  0  0  0  0  0
   -1.5436   -0.4719    0.0000 H   0  0  0  0  0  0  0  0  0  0  0  0
    0.5724   -0.3469    0.0000 C   0  0  0  0  0  0  0  0  0  0  0  0
    1.0225   -0.4230    0.9907 H   0  0  0  0  0  0  0  0  0  0  0  0
    1.2410   -0.8251   -0.7170 H   0  0  0  0  0  0  0  0  0  0  0  0
    0.4354    1.1338   -0.3661 C   0  0  0  0  0  0  0  0  0  0  0  0
   -0.5938    1.7485   -0.0934 O   0  0  0  0  0  0  0  0  0  0  0  0
    1.4813    1.6961   -0.9848 N   0  0  0  0  0  0  0  0  0  0  0  0
    2.2827    1.1125   -1.1670 H   0  0  0  0  0  0  0  0  0  0  0  0
    1.5486    3.0938   -1.4163 C   0  0  0  0  0  0  0  0  0  0  0  0
    0.6250    3.6205   -1.1643 H   0  0  0  0  0  0  0  0  0  0  0  0
    2.3811    3.5953   -0.9210 H   0  0  0  0  0  0  0  0  0  0  0  0
    1.6928    3.1421   -2.4964 H   0  0  0  0  0  0  0  0  0  0  0  0
  5  6  2  0  0  0  0
  5  7  1  0  0  0  0
  2  3  1  0  0  0  0
  2  4  1  0  0  0  0
  2  5  1  0  0  0  0
  1  2  1  0  0  0  0
 12 13  2  0  0  0  0
 12 14  1  0  0  0  0
  9 10  1  0  0  0  0
  9 11  1  0  0  0  0
  9 12  1  0  0  0  0
  7  8  1  0  0  0  0
  7  9  1  0  0  0  0
 16 17  1  0  0  0  0
 16 18  1  0  0  0  0
 16 19  1  0  0  0  0
 14 15  1  0  0  0  0
 14 16  1  0  0  0  0
M  END
$$$$
default_name
  -OEChem-01062215323D

 19 18  0     0  0  0  0  0  0999 V2000
   -2.2056   -4.0049    0.0000 H   0  0  0  0  0  0  0  0  0  0  0  0
   -2.2496   -2.9169    0.0000 C   0  0  0  0  0  0  0  0  0  0  0  0
   -2.7696   -2.5709    0.8910 H   0  0  0  0  0  0  0  0  0  0  0  0
   -2.7696   -2.5709   -0.8910 H   0  0  0  0  0  0  0  0  0  0  0  0
   -0.8406   -2.3699    0.0000 C   0  0  0  0  0  0  0  0  0  0  0  0
    0.1164   -3.1329    0.0000 O   0  0  0  0  0  0  0  0  0  0  0  0
   -0.7136   -1.0459    0.0000 N   0  0  0  0  0  0  0  0  0  0  0  0
   -1.5436   -0.4719    0.0000 H   0  0  0  0  0  0  0  0  0  0  0  0
    0.5724   -0.3469    0.0000 C   0  0  0  0  0  0  0  0  0  0  0  0
    1.0225   -0.4230    0.9907 H   0  0  0  0  0  0  0  0  0  0  0  0
    1.2410   -0.8251   -0.7170 H   0  0  0  0  0  0  0  0  0  0  0  0
    0.4354    1.1338   -0.3661 C   0  0  0  0  0  0  0  0  0  0  0  0
   -0.4543    1.8180    0.1356 O   0  0  0  0  0  0  0  0  0  0  0  0
    1.3238    1.6176   -1.2434 N   0  0  0  0  0  0  0  0  0  0  0  0
    2.0180    0.9805   -1.6016 H   0  0  0  0  0  0  0  0  0  0  0  0
    1.3629    3.0013   -1.7211 C   0  0  0  0  0  0  0  0  0  0  0  0
    0.5648    3.5905   -1.2631 H   0  0  0  0  0  0  0  0  0  0  0  0
    2.3211    3.4553   -1.4650 H   0  0  0  0  0  0  0  0  0  0  0  0
    1.2340    3.0236   -2.8041 H   0  0  0  0  0  0  0  0  0  0  0  0
  5  6  2  0  0  0  0
  5  7  1  0  0  0  0
  2  3  1  0  0  0  0
  2  4  1  0  0  0  0
  2  5  1  0  0  0  0
  1  2  1  0  0  0  0
 12 13  2  0  0  0  0
 12 14  1  0  0  0  0
  9 10  1  0  0  0  0
  9 11  1  0  0  0  0
  9 12  1  0  0  0  0
  7  8  1  0  0  0  0
  7  9  1  0  0  0  0
 16 17  1  0  0  0  0
 16 18  1  0  0  0  0
 16 19  1  0  0  0  0
 14 15  1  0  0  0  0
 14 16  1  0  0  0  0
M  END
$$$$
default_name
  -OEChem-01062215323D

 19 18  0     0  0  0  0  0  0999 V2000
   -2.2056   -4.0049    0.0000 H   0  0  0  0  0  0  0  0  0  0  0  0
   -2.2496   -2.9169    0.0000 C   0  0  0  0  0  0  0  0  0  0  0  0
   -2.7696   -2.5709    0.8910 H   0  0  0  0  0  0  0  0  0  0  0  0
   -2.7696   -2.5709   -0.8910 H   0  0  0  0  0  0  0  0  0  0  0  0
   -0.8406   -2.3699    0.0000 C   0  0  0  0  0  0  0  0  0  0  0  0
    0.1164   -3.1329    0.0000 O   0  0  0  0  0  0  0  0  0  0  0  0
   -0.7136   -1.0459    0.0000 N   0  0  0  0  0  0  0  0  0  0  0  0
   -1.5436   -0.4719    0.0000 H   0  0  0  0  0  0  0  0  0  0  0  0
    0.5724   -0.3469    0.0000 C   0  0  0  0  0  0  0  0  0  0  0  0
    1.0225   -0.4230    0.9907 H   0  0  0  0  0  0  0  0  0  0  0  0
    1.2410   -0.8251   -0.7170 H   0  0  0  0  0  0  0  0  0  0  0  0
    0.4354    1.1338   -0.3661 C   0  0  0  0  0  0  0  0  0  0  0  0
   -0.2580    1.8818    0.3202 O   0  0  0  0  0  0  0  0  0  0  0  0
    1.1021    1.5456   -1.4519 N   0  0  0  0  0  0  0  0  0  0  0  0
    1.6454    0.8594   -1.9520 H   0  0  0  0  0  0  0  0  0  0  0  0
    1.1015    2.9163   -1.9670 C   0  0  0  0  0  0  0  0  0  0  0  0
    0.4800    3.5630   -1.3428 H   0  0  0  0  0  0  0  0  0  0  0  0
    2.1184    3.3111   -1.9722 H   0  0  0  0  0  0  0  0  0  0  0  0
    0.7065    2.9304   -2.9836 H   0  0  0  0  0  0  0  0  0  0  0  0
  5  6  2  0  0  0  0
  5  7  1  0  0  0  0
  2  3  1  0  0  0  0
  2  4  1  0  0  0  0
  2  5  1  0  0  0  0
  1  2  1  0  0  0  0
 12 13  2  0  0  0  0
 12 14  1  0  0  0  0
  9 10  1  0  0  0  0
  9 11  1  0  0  0  0
  9 12  1  0  0  0  0
  7  8  1  0  0  0  0
  7  9  1  0  0  0  0
 16 17  1  0  0  0  0
 16 18  1  0  0  0  0
 16 19  1  0  0  0  0
 14 15  1  0  0  0  0
 14 16  1  0  0  0  0
M  END
$$$$
default_name
  -OEChem-01062215323D

 19 18  0     0  0  0  0  0  0999 V2000
   -2.2056   -4.0049    0.0000 H   0  0  0  0  0  0  0  0  0  0  0  0
   -2.2496   -2.9169    0.0000 C   0  0  0  0  0  0  0  0  0  0  0  0
   -2.7696   -2.5709    0.8910 H   0  0  0  0  0  0  0  0  0  0  0  0
   -2.7696   -2.5709   -0.8910 H   0  0  0  0  0  0  0  0  0  0  0  0
   -0.8406   -2.3699    0.0000 C   0  0  0  0  0  0  0  0  0  0  0  0
    0.1164   -3.1329    0.0000 O   0  0  0  0  0  0  0  0  0  0  0  0
   -0.7136   -1.0459    0.0000 N   0  0  0  0  0  0  0  0  0  0  0  0
   -1.5436   -0.4719    0.0000 H   0  0  0  0  0  0  0  0  0  0  0  0
    0.5724   -0.3469    0.0000 C   0  0  0  0  0  0  0  0  0  0  0  0
    1.0225   -0.4230    0.9907 H   0  0  0  0  0  0  0  0  0  0  0  0
    1.2410   -0.8251   -0.7170 H   0  0  0  0  0  0  0  0  0  0  0  0
    0.4354    1.1338   -0.3661 C   0  0  0  0  0  0  0  0  0  0  0  0
   -0.0182    1.9356    0.4480 O   0  0  0  0  0  0  0  0  0  0  0  0
    0.8314    1.4848   -1.5961 N   0  0  0  0  0  0  0  0  0  0  0  0
    1.1903    0.7574   -2.1945 H   0  0  0  0  0  0  0  0  0  0  0  0
    0.7823    2.8447   -2.1371 C   0  0  0  0  0  0  0  0  0  0  0  0
    0.3766    3.5398   -1.3979 H   0  0  0  0  0  0  0  0  0  0  0  0
    1.7867    3.1726   -2.4081 H   0  0  0  0  0  0  0  0  0  0  0  0
    0.1463    2.8689   -3.0229 H   0  0  0  0  0  0  0  0  0  0  0  0
  5  6  2  0  0  0  0
  5  7  1  0  0  0  0
  2  3  1  0  0  0  0
  2  4  1  0  0  0  0
  2  5  1  0  0  0  0
  1  2  1  0  0  0  0
 12 13  2  0  0  0  0
 12 14  1  0  0  0  0
  9 10  1  0  0  0  0
  9 11  1  0  0  0  0
  9 12  1  0  0  0  0
  7  8  1  0  0  0  0
  7  9  1  0  0  0  0
 16 17  1  0  0  0  0
 16 18  1  0  0  0  0
 16 19  1  0  0  0  0
 14 15  1  0  0  0  0
 14 16  1  0  0  0  0
M  END
$$$$
default_name
  -OEChem-01062215323D

 19 18  0     0  0  0  0  0  0999 V2000
   -2.2056   -4.0049    0.0000 H   0  0  0  0  0  0  0  0  0  0  0  0
   -2.2496   -2.9169    0.0000 C   0  0  0  0  0  0  0  0  0  0  0  0
   -2.7696   -2.5709    0.8910 H   0  0  0  0  0  0  0  0  0  0  0  0
   -2.7696   -2.5709   -0.8910 H   0  0  0  0  0  0  0  0  0  0  0  0
   -0.8406   -2.3699    0.0000 C   0  0  0  0  0  0  0  0  0  0  0  0
    0.1164   -3.1329    0.0000 O   0  0  0  0  0  0  0  0  0  0  0  0
   -0.7136   -1.0459    0.0000 N   0  0  0  0  0  0  0  0  0  0  0  0
   -1.5436   -0.4719    0.0000 H   0  0  0  0  0  0  0  0  0  0  0  0
    0.5724   -0.3469    0.0000 C   0  0  0  0  0  0  0  0  0  0  0  0
    1.0225   -0.4230    0.9907 H   0  0  0  0  0  0  0  0  0  0  0  0
    1.2410   -0.8251   -0.7170 H   0  0  0  0  0  0  0  0  0  0  0  0
    0.4354    1.1338   -0.3661 C   0  0  0  0  0  0  0  0  0  0  0  0
    0.2487    1.9757    0.5101 O   0  0  0  0  0  0  0  0  0  0  0  0
    0.5300    1.4396   -1.6663 N   0  0  0  0  0  0  0  0  0  0  0  0
    0.6838    0.6813   -2.3125 H   0  0  0  0  0  0  0  0  0  0  0  0
    0.4269    2.7914   -2.2198 C   0  0  0  0  0  0  0  0  0  0  0  0
    0.2614    3.5225   -1.4248 H   0  0  0  0  0  0  0  0  0  0  0  0
    1.3487    3.0493   -2.7430 H   0  0  0  0  0  0  0  0  0  0  0  0
   -0.4085    2.8432   -2.9193 H   0  0  0  0  0  0  0  0  0  0  0  0
  5  6  2  0  0  0  0
  5  7  1  0  0  0  0
  2  3  1  0  0  0  0
  2  4  1  0  0  0  0
  2  5  1  0  0  0  0
  1  2  1  0  0  0  0
 12 13  2  0  0  0  0
 12 14  1  0  0  0  0
  9 10  1  0  0  0  0
  9 11  1  0  0  0  0
  9 12  1  0  0  0  0
  7  8  1  0  0  0  0
  7  9  1  0  0  0  0
 16 17  1  0  0  0  0
 16 18  1  0  0  0  0
 16 19  1  0  0  0  0
 14 15  1  0  0  0  0
 14 16  1  0  0  0  0
M  END
$$$$
default_name
  -OEChem-01062215323D

 19 18  0     0  0  0  0  0  0999 V2000
   -2.2056   -4.0049    0.0000 H   0  0  0  0  0  0  0  0  0  0  0  0
   -2.2496   -2.9169    0.0000 C   0  0  0  0  0  0  0  0  0  0  0  0
   -2.7696   -2.5709    0.8910 H   0  0  0  0  0  0  0  0  0  0  0  0
   -2.7696   -2.5709   -0.8910 H   0  0  0  0  0  0  0  0  0  0  0  0
   -0.8406   -2.3699    0.0000 C   0  0  0  0  0  0  0  0  0  0  0  0
    0.1164   -3.1329    0.0000 O   0  0  0  0  0  0  0  0  0  0  0  0
   -0.7136   -1.0459    0.0000 N   0  0  0  0  0  0  0  0  0  0  0  0
   -1.5436   -0.4719    0.0000 H   0  0  0  0  0  0  0  0  0  0  0  0
    0.5724   -0.3469    0.0000 C   0  0  0  0  0  0  0  0  0  0  0  0
    1.0225   -0.4230    0.9907 H   0  0  0  0  0  0  0  0  0  0  0  0
    1.2410   -0.8251   -0.7170 H   0  0  0  0  0  0  0  0  0  0  0  0
    0.4354    1.1338   -0.3661 C   0  0  0  0  0  0  0  0  0  0  0  0
    0.5245    1.9993    0.5024 O   0  0  0  0  0  0  0  0  0  0  0  0
    0.2185    1.4129   -1.6576 N   0  0  0  0  0  0  0  0  0  0  0  0
    0.1602    0.6365   -2.2979 H   0  0  0  0  0  0  0  0  0  0  0  0
    0.0596    2.7599   -2.2096 C   0  0  0  0  0  0  0  0  0  0  0  0
    0.1423    3.5123   -1.4215 H   0  0  0  0  0  0  0  0  0  0  0  0
    0.8342    2.9496   -2.9539 H   0  0  0  0  0  0  0  0  0  0  0  0
   -0.9200    2.8551   -2.6797 H   0  0  0  0  0  0  0  0  0  0  0  0
  5  6  2  0  0  0  0
  5  7  1  0  0  0  0
  2  3  1  0  0  0  0
  2  4  1  0  0  0  0
  2  5  1  0  0  0  0
  1  2  1  0  0  0  0
 12 13  2  0  0  0  0
 12 14  1  0  0  0  0
  9 10  1  0  0  0  0
  9 11  1  0  0  0  0
  9 12  1  0  0  0  0
  7  8  1  0  0  0  0
  7  9  1  0  0  0  0
 16 17  1  0  0  0  0
 16 18  1  0  0  0  0
 16 19  1  0  0  0  0
 14 15  1  0  0  0  0
 14 16  1  0  0  0  0
M  END
$$$$
default_name
  -OEChem-01062215323D

 19 18  0     0  0  0  0  0  0999 V2000
   -2.2056   -4.0049    0.0000 H   0  0  0  0  0  0  0  0  0  0  0  0
   -2.2496   -2.9169    0.0000 C   0  0  0  0  0  0  0  0  0  0  0  0
   -2.7696   -2.5709    0.8910 H   0  0  0  0  0  0  0  0  0  0  0  0
   -2.7696   -2.5709   -0.8910 H   0  0  0  0  0  0  0  0  0  0  0  0
   -0.8406   -2.3699    0.0000 C   0  0  0  0  0  0  0  0  0  0  0  0
    0.1164   -3.1329    0.0000 O   0  0  0  0  0  0  0  0  0  0  0  0
   -0.7136   -1.0459    0.0000 N   0  0  0  0  0  0  0  0  0  0  0  0
   -1.5436   -0.4719    0.0000 H   0  0  0  0  0  0  0  0  0  0  0  0
    0.5724   -0.3469    0.0000 C   0  0  0  0  0  0  0  0  0  0  0  0
    1.0225   -0.4230    0.9907 H   0  0  0  0  0  0  0  0  0  0  0  0
    1.2410   -0.8251   -0.7170 H   0  0  0  0  0  0  0  0  0  0  0  0
    0.4354    1.1338   -0.3661 C   0  0  0  0  0  0  0  0  0  0  0  0
    0.7905    2.0049    0.4254 O   0  0  0  0  0  0  0  0  0  0  0  0
   -0.0819    1.4067   -1.5707 N   0  0  0  0  0  0  0  0  0  0  0  0
   -0.3446    0.6259   -2.1517 H   0  0  0  0  0  0  0  0  0  0  0  0
   -0.2945    2.7525   -2.1071 C   0  0  0  0  0  0  0  0  0  0  0  0
    0.0275    3.5099   -1.3882 H   0  0  0  0  0  0  0  0  0  0  0  0
    0.2782    2.8802   -3.0266 H   0  0  0  0  0  0  0  0  0  0  0  0
   -1.3534    2.9038   -2.3206 H   0  0  0  0  0  0  0  0  0  0  0  0
  5  6  2  0  0  0  0
  5  7  1  0  0  0  0
  2  3  1  0  0  0  0
  2  4  1  0  0  0  0
  2  5  1  0  0  0  0
  1  2  1  0  0  0  0
 12 13  2  0  0  0  0
 12 14  1  0  0  0  0
  9 10  1  0  0  0  0
  9 11  1  0  0  0  0
  9 12  1  0  0  0  0
  7  8  1  0  0  0  0
  7  9  1  0  0  0  0
 16 17  1  0  0  0  0
 16 18  1  0  0  0  0
 16 19  1  0  0  0  0
 14 15  1  0  0  0  0
 14 16  1  0  0  0  0
M  END
$$$$
default_name
  -OEChem-01062215323D

 19 18  0     0  0  0  0  0  0999 V2000
   -2.2056   -4.0049    0.0000 H   0  0  0  0  0  0  0  0  0  0  0  0
   -2.2496   -2.9169    0.0000 C   0  0  0  0  0  0  0  0  0  0  0  0
   -2.7696   -2.5709    0.8910 H   0  0  0  0  0  0  0  0  0  0  0  0
   -2.7696   -2.5709   -0.8910 H   0  0  0  0  0  0  0  0  0  0  0  0
   -0.8406   -2.3699    0.0000 C   0  0  0  0  0  0  0  0  0  0  0  0
    0.1164   -3.1329    0.0000 O   0  0  0  0  0  0  0  0  0  0  0  0
   -0.7136   -1.0459    0.0000 N   0  0  0  0  0  0  0  0  0  0  0  0
   -1.5436   -0.4719    0.0000 H   0  0  0  0  0  0  0  0  0  0  0  0
    0.5724   -0.3469    0.0000 C   0  0  0  0  0  0  0  0  0  0  0  0
    1.0225   -0.4230    0.9907 H   0  0  0  0  0  0  0  0  0  0  0  0
    1.2410   -0.8251   -0.7170 H   0  0  0  0  0  0  0  0  0  0  0  0
    0.4354    1.1338   -0.3661 C   0  0  0  0  0  0  0  0  0  0  0  0
    1.0285    1.9920    0.2844 O   0  0  0  0  0  0  0  0  0  0  0  0
   -0.3506    1.4212   -1.4114 N   0  0  0  0  0  0  0  0  0  0  0  0
   -0.7963    0.6503   -1.8840 H   0  0  0  0  0  0  0  0  0  0  0  0
   -0.6114    2.7696   -1.9192 C   0  0  0  0  0  0  0  0  0  0  0  0
   -0.0752    3.5155   -1.3273 H   0  0  0  0  0  0  0  0  0  0  0  0
   -0.2813    2.8458   -2.9561 H   0  0  0  0  0  0  0  0  0  0  0  0
   -1.6792    2.9859   -1.8664 H   0  0  0  0  0  0  0  0  0  0  0  0
  5  6  2  0  0  0  0
  5  7  1  0  0  0  0
  2  3  1  0  0  0  0
  2  4  1  0  0  0  0
  2  5  1  0  0  0  0
  1  2  1  0  0  0  0
 12 13  2  0  0  0  0
 12 14  1  0  0  0  0
  9 10  1  0  0  0  0
  9 11  1  0  0  0  0
  9 12  1  0  0  0  0
  7  8  1  0  0  0  0
  7  9  1  0  0  0  0
 16 17  1  0  0  0  0
 16 18  1  0  0  0  0
 16 19  1  0  0  0  0
 14 15  1  0  0  0  0
 14 16  1  0  0  0  0
M  END
$$$$
default_name
  -OEChem-01062215323D

 19 18  0     0  0  0  0  0  0999 V2000
   -2.2056   -4.0049    0.0000 H   0  0  0  0  0  0  0  0  0  0  0  0
   -2.2496   -2.9169    0.0000 C   0  0  0  0  0  0  0  0  0  0  0  0
   -2.7696   -2.5709    0.8910 H   0  0  0  0  0  0  0  0  0  0  0  0
   -2.7696   -2.5709   -0.8910 H   0  0  0  0  0  0  0  0  0  0  0  0
   -0.8406   -2.3699    0.0000 C   0  0  0  0  0  0  0  0  0  0  0  0
    0.1164   -3.1329    0.0000 O   0  0  0  0  0  0  0  0  0  0  0  0
   -0.7136   -1.0459    0.0000 N   0  0  0  0  0  0  0  0  0  0  0  0
   -1.5436   -0.4719    0.0000 H   0  0  0  0  0  0  0  0  0  0  0  0
    0.5724   -0.3469    0.0000 C   0  0  0  0  0  0  0  0  0  0  0  0
    1.0225   -0.4230    0.9907 H   0  0  0  0  0  0  0  0  0  0  0  0
    1.2410   -0.8251   -0.7170 H   0  0  0  0  0  0  0  0  0  0  0  0
    0.4354    1.1338   -0.3661 C   0  0  0  0  0  0  0  0  0  0  0  0
    1.2223    1.9616    0.0889 O   0  0  0  0  0  0  0  0  0  0  0  0
   -0.5695    1.4555   -1.1906 N   0  0  0  0  0  0  0  0  0  0  0  0
   -1.1641    0.7081   -1.5129 H   0  0  0  0  0  0  0  0  0  0  0  0
   -0.8694    2.8101   -1.6589 C   0  0  0  0  0  0  0  0  0  0  0  0
   -0.1588    3.5286   -1.2430 H   0  0  0  0  0  0  0  0  0  0  0  0
   -0.8062    2.8489   -2.7472 H   0  0  0  0  0  0  0  0  0  0  0  0
   -1.8751    3.0960   -1.3480 H   0  0  0  0  0  0  0  0  0  0  0  0
  5  6  2  0  0  0  0
  5  7  1  0  0  0  0
  2  3  1  0  0  0  0
  2  4  1  0  0  0  0
  2  5  1  0  0  0  0
  1  2  1  0  0  0  0
 12 13  2  0  0  0  0
 12 14  1  0  0  0  0
  9 10  1  0  0  0  0
  9 11  1  0  0  0  0
  9 12  1  0  0  0  0
  7  8  1  0  0  0  0
  7  9  1  0  0  0  0
 16 17  1  0  0  0  0
 16 18  1  0  0  0  0
 16 19  1  0  0  0  0
 14 15  1  0  0  0  0
 14 16  1  0  0  0  0
M  END
$$$$
default_name
  -OEChem-01062215323D

 19 18  0     0  0  0  0  0  0999 V2000
   -2.2056   -4.0049    0.0000 H   0  0  0  0  0  0  0  0  0  0  0  0
   -2.2496   -2.9169    0.0000 C   0  0  0  0  0  0  0  0  0  0  0  0
   -2.7696   -2.5709    0.8910 H   0  0  0  0  0  0  0  0  0  0  0  0
   -2.7696   -2.5709   -0.8910 H   0  0  0  0  0  0  0  0  0  0  0  0
   -0.8406   -2.3699    0.0000 C   0  0  0  0  0  0  0  0  0  0  0  0
    0.1164   -3.1329    0.0000 O   0  0  0  0  0  0  0  0  0  0  0  0
   -0.7136   -1.0459    0.0000 N   0  0  0  0  0  0  0  0  0  0  0  0
   -1.5436   -0.4719    0.0000 H   0  0  0  0  0  0  0  0  0  0  0  0
    0.5724   -0.3469    0.0000 C   0  0  0  0  0  0  0  0  0  0  0  0
    1.0225   -0.4230    0.9907 H   0  0  0  0  0  0  0  0  0  0  0  0
    1.2410   -0.8251   -0.7170 H   0  0  0  0  0  0  0  0  0  0  0  0
    0.4354    1.1338   -0.3661 C   0  0  0  0  0  0  0  0  0  0  0  0
    1.3586    1.9157   -0.1478 O   0  0  0  0  0  0  0  0  0  0  0  0
   -0.7235    1.5074   -0.9234 N   0  0  0  0  0  0  0  0  0  0  0  0
   -1.4229    0.7952   -1.0637 H   0  0  0  0  0  0  0  0  0  0  0  0
   -1.0510    2.8712   -1.3438 C   0  0  0  0  0  0  0  0  0  0  0  0
   -0.2177    3.5484   -1.1408 H   0  0  0  0  0  0  0  0  0  0  0  0
   -1.2607    2.8892   -2.4141 H   0  0  0  0  0  0  0  0  0  0  0  0
   -1.9278    3.2264   -0.8009 H   0  0  0  0  0  0  0  0  0  0  0  0
  5  6  2  0  0  0  0
  5  7  1  0  0  0  0
  2  3  1  0  0  0  0
  2  4  1  0  0  0  0
  2  5  1  0  0  0  0
  1  2  1  0  0  0  0
 12 13  2  0  0  0  0
 12 14  1  0  0  0  0
  9 10  1  0  0  0  0
  9 11  1  0  0  0  0
  9 12  1  0  0  0  0
  7  8  1  0  0  0  0
  7  9  1  0  0  0  0
 16 17  1  0  0  0  0
 16 18  1  0  0  0  0
 16 19  1  0  0  0  0
 14 15  1  0  0  0  0
 14 16  1  0  0  0  0
M  END
$$$$
default_name
  -OEChem-01062215323D

 19 18  0     0  0  0  0  0  0999 V2000
   -2.2056   -4.0049    0.0000 H   0  0  0  0  0  0  0  0  0  0  0  0
   -2.2496   -2.9169    0.0000 C   0  0  0  0  0  0  0  0  0  0  0  0
   -2.7696   -2.5709    0.8910 H   0  0  0  0  0  0  0  0  0  0  0  0
   -2.7696   -2.5709   -0.8910 H   0  0  0  0  0  0  0  0  0  0  0  0
   -0.8406   -2.3699    0.0000 C   0  0  0  0  0  0  0  0  0  0  0  0
    0.1164   -3.1329    0.0000 O   0  0  0  0  0  0  0  0  0  0  0  0
   -0.7136   -1.0459    0.0000 N   0  0  0  0  0  0  0  0  0  0  0  0
   -1.5436   -0.4719    0.0000 H   0  0  0  0  0  0  0  0  0  0  0  0
    0.5724   -0.3469    0.0000 C   0  0  0  0  0  0  0  0  0  0  0  0
    1.0225   -0.4230    0.9907 H   0  0  0  0  0  0  0  0  0  0  0  0
    1.2410   -0.8251   -0.7170 H   0  0  0  0  0  0  0  0  0  0  0  0
    0.4354    1.1338   -0.3661 C   0  0  0  0  0  0  0  0  0  0  0  0
    1.4283    1.8574   -0.4094 O   0  0  0  0  0  0  0  0  0  0  0  0
   -0.8021    1.5731   -0.6279 N   0  0  0  0  0  0  0  0  0  0  0  0
   -1.5552    0.9057   -0.5671 H   0  0  0  0  0  0  0  0  0  0  0  0
   -1.1437    2.9488   -0.9955 C   0  0  0  0  0  0  0  0  0  0  0  0
   -0.2478    3.5735   -1.0279 H   0  0  0  0  0  0  0  0  0  0  0  0
   -1.6140    2.9640   -1.9796 H   0  0  0  0  0  0  0  0  0  0  0  0
   -1.8337    3.3683   -0.2622 H   0  0  0  0  0  0  0  0  0  0  0  0
  5  6  2  0  0  0  0
  5  7  1  0  0  0  0
  2  3  1  0  0  0  0
  2  4  1  0  0  0  0
  2  5  1  0  0  0  0
  1  2  1  0  0  0  0
 12 13  2  0  0  0  0
 12 14  1  0  0  0  0
  9 10  1  0  0  0  0
  9 11  1  0  0  0  0
  9 12  1  0  0  0  0
  7  8  1  0  0  0  0
  7  9  1  0  0  0  0
 16 17  1  0  0  0  0
 16 18  1  0  0  0  0
 16 19  1  0  0  0  0
 14 15  1  0  0  0  0
 14 16  1  0  0  0  0
M  END
$$$$
default_name
  -OEChem-01062215323D

 19 18  0     0  0  0  0  0  0999 V2000
   -2.2056   -4.0049    0.0000 H   0  0  0  0  0  0  0  0  0  0  0  0
   -2.2496   -2.9169    0.0000 C   0  0  0  0  0  0  0  0  0  0  0  0
   -2.7696   -2.5709    0.8910 H   0  0  0  0  0  0  0  0  0  0  0  0
   -2.7696   -2.5709   -0.8910 H   0  0  0  0  0  0  0  0  0  0  0  0
   -0.8406   -2.3699    0.0000 C   0  0  0  0  0  0  0  0  0  0  0  0
    0.1164   -3.1329    0.0000 O   0  0  0  0  0  0  0  0  0  0  0  0
   -0.7136   -1.0459    0.0000 N   0  0  0  0  0  0  0  0  0  0  0  0
   -1.5436   -0.4719    0.0000 H   0  0  0  0  0  0  0  0  0  0  0  0
    0.5724   -0.3469    0.0000 C   0  0  0  0  0  0  0  0  0  0  0  0
    1.0225   -0.4230    0.9907 H   0  0  0  0  0  0  0  0  0  0  0  0
    1.2410   -0.8251   -0.7170 H   0  0  0  0  0  0  0  0  0  0  0  0
    0.4354    1.1338   -0.3661 C   0  0  0  0  0  0  0  0  0  0  0  0
    1.4265    1.7908   -0.6782 O   0  0  0  0  0  0  0  0  0  0  0  0
   -0.8001    1.6484   -0.3243 N   0  0  0  0  0  0  0  0  0  0  0  0
   -1.5518    1.0322   -0.0569 H   0  0  0  0  0  0  0  0  0  0  0  0
   -1.1413    3.0375   -0.6375 C   0  0  0  0  0  0  0  0  0  0  0  0
   -0.2470    3.6023   -0.9119 H   0  0  0  0  0  0  0  0  0  0  0  0
   -1.8418    3.0681   -1.4732 H   0  0  0  0  0  0  0  0  0  0  0  0
   -1.5993    3.5120    0.2314 H   0  0  0  0  0  0  0  0  0  0  0  0
  5  6  2  0  0  0  0
  5  7  1  0  0  0  0
  2  3  1  0  0  0  0
  2  4  1  0  0  0  0
  2  5  1  0  0  0  0
  1  2  1  0  0  0  0
 12 13  2  0  0  0  0
 12 14  1  0  0  0  0
  9 10  1  0  0  0  0
  9 11  1  0  0  0  0
  9 12  1  0  0  0  0
  7  8  1  0  0  0  0
  7  9  1  0  0  0  0
 16 17  1  0  0  0  0
 16 18  1  0  0  0  0
 16 19  1  0  0  0  0
 14 15  1  0  0  0  0
 14 16  1  0  0  0  0
M  END
$$$$
default_name
  -OEChem-01062215323D

 19 18  0     0  0  0  0  0  0999 V2000
   -2.2056   -4.0049    0.0000 H   0  0  0  0  0  0  0  0  0  0  0  0
   -2.2496   -2.9169    0.0000 C   0  0  0  0  0  0  0  0  0  0  0  0
   -2.7696   -2.5709    0.8910 H   0  0  0  0  0  0  0  0  0  0  0  0
   -2.7696   -2.5709   -0.8910 H   0  0  0  0  0  0  0  0  0  0  0  0
   -0.8406   -2.3699    0.0000 C   0  0  0  0  0  0  0  0  0  0  0  0
    0.1164   -3.1329    0.0000 O   0  0  0  0  0  0  0  0  0  0  0  0
   -0.7136   -1.0459    0.0000 N   0  0  0  0  0  0  0  0  0  0  0  0
   -1.5436   -0.4719    0.0000 H   0  0  0  0  0  0  0  0  0  0  0  0
    0.5724   -0.3469    0.0000 C   0  0  0  0  0  0  0  0  0  0  0  0
    1.0225   -0.4230    0.9907 H   0  0  0  0  0  0  0  0  0  0  0  0
    1.2410   -0.8251   -0.7170 H   0  0  0  0  0  0  0  0  0  0  0  0
    0.4354    1.1338   -0.3661 C   0  0  0  0  0  0  0  0  0  0  0  0
    1.3534    1.7203   -0.9359 O   0  0  0  0  0  0  0  0  0  0  0  0
   -0.7175    1.7280   -0.0334 N   0  0  0  0  0  0  0  0  0  0  0  0
   -1.4130    1.1660    0.4321 H   0  0  0  0  0  0  0  0  0  0  0  0
   -1.0440    3.1313   -0.2945 C   0  0  0  0  0  0  0  0  0  0  0  0
   -0.2154    3.6327   -0.8007 H   0  0  0  0  0  0  0  0  0  0  0  0
   -1.9287    3.1945   -0.9294 H   0  0  0  0  0  0  0  0  0  0  0  0
   -1.2404    3.6478    0.6460 H   0  0  0  0  0  0  0  0  0  0  0  0
  5  6  2  0  0  0  0
  5  7  1  0  0  0  0
  2  3  1  0  0  0  0
  2  4  1  0  0  0  0
  2  5  1  0  0  0  0
  1  2  1  0  0  0  0
 12 13  2  0  0  0  0
 12 14  1  0  0  0  0
  9 10  1  0  0  0  0
  9 11  1  0  0  0  0
  9 12  1  0  0  0  0
  7  8  1  0  0  0  0
  7  9  1  0  0  0  0
 16 17  1  0  0  0  0
 16 18  1  0  0  0  0
 16 19  1  0  0  0  0
 14 15  1  0  0  0  0
 14 16  1  0  0  0  0
M  END
$$$$
default_name
  -OEChem-01062215323D

 19 18  0     0  0  0  0  0  0999 V2000
   -2.2056   -4.0049    0.0000 H   0  0  0  0  0  0  0  0  0  0  0  0
   -2.2496   -2.9169    0.0000 C   0  0  0  0  0  0  0  0  0  0  0  0
   -2.7696   -2.5709    0.8910 H   0  0  0  0  0  0  0  0  0  0  0  0
   -2.7696   -2.5709   -0.8910 H   0  0  0  0  0  0  0  0  0  0  0  0
   -0.8406   -2.3699    0.0000 C   0  0  0  0  0  0  0  0  0  0  0  0
    0.1164   -3.1329    0.0000 O   0  0  0  0  0  0  0  0  0  0  0  0
   -0.7136   -1.0459    0.0000 N   0  0  0  0  0  0  0  0  0  0  0  0
   -1.5436   -0.4719    0.0000 H   0  0  0  0  0  0  0  0  0  0  0  0
    0.5724   -0.3469    0.0000 C   0  0  0  0  0  0  0  0  0  0  0  0
    1.0225   -0.4230    0.9907 H   0  0  0  0  0  0  0  0  0  0  0  0
    1.2410   -0.8251   -0.7170 H   0  0  0  0  0  0  0  0  0  0  0  0
    0.4354    1.1338   -0.3661 C   0  0  0  0  0  0  0  0  0  0  0  0
    1.2139    1.6508   -1.1648 O   0  0  0  0  0  0  0  0  0  0  0  0
   -0.5601    1.8065    0.2252 N   0  0  0  0  0  0  0  0  0  0  0  0
   -1.1483    1.2979    0.8667 H   0  0  0  0  0  0  0  0  0  0  0  0
   -0.8583    3.2239    0.0104 C   0  0  0  0  0  0  0  0  0  0  0  0
   -0.1552    3.6627   -0.7019 H   0  0  0  0  0  0  0  0  0  0  0  0
   -1.8687    3.3346   -0.3854 H   0  0  0  0  0  0  0  0  0  0  0  0
   -0.7816    3.7663    0.9537 H   0  0  0  0  0  0  0  0  0  0  0  0
  5  6  2  0  0  0  0
  5  7  1  0  0  0  0
  2  3  1  0  0  0  0
  2  4  1  0  0  0  0
  2  5  1  0  0  0  0
  1  2  1  0  0  0  0
 12 13  2  0  0  0  0
 12 14  1  0  0  0  0
  9 10  1  0  0  0  0
  9 11  1  0  0  0  0
  9 12  1  0  0  0  0
  7  8  1  0  0  0  0
  7  9  1  0  0  0  0
 16 17  1  0  0  0  0
 16 18  1  0  0  0  0
 16 19  1  0  0  0  0
 14 15  1  0  0  0  0
 14 16  1  0  0  0  0
M  END
$$$$
default_name
  -OEChem-01062215323D

 19 18  0     0  0  0  0  0  0999 V2000
   -2.2056   -4.0049    0.0000 H   0  0  0  0  0  0  0  0  0  0  0  0
   -2.2496   -2.9169    0.0000 C   0  0  0  0  0  0  0  0  0  0  0  0
   -2.7696   -2.5709    0.8910 H   0  0  0  0  0  0  0  0  0  0  0  0
   -2.7696   -2.5709   -0.8910 H   0  0  0  0  0  0  0  0  0  0  0  0
   -0.8406   -2.3699    0.0000 C   0  0  0  0  0  0  0  0  0  0  0  0
    0.1164   -3.1329    0.0000 O   0  0  0  0  0  0  0  0  0  0  0  0
   -0.7136   -1.0459    0.0000 N   0  0  0  0  0  0  0  0  0  0  0  0
   -1.5436   -0.4719    0.0000 H   0  0  0  0  0  0  0  0  0  0  0  0
    0.5724   -0.3469    0.0000 C   0  0  0  0  0  0  0  0  0  0  0  0
    1.0225   -0.4230    0.9907 H   0  0  0  0  0  0  0  0  0  0  0  0
    1.2410   -0.8251   -0.7170 H   0  0  0  0  0  0  0  0  0  0  0  0
    0.4354    1.1338   -0.3661 C   0  0  0  0  0  0  0  0  0  0  0  0
    1.0176    1.5870   -1.3495 O   0  0  0  0  0  0  0  0  0  0  0  0
   -0.3384    1.8785    0.4337 N   0  0  0  0  0  0  0  0  0  0  0  0
   -0.7757    1.4190    1.2171 H   0  0  0  0  0  0  0  0  0  0  0  0
   -0.5969    3.3089    0.2562 C   0  0  0  0  0  0  0  0  0  0  0  0
   -0.0705    3.6902   -0.6222 H   0  0  0  0  0  0  0  0  0  0  0  0
   -1.6660    3.4788    0.1218 H   0  0  0  0  0  0  0  0  0  0  0  0
   -0.2541    3.8595    1.1332 H   0  0  0  0  0  0  0  0  0  0  0  0
  5  6  2  0  0  0  0
  5  7  1  0  0  0  0
  2  3  1  0  0  0  0
  2  4  1  0  0  0  0
  2  5  1  0  0  0  0
  1  2  1  0  0  0  0
 12 13  2  0  0  0  0
 12 14  1  0  0  0  0
  9 10  1  0  0  0  0
  9 11  1  0  0  0  0
  9 12  1  0  0  0  0
  7  8  1  0  0  0  0
  7  9  1  0  0  0  0
 16 17  1  0  0  0  0
 16 18  1  0  0  0  0
 16 19  1  0  0  0  0
 14 15  1  0  0  0  0
 14 16  1  0  0  0  0
M  END
$$$$
default_name
  -OEChem-01062215323D

 19 18  0     0  0  0  0  0  0999 V2000
   -2.2056   -4.0049    0.0000 H   0  0  0  0  0  0  0  0  0  0  0  0
   -2.2496   -2.9169    0.0000 C   0  0  0  0  0  0  0  0  0  0  0  0
   -2.7696   -2.5709    0.8910 H   0  0  0  0  0  0  0  0  0  0  0  0
   -2.7696   -2.5709   -0.8910 H   0  0  0  0  0  0  0  0  0  0  0  0
   -0.8406   -2.3699    0.0000 C   0  0  0  0  0  0  0  0  0  0  0  0
    0.1164   -3.1329    0.0000 O   0  0  0  0  0  0  0  0  0  0  0  0
   -0.7136   -1.0459    0.0000 N   0  0  0  0  0  0  0  0  0  0  0  0
   -1.5436   -0.4719    0.0000 H   0  0  0  0  0  0  0  0  0  0  0  0
    0.5724   -0.3469    0.0000 C   0  0  0  0  0  0  0  0  0  0  0  0
    1.0225   -0.4230    0.9907 H   0  0  0  0  0  0  0  0  0  0  0  0
    1.2410   -0.8251   -0.7170 H   0  0  0  0  0  0  0  0  0  0  0  0
    0.4354    1.1338   -0.3661 C   0  0  0  0  0  0  0  0  0  0  0  0
    0.7778    1.5332   -1.4772 O   0  0  0  0  0  0  0  0  0  0  0  0
   -0.0676    1.9392    0.5780 N   0  0  0  0  0  0  0  0  0  0  0  0
   -0.3206    1.5211    1.4596 H   0  0  0  0  0  0  0  0  0  0  0  0
   -0.2776    3.3805    0.4263 C   0  0  0  0  0  0  0  0  0  0  0  0
    0.0330    3.7135   -0.5670 H   0  0  0  0  0  0  0  0  0  0  0  0
   -1.3343    3.6172    0.5577 H   0  0  0  0  0  0  0  0  0  0  0  0
    0.3061    3.9210    1.1725 H   0  0  0  0  0  0  0  0  0  0  0  0
  5  6  2  0  0  0  0
  5  7  1  0  0  0  0
  2  3  1  0  0  0  0
  2  4  1  0  0  0  0
  2  5  1  0  0  0  0
  1  2  1  0  0  0  0
 12 13  2  0  0  0  0
 12 14  1  0  0  0  0
  9 10  1  0  0  0  0
  9 11  1  0  0  0  0
  9 12  1  0  0  0  0
  7  8  1  0  0  0  0
  7  9  1  0  0  0  0
 16 17  1  0  0  0  0
 16 18  1  0  0  0  0
 16 19  1  0  0  0  0
 14 15  1  0  0  0  0
 14 16  1  0  0  0  0
M  END
$$$$
default_name
  -OEChem-01062215323D

 19 18  0     0  0  0  0  0  0999 V2000
   -2.2056   -4.0049    0.0000 H   0  0  0  0  0  0  0  0  0  0  0  0
   -2.2496   -2.9169    0.0000 C   0  0  0  0  0  0  0  0  0  0  0  0
   -2.7696   -2.5709    0.8910 H   0  0  0  0  0  0  0  0  0  0  0  0
   -2.7696   -2.5709   -0.8910 H   0  0  0  0  0  0  0  0  0  0  0  0
   -0.8406   -2.3699    0.0000 C   0  0  0  0  0  0  0  0  0  0  0  0
    0.1164   -3.1329    0.0000 O   0  0  0  0  0  0  0  0  0  0  0  0
   -0.7136   -1.0459    0.0000 N   0  0  0  0  0  0  0  0  0  0  0  0
   -1.5436   -0.4719    0.0000 H   0  0  0  0  0  0  0  0  0  0  0  0
    0.5724   -0.3469    0.0000 C   0  0  0  0  0  0  0  0  0  0  0  0
    1.0225   -0.4230    0.9907 H   0  0  0  0  0  0  0  0  0  0  0  0
    1.2410   -0.8251   -0.7170 H   0  0  0  0  0  0  0  0  0  0  0  0
    0.4354    1.1338   -0.3661 C   0  0  0  0  0  0  0  0  0  0  0  0
    0.5109    1.4932   -1.5394 O   0  0  0  0  0  0  0  0  0  0  0  0
    0.2338    1.9845    0.6481 N   0  0  0  0  0  0  0  0  0  0  0  0
    0.1860    1.5971    1.5775 H   0  0  0  0  0  0  0  0  0  0  0  0
    0.0777    3.4338    0.5090 C   0  0  0  0  0  0  0  0  0  0  0  0
    0.1482    3.7307   -0.5402 H   0  0  0  0  0  0  0  0  0  0  0  0
   -0.8963    3.7405    0.8926 H   0  0  0  0  0  0  0  0  0  0  0  0
    0.8609    3.9467    1.0689 H   0  0  0  0  0  0  0  0  0  0  0  0
  5  6  2  0  0  0  0
  5  7  1  0  0  0  0
  2  3  1  0  0  0  0
  2  4  1  0  0  0  0
  2  5  1  0  0  0  0
  1  2  1  0  0  0  0
 12 13  2  0  0  0  0
 12 14  1  0  0  0  0
  9 10  1  0  0  0  0
  9 11  1  0  0  0  0
  9 12  1  0  0  0  0
  7  8  1  0  0  0  0
  7  9  1  0  0  0  0
 16 17  1  0  0  0  0
 16 18  1  0  0  0  0
 16 19  1  0  0  0  0
 14 15  1  0  0  0  0
 14 16  1  0  0  0  0
M  END
$$$$
default_name
  -OEChem-01062215323D

 19 18  0     0  0  0  0  0  0999 V2000
   -2.2056   -4.0049    0.0000 H   0  0  0  0  0  0  0  0  0  0  0  0
   -2.2496   -2.9169    0.0000 C   0  0  0  0  0  0  0  0  0  0  0  0
   -2.7696   -2.5709    0.8910 H   0  0  0  0  0  0  0  0  0  0  0  0
   -2.7696   -2.5709   -0.8910 H   0  0  0  0  0  0  0  0  0  0  0  0
   -0.8406   -2.3699    0.0000 C   0  0  0  0  0  0  0  0  0  0  0  0
    0.1164   -3.1329    0.0000 O   0  0  0  0  0  0  0  0  0  0  0  0
   -0.7136   -1.0459    0.0000 N   0  0  0  0  0  0  0  0  0  0  0  0
   -1.5436   -0.4719    0.0000 H   0  0  0  0  0  0  0  0  0  0  0  0
    0.5724   -0.3469    0.0000 C   0  0  0  0  0  0  0  0  0  0  0  0
    1.0225   -0.4230    0.9907 H   0  0  0  0  0  0  0  0  0  0  0  0
    1.2410   -0.8251   -0.7170 H   0  0  0  0  0  0  0  0  0  0  0  0
    0.4354    1.1338   -0.3661 C   0  0  0  0  0  0  0  0  0  0  0  0
    0.2351    1.4696   -1.5317 O   0  0  0  0  0  0  0  0  0  0  0  0
    0.5453    2.0112    0.6395 N   0  0  0  0  0  0  0  0  0  0  0  0
    0.7095    1.6419    1.5629 H   0  0  0  0  0  0  0  0  0  0  0  0
    0.4450    3.4652    0.4988 C   0  0  0  0  0  0  0  0  0  0  0  0
    0.2672    3.7409   -0.5435 H   0  0  0  0  0  0  0  0  0  0  0  0
   -0.3818    3.8403    1.1035 H   0  0  0  0  0  0  0  0  0  0  0  0
    1.3724    3.9348    0.8293 H   0  0  0  0  0  0  0  0  0  0  0  0
  5  6  2  0  0  0  0
  5  7  1  0  0  0  0
  2  3  1  0  0  0  0
  2  4  1  0  0  0  0
  2  5  1  0  0  0  0
  1  2  1  0  0  0  0
 12 13  2  0  0  0  0
 12 14  1  0  0  0  0
  9 10  1  0  0  0  0
  9 11  1  0  0  0  0
  9 12  1  0  0  0  0
  7  8  1  0  0  0  0
  7  9  1  0  0  0  0
 16 17  1  0  0  0  0
 16 18  1  0  0  0  0
 16 19  1  0  0  0  0
 14 15  1  0  0  0  0
 14 16  1  0  0  0  0
M  END
$$$$
default_name
  -OEChem-01062215323D

 19 18  0     0  0  0  0  0  0999 V2000
   -2.2056   -4.0049    0.0000 H   0  0  0  0  0  0  0  0  0  0  0  0
   -2.2496   -2.9169    0.0000 C   0  0  0  0  0  0  0  0  0  0  0  0
   -2.7696   -2.5709    0.8910 H   0  0  0  0  0  0  0  0  0  0  0  0
   -2.7696   -2.5709   -0.8910 H   0  0  0  0  0  0  0  0  0  0  0  0
   -0.8406   -2.3699    0.0000 C   0  0  0  0  0  0  0  0  0  0  0  0
    0.1164   -3.1329    0.0000 O   0  0  0  0  0  0  0  0  0  0  0  0
   -0.7136   -1.0459    0.0000 N   0  0  0  0  0  0  0  0  0  0  0  0
   -1.5436   -0.4719    0.0000 H   0  0  0  0  0  0  0  0  0  0  0  0
    0.5724   -0.3469    0.0000 C   0  0  0  0  0  0  0  0  0  0  0  0
    1.0225   -0.4230    0.9907 H   0  0  0  0  0  0  0  0  0  0  0  0
    1.2410   -0.8251   -0.7170 H   0  0  0  0  0  0  0  0  0  0  0  0
    0.4354    1.1338   -0.3661 C   0  0  0  0  0  0  0  0  0  0  0  0
   -0.0309    1.4640   -1.4547 O   0  0  0  0  0  0  0  0  0  0  0  0
    0.8457    2.0174    0.5525 N   0  0  0  0  0  0  0  0  0  0  0  0
    1.2144    1.6525    1.4168 H   0  0  0  0  0  0  0  0  0  0  0  0
    0.7991    3.4727    0.3963 C   0  0  0  0  0  0  0  0  0  0  0  0
    0.3820    3.7433   -0.5768 H   0  0  0  0  0  0  0  0  0  0  0  0
    0.1742    3.9097    1.1762 H   0  0  0  0  0  0  0  0  0  0  0  0
    1.8058    3.8861    0.4702 H   0  0  0  0  0  0  0  0  0  0  0  0
  5  6  2  0  0  0  0
  5  7  1  0  0  0  0
  2  3  1  0  0  0  0
  2  4  1  0  0  0  0
  2  5  1  0  0  0  0
  1  2  1  0  0  0  0
 12 13  2  0  0  0  0
 12 14  1  0  0  0  0
  9 10  1  0  0  0  0
  9 11  1  0  0  0  0
  9 12  1  0  0  0  0
  7  8  1  0  0  0  0
  7  9  1  0  0  0  0
 16 17  1  0  0  0  0
 16 18  1  0  0  0  0
 16 19  1  0  0  0  0
 14 15  1  0  0  0  0
 14 16  1  0  0  0  0
M  END
$$$$
default_name
  -OEChem-01062215323D

 19 18  0     0  0  0  0  0  0999 V2000
   -2.2056   -4.0049    0.0000 H   0  0  0  0  0  0  0  0  0  0  0  0
   -2.2496   -2.9169    0.0000 C   0  0  0  0  0  0  0  0  0  0  0  0
   -2.7696   -2.5709    0.8910 H   0  0  0  0  0  0  0  0  0  0  0  0
   -2.7696   -2.5709   -0.8910 H   0  0  0  0  0  0  0  0  0  0  0  0
   -0.8406   -2.3699    0.0000 C   0  0  0  0  0  0  0  0  0  0  0  0
    0.1164   -3.1329    0.0000 O   0  0  0  0  0  0  0  0  0  0  0  0
   -0.7136   -1.0459    0.0000 N   0  0  0  0  0  0  0  0  0  0  0  0
   -1.5436   -0.4719    0.0000 H   0  0  0  0  0  0  0  0  0  0  0  0
    0.5724   -0.3469    0.0000 C   0  0  0  0  0  0  0  0  0  0  0  0
    1.0225   -0.4230    0.9907 H   0  0  0  0  0  0  0  0  0  0  0  0
    1.2410   -0.8251   -0.7170 H   0  0  0  0  0  0  0  0  0  0  0  0
    0.4354    1.1338   -0.3661 C   0  0  0  0  0  0  0  0  0  0  0  0
   -0.2688    1.4769   -1.3136 O   0  0  0  0  0  0  0  0  0  0  0  0
    1.1144    2.0029    0.3932 N   0  0  0  0  0  0  0  0  0  0  0  0
    1.6661    1.6281    1.1491 H   0  0  0  0  0  0  0  0  0  0  0  0
    1.1160    3.4555    0.2085 C   0  0  0  0  0  0  0  0  0  0  0  0
    0.4847    3.7378   -0.6376 H   0  0  0  0  0  0  0  0  0  0  0  0
    0.7337    3.9440    1.1057 H   0  0  0  0  0  0  0  0  0  0  0  0
    2.1316    3.8039    0.0160 H   0  0  0  0  0  0  0  0  0  0  0  0
  5  6  2  0  0  0  0
  5  7  1  0  0  0  0
  2  3  1  0  0  0  0
  2  4  1  0  0  0  0
  2  5  1  0  0  0  0
  1  2  1  0  0  0  0
 12 13  2  0  0  0  0
 12 14  1  0  0  0  0
  9 10  1  0  0  0  0
  9 11  1  0  0  0  0
  9 12  1  0  0  0  0
  7  8  1  0  0  0  0
  7  9  1  0  0  0  0
 16 17  1  0  0  0  0
 16 18  1  0  0  0  0
 16 19  1  0  0  0  0
 14 15  1  0  0  0  0
 14 16  1  0  0  0  0
M  END
$$$$
default_name
  -OEChem-01062215323D

 19 18  0     0  0  0  0  0  0999 V2000
   -2.2056   -4.0049    0.0000 H   0  0  0  0  0  0  0  0  0  0  0  0
   -2.2496   -2.9169    0.0000 C   0  0  0  0  0  0  0  0  0  0  0  0
   -2.7696   -2.5709    0.8910 H   0  0  0  0  0  0  0  0  0  0  0  0
   -2.7696   -2.5709   -0.8910 H   0  0  0  0  0  0  0  0  0  0  0  0
   -0.8406   -2.3699    0.0000 C   0  0  0  0  0  0  0  0  0  0  0  0
    0.1164   -3.1329    0.0000 O   0  0  0  0  0  0  0  0  0  0  0  0
   -0.7136   -1.0459    0.0000 N   0  0  0  0  0  0  0  0  0  0  0  0
   -1.5436   -0.4719    0.0000 H   0  0  0  0  0  0  0  0  0  0  0  0
    0.5724   -0.3469    0.0000 C   0  0  0  0  0  0  0  0  0  0  0  0
    1.0225   -0.4230    0.9907 H   0  0  0  0  0  0  0  0  0  0  0  0
    1.2410   -0.8251   -0.7170 H   0  0  0  0  0  0  0  0  0  0  0  0
    0.4354    1.1338   -0.3661 C   0  0  0  0  0  0  0  0  0  0  0  0
   -0.4626    1.5073   -1.1181 O   0  0  0  0  0  0  0  0  0  0  0  0
    1.3332    1.9686    0.1724 N   0  0  0  0  0  0  0  0  0  0  0  0
    2.0339    1.5704    0.7780 H   0  0  0  0  0  0  0  0  0  0  0  0
    1.3740    3.4150   -0.0519 C   0  0  0  0  0  0  0  0  0  0  0  0
    0.5684    3.7247   -0.7220 H   0  0  0  0  0  0  0  0  0  0  0  0
    1.2586    3.9410    0.8968 H   0  0  0  0  0  0  0  0  0  0  0  0
    2.3275    3.6939   -0.5024 H   0  0  0  0  0  0  0  0  0  0  0  0
  5  6  2  0  0  0  0
  5  7  1  0  0  0  0
  2  3  1  0  0  0  0
  2  4  1  0  0  0  0
  2  5  1  0  0  0  0
  1  2  1  0  0  0  0
 12 13  2  0  0  0  0
 12 14  1  0  0  0  0
  9 10  1  0  0  0  0
  9 11  1  0  0  0  0
  9 12  1  0  0  0  0
  7  8  1  0  0  0  0
  7  9  1  0  0  0  0
 16 17  1  0  0  0  0
 16 18  1  0  0  0  0
 16 19  1  0  0  0  0
 14 15  1  0  0  0  0
 14 16  1  0  0  0  0
M  END
$$$$
default_name
  -OEChem-01062215323D

 19 18  0     0  0  0  0  0  0999 V2000
   -2.2056   -4.0049    0.0000 H   0  0  0  0  0  0  0  0  0  0  0  0
   -2.2496   -2.9169    0.0000 C   0  0  0  0  0  0  0  0  0  0  0  0
   -2.7696   -2.5709    0.8910 H   0  0  0  0  0  0  0  0  0  0  0  0
   -2.7696   -2.5709   -0.8910 H   0  0  0  0  0  0  0  0  0  0  0  0
   -0.8406   -2.3699    0.0000 C   0  0  0  0  0  0  0  0  0  0  0  0
    0.1164   -3.1329    0.0000 O   0  0  0  0  0  0  0  0  0  0  0  0
   -0.7136   -1.0459    0.0000 N   0  0  0  0  0  0  0  0  0  0  0  0
   -1.5436   -0.4719    0.0000 H   0  0  0  0  0  0  0  0  0  0  0  0
    0.5724   -0.3469    0.0000 C   0  0  0  0  0  0  0  0  0  0  0  0
    1.0225   -0.4230    0.9907 H   0  0  0  0  0  0  0  0  0  0  0  0
    1.2410   -0.8251   -0.7170 H   0  0  0  0  0  0  0  0  0  0  0  0
    0.4354    1.1338   -0.3661 C   0  0  0  0  0  0  0  0  0  0  0  0
   -0.5990    1.5532   -0.8815 O   0  0  0  0  0  0  0  0  0  0  0  0
    1.4872    1.9167   -0.0948 N   0  0  0  0  0  0  0  0  0  0  0  0
    2.2927    1.4833    0.3288 H   0  0  0  0  0  0  0  0  0  0  0  0
    1.5556    3.3539   -0.3669 C   0  0  0  0  0  0  0  0  0  0  0  0
    0.6272    3.7049   -0.8242 H   0  0  0  0  0  0  0  0  0  0  0  0
    1.7131    3.9006    0.5637 H   0  0  0  0  0  0  0  0  0  0  0  0
    2.3802    3.5635   -1.0495 H   0  0  0  0  0  0  0  0  0  0  0  0
  5  6  2  0  0  0  0
  5  7  1  0  0  0  0
  2  3  1  0  0  0  0
  2  4  1  0  0  0  0
  2  5  1  0  0  0  0
  1  2  1  0  0  0  0
 12 13  2  0  0  0  0
 12 14  1  0  0  0  0
  9 10  1  0  0  0  0
  9 11  1  0  0  0  0
  9 12  1  0  0  0  0
  7  8  1  0  0  0  0
  7  9  1  0  0  0  0
 16 17  1  0  0  0  0
 16 18  1  0  0  0  0
 16 19  1  0  0  0  0
 14 15  1  0  0  0  0
 14 16  1  0  0  0  0
M  END
$$$$
