
  -OEChem-01062216083D

 19 18  0     0  0  0  0  0  0999 V2000
   -2.2434   -4.0780    0.0000 H   0  0  0  0  0  0  0  0  0  0  0  0
   -2.2936   -2.9856    0.0000 C   0  0  0  0  0  0  0  0  0  0  0  0
   -2.8360   -2.6575    0.8900 H   0  0  0  0  0  0  0  0  0  0  0  0
   -2.8360   -2.6575   -0.8900 H   0  0  0  0  0  0  0  0  0  0  0  0
   -0.8950   -2.3969   -0.0000 C   0  0  0  0  0  0  0  0  0  0  0  0
    0.0823   -3.1294   -0.0000 O   0  0  0  0  0  0  0  0  0  0  0  0
   -0.7229   -1.0296    0.0000 N   0  0  0  0  0  0  0  0  0  0  0  0
   -1.5517   -0.4345   -0.0000 H   0  0  0  0  0  0  0  0  0  0  0  0
    0.5853   -0.3636    0.0000 C   0  0  0  0  0  0  0  0  0  0  0  0
    1.1506   -0.6685    0.8857 H   0  0  0  0  0  0  0  0  0  0  0  0
    1.1506   -0.6685   -0.8857 H   0  0  0  0  0  0  0  0  0  0  0  0
    0.4646    1.1669    0.0000 C   0  0  0  0  0  0  0  0  0  0  0  0
   -0.6428    1.6915    0.0000 O   0  0  0  0  0  0  0  0  0  0  0  0
    1.6066    1.9482    0.0000 N   0  0  0  0  0  0  0  0  0  0  0  0
    2.4993    1.4629    0.0000 H   0  0  0  0  0  0  0  0  0  0  0  0
    1.6147    3.4097    0.0000 C   0  0  0  0  0  0  0  0  0  0  0  0
    0.6030    3.8281    0.0000 H   0  0  0  0  0  0  0  0  0  0  0  0
    2.1322    3.7812    0.8898 H   0  0  0  0  0  0  0  0  0  0  0  0
    2.1322    3.7812   -0.8898 H   0  0  0  0  0  0  0  0  0  0  0  0
  1  2  1  0  0  0  0
  2  3  1  0  0  0  0
  2  4  1  0  0  0  0
  2  5  1  0  0  0  0
  5  6  2  0  0  0  0
  5  7  1  0  0  0  0
  7  8  1  0  0  0  0
  7  9  1  0  0  0  0
  9 10  1  0  0  0  0
  9 11  1  0  0  0  0
  9 12  1  0  0  0  0
 12 13  2  0  0  0  0
 12 14  1  0  0  0  0
 14 15  1  0  0  0  0
 14 16  1  0  0  0  0
 16 17  1  0  0  0  0
 16 18  1  0  0  0  0
 16 19  1  0  0  0  0
M  END
$$$$

  -OEChem-01062216083D

 19 18  0     0  0  0  0  0  0999 V2000
   -2.2353   -4.0757   -0.0453 H   0  0  0  0  0  0  0  0  0  0  0  0
   -2.2867   -2.9839   -0.0801 C   0  0  0  0  0  0  0  0  0  0  0  0
   -2.8982   -2.6327    0.7546 H   0  0  0  0  0  0  0  0  0  0  0  0
   -2.7574   -2.6833   -1.0192 H   0  0  0  0  0  0  0  0  0  0  0  0
   -0.8930   -2.3908    0.0135 C   0  0  0  0  0  0  0  0  0  0  0  0
    0.0796   -3.1186    0.1411 O   0  0  0  0  0  0  0  0  0  0  0  0
   -0.7197   -1.0249   -0.0488 N   0  0  0  0  0  0  0  0  0  0  0  0
   -1.5483   -0.4326   -0.1084 H   0  0  0  0  0  0  0  0  0  0  0  0
    0.5796   -0.3555    0.0887 C   0  0  0  0  0  0  0  0  0  0  0  0
    1.0198   -0.6000    1.0600 H   0  0  0  0  0  0  0  0  0  0  0  0
    1.2571   -0.7149   -0.6916 H   0  0  0  0  0  0  0  0  0  0  0  0
    0.4662    1.1708   -0.0236 C   0  0  0  0  0  0  0  0  0  0  0  0
   -0.6322    1.7119    0.0276 O   0  0  0  0  0  0  0  0  0  0  0  0
    1.5960    1.9401   -0.2276 N   0  0  0  0  0  0  0  0  0  0  0  0
    2.4912    1.4627   -0.2852 H   0  0  0  0  0  0  0  0  0  0  0  0
    1.5583    3.3901   -0.3753 C   0  0  0  0  0  0  0  0  0  0  0  0
    1.1280    3.8552    0.5180 H   0  0  0  0  0  0  0  0  0  0  0  0
    2.5700    3.7827   -0.5155 H   0  0  0  0  0  0  0  0  0  0  0  0
    0.9547    3.6711   -1.2449 H   0  0  0  0  0  0  0  0  0  0  0  0
  1  2  1  0  0  0  0
  2  3  1  0  0  0  0
  2  4  1  0  0  0  0
  2  5  1  0  0  0  0
  5  6  2  0  0  0  0
  5  7  1  0  0  0  0
  7  8  1  0  0  0  0
  7  9  1  0  0  0  0
  9 10  1  0  0  0  0
  9 11  1  0  0  0  0
  9 12  1  0  0  0  0
 12 13  2  0  0  0  0
 12 14  1  0  0  0  0
 14 15  1  0  0  0  0
 14 16  1  0  0  0  0
 16 17  1  0  0  0  0
 16 18  1  0  0  0  0
 16 19  1  0  0  0  0
M  END
$$$$

  -OEChem-01062216083D

 19 18  0     0  0  0  0  0  0999 V2000
   -2.2221   -4.0800   -0.0313 H   0  0  0  0  0  0  0  0  0  0  0  0
   -2.2801   -2.9884   -0.0645 C   0  0  0  0  0  0  0  0  0  0  0  0
   -2.8657   -2.6400    0.7899 H   0  0  0  0  0  0  0  0  0  0  0  0
   -2.7828   -2.6899   -0.9877 H   0  0  0  0  0  0  0  0  0  0  0  0
   -0.8870   -2.3886   -0.0167 C   0  0  0  0  0  0  0  0  0  0  0  0
    0.0929   -3.1125    0.0696 O   0  0  0  0  0  0  0  0  0  0  0  0
   -0.7229   -1.0212   -0.0721 N   0  0  0  0  0  0  0  0  0  0  0  0
   -1.5584   -0.4363   -0.0569 H   0  0  0  0  0  0  0  0  0  0  0  0
    0.5725   -0.3489    0.0852 C   0  0  0  0  0  0  0  0  0  0  0  0
    1.0038   -0.5942    1.0604 H   0  0  0  0  0  0  0  0  0  0  0  0
    1.2601   -0.7036   -0.6882 H   0  0  0  0  0  0  0  0  0  0  0  0
    0.4490    1.1763   -0.0235 C   0  0  0  0  0  0  0  0  0  0  0  0
   -0.6151    1.7232    0.2400 O   0  0  0  0  0  0  0  0  0  0  0  0
    1.5000    1.9300   -0.5106 N   0  0  0  0  0  0  0  0  0  0  0  0
    2.3569    1.4439   -0.7585 H   0  0  0  0  0  0  0  0  0  0  0  0
    1.4225    3.3716   -0.7141 C   0  0  0  0  0  0  0  0  0  0  0  0
    1.1980    3.8807    0.2291 H   0  0  0  0  0  0  0  0  0  0  0  0
    2.3761    3.7517   -1.0930 H   0  0  0  0  0  0  0  0  0  0  0  0
    0.6403    3.6146   -1.4409 H   0  0  0  0  0  0  0  0  0  0  0  0
  1  2  1  0  0  0  0
  2  3  1  0  0  0  0
  2  4  1  0  0  0  0
  2  5  1  0  0  0  0
  5  6  2  0  0  0  0
  5  7  1  0  0  0  0
  7  8  1  0  0  0  0
  7  9  1  0  0  0  0
  9 10  1  0  0  0  0
  9 11  1  0  0  0  0
  9 12  1  0  0  0  0
 12 13  2  0  0  0  0
 12 14  1  0  0  0  0
 14 15  1  0  0  0  0
 14 16  1  0  0  0  0
 16 17  1  0  0  0  0
 16 18  1  0  0  0  0
 16 19  1  0  0  0  0
M  END
$$$$

  -OEChem-01062216083D

 19 18  0     0  0  0  0  0  0999 V2000
   -2.2098   -4.0844   -0.0202 H   0  0  0  0  0  0  0  0  0  0  0  0
   -2.2748   -2.9931   -0.0518 C   0  0  0  0  0  0  0  0  0  0  0  0
   -2.8423   -2.6486    0.8161 H   0  0  0  0  0  0  0  0  0  0  0  0
   -2.8011   -2.6980   -0.9629 H   0  0  0  0  0  0  0  0  0  0  0  0
   -0.8843   -2.3851   -0.0367 C   0  0  0  0  0  0  0  0  0  0  0  0
    0.1009   -3.1048    0.0166 O   0  0  0  0  0  0  0  0  0  0  0  0
   -0.7289   -1.0163   -0.0891 N   0  0  0  0  0  0  0  0  0  0  0  0
   -1.5671   -0.4407   -0.0136 H   0  0  0  0  0  0  0  0  0  0  0  0
    0.5646   -0.3435    0.0813 C   0  0  0  0  0  0  0  0  0  0  0  0
    0.9863   -0.5865    1.0613 H   0  0  0  0  0  0  0  0  0  0  0  0
    1.2626   -0.6977   -0.6829 H   0  0  0  0  0  0  0  0  0  0  0  0
    0.4339    1.1801   -0.0267 C   0  0  0  0  0  0  0  0  0  0  0  0
   -0.5445    1.7383    0.4532 O   0  0  0  0  0  0  0  0  0  0  0  0
    1.3365    1.9120   -0.7750 N   0  0  0  0  0  0  0  0  0  0  0  0
    2.1039    1.4116   -1.2141 H   0  0  0  0  0  0  0  0  0  0  0  0
    1.2089    3.3466   -1.0018 C   0  0  0  0  0  0  0  0  0  0  0  0
    1.2069    3.8869   -0.0492 H   0  0  0  0  0  0  0  0  0  0  0  0
    2.0481    3.7102   -1.6026 H   0  0  0  0  0  0  0  0  0  0  0  0
    0.2790    3.5691   -1.5356 H   0  0  0  0  0  0  0  0  0  0  0  0
  1  2  1  0  0  0  0
  2  3  1  0  0  0  0
  2  4  1  0  0  0  0
  2  5  1  0  0  0  0
  5  6  2  0  0  0  0
  5  7  1  0  0  0  0
  7  8  1  0  0  0  0
  7  9  1  0  0  0  0
  9 10  1  0  0  0  0
  9 11  1  0  0  0  0
  9 12  1  0  0  0  0
 12 13  2  0  0  0  0
 12 14  1  0  0  0  0
 14 15  1  0  0  0  0
 14 16  1  0  0  0  0
 16 17  1  0  0  0  0
 16 18  1  0  0  0  0
 16 19  1  0  0  0  0
M  END
$$$$

  -OEChem-01062216083D

 19 18  0     0  0  0  0  0  0999 V2000
   -2.1945   -4.0929   -0.0573 H   0  0  0  0  0  0  0  0  0  0  0  0
   -2.2688   -3.0021   -0.0349 C   0  0  0  0  0  0  0  0  0  0  0  0
   -2.8008   -2.7036    0.8716 H   0  0  0  0  0  0  0  0  0  0  0  0
   -2.8357   -2.6701   -0.9080 H   0  0  0  0  0  0  0  0  0  0  0  0
   -0.8832   -2.3833   -0.0500 C   0  0  0  0  0  0  0  0  0  0  0  0
    0.1078   -3.0960   -0.0172 O   0  0  0  0  0  0  0  0  0  0  0  0
   -0.7401   -1.0127   -0.1037 N   0  0  0  0  0  0  0  0  0  0  0  0
   -1.5823   -0.4501    0.0094 H   0  0  0  0  0  0  0  0  0  0  0  0
    0.5503   -0.3361    0.0779 C   0  0  0  0  0  0  0  0  0  0  0  0
    0.9626   -0.5743    1.0630 H   0  0  0  0  0  0  0  0  0  0  0  0
    1.2600   -0.6898   -0.6758 H   0  0  0  0  0  0  0  0  0  0  0  0
    0.4137    1.1854   -0.0330 C   0  0  0  0  0  0  0  0  0  0  0  0
   -0.4254    1.7632    0.6447 O   0  0  0  0  0  0  0  0  0  0  0  0
    1.1089    1.8874   -0.9995 N   0  0  0  0  0  0  0  0  0  0  0  0
    1.7455    1.3672   -1.5967 H   0  0  0  0  0  0  0  0  0  0  0  0
    0.9372    3.3172   -1.2268 C   0  0  0  0  0  0  0  0  0  0  0  0
    1.1552    3.8794   -0.3127 H   0  0  0  0  0  0  0  0  0  0  0  0
    1.6172    3.6600   -2.0125 H   0  0  0  0  0  0  0  0  0  0  0  0
   -0.0897    3.5351   -1.5383 H   0  0  0  0  0  0  0  0  0  0  0  0
  1  2  1  0  0  0  0
  2  3  1  0  0  0  0
  2  4  1  0  0  0  0
  2  5  1  0  0  0  0
  5  6  2  0  0  0  0
  5  7  1  0  0  0  0
  7  8  1  0  0  0  0
  7  9  1  0  0  0  0
  9 10  1  0  0  0  0
  9 11  1  0  0  0  0
  9 12  1  0  0  0  0
 12 13  2  0  0  0  0
 12 14  1  0  0  0  0
 14 15  1  0  0  0  0
 14 16  1  0  0  0  0
 16 17  1  0  0  0  0
 16 18  1  0  0  0  0
 16 19  1  0  0  0  0
M  END
$$$$

  -OEChem-01062216083D

 19 18  0     0  0  0  0  0  0999 V2000
   -2.1767   -4.1062   -0.0781 H   0  0  0  0  0  0  0  0  0  0  0  0
   -2.2608   -3.0171   -0.0242 C   0  0  0  0  0  0  0  0  0  0  0  0
   -2.7680   -2.7484    0.9057 H   0  0  0  0  0  0  0  0  0  0  0  0
   -2.8573   -2.6685   -0.8708 H   0  0  0  0  0  0  0  0  0  0  0  0
   -0.8823   -2.3835   -0.0639 C   0  0  0  0  0  0  0  0  0  0  0  0
    0.1160   -3.0865   -0.0554 O   0  0  0  0  0  0  0  0  0  0  0  0
   -0.7548   -1.0107   -0.1146 N   0  0  0  0  0  0  0  0  0  0  0  0
   -1.6023   -0.4643    0.0293 H   0  0  0  0  0  0  0  0  0  0  0  0
    0.5304   -0.3267    0.0811 C   0  0  0  0  0  0  0  0  0  0  0  0
    0.9328   -0.5651    1.0707 H   0  0  0  0  0  0  0  0  0  0  0  0
    1.2533   -0.6733   -0.6633 H   0  0  0  0  0  0  0  0  0  0  0  0
    0.3876    1.1936   -0.0276 C   0  0  0  0  0  0  0  0  0  0  0  0
   -0.2551    1.7992    0.8180 O   0  0  0  0  0  0  0  0  0  0  0  0
    0.8309    1.8602   -1.1543 N   0  0  0  0  0  0  0  0  0  0  0  0
    1.2928    1.3129   -1.8752 H   0  0  0  0  0  0  0  0  0  0  0  0
    0.6244    3.2868   -1.3736 C   0  0  0  0  0  0  0  0  0  0  0  0
    1.0741    3.8688   -0.5622 H   0  0  0  0  0  0  0  0  0  0  0  0
    1.0869    3.5953   -2.3162 H   0  0  0  0  0  0  0  0  0  0  0  0
   -0.4451    3.5166   -1.4213 H   0  0  0  0  0  0  0  0  0  0  0  0
  1  2  1  0  0  0  0
  2  3  1  0  0  0  0
  2  4  1  0  0  0  0
  2  5  1  0  0  0  0
  5  6  2  0  0  0  0
  5  7  1  0  0  0  0
  7  8  1  0  0  0  0
  7  9  1  0  0  0  0
  9 10  1  0  0  0  0
  9 11  1  0  0  0  0
  9 12  1  0  0  0  0
 12 13  2  0  0  0  0
 12 14  1  0  0  0  0
 14 15  1  0  0  0  0
 14 16  1  0  0  0  0
 16 17  1  0  0  0  0
 16 18  1  0  0  0  0
 16 19  1  0  0  0  0
M  END
$$$$

  -OEChem-01062216083D

 19 18  0     0  0  0  0  0  0999 V2000
   -2.1515   -4.1287   -0.0733 H   0  0  0  0  0  0  0  0  0  0  0  0
   -2.2506   -3.0406   -0.0225 C   0  0  0  0  0  0  0  0  0  0  0  0
   -2.7641   -2.7767    0.9053 H   0  0  0  0  0  0  0  0  0  0  0  0
   -2.8492   -2.7024   -0.8718 H   0  0  0  0  0  0  0  0  0  0  0  0
   -0.8805   -2.3886   -0.0594 C   0  0  0  0  0  0  0  0  0  0  0  0
    0.1263   -3.0789   -0.0549 O   0  0  0  0  0  0  0  0  0  0  0  0
   -0.7709   -1.0140   -0.1079 N   0  0  0  0  0  0  0  0  0  0  0  0
   -1.6261   -0.4809    0.0371 H   0  0  0  0  0  0  0  0  0  0  0  0
    0.5082   -0.3171    0.0868 C   0  0  0  0  0  0  0  0  0  0  0  0
    0.9147   -0.5555    1.0749 H   0  0  0  0  0  0  0  0  0  0  0  0
    1.2347   -0.6524   -0.6594 H   0  0  0  0  0  0  0  0  0  0  0  0
    0.3534    1.2015   -0.0175 C   0  0  0  0  0  0  0  0  0  0  0  0
   -0.0151    1.8429    0.9552 O   0  0  0  0  0  0  0  0  0  0  0  0
    0.4951    1.8314   -1.2392 N   0  0  0  0  0  0  0  0  0  0  0  0
    0.7470    1.2571   -2.0388 H   0  0  0  0  0  0  0  0  0  0  0  0
    0.2906    3.2620   -1.4310 C   0  0  0  0  0  0  0  0  0  0  0  0
    0.9808    3.8349   -0.8026 H   0  0  0  0  0  0  0  0  0  0  0  0
    0.4698    3.5327   -2.4761 H   0  0  0  0  0  0  0  0  0  0  0  0
   -0.7364    3.5410   -1.1724 H   0  0  0  0  0  0  0  0  0  0  0  0
  1  2  1  0  0  0  0
  2  3  1  0  0  0  0
  2  4  1  0  0  0  0
  2  5  1  0  0  0  0
  5  6  2  0  0  0  0
  5  7  1  0  0  0  0
  7  8  1  0  0  0  0
  7  9  1  0  0  0  0
  9 10  1  0  0  0  0
  9 11  1  0  0  0  0
  9 12  1  0  0  0  0
 12 13  2  0  0  0  0
 12 14  1  0  0  0  0
 14 15  1  0  0  0  0
 14 16  1  0  0  0  0
 16 17  1  0  0  0  0
 16 18  1  0  0  0  0
 16 19  1  0  0  0  0
M  END
$$$$

  -OEChem-01062216083D

 19 18  0     0  0  0  0  0  0999 V2000
   -2.1277   -4.1530   -0.0312 H   0  0  0  0  0  0  0  0  0  0  0  0
   -2.2409   -3.0651   -0.0211 C   0  0  0  0  0  0  0  0  0  0  0  0
   -2.7708   -2.7753    0.8896 H   0  0  0  0  0  0  0  0  0  0  0  0
   -2.8314   -2.7650   -0.8902 H   0  0  0  0  0  0  0  0  0  0  0  0
   -0.8784   -2.3976   -0.0620 C   0  0  0  0  0  0  0  0  0  0  0  0
    0.1357   -3.0768   -0.0631 O   0  0  0  0  0  0  0  0  0  0  0  0
   -0.7851   -1.0211   -0.1021 N   0  0  0  0  0  0  0  0  0  0  0  0
   -1.6480   -0.5009    0.0412 H   0  0  0  0  0  0  0  0  0  0  0  0
    0.4872   -0.3111    0.0988 C   0  0  0  0  0  0  0  0  0  0  0  0
    0.8967   -0.5561    1.0845 H   0  0  0  0  0  0  0  0  0  0  0  0
    1.2171   -0.6311   -0.6509 H   0  0  0  0  0  0  0  0  0  0  0  0
    0.3217    1.2074    0.0048 C   0  0  0  0  0  0  0  0  0  0  0  0
    0.2527    1.8809    1.0216 O   0  0  0  0  0  0  0  0  0  0  0  0
    0.1507    1.8084   -1.2277 N   0  0  0  0  0  0  0  0  0  0  0  0
    0.1984    1.2139   -2.0504 H   0  0  0  0  0  0  0  0  0  0  0  0
   -0.0489    3.2423   -1.3989 C   0  0  0  0  0  0  0  0  0  0  0  0
    0.8144    3.7977   -1.0173 H   0  0  0  0  0  0  0  0  0  0  0  0
   -0.1736    3.4828   -2.4590 H   0  0  0  0  0  0  0  0  0  0  0  0
   -0.9449    3.5718   -0.8624 H   0  0  0  0  0  0  0  0  0  0  0  0
  1  2  1  0  0  0  0
  2  3  1  0  0  0  0
  2  4  1  0  0  0  0
  2  5  1  0  0  0  0
  5  6  2  0  0  0  0
  5  7  1  0  0  0  0
  7  8  1  0  0  0  0
  7  9  1  0  0  0  0
  9 10  1  0  0  0  0
  9 11  1  0  0  0  0
  9 12  1  0  0  0  0
 12 13  2  0  0  0  0
 12 14  1  0  0  0  0
 14 15  1  0  0  0  0
 14 16  1  0  0  0  0
 16 17  1  0  0  0  0
 16 18  1  0  0  0  0
 16 19  1  0  0  0  0
M  END
$$$$

  -OEChem-01062216083D

 19 18  0     0  0  0  0  0  0999 V2000
   -2.1078   -4.1716   -0.0829 H   0  0  0  0  0  0  0  0  0  0  0  0
   -2.2314   -3.0862   -0.0278 C   0  0  0  0  0  0  0  0  0  0  0  0
   -2.7577   -2.8387    0.8974 H   0  0  0  0  0  0  0  0  0  0  0  0
   -2.8308   -2.7572   -0.8801 H   0  0  0  0  0  0  0  0  0  0  0  0
   -0.8754   -2.4049   -0.0515 C   0  0  0  0  0  0  0  0  0  0  0  0
    0.1444   -3.0747   -0.0544 O   0  0  0  0  0  0  0  0  0  0  0  0
   -0.7944   -1.0271   -0.0803 N   0  0  0  0  0  0  0  0  0  0  0  0
   -1.6626   -0.5155    0.0605 H   0  0  0  0  0  0  0  0  0  0  0  0
    0.4741   -0.3070    0.1174 C   0  0  0  0  0  0  0  0  0  0  0  0
    0.8939   -0.5595    1.0968 H   0  0  0  0  0  0  0  0  0  0  0  0
    1.1998   -0.6121   -0.6425 H   0  0  0  0  0  0  0  0  0  0  0  0
    0.2986    1.2114    0.0384 C   0  0  0  0  0  0  0  0  0  0  0  0
    0.5377    1.9124    1.0095 O   0  0  0  0  0  0  0  0  0  0  0  0
   -0.1889    1.7866   -1.1198 N   0  0  0  0  0  0  0  0  0  0  0  0
   -0.3393    1.1751   -1.9173 H   0  0  0  0  0  0  0  0  0  0  0  0
   -0.3743    3.2233   -1.2823 C   0  0  0  0  0  0  0  0  0  0  0  0
    0.5824    3.7469   -1.1827 H   0  0  0  0  0  0  0  0  0  0  0  0
   -0.7874    3.4415   -2.2718 H   0  0  0  0  0  0  0  0  0  0  0  0
   -1.0670    3.6085   -0.5266 H   0  0  0  0  0  0  0  0  0  0  0  0
  1  2  1  0  0  0  0
  2  3  1  0  0  0  0
  2  4  1  0  0  0  0
  2  5  1  0  0  0  0
  5  6  2  0  0  0  0
  5  7  1  0  0  0  0
  7  8  1  0  0  0  0
  7  9  1  0  0  0  0
  9 10  1  0  0  0  0
  9 11  1  0  0  0  0
  9 12  1  0  0  0  0
 12 13  2  0  0  0  0
 12 14  1  0  0  0  0
 14 15  1  0  0  0  0
 14 16  1  0  0  0  0
 16 17  1  0  0  0  0
 16 18  1  0  0  0  0
 16 19  1  0  0  0  0
M  END
$$$$

  -OEChem-01062216083D

 19 18  0     0  0  0  0  0  0999 V2000
   -2.0919   -4.1907   -0.0975 H   0  0  0  0  0  0  0  0  0  0  0  0
   -2.2223   -3.1064   -0.0346 C   0  0  0  0  0  0  0  0  0  0  0  0
   -2.7499   -2.8688    0.8924 H   0  0  0  0  0  0  0  0  0  0  0  0
   -2.8242   -2.7756   -0.8845 H   0  0  0  0  0  0  0  0  0  0  0  0
   -0.8706   -2.4160   -0.0545 C   0  0  0  0  0  0  0  0  0  0  0  0
    0.1536   -3.0788   -0.0676 O   0  0  0  0  0  0  0  0  0  0  0  0
   -0.8003   -1.0370   -0.0673 N   0  0  0  0  0  0  0  0  0  0  0  0
   -1.6710   -0.5359    0.0930 H   0  0  0  0  0  0  0  0  0  0  0  0
    0.4649   -0.3095    0.1324 C   0  0  0  0  0  0  0  0  0  0  0  0
    0.8933   -0.5736    1.1051 H   0  0  0  0  0  0  0  0  0  0  0  0
    1.1849   -0.5997   -0.6388 H   0  0  0  0  0  0  0  0  0  0  0  0
    0.2872    1.2107    0.0740 C   0  0  0  0  0  0  0  0  0  0  0  0
    0.7865    1.9231    0.9309 O   0  0  0  0  0  0  0  0  0  0  0  0
   -0.4814    1.7774   -0.9261 N   0  0  0  0  0  0  0  0  0  0  0  0
   -0.7982    1.1621   -1.6700 H   0  0  0  0  0  0  0  0  0  0  0  0
   -0.6602    3.2170   -1.0748 C   0  0  0  0  0  0  0  0  0  0  0  0
    0.2992    3.7032   -1.2807 H   0  0  0  0  0  0  0  0  0  0  0  0
   -1.3423    3.4300   -1.9036 H   0  0  0  0  0  0  0  0  0  0  0  0
   -1.0843    3.6476   -0.1615 H   0  0  0  0  0  0  0  0  0  0  0  0
  1  2  1  0  0  0  0
  2  3  1  0  0  0  0
  2  4  1  0  0  0  0
  2  5  1  0  0  0  0
  5  6  2  0  0  0  0
  5  7  1  0  0  0  0
  7  8  1  0  0  0  0
  7  9  1  0  0  0  0
  9 10  1  0  0  0  0
  9 11  1  0  0  0  0
  9 12  1  0  0  0  0
 12 13  2  0  0  0  0
 12 14  1  0  0  0  0
 14 15  1  0  0  0  0
 14 16  1  0  0  0  0
 16 17  1  0  0  0  0
 16 18  1  0  0  0  0
 16 19  1  0  0  0  0
M  END
$$$$

  -OEChem-01062216083D

 19 18  0     0  0  0  0  0  0999 V2000
   -2.0753   -4.2095   -0.0620 H   0  0  0  0  0  0  0  0  0  0  0  0
   -2.2133   -3.1248   -0.0365 C   0  0  0  0  0  0  0  0  0  0  0  0
   -2.7476   -2.8603    0.8792 H   0  0  0  0  0  0  0  0  0  0  0  0
   -2.8122   -2.8267   -0.9003 H   0  0  0  0  0  0  0  0  0  0  0  0
   -0.8664   -2.4265   -0.0724 C   0  0  0  0  0  0  0  0  0  0  0  0
    0.1610   -3.0829   -0.1088 O   0  0  0  0  0  0  0  0  0  0  0  0
   -0.8061   -1.0468   -0.0675 N   0  0  0  0  0  0  0  0  0  0  0  0
   -1.6762   -0.5598    0.1329 H   0  0  0  0  0  0  0  0  0  0  0  0
    0.4575   -0.3164    0.1401 C   0  0  0  0  0  0  0  0  0  0  0  0
    0.8882   -0.5934    1.1081 H   0  0  0  0  0  0  0  0  0  0  0  0
    1.1759   -0.5952   -0.6371 H   0  0  0  0  0  0  0  0  0  0  0  0
    0.2876    1.2062    0.1046 C   0  0  0  0  0  0  0  0  0  0  0  0
    0.9970    1.9170    0.7993 O   0  0  0  0  0  0  0  0  0  0  0  0
   -0.7050    1.7785   -0.6707 N   0  0  0  0  0  0  0  0  0  0  0  0
   -1.1675    1.1720   -1.3413 H   0  0  0  0  0  0  0  0  0  0  0  0
   -0.8840    3.2209   -0.7891 C   0  0  0  0  0  0  0  0  0  0  0  0
    0.0015    3.6812   -1.2400 H   0  0  0  0  0  0  0  0  0  0  0  0
   -1.7506    3.4441   -1.4187 H   0  0  0  0  0  0  0  0  0  0  0  0
   -1.0510    3.6692    0.1962 H   0  0  0  0  0  0  0  0  0  0  0  0
  1  2  1  0  0  0  0
  2  3  1  0  0  0  0
  2  4  1  0  0  0  0
  2  5  1  0  0  0  0
  5  6  2  0  0  0  0
  5  7  1  0  0  0  0
  7  8  1  0  0  0  0
  7  9  1  0  0  0  0
  9 10  1  0  0  0  0
  9 11  1  0  0  0  0
  9 12  1  0  0  0  0
 12 13  2  0  0  0  0
 12 14  1  0  0  0  0
 14 15  1  0  0  0  0
 14 16  1  0  0  0  0
 16 17  1  0  0  0  0
 16 18  1  0  0  0  0
 16 19  1  0  0  0  0
M  END
$$$$

  -OEChem-01062216083D

 19 18  0     0  0  0  0  0  0999 V2000
   -2.0547   -4.2313   -0.0744 H   0  0  0  0  0  0  0  0  0  0  0  0
   -2.2019   -3.1480   -0.0393 C   0  0  0  0  0  0  0  0  0  0  0  0
   -2.7251   -2.8946    0.8860 H   0  0  0  0  0  0  0  0  0  0  0  0
   -2.8163   -2.8498   -0.8923 H   0  0  0  0  0  0  0  0  0  0  0  0
   -0.8617   -2.4373   -0.0903 C   0  0  0  0  0  0  0  0  0  0  0  0
    0.1704   -3.0852   -0.1421 O   0  0  0  0  0  0  0  0  0  0  0  0
   -0.8135   -1.0569   -0.0736 N   0  0  0  0  0  0  0  0  0  0  0  0
   -1.6826   -0.5873    0.1656 H   0  0  0  0  0  0  0  0  0  0  0  0
    0.4482   -0.3245    0.1447 C   0  0  0  0  0  0  0  0  0  0  0  0
    0.8775   -0.6128    1.1098 H   0  0  0  0  0  0  0  0  0  0  0  0
    1.1669   -0.5966   -0.6347 H   0  0  0  0  0  0  0  0  0  0  0  0
    0.2948    1.2011    0.1264 C   0  0  0  0  0  0  0  0  0  0  0  0
    1.1597    1.9010    0.6295 O   0  0  0  0  0  0  0  0  0  0  0  0
   -0.8500    1.7921   -0.3795 N   0  0  0  0  0  0  0  0  0  0  0  0
   -1.4513    1.2044   -0.9480 H   0  0  0  0  0  0  0  0  0  0  0  0
   -1.0236    3.2385   -0.4489 C   0  0  0  0  0  0  0  0  0  0  0  0
   -0.2570    3.6866   -1.0898 H   0  0  0  0  0  0  0  0  0  0  0  0
   -2.0074    3.4823   -0.8611 H   0  0  0  0  0  0  0  0  0  0  0  0
   -0.9504    3.6819    0.5499 H   0  0  0  0  0  0  0  0  0  0  0  0
  1  2  1  0  0  0  0
  2  3  1  0  0  0  0
  2  4  1  0  0  0  0
  2  5  1  0  0  0  0
  5  6  2  0  0  0  0
  5  7  1  0  0  0  0
  7  8  1  0  0  0  0
  7  9  1  0  0  0  0
  9 10  1  0  0  0  0
  9 11  1  0  0  0  0
  9 12  1  0  0  0  0
 12 13  2  0  0  0  0
 12 14  1  0  0  0  0
 14 15  1  0  0  0  0
 14 16  1  0  0  0  0
 16 17  1  0  0  0  0
 16 18  1  0  0  0  0
 16 19  1  0  0  0  0
M  END
$$$$

  -OEChem-01062216083D

 19 18  0     0  0  0  0  0  0999 V2000
   -2.0589   -4.2604   -0.0000 H   0  0  0  0  0  0  0  0  0  0  0  0
   -2.2052   -3.1763   -0.0000 C   0  0  0  0  0  0  0  0  0  0  0  0
   -2.7744   -2.8993    0.8906 H   0  0  0  0  0  0  0  0  0  0  0  0
   -2.7744   -2.8993   -0.8906 H   0  0  0  0  0  0  0  0  0  0  0  0
   -0.8624   -2.4685    0.0000 C   0  0  0  0  0  0  0  0  0  0  0  0
    0.1689   -3.1193   -0.0000 O   0  0  0  0  0  0  0  0  0  0  0  0
   -0.8096   -1.0881   -0.0000 N   0  0  0  0  0  0  0  0  0  0  0  0
   -1.6923   -0.5902    0.0000 H   0  0  0  0  0  0  0  0  0  0  0  0
    0.4611   -0.3369   -0.0000 C   0  0  0  0  0  0  0  0  0  0  0  0
    1.0425   -0.6195    0.8834 H   0  0  0  0  0  0  0  0  0  0  0  0
    1.0425   -0.6195   -0.8835 H   0  0  0  0  0  0  0  0  0  0  0  0
    0.3385    1.1942    0.0000 C   0  0  0  0  0  0  0  0  0  0  0  0
    1.3615    1.8604   -0.0000 O   0  0  0  0  0  0  0  0  0  0  0  0
   -0.8932    1.8314    0.0000 N   0  0  0  0  0  0  0  0  0  0  0  0
   -1.7202    1.2483    0.0000 H   0  0  0  0  0  0  0  0  0  0  0  0
   -1.0771    3.2818    0.0000 C   0  0  0  0  0  0  0  0  0  0  0  0
   -0.1238    3.8204    0.0000 H   0  0  0  0  0  0  0  0  0  0  0  0
   -1.6356    3.5879   -0.8899 H   0  0  0  0  0  0  0  0  0  0  0  0
   -1.6356    3.5879    0.8899 H   0  0  0  0  0  0  0  0  0  0  0  0
  1  2  1  0  0  0  0
  2  3  1  0  0  0  0
  2  4  1  0  0  0  0
  2  5  1  0  0  0  0
  5  6  2  0  0  0  0
  5  7  1  0  0  0  0
  7  8  1  0  0  0  0
  7  9  1  0  0  0  0
  9 10  1  0  0  0  0
  9 11  1  0  0  0  0
  9 12  1  0  0  0  0
 12 13  2  0  0  0  0
 12 14  1  0  0  0  0
 14 15  1  0  0  0  0
 14 16  1  0  0  0  0
 16 17  1  0  0  0  0
 16 18  1  0  0  0  0
 16 19  1  0  0  0  0
M  END
$$$$

  -OEChem-01062216083D

 19 18  0     0  0  0  0  0  0999 V2000
   -2.0556   -4.2307    0.1099 H   0  0  0  0  0  0  0  0  0  0  0  0
   -2.2016   -3.1489    0.0387 C   0  0  0  0  0  0  0  0  0  0  0  0
   -2.8296   -2.8245    0.8719 H   0  0  0  0  0  0  0  0  0  0  0  0
   -2.7093   -2.9241   -0.9025 H   0  0  0  0  0  0  0  0  0  0  0  0
   -0.8622   -2.4370    0.0895 C   0  0  0  0  0  0  0  0  0  0  0  0
    0.1700   -3.0844    0.1433 O   0  0  0  0  0  0  0  0  0  0  0  0
   -0.8150   -1.0564    0.0727 N   0  0  0  0  0  0  0  0  0  0  0  0
   -1.6841   -0.5880   -0.1692 H   0  0  0  0  0  0  0  0  0  0  0  0
    0.4462   -0.3240   -0.1487 C   0  0  0  0  0  0  0  0  0  0  0  0
    1.1673   -0.5972    0.6283 H   0  0  0  0  0  0  0  0  0  0  0  0
    0.8722   -0.6120   -1.1154 H   0  0  0  0  0  0  0  0  0  0  0  0
    0.2928    1.2018   -0.1299 C   0  0  0  0  0  0  0  0  0  0  0  0
    1.1574    1.9024   -0.6326 O   0  0  0  0  0  0  0  0  0  0  0  0
   -0.8508    1.7924    0.3788 N   0  0  0  0  0  0  0  0  0  0  0  0
   -1.4493    1.2040    0.9495 H   0  0  0  0  0  0  0  0  0  0  0  0
   -1.0213    3.2387    0.4546 C   0  0  0  0  0  0  0  0  0  0  0  0
   -0.2531    3.6822    1.0967 H   0  0  0  0  0  0  0  0  0  0  0  0
   -0.9480    3.6866   -0.5421 H   0  0  0  0  0  0  0  0  0  0  0  0
   -2.0042    3.4826    0.8688 H   0  0  0  0  0  0  0  0  0  0  0  0
  1  2  1  0  0  0  0
  2  3  1  0  0  0  0
  2  4  1  0  0  0  0
  2  5  1  0  0  0  0
  5  6  2  0  0  0  0
  5  7  1  0  0  0  0
  7  8  1  0  0  0  0
  7  9  1  0  0  0  0
  9 10  1  0  0  0  0
  9 11  1  0  0  0  0
  9 12  1  0  0  0  0
 12 13  2  0  0  0  0
 12 14  1  0  0  0  0
 14 15  1  0  0  0  0
 14 16  1  0  0  0  0
 16 17  1  0  0  0  0
 16 18  1  0  0  0  0
 16 19  1  0  0  0  0
M  END
$$$$

  -OEChem-01062216083D

 19 18  0     0  0  0  0  0  0999 V2000
   -2.0717   -4.2121    0.0668 H   0  0  0  0  0  0  0  0  0  0  0  0
   -2.2117   -3.1278    0.0332 C   0  0  0  0  0  0  0  0  0  0  0  0
   -2.8173   -2.8255    0.8910 H   0  0  0  0  0  0  0  0  0  0  0  0
   -2.7404   -2.8708   -0.8878 H   0  0  0  0  0  0  0  0  0  0  0  0
   -0.8665   -2.4261    0.0741 C   0  0  0  0  0  0  0  0  0  0  0  0
    0.1619   -3.0806    0.1140 O   0  0  0  0  0  0  0  0  0  0  0  0
   -0.8081   -1.0462    0.0695 N   0  0  0  0  0  0  0  0  0  0  0  0
   -1.6780   -0.5609   -0.1355 H   0  0  0  0  0  0  0  0  0  0  0  0
    0.4553   -0.3159   -0.1398 C   0  0  0  0  0  0  0  0  0  0  0  0
    1.1741   -0.5948    0.6369 H   0  0  0  0  0  0  0  0  0  0  0  0
    0.8850   -0.5938   -1.1079 H   0  0  0  0  0  0  0  0  0  0  0  0
    0.2865    1.2070   -0.1042 C   0  0  0  0  0  0  0  0  0  0  0  0
    0.9946    1.9173   -0.8007 O   0  0  0  0  0  0  0  0  0  0  0  0
   -0.7044    1.7803    0.6724 N   0  0  0  0  0  0  0  0  0  0  0  0
   -1.1689    1.1735    1.3415 H   0  0  0  0  0  0  0  0  0  0  0  0
   -0.8824    3.2228    0.7911 C   0  0  0  0  0  0  0  0  0  0  0  0
    0.0093    3.6850    1.2277 H   0  0  0  0  0  0  0  0  0  0  0  0
   -1.0645    3.6688   -0.1924 H   0  0  0  0  0  0  0  0  0  0  0  0
   -1.7392    3.4463    1.4339 H   0  0  0  0  0  0  0  0  0  0  0  0
  1  2  1  0  0  0  0
  2  3  1  0  0  0  0
  2  4  1  0  0  0  0
  2  5  1  0  0  0  0
  5  6  2  0  0  0  0
  5  7  1  0  0  0  0
  7  8  1  0  0  0  0
  7  9  1  0  0  0  0
  9 10  1  0  0  0  0
  9 11  1  0  0  0  0
  9 12  1  0  0  0  0
 12 13  2  0  0  0  0
 12 14  1  0  0  0  0
 14 15  1  0  0  0  0
 14 16  1  0  0  0  0
 16 17  1  0  0  0  0
 16 18  1  0  0  0  0
 16 19  1  0  0  0  0
M  END
$$$$

  -OEChem-01062216083D

 19 18  0     0  0  0  0  0  0999 V2000
   -2.0928   -4.1870    0.1397 H   0  0  0  0  0  0  0  0  0  0  0  0
   -2.2207   -3.1062    0.0323 C   0  0  0  0  0  0  0  0  0  0  0  0
   -2.8457   -2.7439    0.8520 H   0  0  0  0  0  0  0  0  0  0  0  0
   -2.7223   -2.9036   -0.9171 H   0  0  0  0  0  0  0  0  0  0  0  0
   -0.8700   -2.4148    0.0620 C   0  0  0  0  0  0  0  0  0  0  0  0
    0.1547   -3.0761    0.0841 O   0  0  0  0  0  0  0  0  0  0  0  0
   -0.8016   -1.0359    0.0719 N   0  0  0  0  0  0  0  0  0  0  0  0
   -1.6726   -0.5384   -0.0974 H   0  0  0  0  0  0  0  0  0  0  0  0
    0.4616   -0.3079   -0.1380 C   0  0  0  0  0  0  0  0  0  0  0  0
    1.1883   -0.5960    0.6279 H   0  0  0  0  0  0  0  0  0  0  0  0
    0.8828   -0.5725   -1.1137 H   0  0  0  0  0  0  0  0  0  0  0  0
    0.2808    1.2119   -0.0806 C   0  0  0  0  0  0  0  0  0  0  0  0
    0.7737    1.9252   -0.9404 O   0  0  0  0  0  0  0  0  0  0  0  0
   -0.4825    1.7760    0.9249 N   0  0  0  0  0  0  0  0  0  0  0  0
   -0.7923    1.1587    1.6701 H   0  0  0  0  0  0  0  0  0  0  0  0
   -0.6565    3.2150    1.0818 C   0  0  0  0  0  0  0  0  0  0  0  0
    0.3061    3.6978    1.2800 H   0  0  0  0  0  0  0  0  0  0  0  0
   -1.0891    3.6511    0.1751 H   0  0  0  0  0  0  0  0  0  0  0  0
   -1.3290    3.4256    1.9190 H   0  0  0  0  0  0  0  0  0  0  0  0
  1  2  1  0  0  0  0
  2  3  1  0  0  0  0
  2  4  1  0  0  0  0
  2  5  1  0  0  0  0
  5  6  2  0  0  0  0
  5  7  1  0  0  0  0
  7  8  1  0  0  0  0
  7  9  1  0  0  0  0
  9 10  1  0  0  0  0
  9 11  1  0  0  0  0
  9 12  1  0  0  0  0
 12 13  2  0  0  0  0
 12 14  1  0  0  0  0
 14 15  1  0  0  0  0
 14 16  1  0  0  0  0
 16 17  1  0  0  0  0
 16 18  1  0  0  0  0
 16 19  1  0  0  0  0
M  END
$$$$

  -OEChem-01062216083D

 19 18  0     0  0  0  0  0  0999 V2000
   -2.1133   -4.1675    0.0295 H   0  0  0  0  0  0  0  0  0  0  0  0
   -2.2333   -3.0803    0.0303 C   0  0  0  0  0  0  0  0  0  0  0  0
   -2.8121   -2.7912    0.9110 H   0  0  0  0  0  0  0  0  0  0  0  0
   -2.7791   -2.7863   -0.8696 H   0  0  0  0  0  0  0  0  0  0  0  0
   -0.8744   -2.4048    0.0569 C   0  0  0  0  0  0  0  0  0  0  0  0
    0.1434   -3.0776    0.0653 O   0  0  0  0  0  0  0  0  0  0  0  0
   -0.7896   -1.0272    0.0825 N   0  0  0  0  0  0  0  0  0  0  0  0
   -1.6562   -0.5140   -0.0620 H   0  0  0  0  0  0  0  0  0  0  0  0
    0.4803   -0.3097   -0.1141 C   0  0  0  0  0  0  0  0  0  0  0  0
    1.2036   -0.6140    0.6485 H   0  0  0  0  0  0  0  0  0  0  0  0
    0.9020   -0.5639   -1.0924 H   0  0  0  0  0  0  0  0  0  0  0  0
    0.3042    1.2087   -0.0383 C   0  0  0  0  0  0  0  0  0  0  0  0
    0.5397    1.9075   -1.0119 O   0  0  0  0  0  0  0  0  0  0  0  0
   -0.1861    1.7851    1.1180 N   0  0  0  0  0  0  0  0  0  0  0  0
   -0.3339    1.1752    1.9172 H   0  0  0  0  0  0  0  0  0  0  0  0
   -0.3811    3.2212    1.2749 C   0  0  0  0  0  0  0  0  0  0  0  0
    0.5734    3.7496    1.1813 H   0  0  0  0  0  0  0  0  0  0  0  0
   -1.0698    3.6005    0.5125 H   0  0  0  0  0  0  0  0  0  0  0  0
   -0.8036    3.4398    2.2604 H   0  0  0  0  0  0  0  0  0  0  0  0
  1  2  1  0  0  0  0
  2  3  1  0  0  0  0
  2  4  1  0  0  0  0
  2  5  1  0  0  0  0
  5  6  2  0  0  0  0
  5  7  1  0  0  0  0
  7  8  1  0  0  0  0
  7  9  1  0  0  0  0
  9 10  1  0  0  0  0
  9 11  1  0  0  0  0
  9 12  1  0  0  0  0
 12 13  2  0  0  0  0
 12 14  1  0  0  0  0
 14 15  1  0  0  0  0
 14 16  1  0  0  0  0
 16 17  1  0  0  0  0
 16 18  1  0  0  0  0
 16 19  1  0  0  0  0
M  END
$$$$

  -OEChem-01062216083D

 19 18  0     0  0  0  0  0  0999 V2000
   -2.1344   -4.1453   -0.0049 H   0  0  0  0  0  0  0  0  0  0  0  0
   -2.2436   -3.0573    0.0202 C   0  0  0  0  0  0  0  0  0  0  0  0
   -2.8210   -2.7821    0.9061 H   0  0  0  0  0  0  0  0  0  0  0  0
   -2.7851   -2.7380   -0.8736 H   0  0  0  0  0  0  0  0  0  0  0  0
   -0.8781   -2.3960    0.0639 C   0  0  0  0  0  0  0  0  0  0  0  0
    0.1330   -3.0793    0.0744 O   0  0  0  0  0  0  0  0  0  0  0  0
   -0.7793   -1.0198    0.1017 N   0  0  0  0  0  0  0  0  0  0  0  0
   -1.6394   -0.4967   -0.0476 H   0  0  0  0  0  0  0  0  0  0  0  0
    0.4962   -0.3143   -0.0949 C   0  0  0  0  0  0  0  0  0  0  0  0
    1.2230   -0.6351    0.6576 H   0  0  0  0  0  0  0  0  0  0  0  0
    0.9084   -0.5605   -1.0790 H   0  0  0  0  0  0  0  0  0  0  0  0
    0.3318    1.2043   -0.0035 C   0  0  0  0  0  0  0  0  0  0  0  0
    0.2621    1.8761   -1.0214 O   0  0  0  0  0  0  0  0  0  0  0  0
    0.1559    1.8063    1.2277 N   0  0  0  0  0  0  0  0  0  0  0  0
    0.1950    1.2120    2.0510 H   0  0  0  0  0  0  0  0  0  0  0  0
   -0.0579    3.2385    1.3950 C   0  0  0  0  0  0  0  0  0  0  0  0
    0.7900    3.8021    0.9917 H   0  0  0  0  0  0  0  0  0  0  0  0
   -0.9690    3.5531    0.8755 H   0  0  0  0  0  0  0  0  0  0  0  0
   -0.1627    3.4842    2.4560 H   0  0  0  0  0  0  0  0  0  0  0  0
  1  2  1  0  0  0  0
  2  3  1  0  0  0  0
  2  4  1  0  0  0  0
  2  5  1  0  0  0  0
  5  6  2  0  0  0  0
  5  7  1  0  0  0  0
  7  8  1  0  0  0  0
  7  9  1  0  0  0  0
  9 10  1  0  0  0  0
  9 11  1  0  0  0  0
  9 12  1  0  0  0  0
 12 13  2  0  0  0  0
 12 14  1  0  0  0  0
 14 15  1  0  0  0  0
 14 16  1  0  0  0  0
 16 17  1  0  0  0  0
 16 18  1  0  0  0  0
 16 19  1  0  0  0  0
M  END
$$$$

  -OEChem-01062216083D

 19 18  0     0  0  0  0  0  0999 V2000
   -2.1588   -4.1224    0.0279 H   0  0  0  0  0  0  0  0  0  0  0  0
   -2.2537   -3.0328    0.0237 C   0  0  0  0  0  0  0  0  0  0  0  0
   -2.8359   -2.7272    0.8963 H   0  0  0  0  0  0  0  0  0  0  0  0
   -2.7823   -2.7294   -0.8833 H   0  0  0  0  0  0  0  0  0  0  0  0
   -0.8804   -2.3879    0.0639 C   0  0  0  0  0  0  0  0  0  0  0  0
    0.1236   -3.0822    0.0653 O   0  0  0  0  0  0  0  0  0  0  0  0
   -0.7652   -1.0137    0.1088 N   0  0  0  0  0  0  0  0  0  0  0  0
   -1.6183   -0.4778   -0.0378 H   0  0  0  0  0  0  0  0  0  0  0  0
    0.5165   -0.3208   -0.0850 C   0  0  0  0  0  0  0  0  0  0  0  0
    1.2410   -0.6550    0.6638 H   0  0  0  0  0  0  0  0  0  0  0  0
    0.9252   -0.5625   -1.0715 H   0  0  0  0  0  0  0  0  0  0  0  0
    0.3631    1.1982    0.0156 C   0  0  0  0  0  0  0  0  0  0  0  0
   -0.0069    1.8370   -0.9583 O   0  0  0  0  0  0  0  0  0  0  0  0
    0.5028    1.8308    1.2361 N   0  0  0  0  0  0  0  0  0  0  0  0
    0.7511    1.2579    2.0378 H   0  0  0  0  0  0  0  0  0  0  0  0
    0.2814    3.2588    1.4268 C   0  0  0  0  0  0  0  0  0  0  0  0
    0.9622    3.8398    0.7959 H   0  0  0  0  0  0  0  0  0  0  0  0
   -0.7496    3.5243    1.1706 H   0  0  0  0  0  0  0  0  0  0  0  0
    0.4601    3.5326    2.4710 H   0  0  0  0  0  0  0  0  0  0  0  0
  1  2  1  0  0  0  0
  2  3  1  0  0  0  0
  2  4  1  0  0  0  0
  2  5  1  0  0  0  0
  5  6  2  0  0  0  0
  5  7  1  0  0  0  0
  7  8  1  0  0  0  0
  7  9  1  0  0  0  0
  9 10  1  0  0  0  0
  9 11  1  0  0  0  0
  9 12  1  0  0  0  0
 12 13  2  0  0  0  0
 12 14  1  0  0  0  0
 14 15  1  0  0  0  0
 14 16  1  0  0  0  0
 16 17  1  0  0  0  0
 16 18  1  0  0  0  0
 16 19  1  0  0  0  0
M  END
$$$$

  -OEChem-01062216083D

 19 18  0     0  0  0  0  0  0999 V2000
   -2.1752   -4.1075    0.0798 H   0  0  0  0  0  0  0  0  0  0  0  0
   -2.2601   -3.0186    0.0239 C   0  0  0  0  0  0  0  0  0  0  0  0
   -2.8573   -2.6691    0.8695 H   0  0  0  0  0  0  0  0  0  0  0  0
   -2.7669   -2.7516   -0.9067 H   0  0  0  0  0  0  0  0  0  0  0  0
   -0.8820   -2.3839    0.0630 C   0  0  0  0  0  0  0  0  0  0  0  0
    0.1167   -3.0861    0.0538 O   0  0  0  0  0  0  0  0  0  0  0  0
   -0.7554   -1.0112    0.1146 N   0  0  0  0  0  0  0  0  0  0  0  0
   -1.6034   -0.4650   -0.0271 H   0  0  0  0  0  0  0  0  0  0  0  0
    0.5293   -0.3262   -0.0809 C   0  0  0  0  0  0  0  0  0  0  0  0
    1.2534   -0.6733    0.6623 H   0  0  0  0  0  0  0  0  0  0  0  0
    0.9307   -0.5633   -1.0712 H   0  0  0  0  0  0  0  0  0  0  0  0
    0.3854    1.1939    0.0292 C   0  0  0  0  0  0  0  0  0  0  0  0
   -0.2536    1.8004   -0.8186 O   0  0  0  0  0  0  0  0  0  0  0  0
    0.8282    1.8601    1.1563 N   0  0  0  0  0  0  0  0  0  0  0  0
    1.2866    1.3124    1.8790 H   0  0  0  0  0  0  0  0  0  0  0  0
    0.6260    3.2877    1.3731 C   0  0  0  0  0  0  0  0  0  0  0  0
    1.0831    3.8669    0.5638 H   0  0  0  0  0  0  0  0  0  0  0  0
   -0.4428    3.5219    1.4141 H   0  0  0  0  0  0  0  0  0  0  0  0
    1.0841    3.5954    2.3181 H   0  0  0  0  0  0  0  0  0  0  0  0
  1  2  1  0  0  0  0
  2  3  1  0  0  0  0
  2  4  1  0  0  0  0
  2  5  1  0  0  0  0
  5  6  2  0  0  0  0
  5  7  1  0  0  0  0
  7  8  1  0  0  0  0
  7  9  1  0  0  0  0
  9 10  1  0  0  0  0
  9 11  1  0  0  0  0
  9 12  1  0  0  0  0
 12 13  2  0  0  0  0
 12 14  1  0  0  0  0
 14 15  1  0  0  0  0
 14 16  1  0  0  0  0
 16 17  1  0  0  0  0
 16 18  1  0  0  0  0
 16 19  1  0  0  0  0
M  END
$$$$

  -OEChem-01062216083D

 19 18  0     0  0  0  0  0  0999 V2000
   -2.1896   -4.0963    0.0955 H   0  0  0  0  0  0  0  0  0  0  0  0
   -2.2664   -3.0068    0.0380 C   0  0  0  0  0  0  0  0  0  0  0  0
   -2.8449   -2.6500    0.8936 H   0  0  0  0  0  0  0  0  0  0  0  0
   -2.7882   -2.7381   -0.8837 H   0  0  0  0  0  0  0  0  0  0  0  0
   -0.8827   -2.3836    0.0499 C   0  0  0  0  0  0  0  0  0  0  0  0
    0.1103   -3.0933    0.0101 O   0  0  0  0  0  0  0  0  0  0  0  0
   -0.7432   -1.0126    0.1072 N   0  0  0  0  0  0  0  0  0  0  0  0
   -1.5880   -0.4526    0.0008 H   0  0  0  0  0  0  0  0  0  0  0  0
    0.5438   -0.3318   -0.0845 C   0  0  0  0  0  0  0  0  0  0  0  0
    1.2615   -0.6860    0.6615 H   0  0  0  0  0  0  0  0  0  0  0  0
    0.9472   -0.5663   -1.0742 H   0  0  0  0  0  0  0  0  0  0  0  0
    0.4065    1.1894    0.0328 C   0  0  0  0  0  0  0  0  0  0  0  0
   -0.4397    1.7693   -0.6342 O   0  0  0  0  0  0  0  0  0  0  0  0
    1.1111    1.8876    0.9954 N   0  0  0  0  0  0  0  0  0  0  0  0
    1.7558    1.3654    1.5819 H   0  0  0  0  0  0  0  0  0  0  0  0
    0.9428    3.3168    1.2300 C   0  0  0  0  0  0  0  0  0  0  0  0
    1.1950    3.8854    0.3287 H   0  0  0  0  0  0  0  0  0  0  0  0
   -0.0921    3.5403    1.5098 H   0  0  0  0  0  0  0  0  0  0  0  0
    1.5987    3.6470    2.0413 H   0  0  0  0  0  0  0  0  0  0  0  0
  1  2  1  0  0  0  0
  2  3  1  0  0  0  0
  2  4  1  0  0  0  0
  2  5  1  0  0  0  0
  5  6  2  0  0  0  0
  5  7  1  0  0  0  0
  7  8  1  0  0  0  0
  7  9  1  0  0  0  0
  9 10  1  0  0  0  0
  9 11  1  0  0  0  0
  9 12  1  0  0  0  0
 12 13  2  0  0  0  0
 12 14  1  0  0  0  0
 14 15  1  0  0  0  0
 14 16  1  0  0  0  0
 16 17  1  0  0  0  0
 16 18  1  0  0  0  0
 16 19  1  0  0  0  0
M  END
$$$$

  -OEChem-01062216083D

 19 18  0     0  0  0  0  0  0999 V2000
   -2.2094   -4.0854    0.0198 H   0  0  0  0  0  0  0  0  0  0  0  0
   -2.2753   -2.9942    0.0488 C   0  0  0  0  0  0  0  0  0  0  0  0
   -2.8057   -2.6976    0.9568 H   0  0  0  0  0  0  0  0  0  0  0  0
   -2.8389   -2.6521   -0.8227 H   0  0  0  0  0  0  0  0  0  0  0  0
   -0.8850   -2.3856    0.0392 C   0  0  0  0  0  0  0  0  0  0  0  0
    0.1006   -3.1050   -0.0108 O   0  0  0  0  0  0  0  0  0  0  0  0
   -0.7301   -1.0165    0.0911 N   0  0  0  0  0  0  0  0  0  0  0  0
   -1.5686   -0.4413    0.0148 H   0  0  0  0  0  0  0  0  0  0  0  0
    0.5636   -0.3432   -0.0792 C   0  0  0  0  0  0  0  0  0  0  0  0
    1.2608   -0.6971    0.6858 H   0  0  0  0  0  0  0  0  0  0  0  0
    0.9864   -0.5869   -1.0585 H   0  0  0  0  0  0  0  0  0  0  0  0
    0.4339    1.1806    0.0278 C   0  0  0  0  0  0  0  0  0  0  0  0
   -0.5453    1.7387   -0.4505 O   0  0  0  0  0  0  0  0  0  0  0  0
    1.3368    1.9125    0.7758 N   0  0  0  0  0  0  0  0  0  0  0  0
    2.1097    1.4134    1.2068 H   0  0  0  0  0  0  0  0  0  0  0  0
    1.2096    3.3472    1.0018 C   0  0  0  0  0  0  0  0  0  0  0  0
    1.2028    3.8867    0.0488 H   0  0  0  0  0  0  0  0  0  0  0  0
    0.2821    3.5698    1.5397 H   0  0  0  0  0  0  0  0  0  0  0  0
    2.0511    3.7121    1.5984 H   0  0  0  0  0  0  0  0  0  0  0  0
  1  2  1  0  0  0  0
  2  3  1  0  0  0  0
  2  4  1  0  0  0  0
  2  5  1  0  0  0  0
  5  6  2  0  0  0  0
  5  7  1  0  0  0  0
  7  8  1  0  0  0  0
  7  9  1  0  0  0  0
  9 10  1  0  0  0  0
  9 11  1  0  0  0  0
  9 12  1  0  0  0  0
 12 13  2  0  0  0  0
 12 14  1  0  0  0  0
 14 15  1  0  0  0  0
 14 16  1  0  0  0  0
 16 17  1  0  0  0  0
 16 18  1  0  0  0  0
 16 19  1  0  0  0  0
M  END
$$$$

  -OEChem-01062216083D

 19 18  0     0  0  0  0  0  0999 V2000
   -2.2228   -4.0792    0.0340 H   0  0  0  0  0  0  0  0  0  0  0  0
   -2.2805   -2.9876    0.0648 C   0  0  0  0  0  0  0  0  0  0  0  0
   -2.7835   -2.6870    0.9871 H   0  0  0  0  0  0  0  0  0  0  0  0
   -2.8656   -2.6411   -0.7905 H   0  0  0  0  0  0  0  0  0  0  0  0
   -0.8874   -2.3883    0.0164 C   0  0  0  0  0  0  0  0  0  0  0  0
    0.0922   -3.1127   -0.0680 O   0  0  0  0  0  0  0  0  0  0  0  0
   -0.7225   -1.0210    0.0706 N   0  0  0  0  0  0  0  0  0  0  0  0
   -1.5574   -0.4353    0.0542 H   0  0  0  0  0  0  0  0  0  0  0  0
    0.5734   -0.3494   -0.0855 C   0  0  0  0  0  0  0  0  0  0  0  0
    1.2600   -0.7037    0.6890 H   0  0  0  0  0  0  0  0  0  0  0  0
    1.0058   -0.5958   -1.0597 H   0  0  0  0  0  0  0  0  0  0  0  0
    0.4504    1.1759    0.0216 C   0  0  0  0  0  0  0  0  0  0  0  0
   -0.6134    1.7227   -0.2429 O   0  0  0  0  0  0  0  0  0  0  0  0
    1.5007    1.9300    0.5094 N   0  0  0  0  0  0  0  0  0  0  0  0
    2.3574    1.4441    0.7586 H   0  0  0  0  0  0  0  0  0  0  0  0
    1.4215    3.3712    0.7151 C   0  0  0  0  0  0  0  0  0  0  0  0
    1.1909    3.8811   -0.2262 H   0  0  0  0  0  0  0  0  0  0  0  0
    0.6428    3.6119    1.4466 H   0  0  0  0  0  0  0  0  0  0  0  0
    2.3763    3.7527    1.0892 H   0  0  0  0  0  0  0  0  0  0  0  0
  1  2  1  0  0  0  0
  2  3  1  0  0  0  0
  2  4  1  0  0  0  0
  2  5  1  0  0  0  0
  5  6  2  0  0  0  0
  5  7  1  0  0  0  0
  7  8  1  0  0  0  0
  7  9  1  0  0  0  0
  9 10  1  0  0  0  0
  9 11  1  0  0  0  0
  9 12  1  0  0  0  0
 12 13  2  0  0  0  0
 12 14  1  0  0  0  0
 14 15  1  0  0  0  0
 14 16  1  0  0  0  0
 16 17  1  0  0  0  0
 16 18  1  0  0  0  0
 16 19  1  0  0  0  0
M  END
$$$$

  -OEChem-01062216083D

 19 18  0     0  0  0  0  0  0999 V2000
   -2.2388   -4.0738    0.0192 H   0  0  0  0  0  0  0  0  0  0  0  0
   -2.2870   -2.9832    0.0830 C   0  0  0  0  0  0  0  0  0  0  0  0
   -2.7455   -2.7057    1.0353 H   0  0  0  0  0  0  0  0  0  0  0  0
   -2.9078   -2.6092   -0.7347 H   0  0  0  0  0  0  0  0  0  0  0  0
   -0.8930   -2.3910   -0.0121 C   0  0  0  0  0  0  0  0  0  0  0  0
    0.0789   -3.1195   -0.1398 O   0  0  0  0  0  0  0  0  0  0  0  0
   -0.7185   -1.0252    0.0470 N   0  0  0  0  0  0  0  0  0  0  0  0
   -1.5466   -0.4325    0.1075 H   0  0  0  0  0  0  0  0  0  0  0  0
    0.5812   -0.3563   -0.0889 C   0  0  0  0  0  0  0  0  0  0  0  0
    1.2561   -0.7127    0.6951 H   0  0  0  0  0  0  0  0  0  0  0  0
    1.0251   -0.6037   -1.0577 H   0  0  0  0  0  0  0  0  0  0  0  0
    0.4667    1.1703    0.0194 C   0  0  0  0  0  0  0  0  0  0  0  0
   -0.6322    1.7106   -0.0305 O   0  0  0  0  0  0  0  0  0  0  0  0
    1.5957    1.9404    0.2243 N   0  0  0  0  0  0  0  0  0  0  0  0
    2.4912    1.4637    0.2817 H   0  0  0  0  0  0  0  0  0  0  0  0
    1.5568    3.3902    0.3737 C   0  0  0  0  0  0  0  0  0  0  0  0
    1.1442    3.8577   -0.5265 H   0  0  0  0  0  0  0  0  0  0  0  0
    0.9375    3.6705    1.2322 H   0  0  0  0  0  0  0  0  0  0  0  0
    2.5661    3.7811    0.5340 H   0  0  0  0  0  0  0  0  0  0  0  0
  1  2  1  0  0  0  0
  2  3  1  0  0  0  0
  2  4  1  0  0  0  0
  2  5  1  0  0  0  0
  5  6  2  0  0  0  0
  5  7  1  0  0  0  0
  7  8  1  0  0  0  0
  7  9  1  0  0  0  0
  9 10  1  0  0  0  0
  9 11  1  0  0  0  0
  9 12  1  0  0  0  0
 12 13  2  0  0  0  0
 12 14  1  0  0  0  0
 14 15  1  0  0  0  0
 14 16  1  0  0  0  0
 16 17  1  0  0  0  0
 16 18  1  0  0  0  0
 16 19  1  0  0  0  0
M  END
$$$$

  -OEChem-01062216083D

 19 18  0     0  0  0  0  0  0999 V2000
   -2.2852   -4.0418   -0.0327 H   0  0  0  0  0  0  0  0  0  0  0  0
   -2.3105   -2.9491   -0.0699 C   0  0  0  0  0  0  0  0  0  0  0  0
   -2.8876   -2.5805    0.7816 H   0  0  0  0  0  0  0  0  0  0  0  0
   -2.8020   -2.6397   -0.9954 H   0  0  0  0  0  0  0  0  0  0  0  0
   -0.9002   -2.3909   -0.0204 C   0  0  0  0  0  0  0  0  0  0  0  0
    0.0567   -3.1443    0.0719 O   0  0  0  0  0  0  0  0  0  0  0  0
   -0.6950   -1.0291   -0.0797 N   0  0  0  0  0  0  0  0  0  0  0  0
   -1.5125   -0.4187   -0.0770 H   0  0  0  0  0  0  0  0  0  0  0  0
    0.6190   -0.3896    0.0658 C   0  0  0  0  0  0  0  0  0  0  0  0
    1.1596   -0.8411    0.9033 H   0  0  0  0  0  0  0  0  0  0  0  0
    1.2054   -0.5505   -0.8432 H   0  0  0  0  0  0  0  0  0  0  0  0
    0.5113    1.1193    0.3235 C   0  0  0  0  0  0  0  0  0  0  0  0
   -0.5872    1.6606    0.3734 O   0  0  0  0  0  0  0  0  0  0  0  0
    1.6538    1.8796    0.4854 N   0  0  0  0  0  0  0  0  0  0  0  0
    2.5509    1.4051    0.4348 H   0  0  0  0  0  0  0  0  0  0  0  0
    1.6279    3.3184    0.7191 C   0  0  0  0  0  0  0  0  0  0  0  0
    1.0835    3.5473    1.6413 H   0  0  0  0  0  0  0  0  0  0  0  0
    2.6470    3.7051    0.8150 H   0  0  0  0  0  0  0  0  0  0  0  0
    1.1401    3.8332   -0.1153 H   0  0  0  0  0  0  0  0  0  0  0  0
  1  2  1  0  0  0  0
  2  3  1  0  0  0  0
  2  4  1  0  0  0  0
  2  5  1  0  0  0  0
  5  6  2  0  0  0  0
  5  7  1  0  0  0  0
  7  8  1  0  0  0  0
  7  9  1  0  0  0  0
  9 10  1  0  0  0  0
  9 11  1  0  0  0  0
  9 12  1  0  0  0  0
 12 13  2  0  0  0  0
 12 14  1  0  0  0  0
 14 15  1  0  0  0  0
 14 16  1  0  0  0  0
 16 17  1  0  0  0  0
 16 18  1  0  0  0  0
 16 19  1  0  0  0  0
M  END
$$$$

  -OEChem-01062216083D

 19 18  0     0  0  0  0  0  0999 V2000
   -2.2645   -4.0516   -0.0040 H   0  0  0  0  0  0  0  0  0  0  0  0
   -2.3008   -2.9599   -0.0562 C   0  0  0  0  0  0  0  0  0  0  0  0
   -2.8637   -2.5848    0.8019 H   0  0  0  0  0  0  0  0  0  0  0  0
   -2.8140   -2.6680   -0.9755 H   0  0  0  0  0  0  0  0  0  0  0  0
   -0.8952   -2.3882   -0.0442 C   0  0  0  0  0  0  0  0  0  0  0  0
    0.0707   -3.1330    0.0183 O   0  0  0  0  0  0  0  0  0  0  0  0
   -0.7040   -1.0243   -0.1065 N   0  0  0  0  0  0  0  0  0  0  0  0
   -1.5271   -0.4255   -0.0383 H   0  0  0  0  0  0  0  0  0  0  0  0
    0.6043   -0.3792    0.0637 C   0  0  0  0  0  0  0  0  0  0  0  0
    1.1317   -0.8237    0.9134 H   0  0  0  0  0  0  0  0  0  0  0  0
    1.2073   -0.5437   -0.8337 H   0  0  0  0  0  0  0  0  0  0  0  0
    0.4843    1.1303    0.3128 C   0  0  0  0  0  0  0  0  0  0  0  0
   -0.6065    1.6278    0.5663 O   0  0  0  0  0  0  0  0  0  0  0  0
    1.5929    1.9460    0.1898 N   0  0  0  0  0  0  0  0  0  0  0  0
    2.4816    1.5076   -0.0343 H   0  0  0  0  0  0  0  0  0  0  0  0
    1.5459    3.3914    0.3748 C   0  0  0  0  0  0  0  0  0  0  0  0
    1.1935    3.6378    1.3820 H   0  0  0  0  0  0  0  0  0  0  0  0
    2.5432    3.8219    0.2431 H   0  0  0  0  0  0  0  0  0  0  0  0
    0.8721    3.8499   -0.3566 H   0  0  0  0  0  0  0  0  0  0  0  0
  1  2  1  0  0  0  0
  2  3  1  0  0  0  0
  2  4  1  0  0  0  0
  2  5  1  0  0  0  0
  5  6  2  0  0  0  0
  5  7  1  0  0  0  0
  7  8  1  0  0  0  0
  7  9  1  0  0  0  0
  9 10  1  0  0  0  0
  9 11  1  0  0  0  0
  9 12  1  0  0  0  0
 12 13  2  0  0  0  0
 12 14  1  0  0  0  0
 14 15  1  0  0  0  0
 14 16  1  0  0  0  0
 16 17  1  0  0  0  0
 16 18  1  0  0  0  0
 16 19  1  0  0  0  0
M  END
$$$$

  -OEChem-01062216083D

 19 18  0     0  0  0  0  0  0999 V2000
   -2.2486   -4.0583   -0.0860 H   0  0  0  0  0  0  0  0  0  0  0  0
   -2.2934   -2.9663   -0.0462 C   0  0  0  0  0  0  0  0  0  0  0  0
   -2.8119   -2.6673    0.8680 H   0  0  0  0  0  0  0  0  0  0  0  0
   -2.8559   -2.6058   -0.9108 H   0  0  0  0  0  0  0  0  0  0  0  0
   -0.8917   -2.3848   -0.0593 C   0  0  0  0  0  0  0  0  0  0  0  0
    0.0798   -3.1239   -0.0162 O   0  0  0  0  0  0  0  0  0  0  0  0
   -0.7107   -1.0192   -0.1224 N   0  0  0  0  0  0  0  0  0  0  0  0
   -1.5368   -0.4318   -0.0080 H   0  0  0  0  0  0  0  0  0  0  0  0
    0.5934   -0.3721    0.0729 C   0  0  0  0  0  0  0  0  0  0  0  0
    1.1056   -0.8112    0.9348 H   0  0  0  0  0  0  0  0  0  0  0  0
    1.2148   -0.5406   -0.8113 H   0  0  0  0  0  0  0  0  0  0  0  0
    0.4608    1.1370    0.3155 C   0  0  0  0  0  0  0  0  0  0  0  0
   -0.5822    1.5940    0.7673 O   0  0  0  0  0  0  0  0  0  0  0  0
    1.4673    1.9989   -0.0776 N   0  0  0  0  0  0  0  0  0  0  0  0
    2.3063    1.5944   -0.4836 H   0  0  0  0  0  0  0  0  0  0  0  0
    1.3741    3.4484    0.0511 C   0  0  0  0  0  0  0  0  0  0  0  0
    1.2367    3.7324    1.0998 H   0  0  0  0  0  0  0  0  0  0  0  0
    2.2905    3.9198   -0.3169 H   0  0  0  0  0  0  0  0  0  0  0  0
    0.5298    3.8319   -0.5315 H   0  0  0  0  0  0  0  0  0  0  0  0
  1  2  1  0  0  0  0
  2  3  1  0  0  0  0
  2  4  1  0  0  0  0
  2  5  1  0  0  0  0
  5  6  2  0  0  0  0
  5  7  1  0  0  0  0
  7  8  1  0  0  0  0
  7  9  1  0  0  0  0
  9 10  1  0  0  0  0
  9 11  1  0  0  0  0
  9 12  1  0  0  0  0
 12 13  2  0  0  0  0
 12 14  1  0  0  0  0
 14 15  1  0  0  0  0
 14 16  1  0  0  0  0
 16 17  1  0  0  0  0
 16 18  1  0  0  0  0
 16 19  1  0  0  0  0
M  END
$$$$

  -OEChem-01062216083D

 19 18  0     0  0  0  0  0  0999 V2000
   -2.2384   -4.0602   -0.0772 H   0  0  0  0  0  0  0  0  0  0  0  0
   -2.2868   -2.9684   -0.0363 C   0  0  0  0  0  0  0  0  0  0  0  0
   -2.7889   -2.6721    0.8879 H   0  0  0  0  0  0  0  0  0  0  0  0
   -2.8679   -2.6101   -0.8895 H   0  0  0  0  0  0  0  0  0  0  0  0
   -0.8881   -2.3806   -0.0770 C   0  0  0  0  0  0  0  0  0  0  0  0
    0.0870   -3.1159   -0.0666 O   0  0  0  0  0  0  0  0  0  0  0  0
   -0.7158   -1.0134   -0.1316 N   0  0  0  0  0  0  0  0  0  0  0  0
   -1.5427   -0.4387    0.0285 H   0  0  0  0  0  0  0  0  0  0  0  0
    0.5872   -0.3671    0.0737 C   0  0  0  0  0  0  0  0  0  0  0  0
    1.0956   -0.8085    0.9367 H   0  0  0  0  0  0  0  0  0  0  0  0
    1.2153   -0.5307   -0.8065 H   0  0  0  0  0  0  0  0  0  0  0  0
    0.4454    1.1387    0.3250 C   0  0  0  0  0  0  0  0  0  0  0  0
   -0.4974    1.5562    0.9852 O   0  0  0  0  0  0  0  0  0  0  0  0
    1.2775    2.0381   -0.3146 N   0  0  0  0  0  0  0  0  0  0  0  0
    2.0147    1.6645   -0.9054 H   0  0  0  0  0  0  0  0  0  0  0  0
    1.1227    3.4840   -0.2098 C   0  0  0  0  0  0  0  0  0  0  0  0
    1.1926    3.8024    0.8356 H   0  0  0  0  0  0  0  0  0  0  0  0
    1.9089    3.9906   -0.7779 H   0  0  0  0  0  0  0  0  0  0  0  0
    0.1518    3.7952   -0.6093 H   0  0  0  0  0  0  0  0  0  0  0  0
  1  2  1  0  0  0  0
  2  3  1  0  0  0  0
  2  4  1  0  0  0  0
  2  5  1  0  0  0  0
  5  6  2  0  0  0  0
  5  7  1  0  0  0  0
  7  8  1  0  0  0  0
  7  9  1  0  0  0  0
  9 10  1  0  0  0  0
  9 11  1  0  0  0  0
  9 12  1  0  0  0  0
 12 13  2  0  0  0  0
 12 14  1  0  0  0  0
 14 15  1  0  0  0  0
 14 16  1  0  0  0  0
 16 17  1  0  0  0  0
 16 18  1  0  0  0  0
 16 19  1  0  0  0  0
M  END
$$$$

  -OEChem-01062216083D

 19 18  0     0  0  0  0  0  0999 V2000
   -2.2264   -4.0641   -0.0774 H   0  0  0  0  0  0  0  0  0  0  0  0
   -2.2805   -2.9728   -0.0307 C   0  0  0  0  0  0  0  0  0  0  0  0
   -2.7723   -2.6836    0.9014 H   0  0  0  0  0  0  0  0  0  0  0  0
   -2.8742   -2.6140   -0.8749 H   0  0  0  0  0  0  0  0  0  0  0  0
   -0.8857   -2.3773   -0.0866 C   0  0  0  0  0  0  0  0  0  0  0  0
    0.0930   -3.1076   -0.0984 O   0  0  0  0  0  0  0  0  0  0  0  0
   -0.7220   -1.0085   -0.1349 N   0  0  0  0  0  0  0  0  0  0  0  0
   -1.5510   -0.4453    0.0495 H   0  0  0  0  0  0  0  0  0  0  0  0
    0.5797   -0.3614    0.0769 C   0  0  0  0  0  0  0  0  0  0  0  0
    1.0850   -0.8040    0.9414 H   0  0  0  0  0  0  0  0  0  0  0  0
    1.2145   -0.5205   -0.7992 H   0  0  0  0  0  0  0  0  0  0  0  0
    0.4299    1.1411    0.3350 C   0  0  0  0  0  0  0  0  0  0  0  0
   -0.3554    1.5302    1.1886 O   0  0  0  0  0  0  0  0  0  0  0  0
    1.0289    2.0600   -0.5060 N   0  0  0  0  0  0  0  0  0  0  0  0
    1.6170    1.7041   -1.2540 H   0  0  0  0  0  0  0  0  0  0  0  0
    0.8166    3.4984   -0.3992 C   0  0  0  0  0  0  0  0  0  0  0  0
    1.1151    3.8577    0.5912 H   0  0  0  0  0  0  0  0  0  0  0  0
    1.4119    4.0252   -1.1513 H   0  0  0  0  0  0  0  0  0  0  0  0
   -0.2387    3.7428   -0.5595 H   0  0  0  0  0  0  0  0  0  0  0  0
  1  2  1  0  0  0  0
  2  3  1  0  0  0  0
  2  4  1  0  0  0  0
  2  5  1  0  0  0  0
  5  6  2  0  0  0  0
  5  7  1  0  0  0  0
  7  8  1  0  0  0  0
  7  9  1  0  0  0  0
  9 10  1  0  0  0  0
  9 11  1  0  0  0  0
  9 12  1  0  0  0  0
 12 13  2  0  0  0  0
 12 14  1  0  0  0  0
 14 15  1  0  0  0  0
 14 16  1  0  0  0  0
 16 17  1  0  0  0  0
 16 18  1  0  0  0  0
 16 19  1  0  0  0  0
M  END
$$$$

  -OEChem-01062216083D

 19 18  0     0  0  0  0  0  0999 V2000
   -2.2043   -4.0829   -0.0499 H   0  0  0  0  0  0  0  0  0  0  0  0
   -2.2709   -2.9917   -0.0234 C   0  0  0  0  0  0  0  0  0  0  0  0
   -2.7643   -2.6913    0.9042 H   0  0  0  0  0  0  0  0  0  0  0  0
   -2.8701   -2.6552   -0.8728 H   0  0  0  0  0  0  0  0  0  0  0  0
   -0.8834   -2.3810   -0.0922 C   0  0  0  0  0  0  0  0  0  0  0  0
    0.1027   -3.1006   -0.1160 O   0  0  0  0  0  0  0  0  0  0  0  0
   -0.7364   -1.0098   -0.1374 N   0  0  0  0  0  0  0  0  0  0  0  0
   -1.5724   -0.4603    0.0530 H   0  0  0  0  0  0  0  0  0  0  0  0
    0.5603   -0.3527    0.0774 C   0  0  0  0  0  0  0  0  0  0  0  0
    1.0670   -0.7949    0.9415 H   0  0  0  0  0  0  0  0  0  0  0  0
    1.2006   -0.5043   -0.7962 H   0  0  0  0  0  0  0  0  0  0  0  0
    0.4026    1.1476    0.3401 C   0  0  0  0  0  0  0  0  0  0  0  0
   -0.1562    1.5258    1.3596 O   0  0  0  0  0  0  0  0  0  0  0  0
    0.7207    2.0673   -0.6415 N   0  0  0  0  0  0  0  0  0  0  0  0
    1.1156    1.7149   -1.5087 H   0  0  0  0  0  0  0  0  0  0  0  0
    0.4886    3.5001   -0.5018 C   0  0  0  0  0  0  0  0  0  0  0  0
    1.0090    3.8896    0.3796 H   0  0  0  0  0  0  0  0  0  0  0  0
    0.8604    4.0312   -1.3833 H   0  0  0  0  0  0  0  0  0  0  0  0
   -0.5818    3.7067   -0.3987 H   0  0  0  0  0  0  0  0  0  0  0  0
  1  2  1  0  0  0  0
  2  3  1  0  0  0  0
  2  4  1  0  0  0  0
  2  5  1  0  0  0  0
  5  6  2  0  0  0  0
  5  7  1  0  0  0  0
  7  8  1  0  0  0  0
  7  9  1  0  0  0  0
  9 10  1  0  0  0  0
  9 11  1  0  0  0  0
  9 12  1  0  0  0  0
 12 13  2  0  0  0  0
 12 14  1  0  0  0  0
 14 15  1  0  0  0  0
 14 16  1  0  0  0  0
 16 17  1  0  0  0  0
 16 18  1  0  0  0  0
 16 19  1  0  0  0  0
M  END
$$$$

  -OEChem-01062216083D

 19 18  0     0  0  0  0  0  0999 V2000
   -2.1773   -4.1086   -0.0597 H   0  0  0  0  0  0  0  0  0  0  0  0
   -2.2610   -3.0184   -0.0320 C   0  0  0  0  0  0  0  0  0  0  0  0
   -2.7679   -2.7275    0.8914 H   0  0  0  0  0  0  0  0  0  0  0  0
   -2.8568   -2.6898   -0.8869 H   0  0  0  0  0  0  0  0  0  0  0  0
   -0.8819   -2.3871   -0.0865 C   0  0  0  0  0  0  0  0  0  0  0  0
    0.1138   -3.0930   -0.1085 O   0  0  0  0  0  0  0  0  0  0  0  0
   -0.7534   -1.0134   -0.1274 N   0  0  0  0  0  0  0  0  0  0  0  0
   -1.5992   -0.4767    0.0532 H   0  0  0  0  0  0  0  0  0  0  0  0
    0.5361   -0.3420    0.0920 C   0  0  0  0  0  0  0  0  0  0  0  0
    1.0451   -0.7836    0.9555 H   0  0  0  0  0  0  0  0  0  0  0  0
    1.1821   -0.4820   -0.7793 H   0  0  0  0  0  0  0  0  0  0  0  0
    0.3655    1.1551    0.3596 C   0  0  0  0  0  0  0  0  0  0  0  0
    0.0978    1.5467    1.4855 O   0  0  0  0  0  0  0  0  0  0  0  0
    0.3744    2.0527   -0.6911 N   0  0  0  0  0  0  0  0  0  0  0  0
    0.5532    1.6872   -1.6221 H   0  0  0  0  0  0  0  0  0  0  0  0
    0.1541    3.4840   -0.5230 C   0  0  0  0  0  0  0  0  0  0  0  0
    0.9015    3.9100    0.1546 H   0  0  0  0  0  0  0  0  0  0  0  0
    0.2327    3.9943   -1.4877 H   0  0  0  0  0  0  0  0  0  0  0  0
   -0.8429    3.6732   -0.1115 H   0  0  0  0  0  0  0  0  0  0  0  0
  1  2  1  0  0  0  0
  2  3  1  0  0  0  0
  2  4  1  0  0  0  0
  2  5  1  0  0  0  0
  5  6  2  0  0  0  0
  5  7  1  0  0  0  0
  7  8  1  0  0  0  0
  7  9  1  0  0  0  0
  9 10  1  0  0  0  0
  9 11  1  0  0  0  0
  9 12  1  0  0  0  0
 12 13  2  0  0  0  0
 12 14  1  0  0  0  0
 14 15  1  0  0  0  0
 14 16  1  0  0  0  0
 16 17  1  0  0  0  0
 16 18  1  0  0  0  0
 16 19  1  0  0  0  0
M  END
$$$$

  -OEChem-01062216083D

 19 18  0     0  0  0  0  0  0999 V2000
   -2.1657   -4.1226   -0.1231 H   0  0  0  0  0  0  0  0  0  0  0  0
   -2.2542   -3.0359   -0.0369 C   0  0  0  0  0  0  0  0  0  0  0  0
   -2.7455   -2.7970    0.9094 H   0  0  0  0  0  0  0  0  0  0  0  0
   -2.8678   -2.6671   -0.8623 H   0  0  0  0  0  0  0  0  0  0  0  0
   -0.8796   -2.3945   -0.0834 C   0  0  0  0  0  0  0  0  0  0  0  0
    0.1206   -3.0934   -0.1066 O   0  0  0  0  0  0  0  0  0  0  0  0
   -0.7610   -1.0194   -0.1140 N   0  0  0  0  0  0  0  0  0  0  0  0
   -1.6139   -0.4903    0.0524 H   0  0  0  0  0  0  0  0  0  0  0  0
    0.5229   -0.3379    0.1133 C   0  0  0  0  0  0  0  0  0  0  0  0
    1.0354   -0.7836    0.9727 H   0  0  0  0  0  0  0  0  0  0  0  0
    1.1713   -0.4625   -0.7587 H   0  0  0  0  0  0  0  0  0  0  0  0
    0.3405    1.1561    0.3911 C   0  0  0  0  0  0  0  0  0  0  0  0
    0.3756    1.5792    1.5364 O   0  0  0  0  0  0  0  0  0  0  0  0
    0.0351    2.0159   -0.6468 N   0  0  0  0  0  0  0  0  0  0  0  0
    0.0105    1.6290   -1.5861 H   0  0  0  0  0  0  0  0  0  0  0  0
   -0.1847    3.4453   -0.4629 C   0  0  0  0  0  0  0  0  0  0  0  0
    0.7057    3.9182   -0.0354 H   0  0  0  0  0  0  0  0  0  0  0  0
   -0.4010    3.9212   -1.4241 H   0  0  0  0  0  0  0  0  0  0  0  0
   -1.0327    3.6199    0.2076 H   0  0  0  0  0  0  0  0  0  0  0  0
  1  2  1  0  0  0  0
  2  3  1  0  0  0  0
  2  4  1  0  0  0  0
  2  5  1  0  0  0  0
  5  6  2  0  0  0  0
  5  7  1  0  0  0  0
  7  8  1  0  0  0  0
  7  9  1  0  0  0  0
  9 10  1  0  0  0  0
  9 11  1  0  0  0  0
  9 12  1  0  0  0  0
 12 13  2  0  0  0  0
 12 14  1  0  0  0  0
 14 15  1  0  0  0  0
 14 16  1  0  0  0  0
 16 17  1  0  0  0  0
 16 18  1  0  0  0  0
 16 19  1  0  0  0  0
M  END
$$$$

  -OEChem-01062216083D

 19 18  0     0  0  0  0  0  0999 V2000
   -2.1439   -4.1462   -0.1712 H   0  0  0  0  0  0  0  0  0  0  0  0
   -2.2433   -3.0635   -0.0524 C   0  0  0  0  0  0  0  0  0  0  0  0
   -2.7363   -2.8577    0.9008 H   0  0  0  0  0  0  0  0  0  0  0  0
   -2.8610   -2.6767   -0.8664 H   0  0  0  0  0  0  0  0  0  0  0  0
   -0.8754   -2.4068   -0.0795 C   0  0  0  0  0  0  0  0  0  0  0  0
    0.1320   -3.0950   -0.0982 O   0  0  0  0  0  0  0  0  0  0  0  0
   -0.7720   -1.0300   -0.0946 N   0  0  0  0  0  0  0  0  0  0  0  0
   -1.6324   -0.5117    0.0666 H   0  0  0  0  0  0  0  0  0  0  0  0
    0.5049   -0.3353    0.1391 C   0  0  0  0  0  0  0  0  0  0  0  0
    1.0245   -0.7876    0.9912 H   0  0  0  0  0  0  0  0  0  0  0  0
    1.1511   -0.4401   -0.7373 H   0  0  0  0  0  0  0  0  0  0  0  0
    0.3107    1.1545    0.4346 C   0  0  0  0  0  0  0  0  0  0  0  0
    0.6494    1.6222    1.5106 O   0  0  0  0  0  0  0  0  0  0  0  0
   -0.2989    1.9661   -0.5039 N   0  0  0  0  0  0  0  0  0  0  0  0
   -0.5081    1.5559   -1.4096 H   0  0  0  0  0  0  0  0  0  0  0  0
   -0.4850    3.4003   -0.3171 C   0  0  0  0  0  0  0  0  0  0  0  0
    0.4829    3.9023   -0.2146 H   0  0  0  0  0  0  0  0  0  0  0  0
   -1.0083    3.8293   -1.1770 H   0  0  0  0  0  0  0  0  0  0  0  0
   -1.0798    3.5966    0.5812 H   0  0  0  0  0  0  0  0  0  0  0  0
  1  2  1  0  0  0  0
  2  3  1  0  0  0  0
  2  4  1  0  0  0  0
  2  5  1  0  0  0  0
  5  6  2  0  0  0  0
  5  7  1  0  0  0  0
  7  8  1  0  0  0  0
  7  9  1  0  0  0  0
  9 10  1  0  0  0  0
  9 11  1  0  0  0  0
  9 12  1  0  0  0  0
 12 13  2  0  0  0  0
 12 14  1  0  0  0  0
 14 15  1  0  0  0  0
 14 16  1  0  0  0  0
 16 17  1  0  0  0  0
 16 18  1  0  0  0  0
 16 19  1  0  0  0  0
M  END
$$$$

  -OEChem-01062216083D

 19 18  0     0  0  0  0  0  0999 V2000
   -2.1317   -4.1622   -0.1059 H   0  0  0  0  0  0  0  0  0  0  0  0
   -2.2387   -3.0747   -0.0610 C   0  0  0  0  0  0  0  0  0  0  0  0
   -2.7625   -2.8111    0.8612 H   0  0  0  0  0  0  0  0  0  0  0  0
   -2.8317   -2.7447   -0.9173 H   0  0  0  0  0  0  0  0  0  0  0  0
   -0.8726   -2.4143   -0.0896 C   0  0  0  0  0  0  0  0  0  0  0  0
    0.1361   -3.0994   -0.1253 O   0  0  0  0  0  0  0  0  0  0  0  0
   -0.7737   -1.0369   -0.0858 N   0  0  0  0  0  0  0  0  0  0  0  0
   -1.6339   -0.5266    0.0982 H   0  0  0  0  0  0  0  0  0  0  0  0
    0.5042   -0.3416    0.1484 C   0  0  0  0  0  0  0  0  0  0  0  0
    1.0328   -0.8062    0.9879 H   0  0  0  0  0  0  0  0  0  0  0  0
    1.1413   -0.4305   -0.7364 H   0  0  0  0  0  0  0  0  0  0  0  0
    0.3158    1.1445    0.4675 C   0  0  0  0  0  0  0  0  0  0  0  0
    0.9010    1.6535    1.4107 O   0  0  0  0  0  0  0  0  0  0  0  0
   -0.5575    1.9054   -0.2884 N   0  0  0  0  0  0  0  0  0  0  0  0
   -0.9289    1.4800   -1.1329 H   0  0  0  0  0  0  0  0  0  0  0  0
   -0.7511    3.3349   -0.0764 C   0  0  0  0  0  0  0  0  0  0  0  0
    0.1833    3.8784   -0.2519 H   0  0  0  0  0  0  0  0  0  0  0  0
   -1.5112    3.7197   -0.7632 H   0  0  0  0  0  0  0  0  0  0  0  0
   -1.0842    3.5292    0.9487 H   0  0  0  0  0  0  0  0  0  0  0  0
  1  2  1  0  0  0  0
  2  3  1  0  0  0  0
  2  4  1  0  0  0  0
  2  5  1  0  0  0  0
  5  6  2  0  0  0  0
  5  7  1  0  0  0  0
  7  8  1  0  0  0  0
  7  9  1  0  0  0  0
  9 10  1  0  0  0  0
  9 11  1  0  0  0  0
  9 12  1  0  0  0  0
 12 13  2  0  0  0  0
 12 14  1  0  0  0  0
 14 15  1  0  0  0  0
 14 16  1  0  0  0  0
 16 17  1  0  0  0  0
 16 18  1  0  0  0  0
 16 19  1  0  0  0  0
M  END
$$$$

  -OEChem-01062216083D

 19 18  0     0  0  0  0  0  0999 V2000
   -2.1144   -4.1835   -0.1377 H   0  0  0  0  0  0  0  0  0  0  0  0
   -2.2297   -3.0980   -0.0678 C   0  0  0  0  0  0  0  0  0  0  0  0
   -2.7396   -2.8586    0.8686 H   0  0  0  0  0  0  0  0  0  0  0  0
   -2.8404   -2.7554   -0.9066 H   0  0  0  0  0  0  0  0  0  0  0  0
   -0.8697   -2.4252   -0.1051 C   0  0  0  0  0  0  0  0  0  0  0  0
    0.1438   -3.1021   -0.1530 O   0  0  0  0  0  0  0  0  0  0  0  0
   -0.7824   -1.0467   -0.0860 N   0  0  0  0  0  0  0  0  0  0  0  0
   -1.6434   -0.5515    0.1304 H   0  0  0  0  0  0  0  0  0  0  0  0
    0.4937   -0.3496    0.1589 C   0  0  0  0  0  0  0  0  0  0  0  0
    1.0223   -0.8255    0.9921 H   0  0  0  0  0  0  0  0  0  0  0  0
    1.1296   -0.4285   -0.7278 H   0  0  0  0  0  0  0  0  0  0  0  0
    0.3193    1.1352    0.4971 C   0  0  0  0  0  0  0  0  0  0  0  0
    1.0967    1.6835    1.2627 O   0  0  0  0  0  0  0  0  0  0  0  0
   -0.7484    1.8485   -0.0189 N   0  0  0  0  0  0  0  0  0  0  0  0
   -1.2661    1.4131   -0.7760 H   0  0  0  0  0  0  0  0  0  0  0  0
   -0.9325    3.2750    0.2223 C   0  0  0  0  0  0  0  0  0  0  0  0
   -0.0916    3.8449   -0.1869 H   0  0  0  0  0  0  0  0  0  0  0  0
   -1.8534    3.6236   -0.2548 H   0  0  0  0  0  0  0  0  0  0  0  0
   -1.0045    3.4760    1.2966 H   0  0  0  0  0  0  0  0  0  0  0  0
  1  2  1  0  0  0  0
  2  3  1  0  0  0  0
  2  4  1  0  0  0  0
  2  5  1  0  0  0  0
  5  6  2  0  0  0  0
  5  7  1  0  0  0  0
  7  8  1  0  0  0  0
  7  9  1  0  0  0  0
  9 10  1  0  0  0  0
  9 11  1  0  0  0  0
  9 12  1  0  0  0  0
 12 13  2  0  0  0  0
 12 14  1  0  0  0  0
 14 15  1  0  0  0  0
 14 16  1  0  0  0  0
 16 17  1  0  0  0  0
 16 18  1  0  0  0  0
 16 19  1  0  0  0  0
M  END
$$$$

  -OEChem-01062216083D

 19 18  0     0  0  0  0  0  0999 V2000
   -2.1018   -4.2046   -0.1926 H   0  0  0  0  0  0  0  0  0  0  0  0
   -2.2241   -3.1226   -0.0878 C   0  0  0  0  0  0  0  0  0  0  0  0
   -2.7279   -2.9157    0.8595 H   0  0  0  0  0  0  0  0  0  0  0  0
   -2.8438   -2.7589   -0.9109 H   0  0  0  0  0  0  0  0  0  0  0  0
   -0.8687   -2.4399   -0.1151 C   0  0  0  0  0  0  0  0  0  0  0  0
    0.1492   -3.1101   -0.1640 O   0  0  0  0  0  0  0  0  0  0  0  0
   -0.7910   -1.0608   -0.0843 N   0  0  0  0  0  0  0  0  0  0  0  0
   -1.6540   -0.5791    0.1488 H   0  0  0  0  0  0  0  0  0  0  0  0
    0.4836   -0.3601    0.1657 C   0  0  0  0  0  0  0  0  0  0  0  0
    1.0134   -0.8455    0.9924 H   0  0  0  0  0  0  0  0  0  0  0  0
    1.1168   -0.4335   -0.7236 H   0  0  0  0  0  0  0  0  0  0  0  0
    0.3314    1.1250    0.5201 C   0  0  0  0  0  0  0  0  0  0  0  0
    1.2545    1.7113    1.0633 O   0  0  0  0  0  0  0  0  0  0  0  0
   -0.8582    1.7965    0.2928 N   0  0  0  0  0  0  0  0  0  0  0  0
   -1.5204    1.3519   -0.3337 H   0  0  0  0  0  0  0  0  0  0  0  0
   -1.0207    3.2189    0.5730 C   0  0  0  0  0  0  0  0  0  0  0  0
   -0.3422    3.8124   -0.0488 H   0  0  0  0  0  0  0  0  0  0  0  0
   -2.0480    3.5308    0.3618 H   0  0  0  0  0  0  0  0  0  0  0  0
   -0.8079    3.4301    1.6266 H   0  0  0  0  0  0  0  0  0  0  0  0
  1  2  1  0  0  0  0
  2  3  1  0  0  0  0
  2  4  1  0  0  0  0
  2  5  1  0  0  0  0
  5  6  2  0  0  0  0
  5  7  1  0  0  0  0
  7  8  1  0  0  0  0
  7  9  1  0  0  0  0
  9 10  1  0  0  0  0
  9 11  1  0  0  0  0
  9 12  1  0  0  0  0
 12 13  2  0  0  0  0
 12 14  1  0  0  0  0
 14 15  1  0  0  0  0
 14 16  1  0  0  0  0
 16 17  1  0  0  0  0
 16 18  1  0  0  0  0
 16 19  1  0  0  0  0
M  END
$$$$

  -OEChem-01062216083D

 19 18  0     0  0  0  0  0  0999 V2000
   -2.0295   -4.2557    0.0530 H   0  0  0  0  0  0  0  0  0  0  0  0
   -2.1897   -3.1745    0.0070 C   0  0  0  0  0  0  0  0  0  0  0  0
   -2.8205   -2.8777    0.8485 H   0  0  0  0  0  0  0  0  0  0  0  0
   -2.7021   -2.9352   -0.9280 H   0  0  0  0  0  0  0  0  0  0  0  0
   -0.8592   -2.4468    0.0727 C   0  0  0  0  0  0  0  0  0  0  0  0
    0.1784   -3.0845    0.1345 O   0  0  0  0  0  0  0  0  0  0  0  0
   -0.8298   -1.0651    0.0547 N   0  0  0  0  0  0  0  0  0  0  0  0
   -1.7020   -0.6079   -0.1952 H   0  0  0  0  0  0  0  0  0  0  0  0
    0.4239   -0.3048   -0.1173 C   0  0  0  0  0  0  0  0  0  0  0  0
    1.2064   -0.7381    0.5146 H   0  0  0  0  0  0  0  0  0  0  0  0
    0.7566   -0.3815   -1.1570 H   0  0  0  0  0  0  0  0  0  0  0  0
    0.3208    1.1820    0.2470 C   0  0  0  0  0  0  0  0  0  0  0  0
    1.2793    1.9132    0.0529 O   0  0  0  0  0  0  0  0  0  0  0  0
   -0.8679    1.7289    0.6990 N   0  0  0  0  0  0  0  0  0  0  0  0
   -1.5753    1.0757    1.0177 H   0  0  0  0  0  0  0  0  0  0  0  0
   -0.9899    3.1293    1.0883 C   0  0  0  0  0  0  0  0  0  0  0  0
   -0.3350    3.3491    1.9381 H   0  0  0  0  0  0  0  0  0  0  0  0
   -0.7165    3.7851    0.2548 H   0  0  0  0  0  0  0  0  0  0  0  0
   -2.0213    3.3540    1.3766 H   0  0  0  0  0  0  0  0  0  0  0  0
  1  2  1  0  0  0  0
  2  3  1  0  0  0  0
  2  4  1  0  0  0  0
  2  5  1  0  0  0  0
  5  6  2  0  0  0  0
  5  7  1  0  0  0  0
  7  8  1  0  0  0  0
  7  9  1  0  0  0  0
  9 10  1  0  0  0  0
  9 11  1  0  0  0  0
  9 12  1  0  0  0  0
 12 13  2  0  0  0  0
 12 14  1  0  0  0  0
 14 15  1  0  0  0  0
 14 16  1  0  0  0  0
 16 17  1  0  0  0  0
 16 18  1  0  0  0  0
 16 19  1  0  0  0  0
M  END
$$$$

  -OEChem-01062216083D

 19 18  0     0  0  0  0  0  0999 V2000
   -2.0363   -4.2421    0.0547 H   0  0  0  0  0  0  0  0  0  0  0  0
   -2.1934   -3.1613   -0.0068 C   0  0  0  0  0  0  0  0  0  0  0  0
   -2.8307   -2.8521    0.8253 H   0  0  0  0  0  0  0  0  0  0  0  0
   -2.6974   -2.9329   -0.9490 H   0  0  0  0  0  0  0  0  0  0  0  0
   -0.8613   -2.4364    0.0589 C   0  0  0  0  0  0  0  0  0  0  0  0
    0.1760   -3.0756    0.1093 O   0  0  0  0  0  0  0  0  0  0  0  0
   -0.8277   -1.0551    0.0548 N   0  0  0  0  0  0  0  0  0  0  0  0
   -1.7032   -0.5864   -0.1638 H   0  0  0  0  0  0  0  0  0  0  0  0
    0.4241   -0.2929   -0.1190 C   0  0  0  0  0  0  0  0  0  0  0  0
    1.2135   -0.7292    0.5017 H   0  0  0  0  0  0  0  0  0  0  0  0
    0.7482   -0.3551   -1.1625 H   0  0  0  0  0  0  0  0  0  0  0  0
    0.3070    1.1867    0.2657 C   0  0  0  0  0  0  0  0  0  0  0  0
    1.1363    1.9849   -0.1418 O   0  0  0  0  0  0  0  0  0  0  0  0
   -0.7687    1.6396    1.0086 N   0  0  0  0  0  0  0  0  0  0  0  0
   -1.3355    0.9303    1.4629 H   0  0  0  0  0  0  0  0  0  0  0  0
   -0.8980    3.0247    1.4460 C   0  0  0  0  0  0  0  0  0  0  0  0
   -0.0758    3.2927    2.1178 H   0  0  0  0  0  0  0  0  0  0  0  0
   -0.8842    3.7017    0.5852 H   0  0  0  0  0  0  0  0  0  0  0  0
   -1.8431    3.1668    1.9788 H   0  0  0  0  0  0  0  0  0  0  0  0
  1  2  1  0  0  0  0
  2  3  1  0  0  0  0
  2  4  1  0  0  0  0
  2  5  1  0  0  0  0
  5  6  2  0  0  0  0
  5  7  1  0  0  0  0
  7  8  1  0  0  0  0
  7  9  1  0  0  0  0
  9 10  1  0  0  0  0
  9 11  1  0  0  0  0
  9 12  1  0  0  0  0
 12 13  2  0  0  0  0
 12 14  1  0  0  0  0
 14 15  1  0  0  0  0
 14 16  1  0  0  0  0
 16 17  1  0  0  0  0
 16 18  1  0  0  0  0
 16 19  1  0  0  0  0
M  END
$$$$

  -OEChem-01062216083D

 19 18  0     0  0  0  0  0  0999 V2000
   -2.0604   -4.2183    0.0238 H   0  0  0  0  0  0  0  0  0  0  0  0
   -2.2059   -3.1347   -0.0082 C   0  0  0  0  0  0  0  0  0  0  0  0
   -2.8191   -2.8376    0.8460 H   0  0  0  0  0  0  0  0  0  0  0  0
   -2.7297   -2.8778   -0.9321 H   0  0  0  0  0  0  0  0  0  0  0  0
   -0.8646   -2.4260    0.0424 C   0  0  0  0  0  0  0  0  0  0  0  0
    0.1671   -3.0757    0.0741 O   0  0  0  0  0  0  0  0  0  0  0  0
   -0.8162   -1.0457    0.0536 N   0  0  0  0  0  0  0  0  0  0  0  0
   -1.6932   -0.5592   -0.1166 H   0  0  0  0  0  0  0  0  0  0  0  0
    0.4380   -0.2880   -0.1112 C   0  0  0  0  0  0  0  0  0  0  0  0
    1.2268   -0.7327    0.5041 H   0  0  0  0  0  0  0  0  0  0  0  0
    0.7627   -0.3365   -1.1555 H   0  0  0  0  0  0  0  0  0  0  0  0
    0.3088    1.1836    0.2955 C   0  0  0  0  0  0  0  0  0  0  0  0
    0.9579    2.0378   -0.2878 O   0  0  0  0  0  0  0  0  0  0  0  0
   -0.5847    1.5579    1.2825 N   0  0  0  0  0  0  0  0  0  0  0  0
   -1.0073    0.8097    1.8242 H   0  0  0  0  0  0  0  0  0  0  0  0
   -0.7228    2.9322    1.7498 C   0  0  0  0  0  0  0  0  0  0  0  0
    0.2195    3.2871    2.1804 H   0  0  0  0  0  0  0  0  0  0  0  0
   -1.0022    3.5924    0.9218 H   0  0  0  0  0  0  0  0  0  0  0  0
   -1.5006    2.9949    2.5170 H   0  0  0  0  0  0  0  0  0  0  0  0
  1  2  1  0  0  0  0
  2  3  1  0  0  0  0
  2  4  1  0  0  0  0
  2  5  1  0  0  0  0
  5  6  2  0  0  0  0
  5  7  1  0  0  0  0
  7  8  1  0  0  0  0
  7  9  1  0  0  0  0
  9 10  1  0  0  0  0
  9 11  1  0  0  0  0
  9 12  1  0  0  0  0
 12 13  2  0  0  0  0
 12 14  1  0  0  0  0
 14 15  1  0  0  0  0
 14 16  1  0  0  0  0
 16 17  1  0  0  0  0
 16 18  1  0  0  0  0
 16 19  1  0  0  0  0
M  END
$$$$

  -OEChem-01062216083D

 19 18  0     0  0  0  0  0  0999 V2000
   -2.0785   -4.1980    0.0714 H   0  0  0  0  0  0  0  0  0  0  0  0
   -2.2150   -3.1153   -0.0021 C   0  0  0  0  0  0  0  0  0  0  0  0
   -2.8283   -2.7815    0.8384 H   0  0  0  0  0  0  0  0  0  0  0  0
   -2.7342   -2.8889   -0.9365 H   0  0  0  0  0  0  0  0  0  0  0  0
   -0.8684   -2.4158    0.0257 C   0  0  0  0  0  0  0  0  0  0  0  0
    0.1599   -3.0719    0.0315 O   0  0  0  0  0  0  0  0  0  0  0  0
   -0.8095   -1.0364    0.0530 N   0  0  0  0  0  0  0  0  0  0  0  0
   -1.6868   -0.5376   -0.0756 H   0  0  0  0  0  0  0  0  0  0  0  0
    0.4465   -0.2824   -0.1045 C   0  0  0  0  0  0  0  0  0  0  0  0
    1.2365   -0.7362    0.5022 H   0  0  0  0  0  0  0  0  0  0  0  0
    0.7691   -0.3170   -1.1501 H   0  0  0  0  0  0  0  0  0  0  0  0
    0.3108    1.1818    0.3230 C   0  0  0  0  0  0  0  0  0  0  0  0
    0.7378    2.0736   -0.3939 O   0  0  0  0  0  0  0  0  0  0  0  0
   -0.3382    1.5005    1.5012 N   0  0  0  0  0  0  0  0  0  0  0  0
   -0.6068    0.7281    2.1044 H   0  0  0  0  0  0  0  0  0  0  0  0
   -0.4653    2.8655    1.9975 C   0  0  0  0  0  0  0  0  0  0  0  0
    0.5230    3.2953    2.1920 H   0  0  0  0  0  0  0  0  0  0  0  0
   -0.9844    3.4932    1.2655 H   0  0  0  0  0  0  0  0  0  0  0  0
   -1.0386    2.8781    2.9294 H   0  0  0  0  0  0  0  0  0  0  0  0
  1  2  1  0  0  0  0
  2  3  1  0  0  0  0
  2  4  1  0  0  0  0
  2  5  1  0  0  0  0
  5  6  2  0  0  0  0
  5  7  1  0  0  0  0
  7  8  1  0  0  0  0
  7  9  1  0  0  0  0
  9 10  1  0  0  0  0
  9 11  1  0  0  0  0
  9 12  1  0  0  0  0
 12 13  2  0  0  0  0
 12 14  1  0  0  0  0
 14 15  1  0  0  0  0
 14 16  1  0  0  0  0
 16 17  1  0  0  0  0
 16 18  1  0  0  0  0
 16 19  1  0  0  0  0
M  END
$$$$

  -OEChem-01062216083D

 19 18  0     0  0  0  0  0  0999 V2000
   -2.0950   -4.1831    0.0069 H   0  0  0  0  0  0  0  0  0  0  0  0
   -2.2258   -3.0972   -0.0093 C   0  0  0  0  0  0  0  0  0  0  0  0
   -2.8256   -2.8027    0.8553 H   0  0  0  0  0  0  0  0  0  0  0  0
   -2.7559   -2.8208   -0.9240 H   0  0  0  0  0  0  0  0  0  0  0  0
   -0.8745   -2.4075    0.0353 C   0  0  0  0  0  0  0  0  0  0  0  0
    0.1495   -3.0708    0.0422 O   0  0  0  0  0  0  0  0  0  0  0  0
   -0.8052   -1.0291    0.0736 N   0  0  0  0  0  0  0  0  0  0  0  0
   -1.6787   -0.5220   -0.0494 H   0  0  0  0  0  0  0  0  0  0  0  0
    0.4549   -0.2846   -0.0872 C   0  0  0  0  0  0  0  0  0  0  0  0
    1.2483   -0.7498    0.5061 H   0  0  0  0  0  0  0  0  0  0  0  0
    0.7676   -0.3104   -1.1360 H   0  0  0  0  0  0  0  0  0  0  0  0
    0.3268    1.1751    0.3551 C   0  0  0  0  0  0  0  0  0  0  0  0
    0.4812    2.0785   -0.4524 O   0  0  0  0  0  0  0  0  0  0  0  0
   -0.0244    1.4713    1.6583 N   0  0  0  0  0  0  0  0  0  0  0  0
   -0.1113    0.6927    2.3058 H   0  0  0  0  0  0  0  0  0  0  0  0
   -0.1530    2.8331    2.1623 C   0  0  0  0  0  0  0  0  0  0  0  0
    0.8029    3.3617    2.0842 H   0  0  0  0  0  0  0  0  0  0  0  0
   -0.9082    3.3842    1.5918 H   0  0  0  0  0  0  0  0  0  0  0  0
   -0.4568    2.8200    3.2133 H   0  0  0  0  0  0  0  0  0  0  0  0
  1  2  1  0  0  0  0
  2  3  1  0  0  0  0
  2  4  1  0  0  0  0
  2  5  1  0  0  0  0
  5  6  2  0  0  0  0
  5  7  1  0  0  0  0
  7  8  1  0  0  0  0
  7  9  1  0  0  0  0
  9 10  1  0  0  0  0
  9 11  1  0  0  0  0
  9 12  1  0  0  0  0
 12 13  2  0  0  0  0
 12 14  1  0  0  0  0
 14 15  1  0  0  0  0
 14 16  1  0  0  0  0
 16 17  1  0  0  0  0
 16 18  1  0  0  0  0
 16 19  1  0  0  0  0
M  END
$$$$

  -OEChem-01062216083D

 19 18  0     0  0  0  0  0  0999 V2000
   -2.1254   -4.1528    0.0379 H   0  0  0  0  0  0  0  0  0  0  0  0
   -2.2388   -3.0656    0.0030 C   0  0  0  0  0  0  0  0  0  0  0  0
   -2.8329   -2.7468    0.8628 H   0  0  0  0  0  0  0  0  0  0  0  0
   -2.7656   -2.7962   -0.9157 H   0  0  0  0  0  0  0  0  0  0  0  0
   -0.8768   -2.3964    0.0346 C   0  0  0  0  0  0  0  0  0  0  0  0
    0.1380   -3.0744    0.0269 O   0  0  0  0  0  0  0  0  0  0  0  0
   -0.7863   -1.0199    0.0822 N   0  0  0  0  0  0  0  0  0  0  0  0
   -1.6528   -0.4974   -0.0280 H   0  0  0  0  0  0  0  0  0  0  0  0
    0.4814   -0.2912   -0.0800 C   0  0  0  0  0  0  0  0  0  0  0  0
    1.2743   -0.7716    0.5018 H   0  0  0  0  0  0  0  0  0  0  0  0
    0.7869   -0.3083   -1.1311 H   0  0  0  0  0  0  0  0  0  0  0  0
    0.3662    1.1648    0.3760 C   0  0  0  0  0  0  0  0  0  0  0  0
    0.2191    2.0550   -0.4480 O   0  0  0  0  0  0  0  0  0  0  0  0
    0.3323    1.4635    1.7246 N   0  0  0  0  0  0  0  0  0  0  0  0
    0.4266    0.6909    2.3782 H   0  0  0  0  0  0  0  0  0  0  0  0
    0.1731    2.8166    2.2426 C   0  0  0  0  0  0  0  0  0  0  0  0
    0.9908    3.4582    1.8977 H   0  0  0  0  0  0  0  0  0  0  0  0
   -0.7769    3.2461    1.9079 H   0  0  0  0  0  0  0  0  0  0  0  0
    0.1810    2.8059    3.3367 H   0  0  0  0  0  0  0  0  0  0  0  0
  1  2  1  0  0  0  0
  2  3  1  0  0  0  0
  2  4  1  0  0  0  0
  2  5  1  0  0  0  0
  5  6  2  0  0  0  0
  5  7  1  0  0  0  0
  7  8  1  0  0  0  0
  7  9  1  0  0  0  0
  9 10  1  0  0  0  0
  9 11  1  0  0  0  0
  9 12  1  0  0  0  0
 12 13  2  0  0  0  0
 12 14  1  0  0  0  0
 14 15  1  0  0  0  0
 14 16  1  0  0  0  0
 16 17  1  0  0  0  0
 16 18  1  0  0  0  0
 16 19  1  0  0  0  0
M  END
$$$$

  -OEChem-01062216083D

 19 18  0     0  0  0  0  0  0999 V2000
   -2.1499   -4.1295    0.0099 H   0  0  0  0  0  0  0  0  0  0  0  0
   -2.2498   -3.0404    0.0152 C   0  0  0  0  0  0  0  0  0  0  0  0
   -2.8170   -2.7434    0.9007 H   0  0  0  0  0  0  0  0  0  0  0  0
   -2.7967   -2.7331   -0.8795 H   0  0  0  0  0  0  0  0  0  0  0  0
   -0.8787   -2.3899    0.0341 C   0  0  0  0  0  0  0  0  0  0  0  0
    0.1271   -3.0813    0.0116 O   0  0  0  0  0  0  0  0  0  0  0  0
   -0.7684   -1.0153    0.0857 N   0  0  0  0  0  0  0  0  0  0  0  0
   -1.6276   -0.4767   -0.0054 H   0  0  0  0  0  0  0  0  0  0  0  0
    0.5070   -0.3019   -0.0741 C   0  0  0  0  0  0  0  0  0  0  0  0
    1.2944   -0.7963    0.5032 H   0  0  0  0  0  0  0  0  0  0  0  0
    0.8104   -0.3156   -1.1257 H   0  0  0  0  0  0  0  0  0  0  0  0
    0.4052    1.1534    0.3875 C   0  0  0  0  0  0  0  0  0  0  0  0
   -0.0347    2.0007   -0.3756 O   0  0  0  0  0  0  0  0  0  0  0  0
    0.6807    1.4892    1.6992 N   0  0  0  0  0  0  0  0  0  0  0  0
    0.9812    0.7447    2.3224 H   0  0  0  0  0  0  0  0  0  0  0  0
    0.5087    2.8347    2.2332 C   0  0  0  0  0  0  0  0  0  0  0  0
    1.1415    3.5455    1.6914 H   0  0  0  0  0  0  0  0  0  0  0  0
   -0.5353    3.1526    2.1432 H   0  0  0  0  0  0  0  0  0  0  0  0
    0.7878    2.8603    3.2909 H   0  0  0  0  0  0  0  0  0  0  0  0
  1  2  1  0  0  0  0
  2  3  1  0  0  0  0
  2  4  1  0  0  0  0
  2  5  1  0  0  0  0
  5  6  2  0  0  0  0
  5  7  1  0  0  0  0
  7  8  1  0  0  0  0
  7  9  1  0  0  0  0
  9 10  1  0  0  0  0
  9 11  1  0  0  0  0
  9 12  1  0  0  0  0
 12 13  2  0  0  0  0
 12 14  1  0  0  0  0
 14 15  1  0  0  0  0
 14 16  1  0  0  0  0
 16 17  1  0  0  0  0
 16 18  1  0  0  0  0
 16 19  1  0  0  0  0
M  END
$$$$

  -OEChem-01062216083D

 19 18  0     0  0  0  0  0  0999 V2000
   -2.1698   -4.1110    0.0390 H   0  0  0  0  0  0  0  0  0  0  0  0
   -2.2562   -3.0208    0.0290 C   0  0  0  0  0  0  0  0  0  0  0  0
   -2.8103   -2.7038    0.9158 H   0  0  0  0  0  0  0  0  0  0  0  0
   -2.8083   -2.7195   -0.8645 H   0  0  0  0  0  0  0  0  0  0  0  0
   -0.8772   -2.3869    0.0245 C   0  0  0  0  0  0  0  0  0  0  0  0
    0.1202   -3.0896   -0.0194 O   0  0  0  0  0  0  0  0  0  0  0  0
   -0.7498   -1.0141    0.0763 N   0  0  0  0  0  0  0  0  0  0  0  0
   -1.6027   -0.4607    0.0142 H   0  0  0  0  0  0  0  0  0  0  0  0
    0.5314   -0.3109   -0.0749 C   0  0  0  0  0  0  0  0  0  0  0  0
    1.3093   -0.8145    0.5072 H   0  0  0  0  0  0  0  0  0  0  0  0
    0.8418   -0.3245   -1.1242 H   0  0  0  0  0  0  0  0  0  0  0  0
    0.4336    1.1450    0.3876 C   0  0  0  0  0  0  0  0  0  0  0  0
   -0.2527    1.9321   -0.2486 O   0  0  0  0  0  0  0  0  0  0  0  0
    0.9866    1.5378    1.5916 N   0  0  0  0  0  0  0  0  0  0  0  0
    1.4757    0.8338    2.1372 H   0  0  0  0  0  0  0  0  0  0  0  0
    0.8333    2.8786    2.1429 C   0  0  0  0  0  0  0  0  0  0  0  0
    1.2199    3.6274    1.4435 H   0  0  0  0  0  0  0  0  0  0  0  0
   -0.2220    3.0933    2.3415 H   0  0  0  0  0  0  0  0  0  0  0  0
    1.3874    2.9668    3.0823 H   0  0  0  0  0  0  0  0  0  0  0  0
  1  2  1  0  0  0  0
  2  3  1  0  0  0  0
  2  4  1  0  0  0  0
  2  5  1  0  0  0  0
  5  6  2  0  0  0  0
  5  7  1  0  0  0  0
  7  8  1  0  0  0  0
  7  9  1  0  0  0  0
  9 10  1  0  0  0  0
  9 11  1  0  0  0  0
  9 12  1  0  0  0  0
 12 13  2  0  0  0  0
 12 14  1  0  0  0  0
 14 15  1  0  0  0  0
 14 16  1  0  0  0  0
 16 17  1  0  0  0  0
 16 18  1  0  0  0  0
 16 19  1  0  0  0  0
M  END
$$$$

  -OEChem-01062216083D

 19 18  0     0  0  0  0  0  0999 V2000
   -2.1890   -4.0960    0.0532 H   0  0  0  0  0  0  0  0  0  0  0  0
   -2.2635   -3.0049    0.0420 C   0  0  0  0  0  0  0  0  0  0  0  0
   -2.8022   -2.6799    0.9355 H   0  0  0  0  0  0  0  0  0  0  0  0
   -2.8241   -2.6989   -0.8447 H   0  0  0  0  0  0  0  0  0  0  0  0
   -0.8784   -2.3854    0.0175 C   0  0  0  0  0  0  0  0  0  0  0  0
    0.1115   -3.0977   -0.0445 O   0  0  0  0  0  0  0  0  0  0  0  0
   -0.7363   -1.0145    0.0664 N   0  0  0  0  0  0  0  0  0  0  0  0
   -1.5828   -0.4478    0.0368 H   0  0  0  0  0  0  0  0  0  0  0  0
    0.5495   -0.3200   -0.0800 C   0  0  0  0  0  0  0  0  0  0  0  0
    1.3178   -0.8293    0.5097 H   0  0  0  0  0  0  0  0  0  0  0  0
    0.8660   -0.3375   -1.1271 H   0  0  0  0  0  0  0  0  0  0  0  0
    0.4578    1.1381    0.3796 C   0  0  0  0  0  0  0  0  0  0  0  0
   -0.4194    1.8576   -0.0789 O   0  0  0  0  0  0  0  0  0  0  0  0
    1.2531    1.6037    1.4097 N   0  0  0  0  0  0  0  0  0  0  0  0
    1.9153    0.9550    1.8257 H   0  0  0  0  0  0  0  0  0  0  0  0
    1.1270    2.9423    1.9735 C   0  0  0  0  0  0  0  0  0  0  0  0
    1.2535    3.7006    1.1936 H   0  0  0  0  0  0  0  0  0  0  0  0
    0.1426    3.0723    2.4351 H   0  0  0  0  0  0  0  0  0  0  0  0
    1.8925    3.1044    2.7384 H   0  0  0  0  0  0  0  0  0  0  0  0
  1  2  1  0  0  0  0
  2  3  1  0  0  0  0
  2  4  1  0  0  0  0
  2  5  1  0  0  0  0
  5  6  2  0  0  0  0
  5  7  1  0  0  0  0
  7  8  1  0  0  0  0
  7  9  1  0  0  0  0
  9 10  1  0  0  0  0
  9 11  1  0  0  0  0
  9 12  1  0  0  0  0
 12 13  2  0  0  0  0
 12 14  1  0  0  0  0
 14 15  1  0  0  0  0
 14 16  1  0  0  0  0
 16 17  1  0  0  0  0
 16 18  1  0  0  0  0
 16 19  1  0  0  0  0
M  END
$$$$

  -OEChem-01062216083D

 19 18  0     0  0  0  0  0  0999 V2000
   -2.1869   -4.0951    0.1127 H   0  0  0  0  0  0  0  0  0  0  0  0
   -2.2626   -3.0053    0.0620 C   0  0  0  0  0  0  0  0  0  0  0  0
   -2.7849   -2.6476    0.9526 H   0  0  0  0  0  0  0  0  0  0  0  0
   -2.8402   -2.7324   -0.8245 H   0  0  0  0  0  0  0  0  0  0  0  0
   -0.8787   -2.3871   -0.0122 C   0  0  0  0  0  0  0  0  0  0  0  0
    0.1072   -3.0991   -0.1242 O   0  0  0  0  0  0  0  0  0  0  0  0
   -0.7322   -1.0173    0.0459 N   0  0  0  0  0  0  0  0  0  0  0  0
   -1.5751   -0.4454    0.0899 H   0  0  0  0  0  0  0  0  0  0  0  0
    0.5528   -0.3201   -0.0913 C   0  0  0  0  0  0  0  0  0  0  0  0
    1.3153   -0.8334    0.5026 H   0  0  0  0  0  0  0  0  0  0  0  0
    0.8751   -0.3343   -1.1365 H   0  0  0  0  0  0  0  0  0  0  0  0
    0.4643    1.1371    0.3768 C   0  0  0  0  0  0  0  0  0  0  0  0
   -0.5392    1.7924    0.1258 O   0  0  0  0  0  0  0  0  0  0  0  0
    1.4492    1.6788    1.1811 N   0  0  0  0  0  0  0  0  0  0  0  0
    2.2428    1.0907    1.4194 H   0  0  0  0  0  0  0  0  0  0  0  0
    1.3771    3.0257    1.7343 C   0  0  0  0  0  0  0  0  0  0  0  0
    1.3225    3.7677    0.9307 H   0  0  0  0  0  0  0  0  0  0  0  0
    0.4933    3.1310    2.3724 H   0  0  0  0  0  0  0  0  0  0  0  0
    2.2656    3.2350    2.3377 H   0  0  0  0  0  0  0  0  0  0  0  0
  1  2  1  0  0  0  0
  2  3  1  0  0  0  0
  2  4  1  0  0  0  0
  2  5  1  0  0  0  0
  5  6  2  0  0  0  0
  5  7  1  0  0  0  0
  7  8  1  0  0  0  0
  7  9  1  0  0  0  0
  9 10  1  0  0  0  0
  9 11  1  0  0  0  0
  9 12  1  0  0  0  0
 12 13  2  0  0  0  0
 12 14  1  0  0  0  0
 14 15  1  0  0  0  0
 14 16  1  0  0  0  0
 16 17  1  0  0  0  0
 16 18  1  0  0  0  0
 16 19  1  0  0  0  0
M  END
$$$$

  -OEChem-01062216083D

 19 18  0     0  0  0  0  0  0999 V2000
   -2.1922   -4.0974    0.0517 H   0  0  0  0  0  0  0  0  0  0  0  0
   -2.2650   -3.0063    0.0738 C   0  0  0  0  0  0  0  0  0  0  0  0
   -2.7380   -2.7040    1.0113 H   0  0  0  0  0  0  0  0  0  0  0  0
   -2.8865   -2.6775   -0.7627 H   0  0  0  0  0  0  0  0  0  0  0  0
   -0.8833   -2.3879   -0.0332 C   0  0  0  0  0  0  0  0  0  0  0  0
    0.0990   -3.1002   -0.1721 O   0  0  0  0  0  0  0  0  0  0  0  0
   -0.7324   -1.0186    0.0231 N   0  0  0  0  0  0  0  0  0  0  0  0
   -1.5676   -0.4426    0.1279 H   0  0  0  0  0  0  0  0  0  0  0  0
    0.5581   -0.3268   -0.0897 C   0  0  0  0  0  0  0  0  0  0  0  0
    1.3031   -0.8416    0.5246 H   0  0  0  0  0  0  0  0  0  0  0  0
    0.9017   -0.3503   -1.1277 H   0  0  0  0  0  0  0  0  0  0  0  0
    0.4765    1.1346    0.3691 C   0  0  0  0  0  0  0  0  0  0  0  0
   -0.5902    1.7342    0.3106 O   0  0  0  0  0  0  0  0  0  0  0  0
    1.5801    1.7578    0.9202 N   0  0  0  0  0  0  0  0  0  0  0  0
    2.4397    1.2212    0.9945 H   0  0  0  0  0  0  0  0  0  0  0  0
    1.5553    3.1241    1.4284 C   0  0  0  0  0  0  0  0  0  0  0  0
    1.2728    3.8237    0.6346 H   0  0  0  0  0  0  0  0  0  0  0  0
    0.8371    3.2138    2.2501 H   0  0  0  0  0  0  0  0  0  0  0  0
    2.5445    3.4072    1.8011 H   0  0  0  0  0  0  0  0  0  0  0  0
  1  2  1  0  0  0  0
  2  3  1  0  0  0  0
  2  4  1  0  0  0  0
  2  5  1  0  0  0  0
  5  6  2  0  0  0  0
  5  7  1  0  0  0  0
  7  8  1  0  0  0  0
  7  9  1  0  0  0  0
  9 10  1  0  0  0  0
  9 11  1  0  0  0  0
  9 12  1  0  0  0  0
 12 13  2  0  0  0  0
 12 14  1  0  0  0  0
 14 15  1  0  0  0  0
 14 16  1  0  0  0  0
 16 17  1  0  0  0  0
 16 18  1  0  0  0  0
 16 19  1  0  0  0  0
M  END
$$$$

  -OEChem-01062216083D

 19 18  0     0  0  0  0  0  0999 V2000
   -2.2454   -4.0734    0.0090 H   0  0  0  0  0  0  0  0  0  0  0  0
   -2.2941   -2.9810    0.0024 C   0  0  0  0  0  0  0  0  0  0  0  0
   -2.8204   -2.6466    0.8997 H   0  0  0  0  0  0  0  0  0  0  0  0
   -2.8517   -2.6587   -0.8803 H   0  0  0  0  0  0  0  0  0  0  0  0
   -0.8949   -2.3941   -0.0268 C   0  0  0  0  0  0  0  0  0  0  0  0
    0.0803   -3.1291   -0.0485 O   0  0  0  0  0  0  0  0  0  0  0  0
   -0.7201   -1.0267   -0.0318 N   0  0  0  0  0  0  0  0  0  0  0  0
   -1.5470   -0.4320    0.0255 H   0  0  0  0  0  0  0  0  0  0  0  0
    0.5897   -0.3630   -0.0141 C   0  0  0  0  0  0  0  0  0  0  0  0
    1.2356   -0.8490    0.7236 H   0  0  0  0  0  0  0  0  0  0  0  0
    1.0638   -0.4586   -0.9950 H   0  0  0  0  0  0  0  0  0  0  0  0
    0.4890    1.1264    0.3427 C   0  0  0  0  0  0  0  0  0  0  0  0
   -0.6026    1.6826    0.3337 O   0  0  0  0  0  0  0  0  0  0  0  0
    1.6268    1.8246    0.7062 N   0  0  0  0  0  0  0  0  0  0  0  0
    2.5033    1.3104    0.7083 H   0  0  0  0  0  0  0  0  0  0  0  0
    1.6529    3.2354    1.0855 C   0  0  0  0  0  0  0  0  0  0  0  0
    0.6559    3.6877    1.0627 H   0  0  0  0  0  0  0  0  0  0  0  0
    2.0478    3.3422    2.1005 H   0  0  0  0  0  0  0  0  0  0  0  0
    2.2931    3.7957    0.3972 H   0  0  0  0  0  0  0  0  0  0  0  0
  1  2  1  0  0  0  0
  2  3  1  0  0  0  0
  2  4  1  0  0  0  0
  2  5  1  0  0  0  0
  5  6  2  0  0  0  0
  5  7  1  0  0  0  0
  7  8  1  0  0  0  0
  7  9  1  0  0  0  0
  9 10  1  0  0  0  0
  9 11  1  0  0  0  0
  9 12  1  0  0  0  0
 12 13  2  0  0  0  0
 12 14  1  0  0  0  0
 14 15  1  0  0  0  0
 14 16  1  0  0  0  0
 16 17  1  0  0  0  0
 16 18  1  0  0  0  0
 16 19  1  0  0  0  0
M  END
$$$$

  -OEChem-01062216083D

 19 18  0     0  0  0  0  0  0999 V2000
   -2.3187   -4.0095   -0.0252 H   0  0  0  0  0  0  0  0  0  0  0  0
   -2.3236   -2.9160   -0.0363 C   0  0  0  0  0  0  0  0  0  0  0  0
   -2.8381   -2.5566    0.8582 H   0  0  0  0  0  0  0  0  0  0  0  0
   -2.8661   -2.5757   -0.9216 H   0  0  0  0  0  0  0  0  0  0  0  0
   -0.9015   -2.3864   -0.0644 C   0  0  0  0  0  0  0  0  0  0  0  0
    0.0413   -3.1625   -0.0348 O   0  0  0  0  0  0  0  0  0  0  0  0
   -0.6738   -1.0275   -0.1296 N   0  0  0  0  0  0  0  0  0  0  0  0
   -1.4797   -0.4127   -0.0137 H   0  0  0  0  0  0  0  0  0  0  0  0
    0.6515   -0.4121    0.0315 C   0  0  0  0  0  0  0  0  0  0  0  0
    1.2739   -1.0242    0.6919 H   0  0  0  0  0  0  0  0  0  0  0  0
    1.1460   -0.3551   -0.9420 H   0  0  0  0  0  0  0  0  0  0  0  0
    0.5744    0.9975    0.6340 C   0  0  0  0  0  0  0  0  0  0  0  0
   -0.5128    1.5013    0.8912 O   0  0  0  0  0  0  0  0  0  0  0  0
    1.7309    1.7212    0.8540 N   0  0  0  0  0  0  0  0  0  0  0  0
    2.6175    1.2754    0.6357 H   0  0  0  0  0  0  0  0  0  0  0  0
    1.7370    3.0723    1.4018 C   0  0  0  0  0  0  0  0  0  0  0  0
    1.2926    3.0825    2.4026 H   0  0  0  0  0  0  0  0  0  0  0  0
    2.7631    3.4454    1.4755 H   0  0  0  0  0  0  0  0  0  0  0  0
    1.1688    3.7502    0.7561 H   0  0  0  0  0  0  0  0  0  0  0  0
  1  2  1  0  0  0  0
  2  3  1  0  0  0  0
  2  4  1  0  0  0  0
  2  5  1  0  0  0  0
  5  6  2  0  0  0  0
  5  7  1  0  0  0  0
  7  8  1  0  0  0  0
  7  9  1  0  0  0  0
  9 10  1  0  0  0  0
  9 11  1  0  0  0  0
  9 12  1  0  0  0  0
 12 13  2  0  0  0  0
 12 14  1  0  0  0  0
 14 15  1  0  0  0  0
 14 16  1  0  0  0  0
 16 17  1  0  0  0  0
 16 18  1  0  0  0  0
 16 19  1  0  0  0  0
M  END
$$$$

  -OEChem-01062216083D

 19 18  0     0  0  0  0  0  0999 V2000
   -2.3025   -4.0151   -0.0556 H   0  0  0  0  0  0  0  0  0  0  0  0
   -2.3127   -2.9222   -0.0195 C   0  0  0  0  0  0  0  0  0  0  0  0
   -2.7883   -2.6042    0.9114 H   0  0  0  0  0  0  0  0  0  0  0  0
   -2.8951   -2.5479   -0.8648 H   0  0  0  0  0  0  0  0  0  0  0  0
   -0.8956   -2.3837   -0.0864 C   0  0  0  0  0  0  0  0  0  0  0  0
    0.0526   -3.1537   -0.0855 O   0  0  0  0  0  0  0  0  0  0  0  0
   -0.6790   -1.0231   -0.1501 N   0  0  0  0  0  0  0  0  0  0  0  0
   -1.4855   -0.4218    0.0196 H   0  0  0  0  0  0  0  0  0  0  0  0
    0.6426   -0.4066    0.0344 C   0  0  0  0  0  0  0  0  0  0  0  0
    1.2563   -1.0150    0.7064 H   0  0  0  0  0  0  0  0  0  0  0  0
    1.1526   -0.3512   -0.9313 H   0  0  0  0  0  0  0  0  0  0  0  0
    0.5483    1.0027    0.6348 C   0  0  0  0  0  0  0  0  0  0  0  0
   -0.5175    1.4126    1.0795 O   0  0  0  0  0  0  0  0  0  0  0  0
    1.6398    1.8495    0.5952 N   0  0  0  0  0  0  0  0  0  0  0  0
    2.5039    1.4912    0.1988 H   0  0  0  0  0  0  0  0  0  0  0  0
    1.6062    3.2208    1.0894 C   0  0  0  0  0  0  0  0  0  0  0  0
    1.2952    3.2438    2.1393 H   0  0  0  0  0  0  0  0  0  0  0  0
    2.5996    3.6735    1.0147 H   0  0  0  0  0  0  0  0  0  0  0  0
    0.9059    3.8228    0.5009 H   0  0  0  0  0  0  0  0  0  0  0  0
  1  2  1  0  0  0  0
  2  3  1  0  0  0  0
  2  4  1  0  0  0  0
  2  5  1  0  0  0  0
  5  6  2  0  0  0  0
  5  7  1  0  0  0  0
  7  8  1  0  0  0  0
  7  9  1  0  0  0  0
  9 10  1  0  0  0  0
  9 11  1  0  0  0  0
  9 12  1  0  0  0  0
 12 13  2  0  0  0  0
 12 14  1  0  0  0  0
 14 15  1  0  0  0  0
 14 16  1  0  0  0  0
 16 17  1  0  0  0  0
 16 18  1  0  0  0  0
 16 19  1  0  0  0  0
M  END
$$$$

  -OEChem-01062216083D

 19 18  0     0  0  0  0  0  0999 V2000
   -2.2887   -4.0206   -0.0529 H   0  0  0  0  0  0  0  0  0  0  0  0
   -2.3052   -2.9276   -0.0180 C   0  0  0  0  0  0  0  0  0  0  0  0
   -2.7742   -2.6117    0.9171 H   0  0  0  0  0  0  0  0  0  0  0  0
   -2.8980   -2.5576   -0.8581 H   0  0  0  0  0  0  0  0  0  0  0  0
   -0.8919   -2.3803   -0.0995 C   0  0  0  0  0  0  0  0  0  0  0  0
    0.0606   -3.1448   -0.1174 O   0  0  0  0  0  0  0  0  0  0  0  0
   -0.6854   -1.0179   -0.1623 N   0  0  0  0  0  0  0  0  0  0  0  0
   -1.4941   -0.4305    0.0401 H   0  0  0  0  0  0  0  0  0  0  0  0
    0.6325   -0.3997    0.0436 C   0  0  0  0  0  0  0  0  0  0  0  0
    1.2371   -1.0046    0.7270 H   0  0  0  0  0  0  0  0  0  0  0  0
    1.1579   -0.3462   -0.9138 H   0  0  0  0  0  0  0  0  0  0  0  0
    0.5226    1.0091    0.6409 C   0  0  0  0  0  0  0  0  0  0  0  0
   -0.4783    1.3312    1.2694 O   0  0  0  0  0  0  0  0  0  0  0  0
    1.4817    1.9630    0.3569 N   0  0  0  0  0  0  0  0  0  0  0  0
    2.2850    1.6782   -0.1960 H   0  0  0  0  0  0  0  0  0  0  0  0
    1.3983    3.3430    0.8205 C   0  0  0  0  0  0  0  0  0  0  0  0
    1.3607    3.3784    1.9144 H   0  0  0  0  0  0  0  0  0  0  0  0
    2.2741    3.9079    0.4869 H   0  0  0  0  0  0  0  0  0  0  0  0
    0.5016    3.8282    0.4208 H   0  0  0  0  0  0  0  0  0  0  0  0
  1  2  1  0  0  0  0
  2  3  1  0  0  0  0
  2  4  1  0  0  0  0
  2  5  1  0  0  0  0
  5  6  2  0  0  0  0
  5  7  1  0  0  0  0
  7  8  1  0  0  0  0
  7  9  1  0  0  0  0
  9 10  1  0  0  0  0
  9 11  1  0  0  0  0
  9 12  1  0  0  0  0
 12 13  2  0  0  0  0
 12 14  1  0  0  0  0
 14 15  1  0  0  0  0
 14 16  1  0  0  0  0
 16 17  1  0  0  0  0
 16 18  1  0  0  0  0
 16 19  1  0  0  0  0
M  END
$$$$

  -OEChem-01062216083D

 19 18  0     0  0  0  0  0  0999 V2000
   -2.2715   -4.0281   -0.0404 H   0  0  0  0  0  0  0  0  0  0  0  0
   -2.2965   -2.9351   -0.0141 C   0  0  0  0  0  0  0  0  0  0  0  0
   -2.7599   -2.6152    0.9225 H   0  0  0  0  0  0  0  0  0  0  0  0
   -2.8992   -2.5766   -0.8520 H   0  0  0  0  0  0  0  0  0  0  0  0
   -0.8884   -2.3773   -0.1117 C   0  0  0  0  0  0  0  0  0  0  0  0
    0.0690   -3.1351   -0.1433 O   0  0  0  0  0  0  0  0  0  0  0  0
   -0.6930   -1.0128   -0.1720 N   0  0  0  0  0  0  0  0  0  0  0  0
   -1.5060   -0.4374    0.0445 H   0  0  0  0  0  0  0  0  0  0  0  0
    0.6212   -0.3922    0.0503 C   0  0  0  0  0  0  0  0  0  0  0  0
    1.2183   -0.9947    0.7425 H   0  0  0  0  0  0  0  0  0  0  0  0
    1.1608   -0.3395   -0.8991 H   0  0  0  0  0  0  0  0  0  0  0  0
    0.4961    1.0144    0.6479 C   0  0  0  0  0  0  0  0  0  0  0  0
   -0.3876    1.2523    1.4610 O   0  0  0  0  0  0  0  0  0  0  0  0
    1.2573    2.0558    0.1512 N   0  0  0  0  0  0  0  0  0  0  0  0
    1.9565    1.8381   -0.5530 H   0  0  0  0  0  0  0  0  0  0  0  0
    1.1240    3.4331    0.6107 C   0  0  0  0  0  0  0  0  0  0  0  0
    1.3417    3.5021    1.6817 H   0  0  0  0  0  0  0  0  0  0  0  0
    1.8232    4.0808    0.0732 H   0  0  0  0  0  0  0  0  0  0  0  0
    0.1078    3.8005    0.4330 H   0  0  0  0  0  0  0  0  0  0  0  0
  1  2  1  0  0  0  0
  2  3  1  0  0  0  0
  2  4  1  0  0  0  0
  2  5  1  0  0  0  0
  5  6  2  0  0  0  0
  5  7  1  0  0  0  0
  7  8  1  0  0  0  0
  7  9  1  0  0  0  0
  9 10  1  0  0  0  0
  9 11  1  0  0  0  0
  9 12  1  0  0  0  0
 12 13  2  0  0  0  0
 12 14  1  0  0  0  0
 14 15  1  0  0  0  0
 14 16  1  0  0  0  0
 16 17  1  0  0  0  0
 16 18  1  0  0  0  0
 16 19  1  0  0  0  0
M  END
$$$$

  -OEChem-01062216083D

 19 18  0     0  0  0  0  0  0999 V2000
   -2.2602   -4.0325   -0.0408 H   0  0  0  0  0  0  0  0  0  0  0  0
   -2.2906   -2.9398   -0.0107 C   0  0  0  0  0  0  0  0  0  0  0  0
   -2.7474   -2.6260    0.9312 H   0  0  0  0  0  0  0  0  0  0  0  0
   -2.9025   -2.5818   -0.8421 H   0  0  0  0  0  0  0  0  0  0  0  0
   -0.8866   -2.3742   -0.1180 C   0  0  0  0  0  0  0  0  0  0  0  0
    0.0734   -3.1271   -0.1717 O   0  0  0  0  0  0  0  0  0  0  0  0
   -0.6991   -1.0078   -0.1678 N   0  0  0  0  0  0  0  0  0  0  0  0
   -1.5143   -0.4428    0.0642 H   0  0  0  0  0  0  0  0  0  0  0  0
    0.6146   -0.3865    0.0571 C   0  0  0  0  0  0  0  0  0  0  0  0
    1.2131   -0.9916    0.7461 H   0  0  0  0  0  0  0  0  0  0  0  0
    1.1574   -0.3269   -0.8901 H   0  0  0  0  0  0  0  0  0  0  0  0
    0.4843    1.0134    0.6666 C   0  0  0  0  0  0  0  0  0  0  0  0
   -0.2193    1.1798    1.6534 O   0  0  0  0  0  0  0  0  0  0  0  0
    0.9890    2.1156    0.0025 N   0  0  0  0  0  0  0  0  0  0  0  0
    1.5176    1.9547   -0.8500 H   0  0  0  0  0  0  0  0  0  0  0  0
    0.7969    3.4846    0.4660 C   0  0  0  0  0  0  0  0  0  0  0  0
    1.2122    3.6100    1.4715 H   0  0  0  0  0  0  0  0  0  0  0  0
    1.3011    4.1861   -0.2057 H   0  0  0  0  0  0  0  0  0  0  0  0
   -0.2688    3.7353    0.4908 H   0  0  0  0  0  0  0  0  0  0  0  0
  1  2  1  0  0  0  0
  2  3  1  0  0  0  0
  2  4  1  0  0  0  0
  2  5  1  0  0  0  0
  5  6  2  0  0  0  0
  5  7  1  0  0  0  0
  7  8  1  0  0  0  0
  7  9  1  0  0  0  0
  9 10  1  0  0  0  0
  9 11  1  0  0  0  0
  9 12  1  0  0  0  0
 12 13  2  0  0  0  0
 12 14  1  0  0  0  0
 14 15  1  0  0  0  0
 14 16  1  0  0  0  0
 16 17  1  0  0  0  0
 16 18  1  0  0  0  0
 16 19  1  0  0  0  0
M  END
$$$$

  -OEChem-01062216083D

 19 18  0     0  0  0  0  0  0999 V2000
   -2.2425   -4.0485   -0.0511 H   0  0  0  0  0  0  0  0  0  0  0  0
   -2.2839   -2.9561   -0.0163 C   0  0  0  0  0  0  0  0  0  0  0  0
   -2.7498   -2.6512    0.9241 H   0  0  0  0  0  0  0  0  0  0  0  0
   -2.8941   -2.6005   -0.8501 H   0  0  0  0  0  0  0  0  0  0  0  0
   -0.8846   -2.3767   -0.1127 C   0  0  0  0  0  0  0  0  0  0  0  0
    0.0815   -3.1211   -0.1718 O   0  0  0  0  0  0  0  0  0  0  0  0
   -0.7092   -1.0081   -0.1566 N   0  0  0  0  0  0  0  0  0  0  0  0
   -1.5328   -0.4516    0.0630 H   0  0  0  0  0  0  0  0  0  0  0  0
    0.6003   -0.3774    0.0699 C   0  0  0  0  0  0  0  0  0  0  0  0
    1.2025   -0.9818    0.7567 H   0  0  0  0  0  0  0  0  0  0  0  0
    1.1455   -0.3104   -0.8753 H   0  0  0  0  0  0  0  0  0  0  0  0
    0.4624    1.0180    0.6856 C   0  0  0  0  0  0  0  0  0  0  0  0
    0.0085    1.1413    1.8137 O   0  0  0  0  0  0  0  0  0  0  0  0
    0.6692    2.1446   -0.0882 N   0  0  0  0  0  0  0  0  0  0  0  0
    0.9886    2.0109   -1.0432 H   0  0  0  0  0  0  0  0  0  0  0  0
    0.4551    3.5013    0.4014 C   0  0  0  0  0  0  0  0  0  0  0  0
    1.0816    3.6955    1.2784 H   0  0  0  0  0  0  0  0  0  0  0  0
    0.7126    4.2290   -0.3742 H   0  0  0  0  0  0  0  0  0  0  0  0
   -0.5942    3.6475    0.6783 H   0  0  0  0  0  0  0  0  0  0  0  0
  1  2  1  0  0  0  0
  2  3  1  0  0  0  0
  2  4  1  0  0  0  0
  2  5  1  0  0  0  0
  5  6  2  0  0  0  0
  5  7  1  0  0  0  0
  7  8  1  0  0  0  0
  7  9  1  0  0  0  0
  9 10  1  0  0  0  0
  9 11  1  0  0  0  0
  9 12  1  0  0  0  0
 12 13  2  0  0  0  0
 12 14  1  0  0  0  0
 14 15  1  0  0  0  0
 14 16  1  0  0  0  0
 16 17  1  0  0  0  0
 16 18  1  0  0  0  0
 16 19  1  0  0  0  0
M  END
$$$$

  -OEChem-01062216083D

 19 18  0     0  0  0  0  0  0999 V2000
   -2.2307   -4.0654   -0.0866 H   0  0  0  0  0  0  0  0  0  0  0  0
   -2.2796   -2.9741   -0.0316 C   0  0  0  0  0  0  0  0  0  0  0  0
   -2.7583   -2.6900    0.9087 H   0  0  0  0  0  0  0  0  0  0  0  0
   -2.8824   -2.6070   -0.8657 H   0  0  0  0  0  0  0  0  0  0  0  0
   -0.8828   -2.3843   -0.1003 C   0  0  0  0  0  0  0  0  0  0  0  0
    0.0886   -3.1219   -0.1469 O   0  0  0  0  0  0  0  0  0  0  0  0
   -0.7168   -1.0140   -0.1363 N   0  0  0  0  0  0  0  0  0  0  0  0
   -1.5504   -0.4609    0.0490 H   0  0  0  0  0  0  0  0  0  0  0  0
    0.5876   -0.3705    0.0880 C   0  0  0  0  0  0  0  0  0  0  0  0
    1.1992   -0.9743    0.7675 H   0  0  0  0  0  0  0  0  0  0  0  0
    1.1305   -0.2899   -0.8576 H   0  0  0  0  0  0  0  0  0  0  0  0
    0.4389    1.0196    0.7122 C   0  0  0  0  0  0  0  0  0  0  0  0
    0.2984    1.1382    1.9199 O   0  0  0  0  0  0  0  0  0  0  0  0
    0.3212    2.1327   -0.0989 N   0  0  0  0  0  0  0  0  0  0  0  0
    0.4130    1.9983   -1.1018 H   0  0  0  0  0  0  0  0  0  0  0  0
    0.1102    3.4796    0.4181 C   0  0  0  0  0  0  0  0  0  0  0  0
    0.9284    3.7657    1.0875 H   0  0  0  0  0  0  0  0  0  0  0  0
    0.0703    4.1993   -0.4053 H   0  0  0  0  0  0  0  0  0  0  0  0
   -0.8334    3.5346    0.9713 H   0  0  0  0  0  0  0  0  0  0  0  0
  1  2  1  0  0  0  0
  2  3  1  0  0  0  0
  2  4  1  0  0  0  0
  2  5  1  0  0  0  0
  5  6  2  0  0  0  0
  5  7  1  0  0  0  0
  7  8  1  0  0  0  0
  7  9  1  0  0  0  0
  9 10  1  0  0  0  0
  9 11  1  0  0  0  0
  9 12  1  0  0  0  0
 12 13  2  0  0  0  0
 12 14  1  0  0  0  0
 14 15  1  0  0  0  0
 14 16  1  0  0  0  0
 16 17  1  0  0  0  0
 16 18  1  0  0  0  0
 16 19  1  0  0  0  0
M  END
$$$$

  -OEChem-01062216083D

 19 18  0     0  0  0  0  0  0999 V2000
   -2.2159   -4.0843   -0.1163 H   0  0  0  0  0  0  0  0  0  0  0  0
   -2.2741   -2.9943   -0.0481 C   0  0  0  0  0  0  0  0  0  0  0  0
   -2.7620   -2.7263    0.8921 H   0  0  0  0  0  0  0  0  0  0  0  0
   -2.8734   -2.6216   -0.8821 H   0  0  0  0  0  0  0  0  0  0  0  0
   -0.8817   -2.3929   -0.0986 C   0  0  0  0  0  0  0  0  0  0  0  0
    0.0957   -3.1225   -0.1391 O   0  0  0  0  0  0  0  0  0  0  0  0
   -0.7266   -1.0208   -0.1207 N   0  0  0  0  0  0  0  0  0  0  0  0
   -1.5676   -0.4745    0.0495 H   0  0  0  0  0  0  0  0  0  0  0  0
    0.5723   -0.3671    0.1101 C   0  0  0  0  0  0  0  0  0  0  0  0
    1.1897   -0.9746    0.7813 H   0  0  0  0  0  0  0  0  0  0  0  0
    1.1133   -0.2690   -0.8349 H   0  0  0  0  0  0  0  0  0  0  0  0
    0.4136    1.0154    0.7479 C   0  0  0  0  0  0  0  0  0  0  0  0
    0.5890    1.1683    1.9468 O   0  0  0  0  0  0  0  0  0  0  0  0
   -0.0201    2.0799   -0.0199 N   0  0  0  0  0  0  0  0  0  0  0  0
   -0.1403    1.9235   -1.0166 H   0  0  0  0  0  0  0  0  0  0  0  0
   -0.2109    3.4230    0.5143 C   0  0  0  0  0  0  0  0  0  0  0  0
    0.7293    3.8108    0.9206 H   0  0  0  0  0  0  0  0  0  0  0  0
   -0.5515    4.0994   -0.2754 H   0  0  0  0  0  0  0  0  0  0  0  0
   -0.9624    3.4155    1.3108 H   0  0  0  0  0  0  0  0  0  0  0  0
  1  2  1  0  0  0  0
  2  3  1  0  0  0  0
  2  4  1  0  0  0  0
  2  5  1  0  0  0  0
  5  6  2  0  0  0  0
  5  7  1  0  0  0  0
  7  8  1  0  0  0  0
  7  9  1  0  0  0  0
  9 10  1  0  0  0  0
  9 11  1  0  0  0  0
  9 12  1  0  0  0  0
 12 13  2  0  0  0  0
 12 14  1  0  0  0  0
 14 15  1  0  0  0  0
 14 16  1  0  0  0  0
 16 17  1  0  0  0  0
 16 18  1  0  0  0  0
 16 19  1  0  0  0  0
M  END
$$$$

  -OEChem-01062216083D

 19 18  0     0  0  0  0  0  0999 V2000
   -2.2016   -4.1034   -0.1137 H   0  0  0  0  0  0  0  0  0  0  0  0
   -2.2692   -3.0129   -0.0637 C   0  0  0  0  0  0  0  0  0  0  0  0
   -2.7721   -2.7343    0.8654 H   0  0  0  0  0  0  0  0  0  0  0  0
   -2.8600   -2.6584   -0.9117 H   0  0  0  0  0  0  0  0  0  0  0  0
   -0.8809   -2.4015   -0.1049 C   0  0  0  0  0  0  0  0  0  0  0  0
    0.1008   -3.1243   -0.1530 O   0  0  0  0  0  0  0  0  0  0  0  0
   -0.7347   -1.0278   -0.1066 N   0  0  0  0  0  0  0  0  0  0  0  0
   -1.5795   -0.4893    0.0685 H   0  0  0  0  0  0  0  0  0  0  0  0
    0.5617   -0.3686    0.1298 C   0  0  0  0  0  0  0  0  0  0  0  0
    1.1868   -0.9841    0.7866 H   0  0  0  0  0  0  0  0  0  0  0  0
    1.0956   -0.2489   -0.8169 H   0  0  0  0  0  0  0  0  0  0  0  0
    0.3998    1.0038    0.7892 C   0  0  0  0  0  0  0  0  0  0  0  0
    0.8644    1.2204    1.8975 O   0  0  0  0  0  0  0  0  0  0  0  0
   -0.3239    1.9903    0.1452 N   0  0  0  0  0  0  0  0  0  0  0  0
   -0.6187    1.8050   -0.8090 H   0  0  0  0  0  0  0  0  0  0  0  0
   -0.4963    3.3324    0.6886 C   0  0  0  0  0  0  0  0  0  0  0  0
    0.4732    3.8305    0.7946 H   0  0  0  0  0  0  0  0  0  0  0  0
   -1.1236    3.9323    0.0225 H   0  0  0  0  0  0  0  0  0  0  0  0
   -0.9794    3.2895    1.6706 H   0  0  0  0  0  0  0  0  0  0  0  0
  1  2  1  0  0  0  0
  2  3  1  0  0  0  0
  2  4  1  0  0  0  0
  2  5  1  0  0  0  0
  5  6  2  0  0  0  0
  5  7  1  0  0  0  0
  7  8  1  0  0  0  0
  7  9  1  0  0  0  0
  9 10  1  0  0  0  0
  9 11  1  0  0  0  0
  9 12  1  0  0  0  0
 12 13  2  0  0  0  0
 12 14  1  0  0  0  0
 14 15  1  0  0  0  0
 14 16  1  0  0  0  0
 16 17  1  0  0  0  0
 16 18  1  0  0  0  0
 16 19  1  0  0  0  0
M  END
$$$$

  -OEChem-01062216083D

 19 18  0     0  0  0  0  0  0999 V2000
   -2.1896   -4.1198   -0.1415 H   0  0  0  0  0  0  0  0  0  0  0  0
   -2.2635   -3.0306   -0.0741 C   0  0  0  0  0  0  0  0  0  0  0  0
   -2.7615   -2.7697    0.8629 H   0  0  0  0  0  0  0  0  0  0  0  0
   -2.8629   -2.6670   -0.9122 H   0  0  0  0  0  0  0  0  0  0  0  0
   -0.8788   -2.4107   -0.1159 C   0  0  0  0  0  0  0  0  0  0  0  0
    0.1060   -3.1281   -0.1743 O   0  0  0  0  0  0  0  0  0  0  0  0
   -0.7399   -1.0361   -0.1005 N   0  0  0  0  0  0  0  0  0  0  0  0
   -1.5861   -0.5088    0.0980 H   0  0  0  0  0  0  0  0  0  0  0  0
    0.5551   -0.3753    0.1466 C   0  0  0  0  0  0  0  0  0  0  0  0
    1.1814   -0.9988    0.7946 H   0  0  0  0  0  0  0  0  0  0  0  0
    1.0874   -0.2418   -0.7993 H   0  0  0  0  0  0  0  0  0  0  0  0
    0.3990    0.9902    0.8233 C   0  0  0  0  0  0  0  0  0  0  0  0
    1.0903    1.2870    1.7850 O   0  0  0  0  0  0  0  0  0  0  0  0
   -0.5580    1.8796    0.3681 N   0  0  0  0  0  0  0  0  0  0  0  0
   -1.0042    1.6638   -0.5183 H   0  0  0  0  0  0  0  0  0  0  0  0
   -0.7234    3.2160    0.9280 C   0  0  0  0  0  0  0  0  0  0  0  0
    0.1829    3.8109    0.7738 H   0  0  0  0  0  0  0  0  0  0  0  0
   -1.5614    3.7278    0.4451 H   0  0  0  0  0  0  0  0  0  0  0  0
   -0.9287    3.1592    2.0024 H   0  0  0  0  0  0  0  0  0  0  0  0
  1  2  1  0  0  0  0
  2  3  1  0  0  0  0
  2  4  1  0  0  0  0
  2  5  1  0  0  0  0
  5  6  2  0  0  0  0
  5  7  1  0  0  0  0
  7  8  1  0  0  0  0
  7  9  1  0  0  0  0
  9 10  1  0  0  0  0
  9 11  1  0  0  0  0
  9 12  1  0  0  0  0
 12 13  2  0  0  0  0
 12 14  1  0  0  0  0
 14 15  1  0  0  0  0
 14 16  1  0  0  0  0
 16 17  1  0  0  0  0
 16 18  1  0  0  0  0
 16 19  1  0  0  0  0
M  END
$$$$

  -OEChem-01062216083D

 19 18  0     0  0  0  0  0  0999 V2000
   -2.1751   -4.1455   -0.1735 H   0  0  0  0  0  0  0  0  0  0  0  0
   -2.2571   -3.0577   -0.0932 C   0  0  0  0  0  0  0  0  0  0  0  0
   -2.7603   -2.8118    0.8451 H   0  0  0  0  0  0  0  0  0  0  0  0
   -2.8562   -2.6888   -0.9292 H   0  0  0  0  0  0  0  0  0  0  0  0
   -0.8766   -2.4271   -0.1228 C   0  0  0  0  0  0  0  0  0  0  0  0
    0.1133   -3.1373   -0.1815 O   0  0  0  0  0  0  0  0  0  0  0  0
   -0.7487   -1.0512   -0.0941 N   0  0  0  0  0  0  0  0  0  0  0  0
   -1.5988   -0.5373    0.1180 H   0  0  0  0  0  0  0  0  0  0  0  0
    0.5436   -0.3834    0.1563 C   0  0  0  0  0  0  0  0  0  0  0  0
    1.1750   -1.0128    0.7932 H   0  0  0  0  0  0  0  0  0  0  0  0
    1.0688   -0.2398   -0.7922 H   0  0  0  0  0  0  0  0  0  0  0  0
    0.4069    0.9787    0.8477 C   0  0  0  0  0  0  0  0  0  0  0  0
    1.2783    1.3657    1.6105 O   0  0  0  0  0  0  0  0  0  0  0  0
   -0.7162    1.7624    0.6440 N   0  0  0  0  0  0  0  0  0  0  0  0
   -1.3172    1.5091   -0.1333 H   0  0  0  0  0  0  0  0  0  0  0  0
   -0.8618    3.0915    1.2276 C   0  0  0  0  0  0  0  0  0  0  0  0
   -0.0778    3.7609    0.8579 H   0  0  0  0  0  0  0  0  0  0  0  0
   -1.8348    3.5166    0.9629 H   0  0  0  0  0  0  0  0  0  0  0  0
   -0.7952    3.0413    2.3197 H   0  0  0  0  0  0  0  0  0  0  0  0
  1  2  1  0  0  0  0
  2  3  1  0  0  0  0
  2  4  1  0  0  0  0
  2  5  1  0  0  0  0
  5  6  2  0  0  0  0
  5  7  1  0  0  0  0
  7  8  1  0  0  0  0
  7  9  1  0  0  0  0
  9 10  1  0  0  0  0
  9 11  1  0  0  0  0
  9 12  1  0  0  0  0
 12 13  2  0  0  0  0
 12 14  1  0  0  0  0
 14 15  1  0  0  0  0
 14 16  1  0  0  0  0
 16 17  1  0  0  0  0
 16 18  1  0  0  0  0
 16 19  1  0  0  0  0
M  END
$$$$

  -OEChem-01062216083D

 19 18  0     0  0  0  0  0  0999 V2000
   -2.1656   -4.1875   -0.1747 H   0  0  0  0  0  0  0  0  0  0  0  0
   -2.2542   -3.0977   -0.2104 C   0  0  0  0  0  0  0  0  0  0  0  0
   -2.9920   -2.7816    0.5310 H   0  0  0  0  0  0  0  0  0  0  0  0
   -2.5976   -2.8061   -1.2060 H   0  0  0  0  0  0  0  0  0  0  0  0
   -0.9114   -2.4548    0.0865 C   0  0  0  0  0  0  0  0  0  0  0  0
    0.0514   -3.1578    0.3423 O   0  0  0  0  0  0  0  0  0  0  0  0
   -0.7904   -1.0779    0.0531 N   0  0  0  0  0  0  0  0  0  0  0  0
   -1.5805   -0.5741   -0.3385 H   0  0  0  0  0  0  0  0  0  0  0  0
    0.5074   -0.3770    0.1405 C   0  0  0  0  0  0  0  0  0  0  0  0
    1.2160   -0.9696    0.7291 H   0  0  0  0  0  0  0  0  0  0  0  0
    0.9272   -0.2657   -0.8633 H   0  0  0  0  0  0  0  0  0  0  0  0
    0.4403    1.0108    0.7929 C   0  0  0  0  0  0  0  0  0  0  0  0
    1.4784    1.5955    1.0613 O   0  0  0  0  0  0  0  0  0  0  0  0
   -0.7670    1.6635    0.9742 N   0  0  0  0  0  0  0  0  0  0  0  0
   -1.6090    1.1079    0.8768 H   0  0  0  0  0  0  0  0  0  0  0  0
   -0.8676    2.9774    1.5992 C   0  0  0  0  0  0  0  0  0  0  0  0
   -0.3009    3.7187    1.0257 H   0  0  0  0  0  0  0  0  0  0  0  0
   -1.9129    3.2988    1.6387 H   0  0  0  0  0  0  0  0  0  0  0  0
   -0.4749    2.9473    2.6212 H   0  0  0  0  0  0  0  0  0  0  0  0
  1  2  1  0  0  0  0
  2  3  1  0  0  0  0
  2  4  1  0  0  0  0
  2  5  1  0  0  0  0
  5  6  2  0  0  0  0
  5  7  1  0  0  0  0
  7  8  1  0  0  0  0
  7  9  1  0  0  0  0
  9 10  1  0  0  0  0
  9 11  1  0  0  0  0
  9 12  1  0  0  0  0
 12 13  2  0  0  0  0
 12 14  1  0  0  0  0
 14 15  1  0  0  0  0
 14 16  1  0  0  0  0
 16 17  1  0  0  0  0
 16 18  1  0  0  0  0
 16 19  1  0  0  0  0
M  END
$$$$

  -OEChem-01062216083D

 19 18  0     0  0  0  0  0  0999 V2000
   -2.1200   -4.2005   -0.1496 H   0  0  0  0  0  0  0  0  0  0  0  0
   -2.2369   -3.1131   -0.1268 C   0  0  0  0  0  0  0  0  0  0  0  0
   -2.9020   -2.8482    0.6986 H   0  0  0  0  0  0  0  0  0  0  0  0
   -2.6864   -2.7891   -1.0686 H   0  0  0  0  0  0  0  0  0  0  0  0
   -0.8864   -2.4470    0.0620 C   0  0  0  0  0  0  0  0  0  0  0  0
    0.1101   -3.1323    0.2165 O   0  0  0  0  0  0  0  0  0  0  0  0
   -0.7974   -1.0675    0.0523 N   0  0  0  0  0  0  0  0  0  0  0  0
   -1.6321   -0.5697   -0.2450 H   0  0  0  0  0  0  0  0  0  0  0  0
    0.4872   -0.3386    0.0223 C   0  0  0  0  0  0  0  0  0  0  0  0
    1.2660   -0.9260    0.5198 H   0  0  0  0  0  0  0  0  0  0  0  0
    0.7980   -0.1929   -1.0165 H   0  0  0  0  0  0  0  0  0  0  0  0
    0.4521    1.0296    0.7159 C   0  0  0  0  0  0  0  0  0  0  0  0
    1.4366    1.7491    0.6548 O   0  0  0  0  0  0  0  0  0  0  0  0
   -0.7116    1.4936    1.3069 N   0  0  0  0  0  0  0  0  0  0  0  0
   -1.4546    0.8133    1.4268 H   0  0  0  0  0  0  0  0  0  0  0  0
   -0.8439    2.7853    1.9774 C   0  0  0  0  0  0  0  0  0  0  0  0
    0.0951    3.3484    1.9780 H   0  0  0  0  0  0  0  0  0  0  0  0
   -1.6022    3.3929    1.4740 H   0  0  0  0  0  0  0  0  0  0  0  0
   -1.1459    2.6365    3.0187 H   0  0  0  0  0  0  0  0  0  0  0  0
  1  2  1  0  0  0  0
  2  3  1  0  0  0  0
  2  4  1  0  0  0  0
  2  5  1  0  0  0  0
  5  6  2  0  0  0  0
  5  7  1  0  0  0  0
  7  8  1  0  0  0  0
  7  9  1  0  0  0  0
  9 10  1  0  0  0  0
  9 11  1  0  0  0  0
  9 12  1  0  0  0  0
 12 13  2  0  0  0  0
 12 14  1  0  0  0  0
 14 15  1  0  0  0  0
 14 16  1  0  0  0  0
 16 17  1  0  0  0  0
 16 18  1  0  0  0  0
 16 19  1  0  0  0  0
M  END
$$$$

  -OEChem-01062216083D

 19 18  0     0  0  0  0  0  0999 V2000
   -2.1358   -4.1830   -0.1609 H   0  0  0  0  0  0  0  0  0  0  0  0
   -2.2464   -3.0952   -0.1285 C   0  0  0  0  0  0  0  0  0  0  0  0
   -2.9051   -2.8336    0.7030 H   0  0  0  0  0  0  0  0  0  0  0  0
   -2.7007   -2.7617   -1.0647 H   0  0  0  0  0  0  0  0  0  0  0  0
   -0.8907   -2.4378    0.0557 C   0  0  0  0  0  0  0  0  0  0  0  0
    0.1028   -3.1292    0.2029 O   0  0  0  0  0  0  0  0  0  0  0  0
   -0.7914   -1.0594    0.0531 N   0  0  0  0  0  0  0  0  0  0  0  0
   -1.6293   -0.5486   -0.2136 H   0  0  0  0  0  0  0  0  0  0  0  0
    0.4960   -0.3366    0.0168 C   0  0  0  0  0  0  0  0  0  0  0  0
    1.2773   -0.9280    0.5053 H   0  0  0  0  0  0  0  0  0  0  0  0
    0.7997   -0.1847   -1.0233 H   0  0  0  0  0  0  0  0  0  0  0  0
    0.4599    1.0251    0.7211 C   0  0  0  0  0  0  0  0  0  0  0  0
    1.3177    1.8541    0.4609 O   0  0  0  0  0  0  0  0  0  0  0  0
   -0.5834    1.3448    1.5734 N   0  0  0  0  0  0  0  0  0  0  0  0
   -1.2095    0.5841    1.8193 H   0  0  0  0  0  0  0  0  0  0  0  0
   -0.7154    2.6120    2.2887 C   0  0  0  0  0  0  0  0  0  0  0  0
    0.1300    3.2818    2.0996 H   0  0  0  0  0  0  0  0  0  0  0  0
   -1.6302    3.1249    1.9763 H   0  0  0  0  0  0  0  0  0  0  0  0
   -0.7639    2.4294    3.3667 H   0  0  0  0  0  0  0  0  0  0  0  0
  1  2  1  0  0  0  0
  2  3  1  0  0  0  0
  2  4  1  0  0  0  0
  2  5  1  0  0  0  0
  5  6  2  0  0  0  0
  5  7  1  0  0  0  0
  7  8  1  0  0  0  0
  7  9  1  0  0  0  0
  9 10  1  0  0  0  0
  9 11  1  0  0  0  0
  9 12  1  0  0  0  0
 12 13  2  0  0  0  0
 12 14  1  0  0  0  0
 14 15  1  0  0  0  0
 14 16  1  0  0  0  0
 16 17  1  0  0  0  0
 16 18  1  0  0  0  0
 16 19  1  0  0  0  0
M  END
$$$$

  -OEChem-01062216083D

 19 18  0     0  0  0  0  0  0999 V2000
   -2.0609   -4.2211   -0.0129 H   0  0  0  0  0  0  0  0  0  0  0  0
   -2.2071   -3.1376   -0.0460 C   0  0  0  0  0  0  0  0  0  0  0  0
   -2.8349   -2.8422    0.7981 H   0  0  0  0  0  0  0  0  0  0  0  0
   -2.7160   -2.8808   -0.9782 H   0  0  0  0  0  0  0  0  0  0  0  0
   -0.8675   -2.4272    0.0268 C   0  0  0  0  0  0  0  0  0  0  0  0
    0.1626   -3.0782    0.0727 O   0  0  0  0  0  0  0  0  0  0  0  0
   -0.8221   -1.0463    0.0451 N   0  0  0  0  0  0  0  0  0  0  0  0
   -1.7034   -0.5588   -0.0980 H   0  0  0  0  0  0  0  0  0  0  0  0
    0.4252   -0.2671   -0.0779 C   0  0  0  0  0  0  0  0  0  0  0  0
    1.2698   -0.8296    0.3328 H   0  0  0  0  0  0  0  0  0  0  0  0
    0.6370   -0.0794   -1.1350 H   0  0  0  0  0  0  0  0  0  0  0  0
    0.3709    1.0744    0.6606 C   0  0  0  0  0  0  0  0  0  0  0  0
    0.9803    2.0370    0.2207 O   0  0  0  0  0  0  0  0  0  0  0  0
   -0.4062    1.2147    1.7956 N   0  0  0  0  0  0  0  0  0  0  0  0
   -0.8003    0.3634    2.1857 H   0  0  0  0  0  0  0  0  0  0  0  0
   -0.4447    2.4384    2.5870 C   0  0  0  0  0  0  0  0  0  0  0  0
    0.5387    2.6424    3.0232 H   0  0  0  0  0  0  0  0  0  0  0  0
   -0.7372    3.2905    1.9644 H   0  0  0  0  0  0  0  0  0  0  0  0
   -1.1719    2.3411    3.3986 H   0  0  0  0  0  0  0  0  0  0  0  0
  1  2  1  0  0  0  0
  2  3  1  0  0  0  0
  2  4  1  0  0  0  0
  2  5  1  0  0  0  0
  5  6  2  0  0  0  0
  5  7  1  0  0  0  0
  7  8  1  0  0  0  0
  7  9  1  0  0  0  0
  9 10  1  0  0  0  0
  9 11  1  0  0  0  0
  9 12  1  0  0  0  0
 12 13  2  0  0  0  0
 12 14  1  0  0  0  0
 14 15  1  0  0  0  0
 14 16  1  0  0  0  0
 16 17  1  0  0  0  0
 16 18  1  0  0  0  0
 16 19  1  0  0  0  0
M  END
$$$$

  -OEChem-01062216083D

 19 18  0     0  0  0  0  0  0999 V2000
   -2.0828   -4.1934   -0.0472 H   0  0  0  0  0  0  0  0  0  0  0  0
   -2.2179   -3.1080   -0.0341 C   0  0  0  0  0  0  0  0  0  0  0  0
   -2.8052   -2.8374    0.8467 H   0  0  0  0  0  0  0  0  0  0  0  0
   -2.7634   -2.8111   -0.9332 H   0  0  0  0  0  0  0  0  0  0  0  0
   -0.8684   -2.4148    0.0076 C   0  0  0  0  0  0  0  0  0  0  0  0
    0.1556   -3.0774    0.0198 O   0  0  0  0  0  0  0  0  0  0  0  0
   -0.8058   -1.0357    0.0451 N   0  0  0  0  0  0  0  0  0  0  0  0
   -1.6850   -0.5331   -0.0530 H   0  0  0  0  0  0  0  0  0  0  0  0
    0.4476   -0.2674   -0.0693 C   0  0  0  0  0  0  0  0  0  0  0  0
    1.2890   -0.8415    0.3316 H   0  0  0  0  0  0  0  0  0  0  0  0
    0.6594   -0.0647   -1.1237 H   0  0  0  0  0  0  0  0  0  0  0  0
    0.3935    1.0599    0.6923 C   0  0  0  0  0  0  0  0  0  0  0  0
    0.7674    2.0912    0.1550 O   0  0  0  0  0  0  0  0  0  0  0  0
   -0.1229    1.1007    1.9737 N   0  0  0  0  0  0  0  0  0  0  0  0
   -0.3602    0.2116    2.4049 H   0  0  0  0  0  0  0  0  0  0  0  0
   -0.1793    2.3168    2.7750 C   0  0  0  0  0  0  0  0  0  0  0  0
    0.8294    2.7020    2.9576 H   0  0  0  0  0  0  0  0  0  0  0  0
   -0.7634    3.0875    2.2609 H   0  0  0  0  0  0  0  0  0  0  0  0
   -0.6528    2.1125    3.7400 H   0  0  0  0  0  0  0  0  0  0  0  0
  1  2  1  0  0  0  0
  2  3  1  0  0  0  0
  2  4  1  0  0  0  0
  2  5  1  0  0  0  0
  5  6  2  0  0  0  0
  5  7  1  0  0  0  0
  7  8  1  0  0  0  0
  7  9  1  0  0  0  0
  9 10  1  0  0  0  0
  9 11  1  0  0  0  0
  9 12  1  0  0  0  0
 12 13  2  0  0  0  0
 12 14  1  0  0  0  0
 14 15  1  0  0  0  0
 14 16  1  0  0  0  0
 16 17  1  0  0  0  0
 16 18  1  0  0  0  0
 16 19  1  0  0  0  0
M  END
$$$$

  -OEChem-01062216083D

 19 18  0     0  0  0  0  0  0999 V2000
   -2.1025   -4.1721    0.0357 H   0  0  0  0  0  0  0  0  0  0  0  0
   -2.2266   -3.0873   -0.0272 C   0  0  0  0  0  0  0  0  0  0  0  0
   -2.8360   -2.7546    0.8165 H   0  0  0  0  0  0  0  0  0  0  0  0
   -2.7432   -2.8456   -0.9591 H   0  0  0  0  0  0  0  0  0  0  0  0
   -0.8721   -2.4037    0.0058 C   0  0  0  0  0  0  0  0  0  0  0  0
    0.1481   -3.0727   -0.0000 O   0  0  0  0  0  0  0  0  0  0  0  0
   -0.7989   -1.0257    0.0557 N   0  0  0  0  0  0  0  0  0  0  0  0
   -1.6754   -0.5143   -0.0184 H   0  0  0  0  0  0  0  0  0  0  0  0
    0.4568   -0.2650   -0.0650 C   0  0  0  0  0  0  0  0  0  0  0  0
    1.3013   -0.8469    0.3177 H   0  0  0  0  0  0  0  0  0  0  0  0
    0.6572   -0.0496   -1.1192 H   0  0  0  0  0  0  0  0  0  0  0  0
    0.4081    1.0518    0.7132 C   0  0  0  0  0  0  0  0  0  0  0  0
    0.5020    2.1180    0.1242 O   0  0  0  0  0  0  0  0  0  0  0  0
    0.2005    1.0346    2.0789 N   0  0  0  0  0  0  0  0  0  0  0  0
    0.1484    0.1251    2.5298 H   0  0  0  0  0  0  0  0  0  0  0  0
    0.1523    2.2388    2.8981 C   0  0  0  0  0  0  0  0  0  0  0  0
    1.1088    2.7698    2.8536 H   0  0  0  0  0  0  0  0  0  0  0  0
   -0.6401    2.9092    2.5489 H   0  0  0  0  0  0  0  0  0  0  0  0
   -0.0514    1.9785    3.9411 H   0  0  0  0  0  0  0  0  0  0  0  0
  1  2  1  0  0  0  0
  2  3  1  0  0  0  0
  2  4  1  0  0  0  0
  2  5  1  0  0  0  0
  5  6  2  0  0  0  0
  5  7  1  0  0  0  0
  7  8  1  0  0  0  0
  7  9  1  0  0  0  0
  9 10  1  0  0  0  0
  9 11  1  0  0  0  0
  9 12  1  0  0  0  0
 12 13  2  0  0  0  0
 12 14  1  0  0  0  0
 14 15  1  0  0  0  0
 14 16  1  0  0  0  0
 16 17  1  0  0  0  0
 16 18  1  0  0  0  0
 16 19  1  0  0  0  0
M  END
$$$$

  -OEChem-01062216083D

 19 18  0     0  0  0  0  0  0999 V2000
   -2.1254   -4.1484   -0.0089 H   0  0  0  0  0  0  0  0  0  0  0  0
   -2.2362   -3.0602   -0.0055 C   0  0  0  0  0  0  0  0  0  0  0  0
   -2.7993   -2.7673    0.8839 H   0  0  0  0  0  0  0  0  0  0  0  0
   -2.7931   -2.7606   -0.8967 H   0  0  0  0  0  0  0  0  0  0  0  0
   -0.8719   -2.3954    0.0009 C   0  0  0  0  0  0  0  0  0  0  0  0
    0.1393   -3.0780   -0.0272 O   0  0  0  0  0  0  0  0  0  0  0  0
   -0.7786   -1.0191    0.0577 N   0  0  0  0  0  0  0  0  0  0  0  0
   -1.6480   -0.4924    0.0083 H   0  0  0  0  0  0  0  0  0  0  0  0
    0.4854   -0.2746   -0.0614 C   0  0  0  0  0  0  0  0  0  0  0  0
    1.3248   -0.8697    0.3119 H   0  0  0  0  0  0  0  0  0  0  0  0
    0.6846   -0.0512   -1.1140 H   0  0  0  0  0  0  0  0  0  0  0  0
    0.4481    1.0364    0.7259 C   0  0  0  0  0  0  0  0  0  0  0  0
    0.2512    2.0934    0.1454 O   0  0  0  0  0  0  0  0  0  0  0  0
    0.5525    1.0154    2.1031 N   0  0  0  0  0  0  0  0  0  0  0  0
    0.6805    0.1109    2.5489 H   0  0  0  0  0  0  0  0  0  0  0  0
    0.4827    2.2128    2.9308 C   0  0  0  0  0  0  0  0  0  0  0  0
    1.2873    2.9072    2.6669 H   0  0  0  0  0  0  0  0  0  0  0  0
   -0.4790    2.7185    2.7938 H   0  0  0  0  0  0  0  0  0  0  0  0
    0.5868    1.9481    3.9874 H   0  0  0  0  0  0  0  0  0  0  0  0
  1  2  1  0  0  0  0
  2  3  1  0  0  0  0
  2  4  1  0  0  0  0
  2  5  1  0  0  0  0
  5  6  2  0  0  0  0
  5  7  1  0  0  0  0
  7  8  1  0  0  0  0
  7  9  1  0  0  0  0
  9 10  1  0  0  0  0
  9 11  1  0  0  0  0
  9 12  1  0  0  0  0
 12 13  2  0  0  0  0
 12 14  1  0  0  0  0
 14 15  1  0  0  0  0
 14 16  1  0  0  0  0
 16 17  1  0  0  0  0
 16 18  1  0  0  0  0
 16 19  1  0  0  0  0
M  END
$$$$

  -OEChem-01062216083D

 19 18  0     0  0  0  0  0  0999 V2000
   -2.1484   -4.1283    0.0244 H   0  0  0  0  0  0  0  0  0  0  0  0
   -2.2448   -3.0390    0.0089 C   0  0  0  0  0  0  0  0  0  0  0  0
   -2.8046   -2.7228    0.8922 H   0  0  0  0  0  0  0  0  0  0  0  0
   -2.7971   -2.7474   -0.8877 H   0  0  0  0  0  0  0  0  0  0  0  0
   -0.8722   -2.3917    0.0047 C   0  0  0  0  0  0  0  0  0  0  0  0
    0.1306   -3.0861   -0.0409 O   0  0  0  0  0  0  0  0  0  0  0  0
   -0.7613   -1.0172    0.0618 N   0  0  0  0  0  0  0  0  0  0  0  0
   -1.6240   -0.4770    0.0390 H   0  0  0  0  0  0  0  0  0  0  0  0
    0.5088   -0.2862   -0.0613 C   0  0  0  0  0  0  0  0  0  0  0  0
    1.3437   -0.8920    0.3042 H   0  0  0  0  0  0  0  0  0  0  0  0
    0.7044   -0.0603   -1.1139 H   0  0  0  0  0  0  0  0  0  0  0  0
    0.4845    1.0240    0.7281 C   0  0  0  0  0  0  0  0  0  0  0  0
    0.0031    2.0267    0.2213 O   0  0  0  0  0  0  0  0  0  0  0  0
    0.8955    1.0497    2.0469 N   0  0  0  0  0  0  0  0  0  0  0  0
    1.2196    0.1768    2.4546 H   0  0  0  0  0  0  0  0  0  0  0  0
    0.8188    2.2390    2.8861 C   0  0  0  0  0  0  0  0  0  0  0  0
    1.4101    3.0525    2.4524 H   0  0  0  0  0  0  0  0  0  0  0  0
   -0.2197    2.5720    2.9854 H   0  0  0  0  0  0  0  0  0  0  0  0
    1.2100    2.0227    3.8850 H   0  0  0  0  0  0  0  0  0  0  0  0
  1  2  1  0  0  0  0
  2  3  1  0  0  0  0
  2  4  1  0  0  0  0
  2  5  1  0  0  0  0
  5  6  2  0  0  0  0
  5  7  1  0  0  0  0
  7  8  1  0  0  0  0
  7  9  1  0  0  0  0
  9 10  1  0  0  0  0
  9 11  1  0  0  0  0
  9 12  1  0  0  0  0
 12 13  2  0  0  0  0
 12 14  1  0  0  0  0
 14 15  1  0  0  0  0
 14 16  1  0  0  0  0
 16 17  1  0  0  0  0
 16 18  1  0  0  0  0
 16 19  1  0  0  0  0
M  END
$$$$

  -OEChem-01062216083D

 19 18  0     0  0  0  0  0  0999 V2000
   -2.1582   -4.1128    0.0598 H   0  0  0  0  0  0  0  0  0  0  0  0
   -2.2476   -3.0230    0.0350 C   0  0  0  0  0  0  0  0  0  0  0  0
   -2.7825   -2.6939    0.9293 H   0  0  0  0  0  0  0  0  0  0  0  0
   -2.8202   -2.7365   -0.8506 H   0  0  0  0  0  0  0  0  0  0  0  0
   -0.8706   -2.3866   -0.0105 C   0  0  0  0  0  0  0  0  0  0  0  0
    0.1247   -3.0897   -0.0870 O   0  0  0  0  0  0  0  0  0  0  0  0
   -0.7447   -1.0135    0.0457 N   0  0  0  0  0  0  0  0  0  0  0  0
   -1.5997   -0.4605    0.0693 H   0  0  0  0  0  0  0  0  0  0  0  0
    0.5315   -0.2936   -0.0715 C   0  0  0  0  0  0  0  0  0  0  0  0
    1.3574   -0.9095    0.2973 H   0  0  0  0  0  0  0  0  0  0  0  0
    0.7336   -0.0682   -1.1227 H   0  0  0  0  0  0  0  0  0  0  0  0
    0.5124    1.0176    0.7177 C   0  0  0  0  0  0  0  0  0  0  0  0
   -0.2010    1.9360    0.3395 O   0  0  0  0  0  0  0  0  0  0  0  0
    1.1907    1.1242    1.9170 N   0  0  0  0  0  0  0  0  0  0  0  0
    1.7004    0.3076    2.2433 H   0  0  0  0  0  0  0  0  0  0  0  0
    1.1275    2.3053    2.7690 C   0  0  0  0  0  0  0  0  0  0  0  0
    1.5001    3.1846    2.2329 H   0  0  0  0  0  0  0  0  0  0  0  0
    0.0963    2.4955    3.0852 H   0  0  0  0  0  0  0  0  0  0  0  0
    1.7423    2.1602    3.6626 H   0  0  0  0  0  0  0  0  0  0  0  0
  1  2  1  0  0  0  0
  2  3  1  0  0  0  0
  2  4  1  0  0  0  0
  2  5  1  0  0  0  0
  5  6  2  0  0  0  0
  5  7  1  0  0  0  0
  7  8  1  0  0  0  0
  7  9  1  0  0  0  0
  9 10  1  0  0  0  0
  9 11  1  0  0  0  0
  9 12  1  0  0  0  0
 12 13  2  0  0  0  0
 12 14  1  0  0  0  0
 14 15  1  0  0  0  0
 14 16  1  0  0  0  0
 16 17  1  0  0  0  0
 16 18  1  0  0  0  0
 16 19  1  0  0  0  0
M  END
$$$$

  -OEChem-01062216083D

 19 18  0     0  0  0  0  0  0999 V2000
   -2.1764   -4.0964    0.0519 H   0  0  0  0  0  0  0  0  0  0  0  0
   -2.2509   -3.0054    0.0618 C   0  0  0  0  0  0  0  0  0  0  0  0
   -2.7396   -2.6945    0.9884 H   0  0  0  0  0  0  0  0  0  0  0  0
   -2.8592   -2.6863   -0.7879 H   0  0  0  0  0  0  0  0  0  0  0  0
   -0.8689   -2.3852   -0.0285 C   0  0  0  0  0  0  0  0  0  0  0  0
    0.1164   -3.0984   -0.1369 O   0  0  0  0  0  0  0  0  0  0  0  0
   -0.7265   -1.0140    0.0197 N   0  0  0  0  0  0  0  0  0  0  0  0
   -1.5707   -0.4488    0.1006 H   0  0  0  0  0  0  0  0  0  0  0  0
    0.5574   -0.3067   -0.0835 C   0  0  0  0  0  0  0  0  0  0  0  0
    1.3682   -0.9299    0.3063 H   0  0  0  0  0  0  0  0  0  0  0  0
    0.7800   -0.0916   -1.1325 H   0  0  0  0  0  0  0  0  0  0  0  0
    0.5376    1.0108    0.6968 C   0  0  0  0  0  0  0  0  0  0  0  0
   -0.3500    1.8244    0.4782 O   0  0  0  0  0  0  0  0  0  0  0  0
    1.4294    1.2310    1.7292 N   0  0  0  0  0  0  0  0  0  0  0  0
    2.0972    0.4948    1.9407 H   0  0  0  0  0  0  0  0  0  0  0  0
    1.3873    2.4127    2.5817 C   0  0  0  0  0  0  0  0  0  0  0  0
    1.5076    3.3215    1.9829 H   0  0  0  0  0  0  0  0  0  0  0  0
    0.4328    2.4660    3.1157 H   0  0  0  0  0  0  0  0  0  0  0  0
    2.1948    2.3762    3.3191 H   0  0  0  0  0  0  0  0  0  0  0  0
  1  2  1  0  0  0  0
  2  3  1  0  0  0  0
  2  4  1  0  0  0  0
  2  5  1  0  0  0  0
  5  6  2  0  0  0  0
  5  7  1  0  0  0  0
  7  8  1  0  0  0  0
  7  9  1  0  0  0  0
  9 10  1  0  0  0  0
  9 11  1  0  0  0  0
  9 12  1  0  0  0  0
 12 13  2  0  0  0  0
 12 14  1  0  0  0  0
 14 15  1  0  0  0  0
 14 16  1  0  0  0  0
 16 17  1  0  0  0  0
 16 18  1  0  0  0  0
 16 19  1  0  0  0  0
M  END
$$$$

  -OEChem-01062216083D

 19 18  0     0  0  0  0  0  0999 V2000
   -2.1820   -4.0944    0.0424 H   0  0  0  0  0  0  0  0  0  0  0  0
   -2.2508   -3.0035    0.0814 C   0  0  0  0  0  0  0  0  0  0  0  0
   -2.6977   -2.7127    1.0353 H   0  0  0  0  0  0  0  0  0  0  0  0
   -2.8937   -2.6615   -0.7333 H   0  0  0  0  0  0  0  0  0  0  0  0
   -0.8706   -2.3870   -0.0542 C   0  0  0  0  0  0  0  0  0  0  0  0
    0.1081   -3.1027   -0.2006 O   0  0  0  0  0  0  0  0  0  0  0  0
   -0.7219   -1.0165   -0.0070 N   0  0  0  0  0  0  0  0  0  0  0  0
   -1.5552   -0.4495    0.1471 H   0  0  0  0  0  0  0  0  0  0  0  0
    0.5664   -0.3146   -0.0913 C   0  0  0  0  0  0  0  0  0  0  0  0
    1.3636   -0.9424    0.3183 H   0  0  0  0  0  0  0  0  0  0  0  0
    0.8091   -0.1066   -1.1371 H   0  0  0  0  0  0  0  0  0  0  0  0
    0.5448    1.0073    0.6845 C   0  0  0  0  0  0  0  0  0  0  0  0
   -0.4546    1.7137    0.6460 O   0  0  0  0  0  0  0  0  0  0  0  0
    1.5977    1.3573    1.5084 N   0  0  0  0  0  0  0  0  0  0  0  0
    2.3854    0.7180    1.5668 H   0  0  0  0  0  0  0  0  0  0  0  0
    1.6013    2.5591    2.3334 C   0  0  0  0  0  0  0  0  0  0  0  0
    1.5284    3.4546    1.7072 H   0  0  0  0  0  0  0  0  0  0  0  0
    0.7579    2.5474    3.0318 H   0  0  0  0  0  0  0  0  0  0  0  0
    2.5283    2.6172    2.9119 H   0  0  0  0  0  0  0  0  0  0  0  0
  1  2  1  0  0  0  0
  2  3  1  0  0  0  0
  2  4  1  0  0  0  0
  2  5  1  0  0  0  0
  5  6  2  0  0  0  0
  5  7  1  0  0  0  0
  7  8  1  0  0  0  0
  7  9  1  0  0  0  0
  9 10  1  0  0  0  0
  9 11  1  0  0  0  0
  9 12  1  0  0  0  0
 12 13  2  0  0  0  0
 12 14  1  0  0  0  0
 14 15  1  0  0  0  0
 14 16  1  0  0  0  0
 16 17  1  0  0  0  0
 16 18  1  0  0  0  0
 16 19  1  0  0  0  0
M  END
$$$$

  -OEChem-01062216083D

 19 18  0     0  0  0  0  0  0999 V2000
   -2.2628   -4.0488    0.0355 H   0  0  0  0  0  0  0  0  0  0  0  0
   -2.2971   -2.9558    0.0216 C   0  0  0  0  0  0  0  0  0  0  0  0
   -2.7886   -2.6074    0.9333 H   0  0  0  0  0  0  0  0  0  0  0  0
   -2.8795   -2.6325   -0.8447 H   0  0  0  0  0  0  0  0  0  0  0  0
   -0.8917   -2.3890   -0.0583 C   0  0  0  0  0  0  0  0  0  0  0  0
    0.0695   -3.1403   -0.1162 O   0  0  0  0  0  0  0  0  0  0  0  0
   -0.7002   -1.0233   -0.0626 N   0  0  0  0  0  0  0  0  0  0  0  0
   -1.5186   -0.4259    0.0537 H   0  0  0  0  0  0  0  0  0  0  0  0
    0.6150   -0.3682   -0.0418 C   0  0  0  0  0  0  0  0  0  0  0  0
    1.3379   -0.9990    0.4846 H   0  0  0  0  0  0  0  0  0  0  0  0
    0.9742   -0.2272   -1.0649 H   0  0  0  0  0  0  0  0  0  0  0  0
    0.5693    0.9950    0.6603 C   0  0  0  0  0  0  0  0  0  0  0  0
   -0.4775    1.6309    0.6760 O   0  0  0  0  0  0  0  0  0  0  0  0
    1.6872    1.4713    1.3222 N   0  0  0  0  0  0  0  0  0  0  0  0
    2.5173    0.8855    1.3078 H   0  0  0  0  0  0  0  0  0  0  0  0
    1.7454    2.7332    2.0564 C   0  0  0  0  0  0  0  0  0  0  0  0
    0.7912    3.2695    2.0311 H   0  0  0  0  0  0  0  0  0  0  0  0
    1.9981    2.5450    3.1044 H   0  0  0  0  0  0  0  0  0  0  0  0
    2.5097    3.3844    1.6210 H   0  0  0  0  0  0  0  0  0  0  0  0
  1  2  1  0  0  0  0
  2  3  1  0  0  0  0
  2  4  1  0  0  0  0
  2  5  1  0  0  0  0
  5  6  2  0  0  0  0
  5  7  1  0  0  0  0
  7  8  1  0  0  0  0
  7  9  1  0  0  0  0
  9 10  1  0  0  0  0
  9 11  1  0  0  0  0
  9 12  1  0  0  0  0
 12 13  2  0  0  0  0
 12 14  1  0  0  0  0
 14 15  1  0  0  0  0
 14 16  1  0  0  0  0
 16 17  1  0  0  0  0
 16 18  1  0  0  0  0
 16 19  1  0  0  0  0
M  END
$$$$

  -OEChem-01062216083D

 19 18  0     0  0  0  0  0  0999 V2000
   -2.3457   -3.9897   -0.0409 H   0  0  0  0  0  0  0  0  0  0  0  0
   -2.3361   -2.8963   -0.0359 C   0  0  0  0  0  0  0  0  0  0  0  0
   -2.8489   -2.5429    0.8620 H   0  0  0  0  0  0  0  0  0  0  0  0
   -2.8705   -2.5356   -0.9180 H   0  0  0  0  0  0  0  0  0  0  0  0
   -0.9072   -2.3855   -0.0507 C   0  0  0  0  0  0  0  0  0  0  0  0
    0.0255   -3.1726   -0.0043 O   0  0  0  0  0  0  0  0  0  0  0  0
   -0.6618   -1.0300   -0.1141 N   0  0  0  0  0  0  0  0  0  0  0  0
   -1.4616   -0.4008   -0.0429 H   0  0  0  0  0  0  0  0  0  0  0  0
    0.6705   -0.4250    0.0216 C   0  0  0  0  0  0  0  0  0  0  0  0
    1.2996   -1.0459    0.6671 H   0  0  0  0  0  0  0  0  0  0  0  0
    1.1493   -0.3653   -0.9597 H   0  0  0  0  0  0  0  0  0  0  0  0
    0.6085    0.9816    0.6316 C   0  0  0  0  0  0  0  0  0  0  0  0
   -0.4617    1.5745    0.7031 O   0  0  0  0  0  0  0  0  0  0  0  0
    1.7543    1.5808    1.1189 N   0  0  0  0  0  0  0  0  0  0  0  0
    2.6231    1.0566    1.0659 H   0  0  0  0  0  0  0  0  0  0  0  0
    1.7646    2.9044    1.7298 C   0  0  0  0  0  0  0  0  0  0  0  0
    1.1400    2.9166    2.6291 H   0  0  0  0  0  0  0  0  0  0  0  0
    2.7843    3.1821    2.0130 H   0  0  0  0  0  0  0  0  0  0  0  0
    1.3856    3.6539    1.0272 H   0  0  0  0  0  0  0  0  0  0  0  0
  1  2  1  0  0  0  0
  2  3  1  0  0  0  0
  2  4  1  0  0  0  0
  2  5  1  0  0  0  0
  5  6  2  0  0  0  0
  5  7  1  0  0  0  0
  7  8  1  0  0  0  0
  7  9  1  0  0  0  0
  9 10  1  0  0  0  0
  9 11  1  0  0  0  0
  9 12  1  0  0  0  0
 12 13  2  0  0  0  0
 12 14  1  0  0  0  0
 14 15  1  0  0  0  0
 14 16  1  0  0  0  0
 16 17  1  0  0  0  0
 16 18  1  0  0  0  0
 16 19  1  0  0  0  0
M  END
$$$$

  -OEChem-01062216083D

 19 18  0     0  0  0  0  0  0999 V2000
   -2.3456   -3.9724    0.0230 H   0  0  0  0  0  0  0  0  0  0  0  0
   -2.3282   -2.8789    0.0181 C   0  0  0  0  0  0  0  0  0  0  0  0
   -2.7759   -2.5153    0.9463 H   0  0  0  0  0  0  0  0  0  0  0  0
   -2.9198   -2.5213   -0.8281 H   0  0  0  0  0  0  0  0  0  0  0  0
   -0.9003   -2.3785   -0.1000 C   0  0  0  0  0  0  0  0  0  0  0  0
    0.0237   -3.1764   -0.1394 O   0  0  0  0  0  0  0  0  0  0  0  0
   -0.6536   -1.0227   -0.1725 N   0  0  0  0  0  0  0  0  0  0  0  0
   -1.4409   -0.4110    0.0425 H   0  0  0  0  0  0  0  0  0  0  0  0
    0.6836   -0.4274   -0.0227 C   0  0  0  0  0  0  0  0  0  0  0  0
    1.3846   -1.1523    0.4027 H   0  0  0  0  0  0  0  0  0  0  0  0
    1.0612   -0.1343   -1.0059 H   0  0  0  0  0  0  0  0  0  0  0  0
    0.6752    0.8033    0.8942 C   0  0  0  0  0  0  0  0  0  0  0  0
   -0.3787    1.2186    1.3619 O   0  0  0  0  0  0  0  0  0  0  0  0
    1.8491    1.4872    1.1466 N   0  0  0  0  0  0  0  0  0  0  0  0
    2.7089    1.1145    0.7539 H   0  0  0  0  0  0  0  0  0  0  0  0
    1.9161    2.6703    1.9961 C   0  0  0  0  0  0  0  0  0  0  0  0
    1.5803    2.4321    3.0109 H   0  0  0  0  0  0  0  0  0  0  0  0
    2.9446    3.0401    2.0500 H   0  0  0  0  0  0  0  0  0  0  0  0
    1.2831    3.4680    1.5933 H   0  0  0  0  0  0  0  0  0  0  0  0
  1  2  1  0  0  0  0
  2  3  1  0  0  0  0
  2  4  1  0  0  0  0
  2  5  1  0  0  0  0
  5  6  2  0  0  0  0
  5  7  1  0  0  0  0
  7  8  1  0  0  0  0
  7  9  1  0  0  0  0
  9 10  1  0  0  0  0
  9 11  1  0  0  0  0
  9 12  1  0  0  0  0
 12 13  2  0  0  0  0
 12 14  1  0  0  0  0
 14 15  1  0  0  0  0
 14 16  1  0  0  0  0
 16 17  1  0  0  0  0
 16 18  1  0  0  0  0
 16 19  1  0  0  0  0
M  END
$$$$

  -OEChem-01062216083D

 19 18  0     0  0  0  0  0  0999 V2000
   -2.3304   -3.9795    0.0232 H   0  0  0  0  0  0  0  0  0  0  0  0
   -2.3198   -2.8860    0.0176 C   0  0  0  0  0  0  0  0  0  0  0  0
   -2.7601   -2.5245    0.9500 H   0  0  0  0  0  0  0  0  0  0  0  0
   -2.9216   -2.5318   -0.8228 H   0  0  0  0  0  0  0  0  0  0  0  0
   -0.8964   -2.3771   -0.1146 C   0  0  0  0  0  0  0  0  0  0  0  0
    0.0314   -3.1695   -0.1714 O   0  0  0  0  0  0  0  0  0  0  0  0
   -0.6595   -1.0192   -0.1850 N   0  0  0  0  0  0  0  0  0  0  0  0
   -1.4485   -0.4204    0.0571 H   0  0  0  0  0  0  0  0  0  0  0  0
    0.6745   -0.4235   -0.0090 C   0  0  0  0  0  0  0  0  0  0  0  0
    1.3698   -1.1454    0.4307 H   0  0  0  0  0  0  0  0  0  0  0  0
    1.0686   -0.1334   -0.9867 H   0  0  0  0  0  0  0  0  0  0  0  0
    0.6473    0.8083    0.9066 C   0  0  0  0  0  0  0  0  0  0  0  0
   -0.3678    1.0913    1.5319 O   0  0  0  0  0  0  0  0  0  0  0  0
    1.7277    1.6693    0.9411 N   0  0  0  0  0  0  0  0  0  0  0  0
    2.5535    1.4159    0.4061 H   0  0  0  0  0  0  0  0  0  0  0  0
    1.7546    2.8848    1.7457 C   0  0  0  0  0  0  0  0  0  0  0  0
    1.6293    2.6448    2.8069 H   0  0  0  0  0  0  0  0  0  0  0  0
    2.7112    3.4008    1.6186 H   0  0  0  0  0  0  0  0  0  0  0  0
    0.9520    3.5644    1.4405 H   0  0  0  0  0  0  0  0  0  0  0  0
  1  2  1  0  0  0  0
  2  3  1  0  0  0  0
  2  4  1  0  0  0  0
  2  5  1  0  0  0  0
  5  6  2  0  0  0  0
  5  7  1  0  0  0  0
  7  8  1  0  0  0  0
  7  9  1  0  0  0  0
  9 10  1  0  0  0  0
  9 11  1  0  0  0  0
  9 12  1  0  0  0  0
 12 13  2  0  0  0  0
 12 14  1  0  0  0  0
 14 15  1  0  0  0  0
 14 16  1  0  0  0  0
 16 17  1  0  0  0  0
 16 18  1  0  0  0  0
 16 19  1  0  0  0  0
M  END
$$$$

  -OEChem-01062216083D

 19 18  0     0  0  0  0  0  0999 V2000
   -2.3204   -3.9822   -0.0017 H   0  0  0  0  0  0  0  0  0  0  0  0
   -2.3102   -2.8889    0.0266 C   0  0  0  0  0  0  0  0  0  0  0  0
   -2.7201   -2.5570    0.9838 H   0  0  0  0  0  0  0  0  0  0  0  0
   -2.9391   -2.5100   -0.7826 H   0  0  0  0  0  0  0  0  0  0  0  0
   -0.8917   -2.3739   -0.1335 C   0  0  0  0  0  0  0  0  0  0  0  0
    0.0374   -3.1626   -0.2157 O   0  0  0  0  0  0  0  0  0  0  0  0
   -0.6617   -1.0142   -0.1960 N   0  0  0  0  0  0  0  0  0  0  0  0
   -1.4513   -0.4284    0.0726 H   0  0  0  0  0  0  0  0  0  0  0  0
    0.6706   -0.4206    0.0009 C   0  0  0  0  0  0  0  0  0  0  0  0
    1.3609   -1.1432    0.4476 H   0  0  0  0  0  0  0  0  0  0  0  0
    1.0775   -0.1280   -0.9706 H   0  0  0  0  0  0  0  0  0  0  0  0
    0.6272    0.8062    0.9221 C   0  0  0  0  0  0  0  0  0  0  0  0
   -0.3066    0.9571    1.7003 O   0  0  0  0  0  0  0  0  0  0  0  0
    1.5454    1.8270    0.7629 N   0  0  0  0  0  0  0  0  0  0  0  0
    2.2913    1.6927    0.0863 H   0  0  0  0  0  0  0  0  0  0  0  0
    1.5079    3.0636    1.5345 C   0  0  0  0  0  0  0  0  0  0  0  0
    1.5606    2.8485    2.6072 H   0  0  0  0  0  0  0  0  0  0  0  0
    2.3567    3.7010    1.2686 H   0  0  0  0  0  0  0  0  0  0  0  0
    0.5838    3.6147    1.3303 H   0  0  0  0  0  0  0  0  0  0  0  0
  1  2  1  0  0  0  0
  2  3  1  0  0  0  0
  2  4  1  0  0  0  0
  2  5  1  0  0  0  0
  5  6  2  0  0  0  0
  5  7  1  0  0  0  0
  7  8  1  0  0  0  0
  7  9  1  0  0  0  0
  9 10  1  0  0  0  0
  9 11  1  0  0  0  0
  9 12  1  0  0  0  0
 12 13  2  0  0  0  0
 12 14  1  0  0  0  0
 14 15  1  0  0  0  0
 14 16  1  0  0  0  0
 16 17  1  0  0  0  0
 16 18  1  0  0  0  0
 16 19  1  0  0  0  0
M  END
$$$$

  -OEChem-01062216083D

 19 18  0     0  0  0  0  0  0999 V2000
   -2.3087   -3.9878   -0.0090 H   0  0  0  0  0  0  0  0  0  0  0  0
   -2.3049   -2.8948    0.0211 C   0  0  0  0  0  0  0  0  0  0  0  0
   -2.7185   -2.5677    0.9782 H   0  0  0  0  0  0  0  0  0  0  0  0
   -2.9343   -2.5184   -0.7887 H   0  0  0  0  0  0  0  0  0  0  0  0
   -0.8889   -2.3720   -0.1353 C   0  0  0  0  0  0  0  0  0  0  0  0
    0.0438   -3.1562   -0.2188 O   0  0  0  0  0  0  0  0  0  0  0  0
   -0.6657   -1.0110   -0.1987 N   0  0  0  0  0  0  0  0  0  0  0  0
   -1.4619   -0.4312    0.0610 H   0  0  0  0  0  0  0  0  0  0  0  0
    0.6631   -0.4151    0.0154 C   0  0  0  0  0  0  0  0  0  0  0  0
    1.3473   -1.1342    0.4771 H   0  0  0  0  0  0  0  0  0  0  0  0
    1.0869   -0.1282   -0.9505 H   0  0  0  0  0  0  0  0  0  0  0  0
    0.6006    0.8127    0.9333 C   0  0  0  0  0  0  0  0  0  0  0  0
   -0.1942    0.8387    1.8637 O   0  0  0  0  0  0  0  0  0  0  0  0
    1.2952    1.9630    0.6083 N   0  0  0  0  0  0  0  0  0  0  0  0
    1.9228    1.9287   -0.1898 H   0  0  0  0  0  0  0  0  0  0  0  0
    1.2118    3.1934    1.3865 C   0  0  0  0  0  0  0  0  0  0  0  0
    1.5567    3.0221    2.4117 H   0  0  0  0  0  0  0  0  0  0  0  0
    1.8384    3.9690    0.9359 H   0  0  0  0  0  0  0  0  0  0  0  0
    0.1800    3.5589    1.4183 H   0  0  0  0  0  0  0  0  0  0  0  0
  1  2  1  0  0  0  0
  2  3  1  0  0  0  0
  2  4  1  0  0  0  0
  2  5  1  0  0  0  0
  5  6  2  0  0  0  0
  5  7  1  0  0  0  0
  7  8  1  0  0  0  0
  7  9  1  0  0  0  0
  9 10  1  0  0  0  0
  9 11  1  0  0  0  0
  9 12  1  0  0  0  0
 12 13  2  0  0  0  0
 12 14  1  0  0  0  0
 14 15  1  0  0  0  0
 14 16  1  0  0  0  0
 16 17  1  0  0  0  0
 16 18  1  0  0  0  0
 16 19  1  0  0  0  0
M  END
$$$$

  -OEChem-01062216083D

 19 18  0     0  0  0  0  0  0999 V2000
   -2.2981   -3.9924   -0.0169 H   0  0  0  0  0  0  0  0  0  0  0  0
   -2.2994   -2.8994    0.0200 C   0  0  0  0  0  0  0  0  0  0  0  0
   -2.7119   -2.5802    0.9804 H   0  0  0  0  0  0  0  0  0  0  0  0
   -2.9329   -2.5205   -0.7856 H   0  0  0  0  0  0  0  0  0  0  0  0
   -0.8863   -2.3688   -0.1369 C   0  0  0  0  0  0  0  0  0  0  0  0
    0.0484   -3.1483   -0.2379 O   0  0  0  0  0  0  0  0  0  0  0  0
   -0.6699   -1.0060   -0.1885 N   0  0  0  0  0  0  0  0  0  0  0  0
   -1.4703   -0.4336    0.0722 H   0  0  0  0  0  0  0  0  0  0  0  0
    0.6583   -0.4092    0.0285 C   0  0  0  0  0  0  0  0  0  0  0  0
    1.3441   -1.1301    0.4853 H   0  0  0  0  0  0  0  0  0  0  0  0
    1.0841   -0.1152   -0.9345 H   0  0  0  0  0  0  0  0  0  0  0  0
    0.5924    0.8082    0.9578 C   0  0  0  0  0  0  0  0  0  0  0  0
   -0.0014    0.7279    2.0240 O   0  0  0  0  0  0  0  0  0  0  0  0
    1.0122    2.0479    0.5126 N   0  0  0  0  0  0  0  0  0  0  0  0
    1.4554    2.0987   -0.4000 H   0  0  0  0  0  0  0  0  0  0  0  0
    0.8685    3.2697    1.2955 C   0  0  0  0  0  0  0  0  0  0  0  0
    1.3936    3.1764    2.2520 H   0  0  0  0  0  0  0  0  0  0  0  0
    1.2911    4.1198    0.7512 H   0  0  0  0  0  0  0  0  0  0  0  0
   -0.1887    3.4765    1.4924 H   0  0  0  0  0  0  0  0  0  0  0  0
  1  2  1  0  0  0  0
  2  3  1  0  0  0  0
  2  4  1  0  0  0  0
  2  5  1  0  0  0  0
  5  6  2  0  0  0  0
  5  7  1  0  0  0  0
  7  8  1  0  0  0  0
  7  9  1  0  0  0  0
  9 10  1  0  0  0  0
  9 11  1  0  0  0  0
  9 12  1  0  0  0  0
 12 13  2  0  0  0  0
 12 14  1  0  0  0  0
 14 15  1  0  0  0  0
 14 16  1  0  0  0  0
 16 17  1  0  0  0  0
 16 18  1  0  0  0  0
 16 19  1  0  0  0  0
M  END
$$$$

  -OEChem-01062216083D

 19 18  0     0  0  0  0  0  0999 V2000
   -2.2881   -4.0078   -0.0364 H   0  0  0  0  0  0  0  0  0  0  0  0
   -2.2973   -2.9148    0.0035 C   0  0  0  0  0  0  0  0  0  0  0  0
   -2.7280   -2.6014    0.9578 H   0  0  0  0  0  0  0  0  0  0  0  0
   -2.9199   -2.5391   -0.8121 H   0  0  0  0  0  0  0  0  0  0  0  0
   -0.8851   -2.3743   -0.1281 C   0  0  0  0  0  0  0  0  0  0  0  0
    0.0551   -3.1480   -0.2175 O   0  0  0  0  0  0  0  0  0  0  0  0
   -0.6767   -1.0095   -0.1744 N   0  0  0  0  0  0  0  0  0  0  0  0
   -1.4886   -0.4395    0.0508 H   0  0  0  0  0  0  0  0  0  0  0  0
    0.6457   -0.4011    0.0489 C   0  0  0  0  0  0  0  0  0  0  0  0
    1.3339   -1.1185    0.5083 H   0  0  0  0  0  0  0  0  0  0  0  0
    1.0783   -0.1019   -0.9093 H   0  0  0  0  0  0  0  0  0  0  0  0
    0.5664    0.8128    0.9808 C   0  0  0  0  0  0  0  0  0  0  0  0
    0.2477    0.6643    2.1513 O   0  0  0  0  0  0  0  0  0  0  0  0
    0.6748    2.0920    0.4677 N   0  0  0  0  0  0  0  0  0  0  0  0
    0.9041    2.1900   -0.5171 H   0  0  0  0  0  0  0  0  0  0  0  0
    0.5264    3.2936    1.2806 C   0  0  0  0  0  0  0  0  0  0  0  0
    1.2833    3.3166    2.0716 H   0  0  0  0  0  0  0  0  0  0  0  0
    0.6468    4.1873    0.6608 H   0  0  0  0  0  0  0  0  0  0  0  0
   -0.4663    3.3251    1.7420 H   0  0  0  0  0  0  0  0  0  0  0  0
  1  2  1  0  0  0  0
  2  3  1  0  0  0  0
  2  4  1  0  0  0  0
  2  5  1  0  0  0  0
  5  6  2  0  0  0  0
  5  7  1  0  0  0  0
  7  8  1  0  0  0  0
  7  9  1  0  0  0  0
  9 10  1  0  0  0  0
  9 11  1  0  0  0  0
  9 12  1  0  0  0  0
 12 13  2  0  0  0  0
 12 14  1  0  0  0  0
 14 15  1  0  0  0  0
 14 16  1  0  0  0  0
 16 17  1  0  0  0  0
 16 18  1  0  0  0  0
 16 19  1  0  0  0  0
M  END
$$$$

  -OEChem-01062216083D

 19 18  0     0  0  0  0  0  0999 V2000
   -2.2820   -4.0248   -0.0958 H   0  0  0  0  0  0  0  0  0  0  0  0
   -2.2983   -2.9332   -0.0274 C   0  0  0  0  0  0  0  0  0  0  0  0
   -2.7528   -2.6473    0.9244 H   0  0  0  0  0  0  0  0  0  0  0  0
   -2.9040   -2.5388   -0.8469 H   0  0  0  0  0  0  0  0  0  0  0  0
   -0.8862   -2.3832   -0.1119 C   0  0  0  0  0  0  0  0  0  0  0  0
    0.0602   -3.1511   -0.1785 O   0  0  0  0  0  0  0  0  0  0  0  0
   -0.6852   -1.0167   -0.1474 N   0  0  0  0  0  0  0  0  0  0  0  0
   -1.5079   -0.4477    0.0358 H   0  0  0  0  0  0  0  0  0  0  0  0
    0.6315   -0.3961    0.0796 C   0  0  0  0  0  0  0  0  0  0  0  0
    1.3266   -1.1113    0.5328 H   0  0  0  0  0  0  0  0  0  0  0  0
    1.0633   -0.0845   -0.8750 H   0  0  0  0  0  0  0  0  0  0  0  0
    0.5419    0.8099    1.0194 C   0  0  0  0  0  0  0  0  0  0  0  0
    0.5488    0.6511    2.2305 O   0  0  0  0  0  0  0  0  0  0  0  0
    0.3252    2.0730    0.5005 N   0  0  0  0  0  0  0  0  0  0  0  0
    0.3273    2.1754   -0.5102 H   0  0  0  0  0  0  0  0  0  0  0  0
    0.1943    3.2651    1.3301 C   0  0  0  0  0  0  0  0  0  0  0  0
    1.1277    3.4612    1.8680 H   0  0  0  0  0  0  0  0  0  0  0  0
   -0.0372    4.1352    0.7083 H   0  0  0  0  0  0  0  0  0  0  0  0
   -0.6130    3.1395    2.0595 H   0  0  0  0  0  0  0  0  0  0  0  0
  1  2  1  0  0  0  0
  2  3  1  0  0  0  0
  2  4  1  0  0  0  0
  2  5  1  0  0  0  0
  5  6  2  0  0  0  0
  5  7  1  0  0  0  0
  7  8  1  0  0  0  0
  7  9  1  0  0  0  0
  9 10  1  0  0  0  0
  9 11  1  0  0  0  0
  9 12  1  0  0  0  0
 12 13  2  0  0  0  0
 12 14  1  0  0  0  0
 14 15  1  0  0  0  0
 14 16  1  0  0  0  0
 16 17  1  0  0  0  0
 16 18  1  0  0  0  0
 16 19  1  0  0  0  0
M  END
$$$$

  -OEChem-01062216083D

 19 18  0     0  0  0  0  0  0999 V2000
   -2.2691   -4.0424   -0.0747 H   0  0  0  0  0  0  0  0  0  0  0  0
   -2.2947   -2.9493   -0.0437 C   0  0  0  0  0  0  0  0  0  0  0  0
   -2.7754   -2.6356    0.8861 H   0  0  0  0  0  0  0  0  0  0  0  0
   -2.8816   -2.5872   -0.8912 H   0  0  0  0  0  0  0  0  0  0  0  0
   -0.8848   -2.3916   -0.1118 C   0  0  0  0  0  0  0  0  0  0  0  0
    0.0657   -3.1537   -0.1792 O   0  0  0  0  0  0  0  0  0  0  0  0
   -0.6922   -1.0233   -0.1280 N   0  0  0  0  0  0  0  0  0  0  0  0
   -1.5207   -0.4593    0.0430 H   0  0  0  0  0  0  0  0  0  0  0  0
    0.6212   -0.3927    0.0944 C   0  0  0  0  0  0  0  0  0  0  0  0
    1.3293   -1.1091    0.5256 H   0  0  0  0  0  0  0  0  0  0  0  0
    1.0379   -0.0578   -0.8591 H   0  0  0  0  0  0  0  0  0  0  0  0
    0.5288    0.7982    1.0530 C   0  0  0  0  0  0  0  0  0  0  0  0
    0.8643    0.6843    2.2217 O   0  0  0  0  0  0  0  0  0  0  0  0
   -0.0067    1.9936    0.6104 N   0  0  0  0  0  0  0  0  0  0  0  0
   -0.2302    2.0721   -0.3773 H   0  0  0  0  0  0  0  0  0  0  0  0
   -0.1174    3.1771    1.4549 C   0  0  0  0  0  0  0  0  0  0  0  0
    0.8735    3.5048    1.7865 H   0  0  0  0  0  0  0  0  0  0  0  0
   -0.5850    3.9957    0.8995 H   0  0  0  0  0  0  0  0  0  0  0  0
   -0.7312    2.9641    2.3365 H   0  0  0  0  0  0  0  0  0  0  0  0
  1  2  1  0  0  0  0
  2  3  1  0  0  0  0
  2  4  1  0  0  0  0
  2  5  1  0  0  0  0
  5  6  2  0  0  0  0
  5  7  1  0  0  0  0
  7  8  1  0  0  0  0
  7  9  1  0  0  0  0
  9 10  1  0  0  0  0
  9 11  1  0  0  0  0
  9 12  1  0  0  0  0
 12 13  2  0  0  0  0
 12 14  1  0  0  0  0
 14 15  1  0  0  0  0
 14 16  1  0  0  0  0
 16 17  1  0  0  0  0
 16 18  1  0  0  0  0
 16 19  1  0  0  0  0
M  END
$$$$

  -OEChem-01062216083D

 19 18  0     0  0  0  0  0  0999 V2000
   -2.2608   -4.0628   -0.1181 H   0  0  0  0  0  0  0  0  0  0  0  0
   -2.2940   -2.9708   -0.0670 C   0  0  0  0  0  0  0  0  0  0  0  0
   -2.7867   -2.6781    0.8633 H   0  0  0  0  0  0  0  0  0  0  0  0
   -2.8747   -2.5974   -0.9138 H   0  0  0  0  0  0  0  0  0  0  0  0
   -0.8871   -2.4031   -0.1097 C   0  0  0  0  0  0  0  0  0  0  0  0
    0.0684   -3.1591   -0.1682 O   0  0  0  0  0  0  0  0  0  0  0  0
   -0.7027   -1.0332   -0.1082 N   0  0  0  0  0  0  0  0  0  0  0  0
   -1.5361   -0.4749    0.0551 H   0  0  0  0  0  0  0  0  0  0  0  0
    0.6087   -0.3947    0.1121 C   0  0  0  0  0  0  0  0  0  0  0  0
    1.3262   -1.1132    0.5236 H   0  0  0  0  0  0  0  0  0  0  0  0
    1.0119   -0.0415   -0.8407 H   0  0  0  0  0  0  0  0  0  0  0  0
    0.5248    0.7840    1.0872 C   0  0  0  0  0  0  0  0  0  0  0  0
    1.1468    0.7685    2.1379 O   0  0  0  0  0  0  0  0  0  0  0  0
   -0.2836    1.8659    0.7884 N   0  0  0  0  0  0  0  0  0  0  0  0
   -0.6978    1.8982   -0.1382 H   0  0  0  0  0  0  0  0  0  0  0  0
   -0.3734    3.0464    1.6401 C   0  0  0  0  0  0  0  0  0  0  0  0
    0.6022    3.5378    1.7188 H   0  0  0  0  0  0  0  0  0  0  0  0
   -1.0889    3.7611    1.2224 H   0  0  0  0  0  0  0  0  0  0  0  0
   -0.7106    2.7701    2.6448 H   0  0  0  0  0  0  0  0  0  0  0  0
  1  2  1  0  0  0  0
  2  3  1  0  0  0  0
  2  4  1  0  0  0  0
  2  5  1  0  0  0  0
  5  6  2  0  0  0  0
  5  7  1  0  0  0  0
  7  8  1  0  0  0  0
  7  9  1  0  0  0  0
  9 10  1  0  0  0  0
  9 11  1  0  0  0  0
  9 12  1  0  0  0  0
 12 13  2  0  0  0  0
 12 14  1  0  0  0  0
 14 15  1  0  0  0  0
 14 16  1  0  0  0  0
 16 17  1  0  0  0  0
 16 18  1  0  0  0  0
 16 19  1  0  0  0  0
M  END
$$$$

  -OEChem-01062216083D

 19 18  0     0  0  0  0  0  0999 V2000
   -2.2581   -4.0798   -0.1963 H   0  0  0  0  0  0  0  0  0  0  0  0
   -2.2936   -2.9918   -0.0893 C   0  0  0  0  0  0  0  0  0  0  0  0
   -2.7836   -2.7477    0.8563 H   0  0  0  0  0  0  0  0  0  0  0  0
   -2.8780   -2.5777   -0.9144 H   0  0  0  0  0  0  0  0  0  0  0  0
   -0.8883   -2.4189   -0.1075 C   0  0  0  0  0  0  0  0  0  0  0  0
    0.0700   -3.1718   -0.1547 O   0  0  0  0  0  0  0  0  0  0  0  0
   -0.7085   -1.0482   -0.0930 N   0  0  0  0  0  0  0  0  0  0  0  0
   -1.5459   -0.4950    0.0631 H   0  0  0  0  0  0  0  0  0  0  0  0
    0.6011   -0.4050    0.1336 C   0  0  0  0  0  0  0  0  0  0  0  0
    1.3215   -1.1264    0.5347 H   0  0  0  0  0  0  0  0  0  0  0  0
    0.9990   -0.0412   -0.8174 H   0  0  0  0  0  0  0  0  0  0  0  0
    0.5292    0.7679    1.1183 C   0  0  0  0  0  0  0  0  0  0  0  0
    1.3624    0.8830    2.0035 O   0  0  0  0  0  0  0  0  0  0  0  0
   -0.4843    1.7047    1.0115 N   0  0  0  0  0  0  0  0  0  0  0  0
   -1.0573    1.6753    0.1745 H   0  0  0  0  0  0  0  0  0  0  0  0
   -0.5623    2.8821    1.8691 C   0  0  0  0  0  0  0  0  0  0  0  0
    0.3027    3.5336    1.7057 H   0  0  0  0  0  0  0  0  0  0  0  0
   -1.4718    3.4500    1.6507 H   0  0  0  0  0  0  0  0  0  0  0  0
   -0.5868    2.5883    2.9241 H   0  0  0  0  0  0  0  0  0  0  0  0
  1  2  1  0  0  0  0
  2  3  1  0  0  0  0
  2  4  1  0  0  0  0
  2  5  1  0  0  0  0
  5  6  2  0  0  0  0
  5  7  1  0  0  0  0
  7  8  1  0  0  0  0
  7  9  1  0  0  0  0
  9 10  1  0  0  0  0
  9 11  1  0  0  0  0
  9 12  1  0  0  0  0
 12 13  2  0  0  0  0
 12 14  1  0  0  0  0
 14 15  1  0  0  0  0
 14 16  1  0  0  0  0
 16 17  1  0  0  0  0
 16 18  1  0  0  0  0
 16 19  1  0  0  0  0
M  END
$$$$

  -OEChem-01062216083D

 19 18  0     0  0  0  0  0  0999 V2000
   -2.2492   -4.1367   -0.1030 H   0  0  0  0  0  0  0  0  0  0  0  0
   -2.2911   -3.0473   -0.1909 C   0  0  0  0  0  0  0  0  0  0  0  0
   -2.9952   -2.6629    0.5509 H   0  0  0  0  0  0  0  0  0  0  0  0
   -2.6469   -2.7890   -1.1911 H   0  0  0  0  0  0  0  0  0  0  0  0
   -0.9145   -2.4515    0.0416 C   0  0  0  0  0  0  0  0  0  0  0  0
    0.0361   -3.1896    0.2361 O   0  0  0  0  0  0  0  0  0  0  0  0
   -0.7538   -1.0782    0.0171 N   0  0  0  0  0  0  0  0  0  0  0  0
   -1.5637   -0.5364   -0.2669 H   0  0  0  0  0  0  0  0  0  0  0  0
    0.5520   -0.3946    0.1281 C   0  0  0  0  0  0  0  0  0  0  0  0
    1.3213   -1.0910    0.4789 H   0  0  0  0  0  0  0  0  0  0  0  0
    0.8605   -0.0443   -0.8607 H   0  0  0  0  0  0  0  0  0  0  0  0
    0.5598    0.8027    1.0885 C   0  0  0  0  0  0  0  0  0  0  0  0
    1.6096    1.1545    1.6040 O   0  0  0  0  0  0  0  0  0  0  0  0
   -0.5782    1.5620    1.2983 N   0  0  0  0  0  0  0  0  0  0  0  0
   -1.4486    1.2238    0.9056 H   0  0  0  0  0  0  0  0  0  0  0  0
   -0.6088    2.7173    2.1876 C   0  0  0  0  0  0  0  0  0  0  0  0
    0.1013    3.4796    1.8496 H   0  0  0  0  0  0  0  0  0  0  0  0
   -1.6094    3.1596    2.1995 H   0  0  0  0  0  0  0  0  0  0  0  0
   -0.3480    2.4212    3.2092 H   0  0  0  0  0  0  0  0  0  0  0  0
  1  2  1  0  0  0  0
  2  3  1  0  0  0  0
  2  4  1  0  0  0  0
  2  5  1  0  0  0  0
  5  6  2  0  0  0  0
  5  7  1  0  0  0  0
  7  8  1  0  0  0  0
  7  9  1  0  0  0  0
  9 10  1  0  0  0  0
  9 11  1  0  0  0  0
  9 12  1  0  0  0  0
 12 13  2  0  0  0  0
 12 14  1  0  0  0  0
 14 15  1  0  0  0  0
 14 16  1  0  0  0  0
 16 17  1  0  0  0  0
 16 18  1  0  0  0  0
 16 19  1  0  0  0  0
M  END
$$$$

  -OEChem-01062216083D

 19 18  0     0  0  0  0  0  0999 V2000
   -2.1558   -4.1805   -0.1757 H   0  0  0  0  0  0  0  0  0  0  0  0
   -2.2558   -3.0917   -0.1455 C   0  0  0  0  0  0  0  0  0  0  0  0
   -2.9186   -2.8228    0.6806 H   0  0  0  0  0  0  0  0  0  0  0  0
   -2.6991   -2.7545   -1.0856 H   0  0  0  0  0  0  0  0  0  0  0  0
   -0.8949   -2.4483    0.0500 C   0  0  0  0  0  0  0  0  0  0  0  0
    0.0865   -3.1529    0.2134 O   0  0  0  0  0  0  0  0  0  0  0  0
   -0.7841   -1.0699    0.0383 N   0  0  0  0  0  0  0  0  0  0  0  0
   -1.6149   -0.5603   -0.2485 H   0  0  0  0  0  0  0  0  0  0  0  0
    0.5056   -0.3465    0.0396 C   0  0  0  0  0  0  0  0  0  0  0  0
    1.3267   -1.0221    0.3021 H   0  0  0  0  0  0  0  0  0  0  0  0
    0.7071    0.0316   -0.9666 H   0  0  0  0  0  0  0  0  0  0  0  0
    0.5684    0.8330    1.0191 C   0  0  0  0  0  0  0  0  0  0  0  0
    1.6382    1.3919    1.2039 O   0  0  0  0  0  0  0  0  0  0  0  0
   -0.5874    1.3465    1.5838 N   0  0  0  0  0  0  0  0  0  0  0  0
   -1.4282    0.7918    1.4681 H   0  0  0  0  0  0  0  0  0  0  0  0
   -0.6279    2.4759    2.5103 C   0  0  0  0  0  0  0  0  0  0  0  0
    0.3651    2.9035    2.6841 H   0  0  0  0  0  0  0  0  0  0  0  0
   -1.2698    3.2661    2.1088 H   0  0  0  0  0  0  0  0  0  0  0  0
   -1.0281    2.1529    3.4764 H   0  0  0  0  0  0  0  0  0  0  0  0
  1  2  1  0  0  0  0
  2  3  1  0  0  0  0
  2  4  1  0  0  0  0
  2  5  1  0  0  0  0
  5  6  2  0  0  0  0
  5  7  1  0  0  0  0
  7  8  1  0  0  0  0
  7  9  1  0  0  0  0
  9 10  1  0  0  0  0
  9 11  1  0  0  0  0
  9 12  1  0  0  0  0
 12 13  2  0  0  0  0
 12 14  1  0  0  0  0
 14 15  1  0  0  0  0
 14 16  1  0  0  0  0
 16 17  1  0  0  0  0
 16 18  1  0  0  0  0
 16 19  1  0  0  0  0
M  END
$$$$

  -OEChem-01062216083D

 19 18  0     0  0  0  0  0  0999 V2000
   -2.1664   -4.1709   -0.1875 H   0  0  0  0  0  0  0  0  0  0  0  0
   -2.2617   -3.0816   -0.1540 C   0  0  0  0  0  0  0  0  0  0  0  0
   -2.9216   -2.8119    0.6742 H   0  0  0  0  0  0  0  0  0  0  0  0
   -2.7063   -2.7401   -1.0920 H   0  0  0  0  0  0  0  0  0  0  0  0
   -0.8978   -2.4437    0.0394 C   0  0  0  0  0  0  0  0  0  0  0  0
    0.0815   -3.1513    0.2028 O   0  0  0  0  0  0  0  0  0  0  0  0
   -0.7818   -1.0658    0.0363 N   0  0  0  0  0  0  0  0  0  0  0  0
   -1.6148   -0.5468   -0.2290 H   0  0  0  0  0  0  0  0  0  0  0  0
    0.5083   -0.3437    0.0342 C   0  0  0  0  0  0  0  0  0  0  0  0
    1.3312   -1.0200    0.2873 H   0  0  0  0  0  0  0  0  0  0  0  0
    0.7036    0.0420   -0.9705 H   0  0  0  0  0  0  0  0  0  0  0  0
    0.5726    0.8278    1.0227 C   0  0  0  0  0  0  0  0  0  0  0  0
    1.5569    1.5505    1.0212 O   0  0  0  0  0  0  0  0  0  0  0  0
   -0.5144    1.1342    1.8239 N   0  0  0  0  0  0  0  0  0  0  0  0
   -1.2570    0.4429    1.8502 H   0  0  0  0  0  0  0  0  0  0  0  0
   -0.5532    2.2302    2.7893 C   0  0  0  0  0  0  0  0  0  0  0  0
    0.3756    2.8100    2.7922 H   0  0  0  0  0  0  0  0  0  0  0  0
   -1.3755    2.9111    2.5494 H   0  0  0  0  0  0  0  0  0  0  0  0
   -0.7053    1.8347    3.7983 H   0  0  0  0  0  0  0  0  0  0  0  0
  1  2  1  0  0  0  0
  2  3  1  0  0  0  0
  2  4  1  0  0  0  0
  2  5  1  0  0  0  0
  5  6  2  0  0  0  0
  5  7  1  0  0  0  0
  7  8  1  0  0  0  0
  7  9  1  0  0  0  0
  9 10  1  0  0  0  0
  9 11  1  0  0  0  0
  9 12  1  0  0  0  0
 12 13  2  0  0  0  0
 12 14  1  0  0  0  0
 14 15  1  0  0  0  0
 14 16  1  0  0  0  0
 16 17  1  0  0  0  0
 16 18  1  0  0  0  0
 16 19  1  0  0  0  0
M  END
$$$$

  -OEChem-01062216083D

 19 18  0     0  0  0  0  0  0999 V2000
   -2.1800   -4.1557   -0.1812 H   0  0  0  0  0  0  0  0  0  0  0  0
   -2.2690   -3.0659   -0.1495 C   0  0  0  0  0  0  0  0  0  0  0  0
   -2.9213   -2.7907    0.6828 H   0  0  0  0  0  0  0  0  0  0  0  0
   -2.7183   -2.7243   -1.0852 H   0  0  0  0  0  0  0  0  0  0  0  0
   -0.9002   -2.4349    0.0312 C   0  0  0  0  0  0  0  0  0  0  0  0
    0.0779   -3.1466    0.1838 O   0  0  0  0  0  0  0  0  0  0  0  0
   -0.7763   -1.0581    0.0342 N   0  0  0  0  0  0  0  0  0  0  0  0
   -1.6146   -0.5270   -0.1888 H   0  0  0  0  0  0  0  0  0  0  0  0
    0.5156   -0.3403    0.0270 C   0  0  0  0  0  0  0  0  0  0  0  0
    1.3387   -1.0186    0.2727 H   0  0  0  0  0  0  0  0  0  0  0  0
    0.7069    0.0503   -0.9768 H   0  0  0  0  0  0  0  0  0  0  0  0
    0.5798    0.8232    1.0236 C   0  0  0  0  0  0  0  0  0  0  0  0
    1.4246    1.6918    0.8717 O   0  0  0  0  0  0  0  0  0  0  0  0
   -0.3627    0.9328    2.0313 N   0  0  0  0  0  0  0  0  0  0  0  0
   -0.9824    0.1371    2.1506 H   0  0  0  0  0  0  0  0  0  0  0  0
   -0.3898    1.9935    3.0353 C   0  0  0  0  0  0  0  0  0  0  0  0
    0.4212    2.7155    2.8933 H   0  0  0  0  0  0  0  0  0  0  0  0
   -1.3387    2.5358    2.9809 H   0  0  0  0  0  0  0  0  0  0  0  0
   -0.2858    1.5636    4.0363 H   0  0  0  0  0  0  0  0  0  0  0  0
  1  2  1  0  0  0  0
  2  3  1  0  0  0  0
  2  4  1  0  0  0  0
  2  5  1  0  0  0  0
  5  6  2  0  0  0  0
  5  7  1  0  0  0  0
  7  8  1  0  0  0  0
  7  9  1  0  0  0  0
  9 10  1  0  0  0  0
  9 11  1  0  0  0  0
  9 12  1  0  0  0  0
 12 13  2  0  0  0  0
 12 14  1  0  0  0  0
 14 15  1  0  0  0  0
 14 16  1  0  0  0  0
 16 17  1  0  0  0  0
 16 18  1  0  0  0  0
 16 19  1  0  0  0  0
M  END
$$$$

  -OEChem-01062216083D

 19 18  0     0  0  0  0  0  0999 V2000
   -2.1977   -4.1347   -0.1450 H   0  0  0  0  0  0  0  0  0  0  0  0
   -2.2757   -3.0438   -0.1283 C   0  0  0  0  0  0  0  0  0  0  0  0
   -2.9106   -2.7495    0.7109 H   0  0  0  0  0  0  0  0  0  0  0  0
   -2.7377   -2.7112   -1.0610 H   0  0  0  0  0  0  0  0  0  0  0  0
   -0.8985   -2.4233    0.0196 C   0  0  0  0  0  0  0  0  0  0  0  0
    0.0783   -3.1411    0.1516 O   0  0  0  0  0  0  0  0  0  0  0  0
   -0.7650   -1.0479    0.0278 N   0  0  0  0  0  0  0  0  0  0  0  0
   -1.6069   -0.5064   -0.1537 H   0  0  0  0  0  0  0  0  0  0  0  0
    0.5286   -0.3357    0.0167 C   0  0  0  0  0  0  0  0  0  0  0  0
    1.3510   -1.0166    0.2571 H   0  0  0  0  0  0  0  0  0  0  0  0
    0.7170    0.0602   -0.9858 H   0  0  0  0  0  0  0  0  0  0  0  0
    0.5883    0.8195    1.0218 C   0  0  0  0  0  0  0  0  0  0  0  0
    1.2439    1.8149    0.7555 O   0  0  0  0  0  0  0  0  0  0  0  0
   -0.1459    0.7551    2.1930 N   0  0  0  0  0  0  0  0  0  0  0  0
   -0.6191   -0.1251    2.3769 H   0  0  0  0  0  0  0  0  0  0  0  0
   -0.1530    1.7823    3.2313 C   0  0  0  0  0  0  0  0  0  0  0  0
    0.5022    2.6236    2.9821 H   0  0  0  0  0  0  0  0  0  0  0  0
   -1.1669    2.1715    3.3662 H   0  0  0  0  0  0  0  0  0  0  0  0
    0.1913    1.3573    4.1792 H   0  0  0  0  0  0  0  0  0  0  0  0
  1  2  1  0  0  0  0
  2  3  1  0  0  0  0
  2  4  1  0  0  0  0
  2  5  1  0  0  0  0
  5  6  2  0  0  0  0
  5  7  1  0  0  0  0
  7  8  1  0  0  0  0
  7  9  1  0  0  0  0
  9 10  1  0  0  0  0
  9 11  1  0  0  0  0
  9 12  1  0  0  0  0
 12 13  2  0  0  0  0
 12 14  1  0  0  0  0
 14 15  1  0  0  0  0
 14 16  1  0  0  0  0
 16 17  1  0  0  0  0
 16 18  1  0  0  0  0
 16 19  1  0  0  0  0
M  END
$$$$

  -OEChem-01062216083D

 19 18  0     0  0  0  0  0  0999 V2000
   -2.1035   -4.1819   -0.0193 H   0  0  0  0  0  0  0  0  0  0  0  0
   -2.2272   -3.0962   -0.0686 C   0  0  0  0  0  0  0  0  0  0  0  0
   -2.8493   -2.7752    0.7705 H   0  0  0  0  0  0  0  0  0  0  0  0
   -2.7297   -2.8418   -1.0051 H   0  0  0  0  0  0  0  0  0  0  0  0
   -0.8733   -2.4130   -0.0044 C   0  0  0  0  0  0  0  0  0  0  0  0
    0.1440   -3.0848    0.0309 O   0  0  0  0  0  0  0  0  0  0  0  0
   -0.8022   -1.0342    0.0417 N   0  0  0  0  0  0  0  0  0  0  0  0
   -1.6805   -0.5264   -0.0344 H   0  0  0  0  0  0  0  0  0  0  0  0
    0.4511   -0.2597   -0.0351 C   0  0  0  0  0  0  0  0  0  0  0  0
    1.3214   -0.9039    0.1234 H   0  0  0  0  0  0  0  0  0  0  0  0
    0.5495    0.1783   -1.0331 H   0  0  0  0  0  0  0  0  0  0  0  0
    0.5124    0.8596    1.0079 C   0  0  0  0  0  0  0  0  0  0  0  0
    0.8447    1.9876    0.6764 O   0  0  0  0  0  0  0  0  0  0  0  0
    0.1392    0.6082    2.3143 N   0  0  0  0  0  0  0  0  0  0  0  0
   -0.0686   -0.3569    2.5564 H   0  0  0  0  0  0  0  0  0  0  0  0
    0.2000    1.6098    3.3711 C   0  0  0  0  0  0  0  0  0  0  0  0
    1.2303    1.9509    3.5167 H   0  0  0  0  0  0  0  0  0  0  0  0
   -0.4244    2.4727    3.1171 H   0  0  0  0  0  0  0  0  0  0  0  0
   -0.1621    1.1882    4.3136 H   0  0  0  0  0  0  0  0  0  0  0  0
  1  2  1  0  0  0  0
  2  3  1  0  0  0  0
  2  4  1  0  0  0  0
  2  5  1  0  0  0  0
  5  6  2  0  0  0  0
  5  7  1  0  0  0  0
  7  8  1  0  0  0  0
  7  9  1  0  0  0  0
  9 10  1  0  0  0  0
  9 11  1  0  0  0  0
  9 12  1  0  0  0  0
 12 13  2  0  0  0  0
 12 14  1  0  0  0  0
 14 15  1  0  0  0  0
 14 16  1  0  0  0  0
 16 17  1  0  0  0  0
 16 18  1  0  0  0  0
 16 19  1  0  0  0  0
M  END
$$$$

  -OEChem-01062216083D

 19 18  0     0  0  0  0  0  0999 V2000
   -2.1141   -4.1634   -0.0530 H   0  0  0  0  0  0  0  0  0  0  0  0
   -2.2313   -3.0759   -0.0528 C   0  0  0  0  0  0  0  0  0  0  0  0
   -2.8220   -2.7861    0.8196 H   0  0  0  0  0  0  0  0  0  0  0  0
   -2.7635   -2.7796   -0.9600 H   0  0  0  0  0  0  0  0  0  0  0  0
   -0.8716   -2.4032   -0.0067 C   0  0  0  0  0  0  0  0  0  0  0  0
    0.1424   -3.0814    0.0051 O   0  0  0  0  0  0  0  0  0  0  0  0
   -0.7904   -1.0258    0.0500 N   0  0  0  0  0  0  0  0  0  0  0  0
   -1.6664   -0.5101    0.0061 H   0  0  0  0  0  0  0  0  0  0  0  0
    0.4653   -0.2587   -0.0339 C   0  0  0  0  0  0  0  0  0  0  0  0
    1.3361   -0.9069    0.1062 H   0  0  0  0  0  0  0  0  0  0  0  0
    0.5535    0.1914   -1.0274 H   0  0  0  0  0  0  0  0  0  0  0  0
    0.5329    0.8470    1.0214 C   0  0  0  0  0  0  0  0  0  0  0  0
    0.5885    2.0187    0.6794 O   0  0  0  0  0  0  0  0  0  0  0  0
    0.4715    0.5215    2.3624 N   0  0  0  0  0  0  0  0  0  0  0  0
    0.4402   -0.4667    2.5997 H   0  0  0  0  0  0  0  0  0  0  0  0
    0.5334    1.5095    3.4319 C   0  0  0  0  0  0  0  0  0  0  0  0
    1.4845    2.0514    3.3980 H   0  0  0  0  0  0  0  0  0  0  0  0
   -0.2861    2.2296    3.3363 H   0  0  0  0  0  0  0  0  0  0  0  0
    0.4492    1.0182    4.4061 H   0  0  0  0  0  0  0  0  0  0  0  0
  1  2  1  0  0  0  0
  2  3  1  0  0  0  0
  2  4  1  0  0  0  0
  2  5  1  0  0  0  0
  5  6  2  0  0  0  0
  5  7  1  0  0  0  0
  7  8  1  0  0  0  0
  7  9  1  0  0  0  0
  9 10  1  0  0  0  0
  9 11  1  0  0  0  0
  9 12  1  0  0  0  0
 12 13  2  0  0  0  0
 12 14  1  0  0  0  0
 14 15  1  0  0  0  0
 14 16  1  0  0  0  0
 16 17  1  0  0  0  0
 16 18  1  0  0  0  0
 16 19  1  0  0  0  0
M  END
$$$$

  -OEChem-01062216083D

 19 18  0     0  0  0  0  0  0999 V2000
   -2.1332   -4.1394   -0.0748 H   0  0  0  0  0  0  0  0  0  0  0  0
   -2.2376   -3.0519   -0.0222 C   0  0  0  0  0  0  0  0  0  0  0  0
   -2.7831   -2.7945    0.8889 H   0  0  0  0  0  0  0  0  0  0  0  0
   -2.8086   -2.7114   -0.8894 H   0  0  0  0  0  0  0  0  0  0  0  0
   -0.8694   -2.3951   -0.0123 C   0  0  0  0  0  0  0  0  0  0  0  0
    0.1369   -3.0851   -0.0346 O   0  0  0  0  0  0  0  0  0  0  0  0
   -0.7692   -1.0193    0.0481 N   0  0  0  0  0  0  0  0  0  0  0  0
   -1.6382   -0.4896    0.0442 H   0  0  0  0  0  0  0  0  0  0  0  0
    0.4946   -0.2682   -0.0388 C   0  0  0  0  0  0  0  0  0  0  0  0
    1.3591   -0.9266    0.0909 H   0  0  0  0  0  0  0  0  0  0  0  0
    0.5824    0.1883   -1.0294 H   0  0  0  0  0  0  0  0  0  0  0  0
    0.5731    0.8309    1.0221 C   0  0  0  0  0  0  0  0  0  0  0  0
    0.3449    1.9920    0.7163 O   0  0  0  0  0  0  0  0  0  0  0  0
    0.8219    0.4999    2.3399 N   0  0  0  0  0  0  0  0  0  0  0  0
    0.9661   -0.4834    2.5554 H   0  0  0  0  0  0  0  0  0  0  0  0
    0.8636    1.4788    3.4187 C   0  0  0  0  0  0  0  0  0  0  0  0
    1.6364    2.2300    3.2243 H   0  0  0  0  0  0  0  0  0  0  0  0
   -0.1031    1.9842    3.5149 H   0  0  0  0  0  0  0  0  0  0  0  0
    1.0926    0.9858    4.3684 H   0  0  0  0  0  0  0  0  0  0  0  0
  1  2  1  0  0  0  0
  2  3  1  0  0  0  0
  2  4  1  0  0  0  0
  2  5  1  0  0  0  0
  5  6  2  0  0  0  0
  5  7  1  0  0  0  0
  7  8  1  0  0  0  0
  7  9  1  0  0  0  0
  9 10  1  0  0  0  0
  9 11  1  0  0  0  0
  9 12  1  0  0  0  0
 12 13  2  0  0  0  0
 12 14  1  0  0  0  0
 14 15  1  0  0  0  0
 14 16  1  0  0  0  0
 16 17  1  0  0  0  0
 16 18  1  0  0  0  0
 16 19  1  0  0  0  0
M  END
$$$$

  -OEChem-01062216083D

 19 18  0     0  0  0  0  0  0999 V2000
   -2.1480   -4.1208    0.0060 H   0  0  0  0  0  0  0  0  0  0  0  0
   -2.2405   -3.0310    0.0118 C   0  0  0  0  0  0  0  0  0  0  0  0
   -2.7716   -2.7282    0.9175 H   0  0  0  0  0  0  0  0  0  0  0  0
   -2.8193   -2.7225   -0.8623 H   0  0  0  0  0  0  0  0  0  0  0  0
   -0.8657   -2.3890   -0.0235 C   0  0  0  0  0  0  0  0  0  0  0  0
    0.1322   -3.0894   -0.0841 O   0  0  0  0  0  0  0  0  0  0  0  0
   -0.7486   -1.0146    0.0357 N   0  0  0  0  0  0  0  0  0  0  0  0
   -1.6095   -0.4730    0.0809 H   0  0  0  0  0  0  0  0  0  0  0  0
    0.5223   -0.2774   -0.0509 C   0  0  0  0  0  0  0  0  0  0  0  0
    1.3792   -0.9459    0.0768 H   0  0  0  0  0  0  0  0  0  0  0  0
    0.6147    0.1796   -1.0406 H   0  0  0  0  0  0  0  0  0  0  0  0
    0.6096    0.8213    1.0098 C   0  0  0  0  0  0  0  0  0  0  0  0
    0.1171    1.9179    0.7875 O   0  0  0  0  0  0  0  0  0  0  0  0
    1.1502    0.5465    2.2510 N   0  0  0  0  0  0  0  0  0  0  0  0
    1.4712   -0.4030    2.4213 H   0  0  0  0  0  0  0  0  0  0  0  0
    1.1841    1.5128    3.3416 C   0  0  0  0  0  0  0  0  0  0  0  0
    1.7277    2.4139    3.0386 H   0  0  0  0  0  0  0  0  0  0  0  0
    0.1676    1.7956    3.6344 H   0  0  0  0  0  0  0  0  0  0  0  0
    1.6886    1.0826    4.2120 H   0  0  0  0  0  0  0  0  0  0  0  0
  1  2  1  0  0  0  0
  2  3  1  0  0  0  0
  2  4  1  0  0  0  0
  2  5  1  0  0  0  0
  5  6  2  0  0  0  0
  5  7  1  0  0  0  0
  7  8  1  0  0  0  0
  7  9  1  0  0  0  0
  9 10  1  0  0  0  0
  9 11  1  0  0  0  0
  9 12  1  0  0  0  0
 12 13  2  0  0  0  0
 12 14  1  0  0  0  0
 14 15  1  0  0  0  0
 14 16  1  0  0  0  0
 16 17  1  0  0  0  0
 16 18  1  0  0  0  0
 16 19  1  0  0  0  0
M  END
$$$$

  -OEChem-01062216083D

 19 18  0     0  0  0  0  0  0999 V2000
   -2.1599   -4.1056    0.0084 H   0  0  0  0  0  0  0  0  0  0  0  0
   -2.2392   -3.0154    0.0470 C   0  0  0  0  0  0  0  0  0  0  0  0
   -2.7211   -2.7308    0.9855 H   0  0  0  0  0  0  0  0  0  0  0  0
   -2.8569   -2.6781   -0.7889 H   0  0  0  0  0  0  0  0  0  0  0  0
   -0.8603   -2.3870   -0.0396 C   0  0  0  0  0  0  0  0  0  0  0  0
    0.1279   -3.0974   -0.1363 O   0  0  0  0  0  0  0  0  0  0  0  0
   -0.7278   -1.0140    0.0119 N   0  0  0  0  0  0  0  0  0  0  0  0
   -1.5777   -0.4618    0.1116 H   0  0  0  0  0  0  0  0  0  0  0  0
    0.5504   -0.2903   -0.0675 C   0  0  0  0  0  0  0  0  0  0  0  0
    1.3973   -0.9689    0.0707 H   0  0  0  0  0  0  0  0  0  0  0  0
    0.6561    0.1623   -1.0577 H   0  0  0  0  0  0  0  0  0  0  0  0
    0.6359    0.8140    0.9884 C   0  0  0  0  0  0  0  0  0  0  0  0
   -0.0796    1.8004    0.8846 O   0  0  0  0  0  0  0  0  0  0  0  0
    1.4247    0.6509    2.1111 N   0  0  0  0  0  0  0  0  0  0  0  0
    1.9295   -0.2263    2.2071 H   0  0  0  0  0  0  0  0  0  0  0  0
    1.4676    1.6144    3.2039 C   0  0  0  0  0  0  0  0  0  0  0  0
    1.7842    2.5963    2.8368 H   0  0  0  0  0  0  0  0  0  0  0  0
    0.4804    1.7129    3.6673 H   0  0  0  0  0  0  0  0  0  0  0  0
    2.1784    1.2873    3.9687 H   0  0  0  0  0  0  0  0  0  0  0  0
  1  2  1  0  0  0  0
  2  3  1  0  0  0  0
  2  4  1  0  0  0  0
  2  5  1  0  0  0  0
  5  6  2  0  0  0  0
  5  7  1  0  0  0  0
  7  8  1  0  0  0  0
  7  9  1  0  0  0  0
  9 10  1  0  0  0  0
  9 11  1  0  0  0  0
  9 12  1  0  0  0  0
 12 13  2  0  0  0  0
 12 14  1  0  0  0  0
 14 15  1  0  0  0  0
 14 16  1  0  0  0  0
 16 17  1  0  0  0  0
 16 18  1  0  0  0  0
 16 19  1  0  0  0  0
M  END
$$$$

  -OEChem-01062216083D

 19 18  0     0  0  0  0  0  0999 V2000
   -2.1692   -4.0903    0.0290 H   0  0  0  0  0  0  0  0  0  0  0  0
   -2.2362   -3.0001    0.0836 C   0  0  0  0  0  0  0  0  0  0  0  0
   -2.6659   -2.7218    1.0490 H   0  0  0  0  0  0  0  0  0  0  0  0
   -2.8932   -2.6474   -0.7152 H   0  0  0  0  0  0  0  0  0  0  0  0
   -0.8579   -2.3826   -0.0680 C   0  0  0  0  0  0  0  0  0  0  0  0
    0.1189   -3.1001   -0.2166 O   0  0  0  0  0  0  0  0  0  0  0  0
   -0.7128   -1.0109   -0.0235 N   0  0  0  0  0  0  0  0  0  0  0  0
   -1.5463   -0.4545    0.1603 H   0  0  0  0  0  0  0  0  0  0  0  0
    0.5727   -0.2996   -0.0909 C   0  0  0  0  0  0  0  0  0  0  0  0
    1.4086   -0.9877    0.0659 H   0  0  0  0  0  0  0  0  0  0  0  0
    0.6970    0.1451   -1.0823 H   0  0  0  0  0  0  0  0  0  0  0  0
    0.6528    0.8113    0.9602 C   0  0  0  0  0  0  0  0  0  0  0  0
   -0.2261    1.6617    1.0021 O   0  0  0  0  0  0  0  0  0  0  0  0
    1.6399    0.7974    1.9273 N   0  0  0  0  0  0  0  0  0  0  0  0
    2.3005    0.0252    1.9150 H   0  0  0  0  0  0  0  0  0  0  0  0
    1.7025    1.7619    3.0186 C   0  0  0  0  0  0  0  0  0  0  0  0
    1.8056    2.7789    2.6257 H   0  0  0  0  0  0  0  0  0  0  0  0
    0.7950    1.7102    3.6293 H   0  0  0  0  0  0  0  0  0  0  0  0
    2.5634    1.5509    3.6601 H   0  0  0  0  0  0  0  0  0  0  0  0
  1  2  1  0  0  0  0
  2  3  1  0  0  0  0
  2  4  1  0  0  0  0
  2  5  1  0  0  0  0
  5  6  2  0  0  0  0
  5  7  1  0  0  0  0
  7  8  1  0  0  0  0
  7  9  1  0  0  0  0
  9 10  1  0  0  0  0
  9 11  1  0  0  0  0
  9 12  1  0  0  0  0
 12 13  2  0  0  0  0
 12 14  1  0  0  0  0
 14 15  1  0  0  0  0
 14 16  1  0  0  0  0
 16 17  1  0  0  0  0
 16 18  1  0  0  0  0
 16 19  1  0  0  0  0
M  END
$$$$

  -OEChem-01062216083D

 19 18  0     0  0  0  0  0  0999 V2000
   -2.1753   -4.0879   -0.0102 H   0  0  0  0  0  0  0  0  0  0  0  0
   -2.2327   -3.0012    0.0985 C   0  0  0  0  0  0  0  0  0  0  0  0
   -2.6146   -2.7663    1.0949 H   0  0  0  0  0  0  0  0  0  0  0  0
   -2.9244   -2.6092   -0.6511 H   0  0  0  0  0  0  0  0  0  0  0  0
   -0.8593   -2.3830   -0.0890 C   0  0  0  0  0  0  0  0  0  0  0  0
    0.1123   -3.1006   -0.2691 O   0  0  0  0  0  0  0  0  0  0  0  0
   -0.7128   -1.0113   -0.0472 N   0  0  0  0  0  0  0  0  0  0  0  0
   -1.5333   -0.4588    0.1992 H   0  0  0  0  0  0  0  0  0  0  0  0
    0.5761   -0.3049   -0.1001 C   0  0  0  0  0  0  0  0  0  0  0  0
    1.4041   -0.9983    0.0759 H   0  0  0  0  0  0  0  0  0  0  0  0
    0.7173    0.1316   -1.0926 H   0  0  0  0  0  0  0  0  0  0  0  0
    0.6535    0.8125    0.9461 C   0  0  0  0  0  0  0  0  0  0  0  0
   -0.3251    1.5208    1.1465 O   0  0  0  0  0  0  0  0  0  0  0  0
    1.7864    0.9743    1.7211 N   0  0  0  0  0  0  0  0  0  0  0  0
    2.5530    0.3225    1.5791 H   0  0  0  0  0  0  0  0  0  0  0  0
    1.8900    1.9636    2.7868 C   0  0  0  0  0  0  0  0  0  0  0  0
    1.7741    2.9749    2.3828 H   0  0  0  0  0  0  0  0  0  0  0  0
    1.1165    1.7952    3.5435 H   0  0  0  0  0  0  0  0  0  0  0  0
    2.8684    1.8956    3.2722 H   0  0  0  0  0  0  0  0  0  0  0  0
  1  2  1  0  0  0  0
  2  3  1  0  0  0  0
  2  4  1  0  0  0  0
  2  5  1  0  0  0  0
  5  6  2  0  0  0  0
  5  7  1  0  0  0  0
  7  8  1  0  0  0  0
  7  9  1  0  0  0  0
  9 10  1  0  0  0  0
  9 11  1  0  0  0  0
  9 12  1  0  0  0  0
 12 13  2  0  0  0  0
 12 14  1  0  0  0  0
 14 15  1  0  0  0  0
 14 16  1  0  0  0  0
 16 17  1  0  0  0  0
 16 18  1  0  0  0  0
 16 19  1  0  0  0  0
M  END
$$$$

  -OEChem-01062216083D

 19 18  0     0  0  0  0  0  0999 V2000
   -2.3730   -3.9520    0.0650 H   0  0  0  0  0  0  0  0  0  0  0  0
   -2.3449   -2.8605    0.0033 C   0  0  0  0  0  0  0  0  0  0  0  0
   -2.8327   -2.4452    0.8886 H   0  0  0  0  0  0  0  0  0  0  0  0
   -2.8923   -2.5440   -0.8880 H   0  0  0  0  0  0  0  0  0  0  0  0
   -0.9081   -2.3768   -0.0721 C   0  0  0  0  0  0  0  0  0  0  0  0
    0.0077   -3.1847   -0.0842 O   0  0  0  0  0  0  0  0  0  0  0  0
   -0.6435   -1.0235   -0.1273 N   0  0  0  0  0  0  0  0  0  0  0  0
   -1.4311   -0.3906    0.0107 H   0  0  0  0  0  0  0  0  0  0  0  0
    0.7006   -0.4324   -0.0376 C   0  0  0  0  0  0  0  0  0  0  0  0
    1.4206   -1.1701    0.3297 H   0  0  0  0  0  0  0  0  0  0  0  0
    1.0294   -0.1140   -1.0305 H   0  0  0  0  0  0  0  0  0  0  0  0
    0.7341    0.7764    0.9061 C   0  0  0  0  0  0  0  0  0  0  0  0
   -0.2769    1.4483    1.0715 O   0  0  0  0  0  0  0  0  0  0  0  0
    1.8844    1.0890    1.6056 N   0  0  0  0  0  0  0  0  0  0  0  0
    2.6898    0.4805    1.4887 H   0  0  0  0  0  0  0  0  0  0  0  0
    1.9678    2.1957    2.5512 C   0  0  0  0  0  0  0  0  0  0  0  0
    1.2824    2.0352    3.3899 H   0  0  0  0  0  0  0  0  0  0  0  0
    2.9847    2.2804    2.9463 H   0  0  0  0  0  0  0  0  0  0  0  0
    1.7095    3.1402    2.0606 H   0  0  0  0  0  0  0  0  0  0  0  0
  1  2  1  0  0  0  0
  2  3  1  0  0  0  0
  2  4  1  0  0  0  0
  2  5  1  0  0  0  0
  5  6  2  0  0  0  0
  5  7  1  0  0  0  0
  7  8  1  0  0  0  0
  7  9  1  0  0  0  0
  9 10  1  0  0  0  0
  9 11  1  0  0  0  0
  9 12  1  0  0  0  0
 12 13  2  0  0  0  0
 12 14  1  0  0  0  0
 14 15  1  0  0  0  0
 14 16  1  0  0  0  0
 16 17  1  0  0  0  0
 16 18  1  0  0  0  0
 16 19  1  0  0  0  0
M  END
$$$$

  -OEChem-01062216083D

 19 18  0     0  0  0  0  0  0999 V2000
   -2.3582   -3.9607    0.0585 H   0  0  0  0  0  0  0  0  0  0  0  0
   -2.3368   -2.8681    0.0170 C   0  0  0  0  0  0  0  0  0  0  0  0
   -2.7990   -2.4720    0.9245 H   0  0  0  0  0  0  0  0  0  0  0  0
   -2.9123   -2.5374   -0.8510 H   0  0  0  0  0  0  0  0  0  0  0  0
   -0.9054   -2.3761   -0.0927 C   0  0  0  0  0  0  0  0  0  0  0  0
    0.0141   -3.1794   -0.1270 O   0  0  0  0  0  0  0  0  0  0  0  0
   -0.6493   -1.0216   -0.1555 N   0  0  0  0  0  0  0  0  0  0  0  0
   -1.4345   -0.3985    0.0332 H   0  0  0  0  0  0  0  0  0  0  0  0
    0.6925   -0.4303   -0.0359 C   0  0  0  0  0  0  0  0  0  0  0  0
    1.4018   -1.1632    0.3610 H   0  0  0  0  0  0  0  0  0  0  0  0
    1.0467   -0.1249   -1.0241 H   0  0  0  0  0  0  0  0  0  0  0  0
    0.7063    0.7890    0.8958 C   0  0  0  0  0  0  0  0  0  0  0  0
   -0.3454    1.3328    1.2122 O   0  0  0  0  0  0  0  0  0  0  0  0
    1.9029    1.2864    1.3758 N   0  0  0  0  0  0  0  0  0  0  0  0
    2.7562    0.7977    1.1200 H   0  0  0  0  0  0  0  0  0  0  0  0
    1.9884    2.4333    2.2720 C   0  0  0  0  0  0  0  0  0  0  0  0
    1.4562    2.2296    3.2073 H   0  0  0  0  0  0  0  0  0  0  0  0
    3.0342    2.6506    2.5095 H   0  0  0  0  0  0  0  0  0  0  0  0
    1.5499    3.3202    1.8024 H   0  0  0  0  0  0  0  0  0  0  0  0
  1  2  1  0  0  0  0
  2  3  1  0  0  0  0
  2  4  1  0  0  0  0
  2  5  1  0  0  0  0
  5  6  2  0  0  0  0
  5  7  1  0  0  0  0
  7  8  1  0  0  0  0
  7  9  1  0  0  0  0
  9 10  1  0  0  0  0
  9 11  1  0  0  0  0
  9 12  1  0  0  0  0
 12 13  2  0  0  0  0
 12 14  1  0  0  0  0
 14 15  1  0  0  0  0
 14 16  1  0  0  0  0
 16 17  1  0  0  0  0
 16 18  1  0  0  0  0
 16 19  1  0  0  0  0
M  END
$$$$

  -OEChem-01062216083D

 19 18  0     0  0  0  0  0  0999 V2000
   -2.3510   -3.9464    0.0856 H   0  0  0  0  0  0  0  0  0  0  0  0
   -2.3223   -2.8532    0.0748 C   0  0  0  0  0  0  0  0  0  0  0  0
   -2.7100   -2.4811    1.0264 H   0  0  0  0  0  0  0  0  0  0  0  0
   -2.9594   -2.4926   -0.7364 H   0  0  0  0  0  0  0  0  0  0  0  0
   -0.8986   -2.3685   -0.1289 C   0  0  0  0  0  0  0  0  0  0  0  0
    0.0106   -3.1788   -0.2244 O   0  0  0  0  0  0  0  0  0  0  0  0
   -0.6447   -1.0134   -0.2076 N   0  0  0  0  0  0  0  0  0  0  0  0
   -1.4158   -0.4099    0.0757 H   0  0  0  0  0  0  0  0  0  0  0  0
    0.7020   -0.4315   -0.0770 C   0  0  0  0  0  0  0  0  0  0  0  0
    1.4562   -1.2103    0.0715 H   0  0  0  0  0  0  0  0  0  0  0  0
    0.9544    0.0979   -0.9996 H   0  0  0  0  0  0  0  0  0  0  0  0
    0.8033    0.5506    1.0991 C   0  0  0  0  0  0  0  0  0  0  0  0
   -0.1915    0.8337    1.7563 O   0  0  0  0  0  0  0  0  0  0  0  0
    1.9991    1.1890    1.3680 N   0  0  0  0  0  0  0  0  0  0  0  0
    2.8101    0.9288    0.8141 H   0  0  0  0  0  0  0  0  0  0  0  0
    2.1654    2.1483    2.4535 C   0  0  0  0  0  0  0  0  0  0  0  0
    1.9576    1.6750    3.4190 H   0  0  0  0  0  0  0  0  0  0  0  0
    3.1914    2.5285    2.4683 H   0  0  0  0  0  0  0  0  0  0  0  0
    1.4854    2.9967    2.3233 H   0  0  0  0  0  0  0  0  0  0  0  0
  1  2  1  0  0  0  0
  2  3  1  0  0  0  0
  2  4  1  0  0  0  0
  2  5  1  0  0  0  0
  5  6  2  0  0  0  0
  5  7  1  0  0  0  0
  7  8  1  0  0  0  0
  7  9  1  0  0  0  0
  9 10  1  0  0  0  0
  9 11  1  0  0  0  0
  9 12  1  0  0  0  0
 12 13  2  0  0  0  0
 12 14  1  0  0  0  0
 14 15  1  0  0  0  0
 14 16  1  0  0  0  0
 16 17  1  0  0  0  0
 16 18  1  0  0  0  0
 16 19  1  0  0  0  0
M  END
$$$$

  -OEChem-01062216083D

 19 18  0     0  0  0  0  0  0999 V2000
   -2.3496   -3.9473    0.0389 H   0  0  0  0  0  0  0  0  0  0  0  0
   -2.3136   -2.8551    0.0768 C   0  0  0  0  0  0  0  0  0  0  0  0
   -2.6700   -2.5246    1.0555 H   0  0  0  0  0  0  0  0  0  0  0  0
   -2.9718   -2.4540   -0.6976 H   0  0  0  0  0  0  0  0  0  0  0  0
   -0.8931   -2.3693   -0.1453 C   0  0  0  0  0  0  0  0  0  0  0  0
    0.0150   -3.1785   -0.2574 O   0  0  0  0  0  0  0  0  0  0  0  0
   -0.6425   -1.0135   -0.2229 N   0  0  0  0  0  0  0  0  0  0  0  0
   -1.4143   -0.4201    0.0774 H   0  0  0  0  0  0  0  0  0  0  0  0
    0.7028   -0.4351   -0.0624 C   0  0  0  0  0  0  0  0  0  0  0  0
    1.4536   -1.2133    0.1061 H   0  0  0  0  0  0  0  0  0  0  0  0
    0.9752    0.0900   -0.9818 H   0  0  0  0  0  0  0  0  0  0  0  0
    0.7789    0.5500    1.1134 C   0  0  0  0  0  0  0  0  0  0  0  0
   -0.1666    0.6691    1.8834 O   0  0  0  0  0  0  0  0  0  0  0  0
    1.8545    1.4107    1.2269 N   0  0  0  0  0  0  0  0  0  0  0  0
    2.6243    1.2960    0.5740 H   0  0  0  0  0  0  0  0  0  0  0  0
    1.9665    2.4152    2.2782 C   0  0  0  0  0  0  0  0  0  0  0  0
    1.9617    1.9406    3.2652 H   0  0  0  0  0  0  0  0  0  0  0  0
    2.9005    2.9745    2.1683 H   0  0  0  0  0  0  0  0  0  0  0  0
    1.1324    3.1227    2.2236 H   0  0  0  0  0  0  0  0  0  0  0  0
  1  2  1  0  0  0  0
  2  3  1  0  0  0  0
  2  4  1  0  0  0  0
  2  5  1  0  0  0  0
  5  6  2  0  0  0  0
  5  7  1  0  0  0  0
  7  8  1  0  0  0  0
  7  9  1  0  0  0  0
  9 10  1  0  0  0  0
  9 11  1  0  0  0  0
  9 12  1  0  0  0  0
 12 13  2  0  0  0  0
 12 14  1  0  0  0  0
 14 15  1  0  0  0  0
 14 16  1  0  0  0  0
 16 17  1  0  0  0  0
 16 18  1  0  0  0  0
 16 19  1  0  0  0  0
M  END
$$$$

  -OEChem-01062216083D

 19 18  0     0  0  0  0  0  0999 V2000
   -2.3391   -3.9520    0.0322 H   0  0  0  0  0  0  0  0  0  0  0  0
   -2.3092   -2.8594    0.0685 C   0  0  0  0  0  0  0  0  0  0  0  0
   -2.6714   -2.5291    1.0453 H   0  0  0  0  0  0  0  0  0  0  0  0
   -2.9659   -2.4631   -0.7097 H   0  0  0  0  0  0  0  0  0  0  0  0
   -0.8904   -2.3670   -0.1481 C   0  0  0  0  0  0  0  0  0  0  0  0
    0.0204   -3.1728   -0.2633 O   0  0  0  0  0  0  0  0  0  0  0  0
   -0.6454   -1.0099   -0.2235 N   0  0  0  0  0  0  0  0  0  0  0  0
   -1.4231   -0.4227    0.0720 H   0  0  0  0  0  0  0  0  0  0  0  0
    0.6975   -0.4322   -0.0417 C   0  0  0  0  0  0  0  0  0  0  0  0
    1.4467   -1.2090    0.1403 H   0  0  0  0  0  0  0  0  0  0  0  0
    0.9839    0.0890   -0.9589 H   0  0  0  0  0  0  0  0  0  0  0  0
    0.7554    0.5531    1.1344 C   0  0  0  0  0  0  0  0  0  0  0  0
   -0.0874    0.5066    2.0217 O   0  0  0  0  0  0  0  0  0  0  0  0
    1.6462    1.6096    1.1066 N   0  0  0  0  0  0  0  0  0  0  0  0
    2.3273    1.6348    0.3534 H   0  0  0  0  0  0  0  0  0  0  0  0
    1.7077    2.6303    2.1458 C   0  0  0  0  0  0  0  0  0  0  0  0
    1.9576    2.1790    3.1117 H   0  0  0  0  0  0  0  0  0  0  0  0
    2.4740    3.3720    1.9015 H   0  0  0  0  0  0  0  0  0  0  0  0
    0.7456    3.1457    2.2356 H   0  0  0  0  0  0  0  0  0  0  0  0
  1  2  1  0  0  0  0
  2  3  1  0  0  0  0
  2  4  1  0  0  0  0
  2  5  1  0  0  0  0
  5  6  2  0  0  0  0
  5  7  1  0  0  0  0
  7  8  1  0  0  0  0
  7  9  1  0  0  0  0
  9 10  1  0  0  0  0
  9 11  1  0  0  0  0
  9 12  1  0  0  0  0
 12 13  2  0  0  0  0
 12 14  1  0  0  0  0
 14 15  1  0  0  0  0
 14 16  1  0  0  0  0
 16 17  1  0  0  0  0
 16 18  1  0  0  0  0
 16 19  1  0  0  0  0
M  END
$$$$

  -OEChem-01062216083D

 19 18  0     0  0  0  0  0  0999 V2000
   -2.3306   -3.9555    0.0294 H   0  0  0  0  0  0  0  0  0  0  0  0
   -2.3045   -2.8628    0.0661 C   0  0  0  0  0  0  0  0  0  0  0  0
   -2.6684   -2.5347    1.0430 H   0  0  0  0  0  0  0  0  0  0  0  0
   -2.9623   -2.4684   -0.7121 H   0  0  0  0  0  0  0  0  0  0  0  0
   -0.8870   -2.3657   -0.1495 C   0  0  0  0  0  0  0  0  0  0  0  0
    0.0238   -3.1690   -0.2801 O   0  0  0  0  0  0  0  0  0  0  0  0
   -0.6460   -1.0071   -0.2183 N   0  0  0  0  0  0  0  0  0  0  0  0
   -1.4292   -0.4244    0.0695 H   0  0  0  0  0  0  0  0  0  0  0  0
    0.6957   -0.4287   -0.0273 C   0  0  0  0  0  0  0  0  0  0  0  0
    1.4440   -1.2053    0.1600 H   0  0  0  0  0  0  0  0  0  0  0  0
    0.9903    0.0925   -0.9418 H   0  0  0  0  0  0  0  0  0  0  0  0
    0.7420    0.5506    1.1539 C   0  0  0  0  0  0  0  0  0  0  0  0
    0.0650    0.3424    2.1519 O   0  0  0  0  0  0  0  0  0  0  0  0
    1.3859    1.7670    1.0226 N   0  0  0  0  0  0  0  0  0  0  0  0
    1.9146    1.9343    0.1716 H   0  0  0  0  0  0  0  0  0  0  0  0
    1.3908    2.7856    2.0662 C   0  0  0  0  0  0  0  0  0  0  0  0
    1.8539    2.3967    2.9792 H   0  0  0  0  0  0  0  0  0  0  0  0
    1.9581    3.6616    1.7374 H   0  0  0  0  0  0  0  0  0  0  0  0
    0.3687    3.1036    2.2974 H   0  0  0  0  0  0  0  0  0  0  0  0
  1  2  1  0  0  0  0
  2  3  1  0  0  0  0
  2  4  1  0  0  0  0
  2  5  1  0  0  0  0
  5  6  2  0  0  0  0
  5  7  1  0  0  0  0
  7  8  1  0  0  0  0
  7  9  1  0  0  0  0
  9 10  1  0  0  0  0
  9 11  1  0  0  0  0
  9 12  1  0  0  0  0
 12 13  2  0  0  0  0
 12 14  1  0  0  0  0
 14 15  1  0  0  0  0
 14 16  1  0  0  0  0
 16 17  1  0  0  0  0
 16 18  1  0  0  0  0
 16 19  1  0  0  0  0
M  END
$$$$

  -OEChem-01062216083D

 19 18  0     0  0  0  0  0  0999 V2000
   -2.3256   -3.9594    0.0100 H   0  0  0  0  0  0  0  0  0  0  0  0
   -2.3020   -2.8671    0.0584 C   0  0  0  0  0  0  0  0  0  0  0  0
   -2.6698   -2.5505    1.0376 H   0  0  0  0  0  0  0  0  0  0  0  0
   -2.9578   -2.4661   -0.7179 H   0  0  0  0  0  0  0  0  0  0  0  0
   -0.8850   -2.3643   -0.1470 C   0  0  0  0  0  0  0  0  0  0  0  0
    0.0277   -3.1644   -0.2820 O   0  0  0  0  0  0  0  0  0  0  0  0
   -0.6473   -1.0043   -0.2079 N   0  0  0  0  0  0  0  0  0  0  0  0
   -1.4370   -0.4234    0.0632 H   0  0  0  0  0  0  0  0  0  0  0  0
    0.6923   -0.4241   -0.0083 C   0  0  0  0  0  0  0  0  0  0  0  0
    1.4407   -1.2001    0.1821 H   0  0  0  0  0  0  0  0  0  0  0  0
    0.9945    0.0994   -0.9189 H   0  0  0  0  0  0  0  0  0  0  0  0
    0.7279    0.5480    1.1777 C   0  0  0  0  0  0  0  0  0  0  0  0
    0.2661    0.2124    2.2591 O   0  0  0  0  0  0  0  0  0  0  0  0
    1.0832    1.8697    0.9810 N   0  0  0  0  0  0  0  0  0  0  0  0
    1.4368    2.1346    0.0665 H   0  0  0  0  0  0  0  0  0  0  0  0
    1.0438    2.8730    2.0386 C   0  0  0  0  0  0  0  0  0  0  0  0
    1.7188    2.5958    2.8552 H   0  0  0  0  0  0  0  0  0  0  0  0
    1.3549    3.8468    1.6484 H   0  0  0  0  0  0  0  0  0  0  0  0
    0.0287    2.9700    2.4377 H   0  0  0  0  0  0  0  0  0  0  0  0
  1  2  1  0  0  0  0
  2  3  1  0  0  0  0
  2  4  1  0  0  0  0
  2  5  1  0  0  0  0
  5  6  2  0  0  0  0
  5  7  1  0  0  0  0
  7  8  1  0  0  0  0
  7  9  1  0  0  0  0
  9 10  1  0  0  0  0
  9 11  1  0  0  0  0
  9 12  1  0  0  0  0
 12 13  2  0  0  0  0
 12 14  1  0  0  0  0
 14 15  1  0  0  0  0
 14 16  1  0  0  0  0
 16 17  1  0  0  0  0
 16 18  1  0  0  0  0
 16 19  1  0  0  0  0
M  END
$$$$

  -OEChem-01062216083D

 19 18  0     0  0  0  0  0  0999 V2000
   -2.3203   -3.9724   -0.0151 H   0  0  0  0  0  0  0  0  0  0  0  0
   -2.3048   -2.8799    0.0344 C   0  0  0  0  0  0  0  0  0  0  0  0
   -2.7011   -2.5660    1.0032 H   0  0  0  0  0  0  0  0  0  0  0  0
   -2.9415   -2.4827   -0.7595 H   0  0  0  0  0  0  0  0  0  0  0  0
   -0.8853   -2.3694   -0.1319 C   0  0  0  0  0  0  0  0  0  0  0  0
    0.0327   -3.1650   -0.2517 O   0  0  0  0  0  0  0  0  0  0  0  0
   -0.6530   -1.0078   -0.1837 N   0  0  0  0  0  0  0  0  0  0  0  0
   -1.4543   -0.4256    0.0460 H   0  0  0  0  0  0  0  0  0  0  0  0
    0.6823   -0.4166    0.0147 C   0  0  0  0  0  0  0  0  0  0  0  0
    1.4362   -1.1889    0.2003 H   0  0  0  0  0  0  0  0  0  0  0  0
    0.9834    0.1132   -0.8925 H   0  0  0  0  0  0  0  0  0  0  0  0
    0.7123    0.5473    1.2063 C   0  0  0  0  0  0  0  0  0  0  0  0
    0.5559    0.1266    2.3426 O   0  0  0  0  0  0  0  0  0  0  0  0
    0.7445    1.9130    0.9917 N   0  0  0  0  0  0  0  0  0  0  0  0
    0.8583    2.2400    0.0369 H   0  0  0  0  0  0  0  0  0  0  0  0
    0.7034    2.8919    2.0719 C   0  0  0  0  0  0  0  0  0  0  0  0
    1.5670    2.7678    2.7339 H   0  0  0  0  0  0  0  0  0  0  0  0
    0.7228    3.9071    1.6640 H   0  0  0  0  0  0  0  0  0  0  0  0
   -0.2121    2.7749    2.6615 H   0  0  0  0  0  0  0  0  0  0  0  0
  1  2  1  0  0  0  0
  2  3  1  0  0  0  0
  2  4  1  0  0  0  0
  2  5  1  0  0  0  0
  5  6  2  0  0  0  0
  5  7  1  0  0  0  0
  7  8  1  0  0  0  0
  7  9  1  0  0  0  0
  9 10  1  0  0  0  0
  9 11  1  0  0  0  0
  9 12  1  0  0  0  0
 12 13  2  0  0  0  0
 12 14  1  0  0  0  0
 14 15  1  0  0  0  0
 14 16  1  0  0  0  0
 16 17  1  0  0  0  0
 16 18  1  0  0  0  0
 16 19  1  0  0  0  0
M  END
$$$$

  -OEChem-01062216083D

 19 18  0     0  0  0  0  0  0999 V2000
   -2.3176   -3.9891   -0.0598 H   0  0  0  0  0  0  0  0  0  0  0  0
   -2.3080   -2.8974    0.0079 C   0  0  0  0  0  0  0  0  0  0  0  0
   -2.7291   -2.6018    0.9720 H   0  0  0  0  0  0  0  0  0  0  0  0
   -2.9279   -2.4905   -0.7945 H   0  0  0  0  0  0  0  0  0  0  0  0
   -0.8870   -2.3785   -0.1169 C   0  0  0  0  0  0  0  0  0  0  0  0
    0.0369   -3.1695   -0.2152 O   0  0  0  0  0  0  0  0  0  0  0  0
   -0.6594   -1.0153   -0.1573 N   0  0  0  0  0  0  0  0  0  0  0  0
   -1.4701   -0.4325    0.0329 H   0  0  0  0  0  0  0  0  0  0  0  0
    0.6715   -0.4131    0.0423 C   0  0  0  0  0  0  0  0  0  0  0  0
    1.4323   -1.1811    0.2182 H   0  0  0  0  0  0  0  0  0  0  0  0
    0.9684    0.1286   -0.8595 H   0  0  0  0  0  0  0  0  0  0  0  0
    0.6961    0.5414    1.2407 C   0  0  0  0  0  0  0  0  0  0  0  0
    0.8750    0.1143    2.3708 O   0  0  0  0  0  0  0  0  0  0  0  0
    0.4037    1.8809    1.0602 N   0  0  0  0  0  0  0  0  0  0  0  0
    0.2719    2.2127    0.1095 H   0  0  0  0  0  0  0  0  0  0  0  0
    0.3791    2.8450    2.1539 C   0  0  0  0  0  0  0  0  0  0  0  0
    1.3591    2.8984    2.6397 H   0  0  0  0  0  0  0  0  0  0  0  0
    0.1259    3.8401    1.7759 H   0  0  0  0  0  0  0  0  0  0  0  0
   -0.3689    2.5590    2.9007 H   0  0  0  0  0  0  0  0  0  0  0  0
  1  2  1  0  0  0  0
  2  3  1  0  0  0  0
  2  4  1  0  0  0  0
  2  5  1  0  0  0  0
  5  6  2  0  0  0  0
  5  7  1  0  0  0  0
  7  8  1  0  0  0  0
  7  9  1  0  0  0  0
  9 10  1  0  0  0  0
  9 11  1  0  0  0  0
  9 12  1  0  0  0  0
 12 13  2  0  0  0  0
 12 14  1  0  0  0  0
 14 15  1  0  0  0  0
 14 16  1  0  0  0  0
 16 17  1  0  0  0  0
 16 18  1  0  0  0  0
 16 19  1  0  0  0  0
M  END
$$$$

  -OEChem-01062216083D

 19 18  0     0  0  0  0  0  0999 V2000
   -2.3120   -4.0132   -0.0787 H   0  0  0  0  0  0  0  0  0  0  0  0
   -2.3138   -2.9202   -0.0354 C   0  0  0  0  0  0  0  0  0  0  0  0
   -2.7835   -2.6067    0.9000 H   0  0  0  0  0  0  0  0  0  0  0  0
   -2.8967   -2.5367   -0.8761 H   0  0  0  0  0  0  0  0  0  0  0  0
   -0.8923   -2.3923   -0.1040 C   0  0  0  0  0  0  0  0  0  0  0  0
    0.0387   -3.1775   -0.1723 O   0  0  0  0  0  0  0  0  0  0  0  0
   -0.6732   -1.0271   -0.1248 N   0  0  0  0  0  0  0  0  0  0  0  0
   -1.4927   -0.4472    0.0332 H   0  0  0  0  0  0  0  0  0  0  0  0
    0.6527   -0.4108    0.0696 C   0  0  0  0  0  0  0  0  0  0  0  0
    1.4249   -1.1731    0.2197 H   0  0  0  0  0  0  0  0  0  0  0  0
    0.9307    0.1522   -0.8250 H   0  0  0  0  0  0  0  0  0  0  0  0
    0.6822    0.5263    1.2813 C   0  0  0  0  0  0  0  0  0  0  0  0
    1.1996    0.1759    2.3304 O   0  0  0  0  0  0  0  0  0  0  0  0
    0.0830    1.7702    1.1996 N   0  0  0  0  0  0  0  0  0  0  0  0
   -0.2724    2.0635    0.2948 H   0  0  0  0  0  0  0  0  0  0  0  0
    0.1038    2.7344    2.2934 C   0  0  0  0  0  0  0  0  0  0  0  0
    1.1337    3.0211    2.5314 H   0  0  0  0  0  0  0  0  0  0  0  0
   -0.4512    3.6353    2.0145 H   0  0  0  0  0  0  0  0  0  0  0  0
   -0.3595    2.3085    3.1897 H   0  0  0  0  0  0  0  0  0  0  0  0
  1  2  1  0  0  0  0
  2  3  1  0  0  0  0
  2  4  1  0  0  0  0
  2  5  1  0  0  0  0
  5  6  2  0  0  0  0
  5  7  1  0  0  0  0
  7  8  1  0  0  0  0
  7  9  1  0  0  0  0
  9 10  1  0  0  0  0
  9 11  1  0  0  0  0
  9 12  1  0  0  0  0
 12 13  2  0  0  0  0
 12 14  1  0  0  0  0
 14 15  1  0  0  0  0
 14 16  1  0  0  0  0
 16 17  1  0  0  0  0
 16 18  1  0  0  0  0
 16 19  1  0  0  0  0
M  END
$$$$

  -OEChem-01062216083D

 19 18  0     0  0  0  0  0  0999 V2000
   -2.3114   -4.0341   -0.1420 H   0  0  0  0  0  0  0  0  0  0  0  0
   -2.3189   -2.9426   -0.0711 C   0  0  0  0  0  0  0  0  0  0  0  0
   -2.8117   -2.6547    0.8606 H   0  0  0  0  0  0  0  0  0  0  0  0
   -2.8837   -2.5405   -0.9155 H   0  0  0  0  0  0  0  0  0  0  0  0
   -0.8983   -2.4083   -0.0930 C   0  0  0  0  0  0  0  0  0  0  0  0
    0.0372   -3.1895   -0.1319 O   0  0  0  0  0  0  0  0  0  0  0  0
   -0.6839   -1.0421   -0.0983 N   0  0  0  0  0  0  0  0  0  0  0  0
   -1.5095   -0.4633    0.0244 H   0  0  0  0  0  0  0  0  0  0  0  0
    0.6399   -0.4168    0.0924 C   0  0  0  0  0  0  0  0  0  0  0  0
    1.4181   -1.1769    0.2223 H   0  0  0  0  0  0  0  0  0  0  0  0
    0.9032    0.1604   -0.7977 H   0  0  0  0  0  0  0  0  0  0  0  0
    0.6848    0.5092    1.3132 C   0  0  0  0  0  0  0  0  0  0  0  0
    1.4752    0.3050    2.2212 O   0  0  0  0  0  0  0  0  0  0  0  0
   -0.1624    1.6012    1.3817 N   0  0  0  0  0  0  0  0  0  0  0  0
   -0.7195    1.8150    0.5610 H   0  0  0  0  0  0  0  0  0  0  0  0
   -0.1221    2.5673    2.4735 C   0  0  0  0  0  0  0  0  0  0  0  0
    0.8469    3.0768    2.4983 H   0  0  0  0  0  0  0  0  0  0  0  0
   -0.9064    3.3192    2.3433 H   0  0  0  0  0  0  0  0  0  0  0  0
   -0.2814    2.0672    3.4348 H   0  0  0  0  0  0  0  0  0  0  0  0
  1  2  1  0  0  0  0
  2  3  1  0  0  0  0
  2  4  1  0  0  0  0
  2  5  1  0  0  0  0
  5  6  2  0  0  0  0
  5  7  1  0  0  0  0
  7  8  1  0  0  0  0
  7  9  1  0  0  0  0
  9 10  1  0  0  0  0
  9 11  1  0  0  0  0
  9 12  1  0  0  0  0
 12 13  2  0  0  0  0
 12 14  1  0  0  0  0
 14 15  1  0  0  0  0
 14 16  1  0  0  0  0
 16 17  1  0  0  0  0
 16 18  1  0  0  0  0
 16 19  1  0  0  0  0
M  END
$$$$

  -OEChem-01062216083D

 19 18  0     0  0  0  0  0  0999 V2000
   -2.3079   -4.0744   -0.1003 H   0  0  0  0  0  0  0  0  0  0  0  0
   -2.3229   -2.9811   -0.1341 C   0  0  0  0  0  0  0  0  0  0  0  0
   -2.9340   -2.6136    0.6938 H   0  0  0  0  0  0  0  0  0  0  0  0
   -2.7710   -2.6652   -1.0793 H   0  0  0  0  0  0  0  0  0  0  0  0
   -0.9106   -2.4365   -0.0202 C   0  0  0  0  0  0  0  0  0  0  0  0
    0.0263   -3.2108    0.0727 O   0  0  0  0  0  0  0  0  0  0  0  0
   -0.7039   -1.0693   -0.0362 N   0  0  0  0  0  0  0  0  0  0  0  0
   -1.5298   -0.4866   -0.1271 H   0  0  0  0  0  0  0  0  0  0  0  0
    0.6158   -0.4214    0.1106 C   0  0  0  0  0  0  0  0  0  0  0  0
    1.4084   -1.1707    0.2118 H   0  0  0  0  0  0  0  0  0  0  0  0
    0.8376    0.1560   -0.7908 H   0  0  0  0  0  0  0  0  0  0  0  0
    0.7068    0.5159    1.3219 C   0  0  0  0  0  0  0  0  0  0  0  0
    1.7161    0.5329    2.0093 O   0  0  0  0  0  0  0  0  0  0  0  0
   -0.3127    1.4097    1.5999 N   0  0  0  0  0  0  0  0  0  0  0  0
   -1.1087    1.4305    0.9729 H   0  0  0  0  0  0  0  0  0  0  0  0
   -0.2546    2.3677    2.6978 C   0  0  0  0  0  0  0  0  0  0  0  0
    0.5718    3.0708    2.5498 H   0  0  0  0  0  0  0  0  0  0  0  0
   -1.1877    2.9364    2.7538 H   0  0  0  0  0  0  0  0  0  0  0  0
   -0.1094    1.8489    3.6516 H   0  0  0  0  0  0  0  0  0  0  0  0
  1  2  1  0  0  0  0
  2  3  1  0  0  0  0
  2  4  1  0  0  0  0
  2  5  1  0  0  0  0
  5  6  2  0  0  0  0
  5  7  1  0  0  0  0
  7  8  1  0  0  0  0
  7  9  1  0  0  0  0
  9 10  1  0  0  0  0
  9 11  1  0  0  0  0
  9 12  1  0  0  0  0
 12 13  2  0  0  0  0
 12 14  1  0  0  0  0
 14 15  1  0  0  0  0
 14 16  1  0  0  0  0
 16 17  1  0  0  0  0
 16 18  1  0  0  0  0
 16 19  1  0  0  0  0
M  END
$$$$

  -OEChem-01062216083D

 19 18  0     0  0  0  0  0  0999 V2000
   -2.3012   -4.0997   -0.1047 H   0  0  0  0  0  0  0  0  0  0  0  0
   -2.3175   -3.0106   -0.2062 C   0  0  0  0  0  0  0  0  0  0  0  0
   -3.0307   -2.6021    0.5139 H   0  0  0  0  0  0  0  0  0  0  0  0
   -2.6431   -2.7569   -1.2179 H   0  0  0  0  0  0  0  0  0  0  0  0
   -0.9343   -2.4413    0.0523 C   0  0  0  0  0  0  0  0  0  0  0  0
   -0.0066   -3.1962    0.2873 O   0  0  0  0  0  0  0  0  0  0  0  0
   -0.7454   -1.0718    0.0198 N   0  0  0  0  0  0  0  0  0  0  0  0
   -1.5372   -0.5183   -0.2943 H   0  0  0  0  0  0  0  0  0  0  0  0
    0.5746   -0.4130    0.1106 C   0  0  0  0  0  0  0  0  0  0  0  0
    1.3765   -1.1559    0.1796 H   0  0  0  0  0  0  0  0  0  0  0  0
    0.7518    0.1622   -0.8020 H   0  0  0  0  0  0  0  0  0  0  0  0
    0.7197    0.5340    1.3090 C   0  0  0  0  0  0  0  0  0  0  0  0
    1.8333    0.8092    1.7286 O   0  0  0  0  0  0  0  0  0  0  0  0
   -0.3782    1.2013    1.8224 N   0  0  0  0  0  0  0  0  0  0  0  0
   -1.2923    0.8822    1.5221 H   0  0  0  0  0  0  0  0  0  0  0  0
   -0.2907    2.1221    2.9498 C   0  0  0  0  0  0  0  0  0  0  0  0
    0.4002    2.9412    2.7237 H   0  0  0  0  0  0  0  0  0  0  0  0
   -1.2738    2.5519    3.1642 H   0  0  0  0  0  0  0  0  0  0  0  0
    0.0633    1.5998    3.8449 H   0  0  0  0  0  0  0  0  0  0  0  0
  1  2  1  0  0  0  0
  2  3  1  0  0  0  0
  2  4  1  0  0  0  0
  2  5  1  0  0  0  0
  5  6  2  0  0  0  0
  5  7  1  0  0  0  0
  7  8  1  0  0  0  0
  7  9  1  0  0  0  0
  9 10  1  0  0  0  0
  9 11  1  0  0  0  0
  9 12  1  0  0  0  0
 12 13  2  0  0  0  0
 12 14  1  0  0  0  0
 14 15  1  0  0  0  0
 14 16  1  0  0  0  0
 16 17  1  0  0  0  0
 16 18  1  0  0  0  0
 16 19  1  0  0  0  0
M  END
$$$$

  -OEChem-01062216083D

 19 18  0     0  0  0  0  0  0999 V2000
   -2.3087   -4.0973   -0.1407 H   0  0  0  0  0  0  0  0  0  0  0  0
   -2.3251   -3.0075   -0.2326 C   0  0  0  0  0  0  0  0  0  0  0  0
   -3.0524   -2.6070    0.4777 H   0  0  0  0  0  0  0  0  0  0  0  0
   -2.6337   -2.7456   -1.2475 H   0  0  0  0  0  0  0  0  0  0  0  0
   -0.9472   -2.4388    0.0542 C   0  0  0  0  0  0  0  0  0  0  0  0
   -0.0261   -3.1935    0.3143 O   0  0  0  0  0  0  0  0  0  0  0  0
   -0.7535   -1.0700    0.0257 N   0  0  0  0  0  0  0  0  0  0  0  0
   -1.5387   -0.5122   -0.2991 H   0  0  0  0  0  0  0  0  0  0  0  0
    0.5702   -0.4166    0.1081 C   0  0  0  0  0  0  0  0  0  0  0  0
    1.3703   -1.1619    0.1671 H   0  0  0  0  0  0  0  0  0  0  0  0
    0.7407    0.1623   -0.8037 H   0  0  0  0  0  0  0  0  0  0  0  0
    0.7304    0.5248    1.3083 C   0  0  0  0  0  0  0  0  0  0  0  0
    1.8273    1.0029    1.5543 O   0  0  0  0  0  0  0  0  0  0  0  0
   -0.3718    0.9516    2.0264 N   0  0  0  0  0  0  0  0  0  0  0  0
   -1.2347    0.4394    1.8776 H   0  0  0  0  0  0  0  0  0  0  0  0
   -0.2691    1.8335    3.1827 C   0  0  0  0  0  0  0  0  0  0  0  0
    0.1877    2.7871    2.8974 H   0  0  0  0  0  0  0  0  0  0  0  0
   -1.2628    2.0372    3.5930 H   0  0  0  0  0  0  0  0  0  0  0  0
    0.3417    1.3704    3.9649 H   0  0  0  0  0  0  0  0  0  0  0  0
  1  2  1  0  0  0  0
  2  3  1  0  0  0  0
  2  4  1  0  0  0  0
  2  5  1  0  0  0  0
  5  6  2  0  0  0  0
  5  7  1  0  0  0  0
  7  8  1  0  0  0  0
  7  9  1  0  0  0  0
  9 10  1  0  0  0  0
  9 11  1  0  0  0  0
  9 12  1  0  0  0  0
 12 13  2  0  0  0  0
 12 14  1  0  0  0  0
 14 15  1  0  0  0  0
 14 16  1  0  0  0  0
 16 17  1  0  0  0  0
 16 18  1  0  0  0  0
 16 19  1  0  0  0  0
M  END
$$$$

  -OEChem-01062216083D

 19 18  0     0  0  0  0  0  0999 V2000
   -2.3188   -4.0935   -0.1358 H   0  0  0  0  0  0  0  0  0  0  0  0
   -2.3322   -3.0048   -0.2416 C   0  0  0  0  0  0  0  0  0  0  0  0
   -3.0619   -2.5932    0.4598 H   0  0  0  0  0  0  0  0  0  0  0  0
   -2.6349   -2.7553   -1.2614 H   0  0  0  0  0  0  0  0  0  0  0  0
   -0.9543   -2.4357    0.0441 C   0  0  0  0  0  0  0  0  0  0  0  0
   -0.0322   -3.1893    0.3044 O   0  0  0  0  0  0  0  0  0  0  0  0
   -0.7610   -1.0669    0.0226 N   0  0  0  0  0  0  0  0  0  0  0  0
   -1.5525   -0.5032   -0.2774 H   0  0  0  0  0  0  0  0  0  0  0  0
    0.5628   -0.4126    0.0958 C   0  0  0  0  0  0  0  0  0  0  0  0
    1.3637   -1.1576    0.1430 H   0  0  0  0  0  0  0  0  0  0  0  0
    0.7237    0.1713   -0.8147 H   0  0  0  0  0  0  0  0  0  0  0  0
    0.7360    0.5215    1.2998 C   0  0  0  0  0  0  0  0  0  0  0  0
    1.7559    1.1863    1.4001 O   0  0  0  0  0  0  0  0  0  0  0  0
   -0.2868    0.7022    2.2127 N   0  0  0  0  0  0  0  0  0  0  0  0
   -1.0536    0.0387    2.1660 H   0  0  0  0  0  0  0  0  0  0  0  0
   -0.1504    1.5378    3.3995 C   0  0  0  0  0  0  0  0  0  0  0  0
    0.0814    2.5703    3.1175 H   0  0  0  0  0  0  0  0  0  0  0  0
   -1.0835    1.5392    3.9708 H   0  0  0  0  0  0  0  0  0  0  0  0
    0.6508    1.1607    4.0437 H   0  0  0  0  0  0  0  0  0  0  0  0
  1  2  1  0  0  0  0
  2  3  1  0  0  0  0
  2  4  1  0  0  0  0
  2  5  1  0  0  0  0
  5  6  2  0  0  0  0
  5  7  1  0  0  0  0
  7  8  1  0  0  0  0
  7  9  1  0  0  0  0
  9 10  1  0  0  0  0
  9 11  1  0  0  0  0
  9 12  1  0  0  0  0
 12 13  2  0  0  0  0
 12 14  1  0  0  0  0
 14 15  1  0  0  0  0
 14 16  1  0  0  0  0
 16 17  1  0  0  0  0
 16 18  1  0  0  0  0
 16 19  1  0  0  0  0
M  END
$$$$

  -OEChem-01062216083D

 19 18  0     0  0  0  0  0  0999 V2000
   -2.3352   -4.0742   -0.0970 H   0  0  0  0  0  0  0  0  0  0  0  0
   -2.3387   -2.9876   -0.2225 C   0  0  0  0  0  0  0  0  0  0  0  0
   -3.0510   -2.5554    0.4844 H   0  0  0  0  0  0  0  0  0  0  0  0
   -2.6576   -2.7533   -1.2411 H   0  0  0  0  0  0  0  0  0  0  0  0
   -0.9498   -2.4289    0.0278 C   0  0  0  0  0  0  0  0  0  0  0  0
   -0.0265   -3.1887    0.2650 O   0  0  0  0  0  0  0  0  0  0  0  0
   -0.7474   -1.0617    0.0137 N   0  0  0  0  0  0  0  0  0  0  0  0
   -1.5472   -0.4844   -0.2348 H   0  0  0  0  0  0  0  0  0  0  0  0
    0.5781   -0.4117    0.0829 C   0  0  0  0  0  0  0  0  0  0  0  0
    1.3778   -1.1582    0.1234 H   0  0  0  0  0  0  0  0  0  0  0  0
    0.7363    0.1774   -0.8250 H   0  0  0  0  0  0  0  0  0  0  0  0
    0.7517    0.5125    1.2939 C   0  0  0  0  0  0  0  0  0  0  0  0
    1.6368    1.3545    1.2867 O   0  0  0  0  0  0  0  0  0  0  0  0
   -0.1288    0.4535    2.3580 N   0  0  0  0  0  0  0  0  0  0  0  0
   -0.7647   -0.3383    2.3731 H   0  0  0  0  0  0  0  0  0  0  0  0
    0.0256    1.2586    3.5633 C   0  0  0  0  0  0  0  0  0  0  0  0
    0.0452    2.3247    3.3133 H   0  0  0  0  0  0  0  0  0  0  0  0
   -0.8110    1.0815    4.2459 H   0  0  0  0  0  0  0  0  0  0  0  0
    0.9565    1.0004    4.0788 H   0  0  0  0  0  0  0  0  0  0  0  0
  1  2  1  0  0  0  0
  2  3  1  0  0  0  0
  2  4  1  0  0  0  0
  2  5  1  0  0  0  0
  5  6  2  0  0  0  0
  5  7  1  0  0  0  0
  7  8  1  0  0  0  0
  7  9  1  0  0  0  0
  9 10  1  0  0  0  0
  9 11  1  0  0  0  0
  9 12  1  0  0  0  0
 12 13  2  0  0  0  0
 12 14  1  0  0  0  0
 14 15  1  0  0  0  0
 14 16  1  0  0  0  0
 16 17  1  0  0  0  0
 16 18  1  0  0  0  0
 16 19  1  0  0  0  0
M  END
$$$$

  -OEChem-01062216083D

 19 18  0     0  0  0  0  0  0999 V2000
   -2.3466   -4.0522   -0.1324 H   0  0  0  0  0  0  0  0  0  0  0  0
   -2.3500   -2.9609   -0.2067 C   0  0  0  0  0  0  0  0  0  0  0  0
   -3.0368   -2.5597    0.5425 H   0  0  0  0  0  0  0  0  0  0  0  0
   -2.7009   -2.6781   -1.2022 H   0  0  0  0  0  0  0  0  0  0  0  0
   -0.9517   -2.4174    0.0241 C   0  0  0  0  0  0  0  0  0  0  0  0
   -0.0323   -3.1848    0.2533 O   0  0  0  0  0  0  0  0  0  0  0  0
   -0.7362   -1.0529    0.0153 N   0  0  0  0  0  0  0  0  0  0  0  0
   -1.5381   -0.4637   -0.1956 H   0  0  0  0  0  0  0  0  0  0  0  0
    0.5941   -0.4137    0.0701 C   0  0  0  0  0  0  0  0  0  0  0  0
    1.3903   -1.1641    0.0957 H   0  0  0  0  0  0  0  0  0  0  0  0
    0.7453    0.1819   -0.8351 H   0  0  0  0  0  0  0  0  0  0  0  0
    0.7753    0.4973    1.2886 C   0  0  0  0  0  0  0  0  0  0  0  0
    1.4699    1.4984    1.1993 O   0  0  0  0  0  0  0  0  0  0  0  0
    0.1081    0.2266    2.4681 N   0  0  0  0  0  0  0  0  0  0  0  0
   -0.3637   -0.6717    2.5263 H   0  0  0  0  0  0  0  0  0  0  0  0
    0.2775    1.0180    3.6801 C   0  0  0  0  0  0  0  0  0  0  0  0
    0.0105    2.0640    3.4958 H   0  0  0  0  0  0  0  0  0  0  0  0
   -0.3675    0.6338    4.4761 H   0  0  0  0  0  0  0  0  0  0  0  0
    1.3165    0.9748    4.0233 H   0  0  0  0  0  0  0  0  0  0  0  0
  1  2  1  0  0  0  0
  2  3  1  0  0  0  0
  2  4  1  0  0  0  0
  2  5  1  0  0  0  0
  5  6  2  0  0  0  0
  5  7  1  0  0  0  0
  7  8  1  0  0  0  0
  7  9  1  0  0  0  0
  9 10  1  0  0  0  0
  9 11  1  0  0  0  0
  9 12  1  0  0  0  0
 12 13  2  0  0  0  0
 12 14  1  0  0  0  0
 14 15  1  0  0  0  0
 14 16  1  0  0  0  0
 16 17  1  0  0  0  0
 16 18  1  0  0  0  0
 16 19  1  0  0  0  0
M  END
$$$$

  -OEChem-01062216083D

 19 18  0     0  0  0  0  0  0999 V2000
   -2.2350   -4.0952   -0.1366 H   0  0  0  0  0  0  0  0  0  0  0  0
   -2.2963   -3.0032   -0.1191 C   0  0  0  0  0  0  0  0  0  0  0  0
   -2.9189   -2.6989    0.7259 H   0  0  0  0  0  0  0  0  0  0  0  0
   -2.7621   -2.6632   -1.0473 H   0  0  0  0  0  0  0  0  0  0  0  0
   -0.9085   -2.4037    0.0156 C   0  0  0  0  0  0  0  0  0  0  0  0
    0.0581   -3.1330    0.1615 O   0  0  0  0  0  0  0  0  0  0  0  0
   -0.7526   -1.0317    0.0262 N   0  0  0  0  0  0  0  0  0  0  0  0
   -1.5932   -0.4728   -0.0997 H   0  0  0  0  0  0  0  0  0  0  0  0
    0.5480   -0.3350    0.0114 C   0  0  0  0  0  0  0  0  0  0  0  0
    1.3787   -1.0461   -0.0302 H   0  0  0  0  0  0  0  0  0  0  0  0
    0.6151    0.2871   -0.8863 H   0  0  0  0  0  0  0  0  0  0  0  0
    0.7519    0.5515    1.2430 C   0  0  0  0  0  0  0  0  0  0  0  0
    1.1456    1.6995    1.1034 O   0  0  0  0  0  0  0  0  0  0  0  0
    0.4338    0.0608    2.4964 N   0  0  0  0  0  0  0  0  0  0  0  0
    0.1526   -0.9157    2.5377 H   0  0  0  0  0  0  0  0  0  0  0  0
    0.5884    0.7982    3.7473 C   0  0  0  0  0  0  0  0  0  0  0  0
    1.0054    1.7977    3.5854 H   0  0  0  0  0  0  0  0  0  0  0  0
   -0.3833    0.9119    4.2376 H   0  0  0  0  0  0  0  0  0  0  0  0
    1.2618    0.2575    4.4194 H   0  0  0  0  0  0  0  0  0  0  0  0
  1  2  1  0  0  0  0
  2  3  1  0  0  0  0
  2  4  1  0  0  0  0
  2  5  1  0  0  0  0
  5  6  2  0  0  0  0
  5  7  1  0  0  0  0
  7  8  1  0  0  0  0
  7  9  1  0  0  0  0
  9 10  1  0  0  0  0
  9 11  1  0  0  0  0
  9 12  1  0  0  0  0
 12 13  2  0  0  0  0
 12 14  1  0  0  0  0
 14 15  1  0  0  0  0
 14 16  1  0  0  0  0
 16 17  1  0  0  0  0
 16 18  1  0  0  0  0
 16 19  1  0  0  0  0
M  END
$$$$

  -OEChem-01062216083D

 19 18  0     0  0  0  0  0  0999 V2000
   -2.1159   -4.1542   -0.0768 H   0  0  0  0  0  0  0  0  0  0  0  0
   -2.2332   -3.0667   -0.0771 C   0  0  0  0  0  0  0  0  0  0  0  0
   -2.8341   -2.7776    0.7887 H   0  0  0  0  0  0  0  0  0  0  0  0
   -2.7550   -2.7698   -0.9902 H   0  0  0  0  0  0  0  0  0  0  0  0
   -0.8737   -2.3948   -0.0147 C   0  0  0  0  0  0  0  0  0  0  0  0
    0.1396   -3.0735    0.0245 O   0  0  0  0  0  0  0  0  0  0  0  0
   -0.7901   -1.0181    0.0494 N   0  0  0  0  0  0  0  0  0  0  0  0
   -1.6653   -0.4997    0.0274 H   0  0  0  0  0  0  0  0  0  0  0  0
    0.4687   -0.2529   -0.0055 C   0  0  0  0  0  0  0  0  0  0  0  0
    1.3331   -0.9125   -0.1286 H   0  0  0  0  0  0  0  0  0  0  0  0
    0.4510    0.4138   -0.8730 H   0  0  0  0  0  0  0  0  0  0  0  0
    0.6851    0.5848    1.2562 C   0  0  0  0  0  0  0  0  0  0  0  0
    0.7422    1.8033    1.1813 O   0  0  0  0  0  0  0  0  0  0  0  0
    0.7665   -0.0389    2.4858 N   0  0  0  0  0  0  0  0  0  0  0  0
    0.7370   -1.0559    2.4922 H   0  0  0  0  0  0  0  0  0  0  0  0
    0.9719    0.6773    3.7379 C   0  0  0  0  0  0  0  0  0  0  0  0
    1.9309    1.2057    3.7234 H   0  0  0  0  0  0  0  0  0  0  0  0
    0.1702    1.4058    3.8986 H   0  0  0  0  0  0  0  0  0  0  0  0
    0.9745   -0.0237    4.5780 H   0  0  0  0  0  0  0  0  0  0  0  0
  1  2  1  0  0  0  0
  2  3  1  0  0  0  0
  2  4  1  0  0  0  0
  2  5  1  0  0  0  0
  5  6  2  0  0  0  0
  5  7  1  0  0  0  0
  7  8  1  0  0  0  0
  7  9  1  0  0  0  0
  9 10  1  0  0  0  0
  9 11  1  0  0  0  0
  9 12  1  0  0  0  0
 12 13  2  0  0  0  0
 12 14  1  0  0  0  0
 14 15  1  0  0  0  0
 14 16  1  0  0  0  0
 16 17  1  0  0  0  0
 16 18  1  0  0  0  0
 16 19  1  0  0  0  0
M  END
$$$$

  -OEChem-01062216083D

 19 18  0     0  0  0  0  0  0999 V2000
   -2.1245   -4.1331   -0.0504 H   0  0  0  0  0  0  0  0  0  0  0  0
   -2.2313   -3.0448   -0.0323 C   0  0  0  0  0  0  0  0  0  0  0  0
   -2.7884   -2.7612    0.8639 H   0  0  0  0  0  0  0  0  0  0  0  0
   -2.7917   -2.7319   -0.9166 H   0  0  0  0  0  0  0  0  0  0  0  0
   -0.8647   -2.3852   -0.0247 C   0  0  0  0  0  0  0  0  0  0  0  0
    0.1440   -3.0724   -0.0368 O   0  0  0  0  0  0  0  0  0  0  0  0
   -0.7675   -1.0098    0.0435 N   0  0  0  0  0  0  0  0  0  0  0  0
   -1.6371   -0.4824    0.0768 H   0  0  0  0  0  0  0  0  0  0  0  0
    0.4959   -0.2558   -0.0208 C   0  0  0  0  0  0  0  0  0  0  0  0
    1.3547   -0.9200   -0.1575 H   0  0  0  0  0  0  0  0  0  0  0  0
    0.4744    0.4172   -0.8831 H   0  0  0  0  0  0  0  0  0  0  0  0
    0.7240    0.5723    1.2444 C   0  0  0  0  0  0  0  0  0  0  0  0
    0.5019    1.7742    1.2374 O   0  0  0  0  0  0  0  0  0  0  0  0
    1.1156   -0.0544    2.4111 N   0  0  0  0  0  0  0  0  0  0  0  0
    1.2396   -1.0638    2.3777 H   0  0  0  0  0  0  0  0  0  0  0  0
    1.2950    0.6448    3.6769 C   0  0  0  0  0  0  0  0  0  0  0  0
    2.0715    1.4114    3.5848 H   0  0  0  0  0  0  0  0  0  0  0  0
    0.3604    1.1251    3.9849 H   0  0  0  0  0  0  0  0  0  0  0  0
    1.5958   -0.0593    4.4586 H   0  0  0  0  0  0  0  0  0  0  0  0
  1  2  1  0  0  0  0
  2  3  1  0  0  0  0
  2  4  1  0  0  0  0
  2  5  1  0  0  0  0
  5  6  2  0  0  0  0
  5  7  1  0  0  0  0
  7  8  1  0  0  0  0
  7  9  1  0  0  0  0
  9 10  1  0  0  0  0
  9 11  1  0  0  0  0
  9 12  1  0  0  0  0
 12 13  2  0  0  0  0
 12 14  1  0  0  0  0
 14 15  1  0  0  0  0
 14 16  1  0  0  0  0
 16 17  1  0  0  0  0
 16 18  1  0  0  0  0
 16 19  1  0  0  0  0
M  END
$$$$

  -OEChem-01062216083D

 19 18  0     0  0  0  0  0  0999 V2000
   -2.1315   -4.1156    0.0057 H   0  0  0  0  0  0  0  0  0  0  0  0
   -2.2265   -3.0260    0.0170 C   0  0  0  0  0  0  0  0  0  0  0  0
   -2.7422   -2.7274    0.9329 H   0  0  0  0  0  0  0  0  0  0  0  0
   -2.8212   -2.7156   -0.8456 H   0  0  0  0  0  0  0  0  0  0  0  0
   -0.8541   -2.3805   -0.0404 C   0  0  0  0  0  0  0  0  0  0  0  0
    0.1455   -3.0788   -0.1031 O   0  0  0  0  0  0  0  0  0  0  0  0
   -0.7395   -1.0058    0.0188 N   0  0  0  0  0  0  0  0  0  0  0  0
   -1.5975   -0.4682    0.1228 H   0  0  0  0  0  0  0  0  0  0  0  0
    0.5322   -0.2677   -0.0448 C   0  0  0  0  0  0  0  0  0  0  0  0
    1.3835   -0.9423   -0.1769 H   0  0  0  0  0  0  0  0  0  0  0  0
    0.5216    0.4028   -0.9092 H   0  0  0  0  0  0  0  0  0  0  0  0
    0.7598    0.5650    1.2174 C   0  0  0  0  0  0  0  0  0  0  0  0
    0.2849    1.6888    1.2972 O   0  0  0  0  0  0  0  0  0  0  0  0
    1.4253    0.0150    2.2955 N   0  0  0  0  0  0  0  0  0  0  0  0
    1.7156   -0.9568    2.2163 H   0  0  0  0  0  0  0  0  0  0  0  0
    1.5883    0.7017    3.5704 C   0  0  0  0  0  0  0  0  0  0  0  0
    2.1171    1.6504    3.4303 H   0  0  0  0  0  0  0  0  0  0  0  0
    0.6125    0.9054    4.0234 H   0  0  0  0  0  0  0  0  0  0  0  0
    2.1685    0.0825    4.2612 H   0  0  0  0  0  0  0  0  0  0  0  0
  1  2  1  0  0  0  0
  2  3  1  0  0  0  0
  2  4  1  0  0  0  0
  2  5  1  0  0  0  0
  5  6  2  0  0  0  0
  5  7  1  0  0  0  0
  7  8  1  0  0  0  0
  7  9  1  0  0  0  0
  9 10  1  0  0  0  0
  9 11  1  0  0  0  0
  9 12  1  0  0  0  0
 12 13  2  0  0  0  0
 12 14  1  0  0  0  0
 14 15  1  0  0  0  0
 14 16  1  0  0  0  0
 16 17  1  0  0  0  0
 16 18  1  0  0  0  0
 16 19  1  0  0  0  0
M  END
$$$$

  -OEChem-01062216083D

 19 18  0     0  0  0  0  0  0999 V2000
   -2.1449   -4.1060   -0.0258 H   0  0  0  0  0  0  0  0  0  0  0  0
   -2.2272   -3.0172    0.0375 C   0  0  0  0  0  0  0  0  0  0  0  0
   -2.6965   -2.7539    0.9885 H   0  0  0  0  0  0  0  0  0  0  0  0
   -2.8572   -2.6640   -0.7826 H   0  0  0  0  0  0  0  0  0  0  0  0
   -0.8519   -2.3824   -0.0553 C   0  0  0  0  0  0  0  0  0  0  0  0
    0.1395   -3.0885   -0.1541 O   0  0  0  0  0  0  0  0  0  0  0  0
   -0.7265   -1.0084   -0.0033 N   0  0  0  0  0  0  0  0  0  0  0  0
   -1.5728   -0.4659    0.1590 H   0  0  0  0  0  0  0  0  0  0  0  0
    0.5513   -0.2809   -0.0585 C   0  0  0  0  0  0  0  0  0  0  0  0
    1.3963   -0.9652   -0.1796 H   0  0  0  0  0  0  0  0  0  0  0  0
    0.5544    0.3846   -0.9265 H   0  0  0  0  0  0  0  0  0  0  0  0
    0.7765    0.5601    1.1997 C   0  0  0  0  0  0  0  0  0  0  0  0
    0.0981    1.5609    1.3846 O   0  0  0  0  0  0  0  0  0  0  0  0
    1.6793    0.1489    2.1612 N   0  0  0  0  0  0  0  0  0  0  0  0
    2.1326   -0.7504    2.0206 H   0  0  0  0  0  0  0  0  0  0  0  0
    1.8707    0.8454    3.4271 C   0  0  0  0  0  0  0  0  0  0  0  0
    2.1452    1.8911    3.2522 H   0  0  0  0  0  0  0  0  0  0  0  0
    0.9526    0.8165    4.0229 H   0  0  0  0  0  0  0  0  0  0  0  0
    2.6724    0.3713    4.0015 H   0  0  0  0  0  0  0  0  0  0  0  0
  1  2  1  0  0  0  0
  2  3  1  0  0  0  0
  2  4  1  0  0  0  0
  2  5  1  0  0  0  0
  5  6  2  0  0  0  0
  5  7  1  0  0  0  0
  7  8  1  0  0  0  0
  7  9  1  0  0  0  0
  9 10  1  0  0  0  0
  9 11  1  0  0  0  0
  9 12  1  0  0  0  0
 12 13  2  0  0  0  0
 12 14  1  0  0  0  0
 14 15  1  0  0  0  0
 14 16  1  0  0  0  0
 16 17  1  0  0  0  0
 16 18  1  0  0  0  0
 16 19  1  0  0  0  0
M  END
$$$$

  -OEChem-01062216083D

 19 18  0     0  0  0  0  0  0999 V2000
   -2.1440   -4.0891    0.0062 H   0  0  0  0  0  0  0  0  0  0  0  0
   -2.2119   -3.0011    0.0938 C   0  0  0  0  0  0  0  0  0  0  0  0
   -2.6033   -2.7509    1.0829 H   0  0  0  0  0  0  0  0  0  0  0  0
   -2.9014   -2.6293   -0.6681 H   0  0  0  0  0  0  0  0  0  0  0  0
   -0.8429   -2.3739   -0.0953 C   0  0  0  0  0  0  0  0  0  0  0  0
    0.1344   -3.0858   -0.2673 O   0  0  0  0  0  0  0  0  0  0  0  0
   -0.7081   -1.0006   -0.0510 N   0  0  0  0  0  0  0  0  0  0  0  0
   -1.5317   -0.4620    0.2121 H   0  0  0  0  0  0  0  0  0  0  0  0
    0.5758   -0.2840   -0.0976 C   0  0  0  0  0  0  0  0  0  0  0  0
    1.4147   -0.9780   -0.2025 H   0  0  0  0  0  0  0  0  0  0  0  0
    0.5942    0.3763   -0.9691 H   0  0  0  0  0  0  0  0  0  0  0  0
    0.7892    0.5629    1.1603 C   0  0  0  0  0  0  0  0  0  0  0  0
   -0.0539    1.3922    1.4748 O   0  0  0  0  0  0  0  0  0  0  0  0
    1.8743    0.3376    1.9855 N   0  0  0  0  0  0  0  0  0  0  0  0
    2.4897   -0.4361    1.7491 H   0  0  0  0  0  0  0  0  0  0  0  0
    2.0663    1.0273    3.2554 C   0  0  0  0  0  0  0  0  0  0  0  0
    2.1218    2.1098    3.0999 H   0  0  0  0  0  0  0  0  0  0  0  0
    1.2375    0.8113    3.9377 H   0  0  0  0  0  0  0  0  0  0  0  0
    2.9976    0.6990    3.7267 H   0  0  0  0  0  0  0  0  0  0  0  0
  1  2  1  0  0  0  0
  2  3  1  0  0  0  0
  2  4  1  0  0  0  0
  2  5  1  0  0  0  0
  5  6  2  0  0  0  0
  5  7  1  0  0  0  0
  7  8  1  0  0  0  0
  7  9  1  0  0  0  0
  9 10  1  0  0  0  0
  9 11  1  0  0  0  0
  9 12  1  0  0  0  0
 12 13  2  0  0  0  0
 12 14  1  0  0  0  0
 14 15  1  0  0  0  0
 14 16  1  0  0  0  0
 16 17  1  0  0  0  0
 16 18  1  0  0  0  0
 16 19  1  0  0  0  0
M  END
$$$$

  -OEChem-01062216083D

 19 18  0     0  0  0  0  0  0999 V2000
   -2.2440   -4.0231    0.0938 H   0  0  0  0  0  0  0  0  0  0  0  0
   -2.2733   -2.9300    0.0801 C   0  0  0  0  0  0  0  0  0  0  0  0
   -2.6962   -2.5774    1.0239 H   0  0  0  0  0  0  0  0  0  0  0  0
   -2.9149   -2.6050   -0.7425 H   0  0  0  0  0  0  0  0  0  0  0  0
   -0.8746   -2.3701   -0.1029 C   0  0  0  0  0  0  0  0  0  0  0  0
    0.0724   -3.1300   -0.2350 O   0  0  0  0  0  0  0  0  0  0  0  0
   -0.6821   -1.0032   -0.1085 N   0  0  0  0  0  0  0  0  0  0  0  0
   -1.4817   -0.4272    0.1513 H   0  0  0  0  0  0  0  0  0  0  0  0
    0.6347   -0.3467   -0.1010 C   0  0  0  0  0  0  0  0  0  0  0  0
    1.4421   -1.0846   -0.1167 H   0  0  0  0  0  0  0  0  0  0  0  0
    0.7414    0.2686   -0.9984 H   0  0  0  0  0  0  0  0  0  0  0  0
    0.8126    0.5492    1.1299 C   0  0  0  0  0  0  0  0  0  0  0  0
   -0.1194    1.2558    1.4917 O   0  0  0  0  0  0  0  0  0  0  0  0
    1.9910    0.5153    1.8540 N   0  0  0  0  0  0  0  0  0  0  0  0
    2.7033   -0.1402    1.5444 H   0  0  0  0  0  0  0  0  0  0  0  0
    2.2360    1.2733    3.0786 C   0  0  0  0  0  0  0  0  0  0  0  0
    1.3799    1.8971    3.3555 H   0  0  0  0  0  0  0  0  0  0  0  0
    2.4358    0.5883    3.9083 H   0  0  0  0  0  0  0  0  0  0  0  0
    3.1019    1.9291    2.9461 H   0  0  0  0  0  0  0  0  0  0  0  0
  1  2  1  0  0  0  0
  2  3  1  0  0  0  0
  2  4  1  0  0  0  0
  2  5  1  0  0  0  0
  5  6  2  0  0  0  0
  5  7  1  0  0  0  0
  7  8  1  0  0  0  0
  7  9  1  0  0  0  0
  9 10  1  0  0  0  0
  9 11  1  0  0  0  0
  9 12  1  0  0  0  0
 12 13  2  0  0  0  0
 12 14  1  0  0  0  0
 14 15  1  0  0  0  0
 14 16  1  0  0  0  0
 16 17  1  0  0  0  0
 16 18  1  0  0  0  0
 16 19  1  0  0  0  0
M  END
$$$$

  -OEChem-01062216083D

 19 18  0     0  0  0  0  0  0999 V2000
   -2.3612   -3.9385    0.0842 H   0  0  0  0  0  0  0  0  0  0  0  0
   -2.3308   -2.8454    0.0705 C   0  0  0  0  0  0  0  0  0  0  0  0
   -2.7416   -2.4699    1.0109 H   0  0  0  0  0  0  0  0  0  0  0  0
   -2.9474   -2.4867   -0.7572 H   0  0  0  0  0  0  0  0  0  0  0  0
   -0.9016   -2.3637   -0.1001 C   0  0  0  0  0  0  0  0  0  0  0  0
    0.0079   -3.1756   -0.1729 O   0  0  0  0  0  0  0  0  0  0  0  0
   -0.6401   -1.0096   -0.1654 N   0  0  0  0  0  0  0  0  0  0  0  0
   -1.4136   -0.3899    0.0728 H   0  0  0  0  0  0  0  0  0  0  0  0
    0.7085   -0.4233   -0.0971 C   0  0  0  0  0  0  0  0  0  0  0  0
    1.4707   -1.2032   -0.0084 H   0  0  0  0  0  0  0  0  0  0  0  0
    0.9132    0.1293   -1.0180 H   0  0  0  0  0  0  0  0  0  0  0  0
    0.8574    0.5335    1.0924 C   0  0  0  0  0  0  0  0  0  0  0  0
   -0.1203    1.1419    1.5106 O   0  0  0  0  0  0  0  0  0  0  0  0
    2.0832    0.7025    1.7077 N   0  0  0  0  0  0  0  0  0  0  0  0
    2.8602    0.1381    1.3759 H   0  0  0  0  0  0  0  0  0  0  0  0
    2.2798    1.5576    2.8720 C   0  0  0  0  0  0  0  0  0  0  0  0
    1.6730    1.2054    3.7126 H   0  0  0  0  0  0  0  0  0  0  0  0
    3.3310    1.5476    3.1757 H   0  0  0  0  0  0  0  0  0  0  0  0
    1.9975    2.5903    2.6414 H   0  0  0  0  0  0  0  0  0  0  0  0
  1  2  1  0  0  0  0
  2  3  1  0  0  0  0
  2  4  1  0  0  0  0
  2  5  1  0  0  0  0
  5  6  2  0  0  0  0
  5  7  1  0  0  0  0
  7  8  1  0  0  0  0
  7  9  1  0  0  0  0
  9 10  1  0  0  0  0
  9 11  1  0  0  0  0
  9 12  1  0  0  0  0
 12 13  2  0  0  0  0
 12 14  1  0  0  0  0
 14 15  1  0  0  0  0
 14 16  1  0  0  0  0
 16 17  1  0  0  0  0
 16 18  1  0  0  0  0
 16 19  1  0  0  0  0
M  END
$$$$

  -OEChem-01062216083D

 19 18  0     0  0  0  0  0  0999 V2000
   -2.3554   -3.9450    0.0845 H   0  0  0  0  0  0  0  0  0  0  0  0
   -2.3275   -2.8518    0.0689 C   0  0  0  0  0  0  0  0  0  0  0  0
   -2.7316   -2.4755    1.0119 H   0  0  0  0  0  0  0  0  0  0  0  0
   -2.9509   -2.4957   -0.7548 H   0  0  0  0  0  0  0  0  0  0  0  0
   -0.9011   -2.3667   -0.1137 C   0  0  0  0  0  0  0  0  0  0  0  0
    0.0094   -3.1764   -0.2002 O   0  0  0  0  0  0  0  0  0  0  0  0
   -0.6452   -1.0118   -0.1848 N   0  0  0  0  0  0  0  0  0  0  0  0
   -1.4168   -0.4013    0.0815 H   0  0  0  0  0  0  0  0  0  0  0  0
    0.7022   -0.4262   -0.0869 C   0  0  0  0  0  0  0  0  0  0  0  0
    1.4610   -1.2056    0.0309 H   0  0  0  0  0  0  0  0  0  0  0  0
    0.9291    0.1142   -1.0096 H   0  0  0  0  0  0  0  0  0  0  0  0
    0.8299    0.5431    1.0962 C   0  0  0  0  0  0  0  0  0  0  0  0
   -0.1752    0.9901    1.6362 O   0  0  0  0  0  0  0  0  0  0  0  0
    2.0770    0.9468    1.5341 N   0  0  0  0  0  0  0  0  0  0  0  0
    2.8913    0.5299    1.0921 H   0  0  0  0  0  0  0  0  0  0  0  0
    2.2728    1.8587    2.6545 C   0  0  0  0  0  0  0  0  0  0  0  0
    1.8594    1.4307    3.5737 H   0  0  0  0  0  0  0  0  0  0  0  0
    3.3401    2.0445    2.8088 H   0  0  0  0  0  0  0  0  0  0  0  0
    1.7810    2.8175    2.4595 H   0  0  0  0  0  0  0  0  0  0  0  0
  1  2  1  0  0  0  0
  2  3  1  0  0  0  0
  2  4  1  0  0  0  0
  2  5  1  0  0  0  0
  5  6  2  0  0  0  0
  5  7  1  0  0  0  0
  7  8  1  0  0  0  0
  7  9  1  0  0  0  0
  9 10  1  0  0  0  0
  9 11  1  0  0  0  0
  9 12  1  0  0  0  0
 12 13  2  0  0  0  0
 12 14  1  0  0  0  0
 14 15  1  0  0  0  0
 14 16  1  0  0  0  0
 16 17  1  0  0  0  0
 16 18  1  0  0  0  0
 16 19  1  0  0  0  0
M  END
$$$$

  -OEChem-01062216083D

 19 18  0     0  0  0  0  0  0999 V2000
   -2.3199   -3.9439    0.1326 H   0  0  0  0  0  0  0  0  0  0  0  0
   -2.3002   -2.8505    0.1246 C   0  0  0  0  0  0  0  0  0  0  0  0
   -2.6419   -2.4852    1.0963 H   0  0  0  0  0  0  0  0  0  0  0  0
   -2.9801   -2.4919   -0.6518 H   0  0  0  0  0  0  0  0  0  0  0  0
   -0.8922   -2.3536   -0.1469 C   0  0  0  0  0  0  0  0  0  0  0  0
    0.0172   -3.1568   -0.2892 O   0  0  0  0  0  0  0  0  0  0  0  0
   -0.6539   -0.9954   -0.2295 N   0  0  0  0  0  0  0  0  0  0  0  0
   -1.4156   -0.4094    0.1072 H   0  0  0  0  0  0  0  0  0  0  0  0
    0.6964   -0.4154   -0.1255 C   0  0  0  0  0  0  0  0  0  0  0  0
    1.4671   -1.1778   -0.2743 H   0  0  0  0  0  0  0  0  0  0  0  0
    0.8236    0.3294   -0.9154 H   0  0  0  0  0  0  0  0  0  0  0  0
    0.9475    0.2635    1.2293 C   0  0  0  0  0  0  0  0  0  0  0  0
    0.0397    0.3751    2.0448 O   0  0  0  0  0  0  0  0  0  0  0  0
    2.1679    0.8575    1.4901 N   0  0  0  0  0  0  0  0  0  0  0  0
    2.9117    0.7282    0.8103 H   0  0  0  0  0  0  0  0  0  0  0  0
    2.4702    1.5407    2.7423 C   0  0  0  0  0  0  0  0  0  0  0  0
    2.3806    0.8496    3.5871 H   0  0  0  0  0  0  0  0  0  0  0  0
    3.4915    1.9330    2.7231 H   0  0  0  0  0  0  0  0  0  0  0  0
    1.7824    2.3784    2.8979 H   0  0  0  0  0  0  0  0  0  0  0  0
  1  2  1  0  0  0  0
  2  3  1  0  0  0  0
  2  4  1  0  0  0  0
  2  5  1  0  0  0  0
  5  6  2  0  0  0  0
  5  7  1  0  0  0  0
  7  8  1  0  0  0  0
  7  9  1  0  0  0  0
  9 10  1  0  0  0  0
  9 11  1  0  0  0  0
  9 12  1  0  0  0  0
 12 13  2  0  0  0  0
 12 14  1  0  0  0  0
 14 15  1  0  0  0  0
 14 16  1  0  0  0  0
 16 17  1  0  0  0  0
 16 18  1  0  0  0  0
 16 19  1  0  0  0  0
M  END
$$$$

  -OEChem-01062216083D

 19 18  0     0  0  0  0  0  0999 V2000
   -2.3176   -3.9479    0.1200 H   0  0  0  0  0  0  0  0  0  0  0  0
   -2.2997   -2.8544    0.1128 C   0  0  0  0  0  0  0  0  0  0  0  0
   -2.6463   -2.4901    1.0833 H   0  0  0  0  0  0  0  0  0  0  0  0
   -2.9762   -2.4960   -0.6669 H   0  0  0  0  0  0  0  0  0  0  0  0
   -0.8910   -2.3558   -0.1518 C   0  0  0  0  0  0  0  0  0  0  0  0
    0.0173   -3.1586   -0.3033 O   0  0  0  0  0  0  0  0  0  0  0  0
   -0.6541   -0.9968   -0.2307 N   0  0  0  0  0  0  0  0  0  0  0  0
   -1.4195   -0.4160    0.1053 H   0  0  0  0  0  0  0  0  0  0  0  0
    0.6957   -0.4196   -0.1037 C   0  0  0  0  0  0  0  0  0  0  0  0
    1.4690   -1.1820   -0.2395 H   0  0  0  0  0  0  0  0  0  0  0  0
    0.8348    0.3236   -0.8931 H   0  0  0  0  0  0  0  0  0  0  0  0
    0.9290    0.2598    1.2543 C   0  0  0  0  0  0  0  0  0  0  0  0
    0.0928    0.1758    2.1456 O   0  0  0  0  0  0  0  0  0  0  0  0
    2.0086    1.1066    1.4216 N   0  0  0  0  0  0  0  0  0  0  0  0
    2.6907    1.1582    0.6706 H   0  0  0  0  0  0  0  0  0  0  0  0
    2.2663    1.8365    2.6571 C   0  0  0  0  0  0  0  0  0  0  0  0
    2.3940    1.1412    3.4935 H   0  0  0  0  0  0  0  0  0  0  0  0
    3.1788    2.4325    2.5602 H   0  0  0  0  0  0  0  0  0  0  0  0
    1.4350    2.5124    2.8841 H   0  0  0  0  0  0  0  0  0  0  0  0
  1  2  1  0  0  0  0
  2  3  1  0  0  0  0
  2  4  1  0  0  0  0
  2  5  1  0  0  0  0
  5  6  2  0  0  0  0
  5  7  1  0  0  0  0
  7  8  1  0  0  0  0
  7  9  1  0  0  0  0
  9 10  1  0  0  0  0
  9 11  1  0  0  0  0
  9 12  1  0  0  0  0
 12 13  2  0  0  0  0
 12 14  1  0  0  0  0
 14 15  1  0  0  0  0
 14 16  1  0  0  0  0
 16 17  1  0  0  0  0
 16 18  1  0  0  0  0
 16 19  1  0  0  0  0
M  END
$$$$

  -OEChem-01062216083D

 19 18  0     0  0  0  0  0  0999 V2000
   -2.3279   -3.9430    0.0740 H   0  0  0  0  0  0  0  0  0  0  0  0
   -2.2972   -2.8505    0.1120 C   0  0  0  0  0  0  0  0  0  0  0  0
   -2.6244   -2.5232    1.1019 H   0  0  0  0  0  0  0  0  0  0  0  0
   -2.9812   -2.4527   -0.6413 H   0  0  0  0  0  0  0  0  0  0  0  0
   -0.8871   -2.3570   -0.1533 C   0  0  0  0  0  0  0  0  0  0  0  0
    0.0170   -3.1632   -0.3112 O   0  0  0  0  0  0  0  0  0  0  0  0
   -0.6469   -0.9988   -0.2368 N   0  0  0  0  0  0  0  0  0  0  0  0
   -1.4158   -0.4176    0.0885 H   0  0  0  0  0  0  0  0  0  0  0  0
    0.7036   -0.4279   -0.0877 C   0  0  0  0  0  0  0  0  0  0  0  0
    1.4770   -1.1938   -0.2007 H   0  0  0  0  0  0  0  0  0  0  0  0
    0.8612    0.3065   -0.8818 H   0  0  0  0  0  0  0  0  0  0  0  0
    0.9122    0.2584    1.2710 C   0  0  0  0  0  0  0  0  0  0  0  0
    0.1902   -0.0124    2.2222 O   0  0  0  0  0  0  0  0  0  0  0  0
    1.7872    1.3235    1.3767 N   0  0  0  0  0  0  0  0  0  0  0  0
    2.3700    1.5393    0.5732 H   0  0  0  0  0  0  0  0  0  0  0  0
    1.9849    2.0741    2.6111 C   0  0  0  0  0  0  0  0  0  0  0  0
    2.3596    1.4168    3.4028 H   0  0  0  0  0  0  0  0  0  0  0  0
    2.7123    2.8762    2.4539 H   0  0  0  0  0  0  0  0  0  0  0  0
    1.0428    2.5236    2.9424 H   0  0  0  0  0  0  0  0  0  0  0  0
  1  2  1  0  0  0  0
  2  3  1  0  0  0  0
  2  4  1  0  0  0  0
  2  5  1  0  0  0  0
  5  6  2  0  0  0  0
  5  7  1  0  0  0  0
  7  8  1  0  0  0  0
  7  9  1  0  0  0  0
  9 10  1  0  0  0  0
  9 11  1  0  0  0  0
  9 12  1  0  0  0  0
 12 13  2  0  0  0  0
 12 14  1  0  0  0  0
 14 15  1  0  0  0  0
 14 16  1  0  0  0  0
 16 17  1  0  0  0  0
 16 18  1  0  0  0  0
 16 19  1  0  0  0  0
M  END
$$$$

  -OEChem-01062216083D

 19 18  0     0  0  0  0  0  0999 V2000
   -2.3217   -3.9426    0.0754 H   0  0  0  0  0  0  0  0  0  0  0  0
   -2.2930   -2.8499    0.1138 C   0  0  0  0  0  0  0  0  0  0  0  0
   -2.6164   -2.5244    1.1057 H   0  0  0  0  0  0  0  0  0  0  0  0
   -2.9810   -2.4528   -0.6363 H   0  0  0  0  0  0  0  0  0  0  0  0
   -0.8847   -2.3539   -0.1570 C   0  0  0  0  0  0  0  0  0  0  0  0
    0.0166   -3.1595   -0.3321 O   0  0  0  0  0  0  0  0  0  0  0  0
   -0.6445   -0.9946   -0.2312 N   0  0  0  0  0  0  0  0  0  0  0  0
   -1.4182   -0.4132    0.0808 H   0  0  0  0  0  0  0  0  0  0  0  0
    0.7062   -0.4263   -0.0746 C   0  0  0  0  0  0  0  0  0  0  0  0
    1.4798   -1.1922   -0.1870 H   0  0  0  0  0  0  0  0  0  0  0  0
    0.8694    0.3105   -0.8654 H   0  0  0  0  0  0  0  0  0  0  0  0
    0.9065    0.2494    1.2903 C   0  0  0  0  0  0  0  0  0  0  0  0
    0.3630   -0.2005    2.2901 O   0  0  0  0  0  0  0  0  0  0  0  0
    1.5227    1.4851    1.3648 N   0  0  0  0  0  0  0  0  0  0  0  0
    1.9456    1.8562    0.5192 H   0  0  0  0  0  0  0  0  0  0  0  0
    1.6575    2.2361    2.6075 C   0  0  0  0  0  0  0  0  0  0  0  0
    2.2217    1.6569    3.3461 H   0  0  0  0  0  0  0  0  0  0  0  0
    2.1881    3.1758    2.4264 H   0  0  0  0  0  0  0  0  0  0  0  0
    0.6714    2.4705    3.0222 H   0  0  0  0  0  0  0  0  0  0  0  0
  1  2  1  0  0  0  0
  2  3  1  0  0  0  0
  2  4  1  0  0  0  0
  2  5  1  0  0  0  0
  5  6  2  0  0  0  0
  5  7  1  0  0  0  0
  7  8  1  0  0  0  0
  7  9  1  0  0  0  0
  9 10  1  0  0  0  0
  9 11  1  0  0  0  0
  9 12  1  0  0  0  0
 12 13  2  0  0  0  0
 12 14  1  0  0  0  0
 14 15  1  0  0  0  0
 14 16  1  0  0  0  0
 16 17  1  0  0  0  0
 16 18  1  0  0  0  0
 16 19  1  0  0  0  0
M  END
$$$$

  -OEChem-01062216083D

 19 18  0     0  0  0  0  0  0999 V2000
   -2.3206   -3.9437    0.0588 H   0  0  0  0  0  0  0  0  0  0  0  0
   -2.2919   -2.8515    0.1071 C   0  0  0  0  0  0  0  0  0  0  0  0
   -2.6203   -2.5350    1.1002 H   0  0  0  0  0  0  0  0  0  0  0  0
   -2.9758   -2.4481   -0.6433 H   0  0  0  0  0  0  0  0  0  0  0  0
   -0.8819   -2.3536   -0.1516 C   0  0  0  0  0  0  0  0  0  0  0  0
    0.0187   -3.1581   -0.3324 O   0  0  0  0  0  0  0  0  0  0  0  0
   -0.6423   -0.9936   -0.2192 N   0  0  0  0  0  0  0  0  0  0  0  0
   -1.4225   -0.4116    0.0736 H   0  0  0  0  0  0  0  0  0  0  0  0
    0.7072   -0.4237   -0.0566 C   0  0  0  0  0  0  0  0  0  0  0  0
    1.4814   -1.1901   -0.1645 H   0  0  0  0  0  0  0  0  0  0  0  0
    0.8784    0.3124   -0.8459 H   0  0  0  0  0  0  0  0  0  0  0  0
    0.8977    0.2451    1.3118 C   0  0  0  0  0  0  0  0  0  0  0  0
    0.5920   -0.3466    2.3371 O   0  0  0  0  0  0  0  0  0  0  0  0
    1.2156    1.5890    1.3854 N   0  0  0  0  0  0  0  0  0  0  0  0
    1.4396    2.0718    0.5205 H   0  0  0  0  0  0  0  0  0  0  0  0
    1.3093    2.3195    2.6440 C   0  0  0  0  0  0  0  0  0  0  0  0
    2.0603    1.8631    3.2975 H   0  0  0  0  0  0  0  0  0  0  0  0
    1.5987    3.3582    2.4578 H   0  0  0  0  0  0  0  0  0  0  0  0
    0.3440    2.3173    3.1609 H   0  0  0  0  0  0  0  0  0  0  0  0
  1  2  1  0  0  0  0
  2  3  1  0  0  0  0
  2  4  1  0  0  0  0
  2  5  1  0  0  0  0
  5  6  2  0  0  0  0
  5  7  1  0  0  0  0
  7  8  1  0  0  0  0
  7  9  1  0  0  0  0
  9 10  1  0  0  0  0
  9 11  1  0  0  0  0
  9 12  1  0  0  0  0
 12 13  2  0  0  0  0
 12 14  1  0  0  0  0
 14 15  1  0  0  0  0
 14 16  1  0  0  0  0
 16 17  1  0  0  0  0
 16 18  1  0  0  0  0
 16 19  1  0  0  0  0
M  END
$$$$

  -OEChem-01062216083D

 19 18  0     0  0  0  0  0  0999 V2000
   -2.3259   -3.9520    0.0391 H   0  0  0  0  0  0  0  0  0  0  0  0
   -2.3016   -2.8593    0.0785 C   0  0  0  0  0  0  0  0  0  0  0  0
   -2.6674   -2.5354    1.0559 H   0  0  0  0  0  0  0  0  0  0  0  0
   -2.9588   -2.4647   -0.6999 H   0  0  0  0  0  0  0  0  0  0  0  0
   -0.8840   -2.3603   -0.1335 C   0  0  0  0  0  0  0  0  0  0  0  0
    0.0211   -3.1644   -0.2881 O   0  0  0  0  0  0  0  0  0  0  0  0
   -0.6432   -0.9998   -0.1942 N   0  0  0  0  0  0  0  0  0  0  0  0
   -1.4352   -0.4113    0.0489 H   0  0  0  0  0  0  0  0  0  0  0  0
    0.7024   -0.4212   -0.0293 C   0  0  0  0  0  0  0  0  0  0  0  0
    1.4799   -1.1846   -0.1368 H   0  0  0  0  0  0  0  0  0  0  0  0
    0.8762    0.3177   -0.8156 H   0  0  0  0  0  0  0  0  0  0  0  0
    0.8852    0.2424    1.3416 C   0  0  0  0  0  0  0  0  0  0  0  0
    0.8949   -0.4307    2.3611 O   0  0  0  0  0  0  0  0  0  0  0  0
    0.8815    1.6214    1.4472 N   0  0  0  0  0  0  0  0  0  0  0  0
    0.8548    2.1633    0.5888 H   0  0  0  0  0  0  0  0  0  0  0  0
    0.9786    2.3242    2.7214 C   0  0  0  0  0  0  0  0  0  0  0  0
    1.9125    2.0660    3.2318 H   0  0  0  0  0  0  0  0  0  0  0  0
    0.9615    3.4061    2.5591 H   0  0  0  0  0  0  0  0  0  0  0  0
    0.1374    2.0591    3.3706 H   0  0  0  0  0  0  0  0  0  0  0  0
  1  2  1  0  0  0  0
  2  3  1  0  0  0  0
  2  4  1  0  0  0  0
  2  5  1  0  0  0  0
  5  6  2  0  0  0  0
  5  7  1  0  0  0  0
  7  8  1  0  0  0  0
  7  9  1  0  0  0  0
  9 10  1  0  0  0  0
  9 11  1  0  0  0  0
  9 12  1  0  0  0  0
 12 13  2  0  0  0  0
 12 14  1  0  0  0  0
 14 15  1  0  0  0  0
 14 16  1  0  0  0  0
 16 17  1  0  0  0  0
 16 18  1  0  0  0  0
 16 19  1  0  0  0  0
M  END
$$$$

  -OEChem-01062216083D

 19 18  0     0  0  0  0  0  0999 V2000
   -2.3355   -3.9705   -0.0356 H   0  0  0  0  0  0  0  0  0  0  0  0
   -2.3154   -2.8788    0.0287 C   0  0  0  0  0  0  0  0  0  0  0  0
   -2.7204   -2.5768    0.9977 H   0  0  0  0  0  0  0  0  0  0  0  0
   -2.9425   -2.4685   -0.7664 H   0  0  0  0  0  0  0  0  0  0  0  0
   -0.8915   -2.3735   -0.1168 C   0  0  0  0  0  0  0  0  0  0  0  0
    0.0215   -3.1745   -0.2307 O   0  0  0  0  0  0  0  0  0  0  0  0
   -0.6529   -1.0118   -0.1641 N   0  0  0  0  0  0  0  0  0  0  0  0
   -1.4562   -0.4206    0.0301 H   0  0  0  0  0  0  0  0  0  0  0  0
    0.6874   -0.4225    0.0104 C   0  0  0  0  0  0  0  0  0  0  0  0
    1.4698   -1.1806   -0.1011 H   0  0  0  0  0  0  0  0  0  0  0  0
    0.8620    0.3245   -0.7681 H   0  0  0  0  0  0  0  0  0  0  0  0
    0.8610    0.2318    1.3862 C   0  0  0  0  0  0  0  0  0  0  0  0
    1.2150   -0.4268    2.3514 O   0  0  0  0  0  0  0  0  0  0  0  0
    0.5396    1.5662    1.5582 N   0  0  0  0  0  0  0  0  0  0  0  0
    0.2803    2.1004    0.7347 H   0  0  0  0  0  0  0  0  0  0  0  0
    0.6851    2.2615    2.8318 C   0  0  0  0  0  0  0  0  0  0  0  0
    1.7345    2.2715    3.1448 H   0  0  0  0  0  0  0  0  0  0  0  0
    0.3414    3.2962    2.7393 H   0  0  0  0  0  0  0  0  0  0  0  0
    0.0905    1.7695    3.6088 H   0  0  0  0  0  0  0  0  0  0  0  0
  1  2  1  0  0  0  0
  2  3  1  0  0  0  0
  2  4  1  0  0  0  0
  2  5  1  0  0  0  0
  5  6  2  0  0  0  0
  5  7  1  0  0  0  0
  7  8  1  0  0  0  0
  7  9  1  0  0  0  0
  9 10  1  0  0  0  0
  9 11  1  0  0  0  0
  9 12  1  0  0  0  0
 12 13  2  0  0  0  0
 12 14  1  0  0  0  0
 14 15  1  0  0  0  0
 14 16  1  0  0  0  0
 16 17  1  0  0  0  0
 16 18  1  0  0  0  0
 16 19  1  0  0  0  0
M  END
$$$$

  -OEChem-01062216083D

 19 18  0     0  0  0  0  0  0999 V2000
   -2.3384   -3.9931   -0.0684 H   0  0  0  0  0  0  0  0  0  0  0  0
   -2.3271   -2.9005   -0.0173 C   0  0  0  0  0  0  0  0  0  0  0  0
   -2.7849   -2.5884    0.9244 H   0  0  0  0  0  0  0  0  0  0  0  0
   -2.9126   -2.5044   -0.8504 H   0  0  0  0  0  0  0  0  0  0  0  0
   -0.9002   -2.3889   -0.0938 C   0  0  0  0  0  0  0  0  0  0  0  0
    0.0214   -3.1849   -0.1557 O   0  0  0  0  0  0  0  0  0  0  0  0
   -0.6669   -1.0261   -0.1241 N   0  0  0  0  0  0  0  0  0  0  0  0
   -1.4808   -0.4337    0.0111 H   0  0  0  0  0  0  0  0  0  0  0  0
    0.6693   -0.4211    0.0351 C   0  0  0  0  0  0  0  0  0  0  0  0
    1.4579   -1.1680   -0.1075 H   0  0  0  0  0  0  0  0  0  0  0  0
    0.8184    0.3428   -0.7322 H   0  0  0  0  0  0  0  0  0  0  0  0
    0.8642    0.2170    1.4155 C   0  0  0  0  0  0  0  0  0  0  0  0
    1.5586   -0.3218    2.2629 O   0  0  0  0  0  0  0  0  0  0  0  0
    0.2557    1.4251    1.7055 N   0  0  0  0  0  0  0  0  0  0  0  0
   -0.2591    1.8863    0.9623 H   0  0  0  0  0  0  0  0  0  0  0  0
    0.4300    2.1171    2.9772 C   0  0  0  0  0  0  0  0  0  0  0  0
    1.4838    2.3708    3.1339 H   0  0  0  0  0  0  0  0  0  0  0  0
   -0.1543    3.0421    2.9881 H   0  0  0  0  0  0  0  0  0  0  0  0
    0.0926    1.4861    3.8063 H   0  0  0  0  0  0  0  0  0  0  0  0
  1  2  1  0  0  0  0
  2  3  1  0  0  0  0
  2  4  1  0  0  0  0
  2  5  1  0  0  0  0
  5  6  2  0  0  0  0
  5  7  1  0  0  0  0
  7  8  1  0  0  0  0
  7  9  1  0  0  0  0
  9 10  1  0  0  0  0
  9 11  1  0  0  0  0
  9 12  1  0  0  0  0
 12 13  2  0  0  0  0
 12 14  1  0  0  0  0
 14 15  1  0  0  0  0
 14 16  1  0  0  0  0
 16 17  1  0  0  0  0
 16 18  1  0  0  0  0
 16 19  1  0  0  0  0
M  END
$$$$

  -OEChem-01062216083D

 19 18  0     0  0  0  0  0  0999 V2000
   -2.2336   -4.0811   -0.0164 H   0  0  0  0  0  0  0  0  0  0  0  0
   -2.2794   -2.9882   -0.0221 C   0  0  0  0  0  0  0  0  0  0  0  0
   -2.7890   -2.6542    0.8849 H   0  0  0  0  0  0  0  0  0  0  0  0
   -2.8511   -2.6651   -0.8953 H   0  0  0  0  0  0  0  0  0  0  0  0
   -0.8781   -2.4072   -0.0743 C   0  0  0  0  0  0  0  0  0  0  0  0
    0.0816   -3.1564   -0.1315 O   0  0  0  0  0  0  0  0  0  0  0  0
   -0.7096   -1.0345   -0.0734 N   0  0  0  0  0  0  0  0  0  0  0  0
   -1.5527   -0.4751    0.0099 H   0  0  0  0  0  0  0  0  0  0  0  0
    0.6018   -0.3606    0.0037 C   0  0  0  0  0  0  0  0  0  0  0  0
    1.4119   -1.0596   -0.2320 H   0  0  0  0  0  0  0  0  0  0  0  0
    0.6464    0.4353   -0.7442 H   0  0  0  0  0  0  0  0  0  0  0  0
    0.8844    0.2485    1.3831 C   0  0  0  0  0  0  0  0  0  0  0  0
    1.8914   -0.0647    1.9981 O   0  0  0  0  0  0  0  0  0  0  0  0
    0.0350    1.2173    1.8923 N   0  0  0  0  0  0  0  0  0  0  0  0
   -0.7600    1.4812    1.3208 H   0  0  0  0  0  0  0  0  0  0  0  0
    0.2266    1.9027    3.1689 C   0  0  0  0  0  0  0  0  0  0  0  0
    1.1549    1.6003    3.6648 H   0  0  0  0  0  0  0  0  0  0  0  0
    0.2689    2.9845    3.0093 H   0  0  0  0  0  0  0  0  0  0  0  0
   -0.6051    1.6776    3.8435 H   0  0  0  0  0  0  0  0  0  0  0  0
  1  2  1  0  0  0  0
  2  3  1  0  0  0  0
  2  4  1  0  0  0  0
  2  5  1  0  0  0  0
  5  6  2  0  0  0  0
  5  7  1  0  0  0  0
  7  8  1  0  0  0  0
  7  9  1  0  0  0  0
  9 10  1  0  0  0  0
  9 11  1  0  0  0  0
  9 12  1  0  0  0  0
 12 13  2  0  0  0  0
 12 14  1  0  0  0  0
 14 15  1  0  0  0  0
 14 16  1  0  0  0  0
 16 17  1  0  0  0  0
 16 18  1  0  0  0  0
 16 19  1  0  0  0  0
M  END
$$$$

  -OEChem-01062216083D

 19 18  0     0  0  0  0  0  0999 V2000
   -2.2272   -4.1193   -0.1415 H   0  0  0  0  0  0  0  0  0  0  0  0
   -2.2914   -3.0276   -0.1178 C   0  0  0  0  0  0  0  0  0  0  0  0
   -2.9039   -2.7307    0.7369 H   0  0  0  0  0  0  0  0  0  0  0  0
   -2.7695   -2.6848   -1.0384 H   0  0  0  0  0  0  0  0  0  0  0  0
   -0.9032   -2.4258    0.0037 C   0  0  0  0  0  0  0  0  0  0  0  0
    0.0644   -3.1597    0.1053 O   0  0  0  0  0  0  0  0  0  0  0  0
   -0.7511   -1.0514   -0.0026 N   0  0  0  0  0  0  0  0  0  0  0  0
   -1.5894   -0.5017   -0.1648 H   0  0  0  0  0  0  0  0  0  0  0  0
    0.5545   -0.3618    0.0347 C   0  0  0  0  0  0  0  0  0  0  0  0
    1.3627   -1.0525   -0.2302 H   0  0  0  0  0  0  0  0  0  0  0  0
    0.5632    0.4349   -0.7136 H   0  0  0  0  0  0  0  0  0  0  0  0
    0.8878    0.2584    1.3982 C   0  0  0  0  0  0  0  0  0  0  0  0
    2.0391    0.2373    1.8051 O   0  0  0  0  0  0  0  0  0  0  0  0
   -0.0741    0.9783    2.0876 N   0  0  0  0  0  0  0  0  0  0  0  0
   -1.0147    0.9630    1.7097 H   0  0  0  0  0  0  0  0  0  0  0  0
    0.1503    1.6598    3.3609 C   0  0  0  0  0  0  0  0  0  0  0  0
    1.1875    1.5702    3.7002 H   0  0  0  0  0  0  0  0  0  0  0  0
   -0.0799    2.7249    3.2608 H   0  0  0  0  0  0  0  0  0  0  0  0
   -0.4942    1.2305    4.1342 H   0  0  0  0  0  0  0  0  0  0  0  0
  1  2  1  0  0  0  0
  2  3  1  0  0  0  0
  2  4  1  0  0  0  0
  2  5  1  0  0  0  0
  5  6  2  0  0  0  0
  5  7  1  0  0  0  0
  7  8  1  0  0  0  0
  7  9  1  0  0  0  0
  9 10  1  0  0  0  0
  9 11  1  0  0  0  0
  9 12  1  0  0  0  0
 12 13  2  0  0  0  0
 12 14  1  0  0  0  0
 14 15  1  0  0  0  0
 14 16  1  0  0  0  0
 16 17  1  0  0  0  0
 16 18  1  0  0  0  0
 16 19  1  0  0  0  0
M  END
$$$$

  -OEChem-01062216083D

 19 18  0     0  0  0  0  0  0999 V2000
   -2.3498   -4.0612   -0.0948 H   0  0  0  0  0  0  0  0  0  0  0  0
   -2.3514   -2.9731   -0.2069 C   0  0  0  0  0  0  0  0  0  0  0  0
   -3.0606   -2.5484    0.5076 H   0  0  0  0  0  0  0  0  0  0  0  0
   -2.6724   -2.7250   -1.2214 H   0  0  0  0  0  0  0  0  0  0  0  0
   -0.9608   -2.4205    0.0479 C   0  0  0  0  0  0  0  0  0  0  0  0
   -0.0433   -3.1840    0.2943 O   0  0  0  0  0  0  0  0  0  0  0  0
   -0.7497   -1.0546    0.0121 N   0  0  0  0  0  0  0  0  0  0  0  0
   -1.5336   -0.4831   -0.2909 H   0  0  0  0  0  0  0  0  0  0  0  0
    0.5855   -0.4264    0.0847 C   0  0  0  0  0  0  0  0  0  0  0  0
    1.3696   -1.1601   -0.1319 H   0  0  0  0  0  0  0  0  0  0  0  0
    0.6587    0.3507   -0.6808 H   0  0  0  0  0  0  0  0  0  0  0  0
    0.9002    0.2154    1.4419 C   0  0  0  0  0  0  0  0  0  0  0  0
    2.0629    0.4095    1.7625 O   0  0  0  0  0  0  0  0  0  0  0  0
   -0.1133    0.7343    2.2268 N   0  0  0  0  0  0  0  0  0  0  0  0
   -1.0610    0.4693    1.9812 H   0  0  0  0  0  0  0  0  0  0  0  0
    0.1296    1.3632    3.5194 C   0  0  0  0  0  0  0  0  0  0  0  0
    0.7977    2.2236    3.4071 H   0  0  0  0  0  0  0  0  0  0  0  0
   -0.8118    1.7136    3.9531 H   0  0  0  0  0  0  0  0  0  0  0  0
    0.5880    0.6498    4.2124 H   0  0  0  0  0  0  0  0  0  0  0  0
  1  2  1  0  0  0  0
  2  3  1  0  0  0  0
  2  4  1  0  0  0  0
  2  5  1  0  0  0  0
  5  6  2  0  0  0  0
  5  7  1  0  0  0  0
  7  8  1  0  0  0  0
  7  9  1  0  0  0  0
  9 10  1  0  0  0  0
  9 11  1  0  0  0  0
  9 12  1  0  0  0  0
 12 13  2  0  0  0  0
 12 14  1  0  0  0  0
 14 15  1  0  0  0  0
 14 16  1  0  0  0  0
 16 17  1  0  0  0  0
 16 18  1  0  0  0  0
 16 19  1  0  0  0  0
M  END
$$$$

  -OEChem-01062216083D

 19 18  0     0  0  0  0  0  0999 V2000
   -2.3551   -4.0605   -0.0988 H   0  0  0  0  0  0  0  0  0  0  0  0
   -2.3541   -2.9726   -0.2122 C   0  0  0  0  0  0  0  0  0  0  0  0
   -3.0614   -2.5450    0.5024 H   0  0  0  0  0  0  0  0  0  0  0  0
   -2.6755   -2.7255   -1.2269 H   0  0  0  0  0  0  0  0  0  0  0  0
   -0.9619   -2.4226    0.0399 C   0  0  0  0  0  0  0  0  0  0  0  0
   -0.0466   -3.1858    0.2952 O   0  0  0  0  0  0  0  0  0  0  0  0
   -0.7474   -1.0575    0.0058 N   0  0  0  0  0  0  0  0  0  0  0  0
   -1.5314   -0.4811   -0.2887 H   0  0  0  0  0  0  0  0  0  0  0  0
    0.5887   -0.4300    0.0791 C   0  0  0  0  0  0  0  0  0  0  0  0
    1.3721   -1.1637   -0.1386 H   0  0  0  0  0  0  0  0  0  0  0  0
    0.6608    0.3472   -0.6865 H   0  0  0  0  0  0  0  0  0  0  0  0
    0.9084    0.2117    1.4354 C   0  0  0  0  0  0  0  0  0  0  0  0
    2.0359    0.6303    1.6505 O   0  0  0  0  0  0  0  0  0  0  0  0
   -0.0937    0.4530    2.3572 N   0  0  0  0  0  0  0  0  0  0  0  0
   -0.9793   -0.0136    2.1909 H   0  0  0  0  0  0  0  0  0  0  0  0
    0.1593    1.0345    3.6698 C   0  0  0  0  0  0  0  0  0  0  0  0
    0.6260    2.0203    3.5701 H   0  0  0  0  0  0  0  0  0  0  0  0
   -0.7802    1.1535    4.2179 H   0  0  0  0  0  0  0  0  0  0  0  0
    0.8227    0.3880    4.2537 H   0  0  0  0  0  0  0  0  0  0  0  0
  1  2  1  0  0  0  0
  2  3  1  0  0  0  0
  2  4  1  0  0  0  0
  2  5  1  0  0  0  0
  5  6  2  0  0  0  0
  5  7  1  0  0  0  0
  7  8  1  0  0  0  0
  7  9  1  0  0  0  0
  9 10  1  0  0  0  0
  9 11  1  0  0  0  0
  9 12  1  0  0  0  0
 12 13  2  0  0  0  0
 12 14  1  0  0  0  0
 14 15  1  0  0  0  0
 14 16  1  0  0  0  0
 16 17  1  0  0  0  0
 16 18  1  0  0  0  0
 16 19  1  0  0  0  0
M  END
$$$$

  -OEChem-01062216083D

 19 18  0     0  0  0  0  0  0999 V2000
   -2.3746   -4.0491   -0.0839 H   0  0  0  0  0  0  0  0  0  0  0  0
   -2.3639   -2.9642   -0.2248 C   0  0  0  0  0  0  0  0  0  0  0  0
   -3.0773   -2.5134    0.4695 H   0  0  0  0  0  0  0  0  0  0  0  0
   -2.6706   -2.7401   -1.2495 H   0  0  0  0  0  0  0  0  0  0  0  0
   -0.9709   -2.4181    0.0306 C   0  0  0  0  0  0  0  0  0  0  0  0
   -0.0581   -3.1824    0.2918 O   0  0  0  0  0  0  0  0  0  0  0  0
   -0.7523   -1.0538    0.0048 N   0  0  0  0  0  0  0  0  0  0  0  0
   -1.5397   -0.4695   -0.2652 H   0  0  0  0  0  0  0  0  0  0  0  0
    0.5847   -0.4284    0.0728 C   0  0  0  0  0  0  0  0  0  0  0  0
    1.3650   -1.1627   -0.1532 H   0  0  0  0  0  0  0  0  0  0  0  0
    0.6529    0.3529   -0.6893 H   0  0  0  0  0  0  0  0  0  0  0  0
    0.9161    0.2035    1.4306 C   0  0  0  0  0  0  0  0  0  0  0  0
    1.9522    0.8386    1.5580 O   0  0  0  0  0  0  0  0  0  0  0  0
    0.0081    0.1635    2.4724 N   0  0  0  0  0  0  0  0  0  0  0  0
   -0.7682   -0.4819    2.3644 H   0  0  0  0  0  0  0  0  0  0  0  0
    0.2958    0.7040    3.7952 C   0  0  0  0  0  0  0  0  0  0  0  0
    0.4963    1.7789    3.7344 H   0  0  0  0  0  0  0  0  0  0  0  0
   -0.5590    0.5500    4.4608 H   0  0  0  0  0  0  0  0  0  0  0  0
    1.1691    0.2068    4.2307 H   0  0  0  0  0  0  0  0  0  0  0  0
  1  2  1  0  0  0  0
  2  3  1  0  0  0  0
  2  4  1  0  0  0  0
  2  5  1  0  0  0  0
  5  6  2  0  0  0  0
  5  7  1  0  0  0  0
  7  8  1  0  0  0  0
  7  9  1  0  0  0  0
  9 10  1  0  0  0  0
  9 11  1  0  0  0  0
  9 12  1  0  0  0  0
 12 13  2  0  0  0  0
 12 14  1  0  0  0  0
 14 15  1  0  0  0  0
 14 16  1  0  0  0  0
 16 17  1  0  0  0  0
 16 18  1  0  0  0  0
 16 19  1  0  0  0  0
M  END
$$$$

  -OEChem-01062216083D

 19 18  0     0  0  0  0  0  0999 V2000
   -2.3805   -4.0381   -0.0962 H   0  0  0  0  0  0  0  0  0  0  0  0
   -2.3718   -2.9504   -0.2124 C   0  0  0  0  0  0  0  0  0  0  0  0
   -3.0695   -2.5146    0.5069 H   0  0  0  0  0  0  0  0  0  0  0  0
   -2.7006   -2.7028   -1.2246 H   0  0  0  0  0  0  0  0  0  0  0  0
   -0.9731   -2.4109    0.0249 C   0  0  0  0  0  0  0  0  0  0  0  0
   -0.0610   -3.1768    0.2849 O   0  0  0  0  0  0  0  0  0  0  0  0
   -0.7484   -1.0483    0.0031 N   0  0  0  0  0  0  0  0  0  0  0  0
   -1.5409   -0.4558   -0.2319 H   0  0  0  0  0  0  0  0  0  0  0  0
    0.5901   -0.4262    0.0605 C   0  0  0  0  0  0  0  0  0  0  0  0
    1.3673   -1.1604   -0.1757 H   0  0  0  0  0  0  0  0  0  0  0  0
    0.6528    0.3588   -0.6987 H   0  0  0  0  0  0  0  0  0  0  0  0
    0.9290    0.1965    1.4205 C   0  0  0  0  0  0  0  0  0  0  0  0
    1.8217    1.0277    1.4944 O   0  0  0  0  0  0  0  0  0  0  0  0
    0.1809   -0.1079    2.5422 N   0  0  0  0  0  0  0  0  0  0  0  0
   -0.4509   -0.8990    2.4565 H   0  0  0  0  0  0  0  0  0  0  0  0
    0.5003    0.3983    3.8709 C   0  0  0  0  0  0  0  0  0  0  0  0
    0.4898    1.4933    3.8765 H   0  0  0  0  0  0  0  0  0  0  0  0
   -0.2368    0.0436    4.5976 H   0  0  0  0  0  0  0  0  0  0  0  0
    1.4914    0.0536    4.1841 H   0  0  0  0  0  0  0  0  0  0  0  0
  1  2  1  0  0  0  0
  2  3  1  0  0  0  0
  2  4  1  0  0  0  0
  2  5  1  0  0  0  0
  5  6  2  0  0  0  0
  5  7  1  0  0  0  0
  7  8  1  0  0  0  0
  7  9  1  0  0  0  0
  9 10  1  0  0  0  0
  9 11  1  0  0  0  0
  9 12  1  0  0  0  0
 12 13  2  0  0  0  0
 12 14  1  0  0  0  0
 14 15  1  0  0  0  0
 14 16  1  0  0  0  0
 16 17  1  0  0  0  0
 16 18  1  0  0  0  0
 16 19  1  0  0  0  0
M  END
$$$$

  -OEChem-01062216083D

 19 18  0     0  0  0  0  0  0999 V2000
   -2.3870   -4.0220   -0.0577 H   0  0  0  0  0  0  0  0  0  0  0  0
   -2.3738   -2.9367   -0.1932 C   0  0  0  0  0  0  0  0  0  0  0  0
   -3.0716   -2.4858    0.5165 H   0  0  0  0  0  0  0  0  0  0  0  0
   -2.6986   -2.7058   -1.2108 H   0  0  0  0  0  0  0  0  0  0  0  0
   -0.9740   -2.3980    0.0382 C   0  0  0  0  0  0  0  0  0  0  0  0
   -0.0629   -3.1614    0.3109 O   0  0  0  0  0  0  0  0  0  0  0  0
   -0.7454   -1.0367    0.0140 N   0  0  0  0  0  0  0  0  0  0  0  0
   -1.5402   -0.4399   -0.2014 H   0  0  0  0  0  0  0  0  0  0  0  0
    0.5955   -0.4205    0.0470 C   0  0  0  0  0  0  0  0  0  0  0  0
    1.3672   -1.1554   -0.2029 H   0  0  0  0  0  0  0  0  0  0  0  0
    0.6483    0.3671   -0.7104 H   0  0  0  0  0  0  0  0  0  0  0  0
    0.9459    0.1922    1.4070 C   0  0  0  0  0  0  0  0  0  0  0  0
    1.6447    1.1935    1.4597 O   0  0  0  0  0  0  0  0  0  0  0  0
    0.4197   -0.3447    2.5661 N   0  0  0  0  0  0  0  0  0  0  0  0
   -0.0314   -1.2518    2.4738 H   0  0  0  0  0  0  0  0  0  0  0  0
    0.7647    0.1401    3.8958 C   0  0  0  0  0  0  0  0  0  0  0  0
    0.5125    1.2013    3.9940 H   0  0  0  0  0  0  0  0  0  0  0  0
    0.2101   -0.4172    4.6567 H   0  0  0  0  0  0  0  0  0  0  0  0
    1.8360    0.0132    4.0830 H   0  0  0  0  0  0  0  0  0  0  0  0
  1  2  1  0  0  0  0
  2  3  1  0  0  0  0
  2  4  1  0  0  0  0
  2  5  1  0  0  0  0
  5  6  2  0  0  0  0
  5  7  1  0  0  0  0
  7  8  1  0  0  0  0
  7  9  1  0  0  0  0
  9 10  1  0  0  0  0
  9 11  1  0  0  0  0
  9 12  1  0  0  0  0
 12 13  2  0  0  0  0
 12 14  1  0  0  0  0
 14 15  1  0  0  0  0
 14 16  1  0  0  0  0
 16 17  1  0  0  0  0
 16 18  1  0  0  0  0
 16 19  1  0  0  0  0
M  END
$$$$

  -OEChem-01062216083D

 19 18  0     0  0  0  0  0  0999 V2000
   -2.3835   -4.0080   -0.0483 H   0  0  0  0  0  0  0  0  0  0  0  0
   -2.3730   -2.9196   -0.1556 C   0  0  0  0  0  0  0  0  0  0  0  0
   -3.0483   -2.4866    0.5865 H   0  0  0  0  0  0  0  0  0  0  0  0
   -2.7284   -2.6619   -1.1562 H   0  0  0  0  0  0  0  0  0  0  0  0
   -0.9666   -2.3869    0.0474 C   0  0  0  0  0  0  0  0  0  0  0  0
   -0.0526   -3.1518    0.3093 O   0  0  0  0  0  0  0  0  0  0  0  0
   -0.7327   -1.0271    0.0174 N   0  0  0  0  0  0  0  0  0  0  0  0
   -1.5290   -0.4253   -0.1777 H   0  0  0  0  0  0  0  0  0  0  0  0
    0.6106   -0.4186    0.0295 C   0  0  0  0  0  0  0  0  0  0  0  0
    1.3775   -1.1554   -0.2295 H   0  0  0  0  0  0  0  0  0  0  0  0
    0.6578    0.3697   -0.7278 H   0  0  0  0  0  0  0  0  0  0  0  0
    0.9675    0.1882    1.3889 C   0  0  0  0  0  0  0  0  0  0  0  0
    1.4438    1.3120    1.4527 O   0  0  0  0  0  0  0  0  0  0  0  0
    0.7066   -0.5227    2.5439 N   0  0  0  0  0  0  0  0  0  0  0  0
    0.4066   -1.4884    2.4231 H   0  0  0  0  0  0  0  0  0  0  0  0
    1.0683   -0.0508    3.8736 C   0  0  0  0  0  0  0  0  0  0  0  0
    0.5884    0.9111    4.0822 H   0  0  0  0  0  0  0  0  0  0  0  0
    0.7421   -0.7700    4.6308 H   0  0  0  0  0  0  0  0  0  0  0  0
    2.1535    0.0714    3.9547 H   0  0  0  0  0  0  0  0  0  0  0  0
  1  2  1  0  0  0  0
  2  3  1  0  0  0  0
  2  4  1  0  0  0  0
  2  5  1  0  0  0  0
  5  6  2  0  0  0  0
  5  7  1  0  0  0  0
  7  8  1  0  0  0  0
  7  9  1  0  0  0  0
  9 10  1  0  0  0  0
  9 11  1  0  0  0  0
  9 12  1  0  0  0  0
 12 13  2  0  0  0  0
 12 14  1  0  0  0  0
 14 15  1  0  0  0  0
 14 16  1  0  0  0  0
 16 17  1  0  0  0  0
 16 18  1  0  0  0  0
 16 19  1  0  0  0  0
M  END
$$$$

  -OEChem-01062216083D

 19 18  0     0  0  0  0  0  0999 V2000
   -2.2326   -4.0726   -0.1029 H   0  0  0  0  0  0  0  0  0  0  0  0
   -2.2975   -2.9808   -0.0944 C   0  0  0  0  0  0  0  0  0  0  0  0
   -2.9228   -2.6715    0.7466 H   0  0  0  0  0  0  0  0  0  0  0  0
   -2.7619   -2.6498   -1.0266 H   0  0  0  0  0  0  0  0  0  0  0  0
   -0.9122   -2.3757    0.0391 C   0  0  0  0  0  0  0  0  0  0  0  0
    0.0569   -3.0962    0.2191 O   0  0  0  0  0  0  0  0  0  0  0  0
   -0.7527   -1.0047    0.0377 N   0  0  0  0  0  0  0  0  0  0  0  0
   -1.5898   -0.4379   -0.0748 H   0  0  0  0  0  0  0  0  0  0  0  0
    0.5563   -0.3289    0.0042 C   0  0  0  0  0  0  0  0  0  0  0  0
    1.3486   -1.0137   -0.3138 H   0  0  0  0  0  0  0  0  0  0  0  0
    0.5268    0.4839   -0.7277 H   0  0  0  0  0  0  0  0  0  0  0  0
    0.9335    0.2529    1.3676 C   0  0  0  0  0  0  0  0  0  0  0  0
    1.0995    1.4572    1.4938 O   0  0  0  0  0  0  0  0  0  0  0  0
    1.0503   -0.6022    2.4472 N   0  0  0  0  0  0  0  0  0  0  0  0
    0.9067   -1.5923    2.2524 H   0  0  0  0  0  0  0  0  0  0  0  0
    1.4049   -0.1964    3.8036 C   0  0  0  0  0  0  0  0  0  0  0  0
    1.5814    0.8818    3.8753 H   0  0  0  0  0  0  0  0  0  0  0  0
    0.5966   -0.4540    4.4947 H   0  0  0  0  0  0  0  0  0  0  0  0
    2.3179   -0.7099    4.1208 H   0  0  0  0  0  0  0  0  0  0  0  0
  1  2  1  0  0  0  0
  2  3  1  0  0  0  0
  2  4  1  0  0  0  0
  2  5  1  0  0  0  0
  5  6  2  0  0  0  0
  5  7  1  0  0  0  0
  7  8  1  0  0  0  0
  7  9  1  0  0  0  0
  9 10  1  0  0  0  0
  9 11  1  0  0  0  0
  9 12  1  0  0  0  0
 12 13  2  0  0  0  0
 12 14  1  0  0  0  0
 14 15  1  0  0  0  0
 14 16  1  0  0  0  0
 16 17  1  0  0  0  0
 16 18  1  0  0  0  0
 16 19  1  0  0  0  0
M  END
$$$$

  -OEChem-01062216083D

 19 18  0     0  0  0  0  0  0999 V2000
   -2.1032   -4.1278   -0.0694 H   0  0  0  0  0  0  0  0  0  0  0  0
   -2.2191   -3.0406   -0.0415 C   0  0  0  0  0  0  0  0  0  0  0  0
   -2.7852   -2.7705    0.8534 H   0  0  0  0  0  0  0  0  0  0  0  0
   -2.7760   -2.7234   -0.9266 H   0  0  0  0  0  0  0  0  0  0  0  0
   -0.8582   -2.3695   -0.0170 C   0  0  0  0  0  0  0  0  0  0  0  0
    0.1582   -3.0463    0.0057 O   0  0  0  0  0  0  0  0  0  0  0  0
   -0.7676   -0.9937    0.0497 N   0  0  0  0  0  0  0  0  0  0  0  0
   -1.6364   -0.4662    0.0922 H   0  0  0  0  0  0  0  0  0  0  0  0
    0.5009   -0.2486   -0.0017 C   0  0  0  0  0  0  0  0  0  0  0  0
    1.3142   -0.8677   -0.3933 H   0  0  0  0  0  0  0  0  0  0  0  0
    0.3956    0.6019   -0.6818 H   0  0  0  0  0  0  0  0  0  0  0  0
    0.8985    0.2755    1.3782 C   0  0  0  0  0  0  0  0  0  0  0  0
    0.7352    1.4539    1.6602 O   0  0  0  0  0  0  0  0  0  0  0  0
    1.4030   -0.6048    2.3143 N   0  0  0  0  0  0  0  0  0  0  0  0
    1.4476   -1.5867    2.0461 H   0  0  0  0  0  0  0  0  0  0  0  0
    1.7386   -0.2213    3.6789 C   0  0  0  0  0  0  0  0  0  0  0  0
    2.5221    0.5436    3.6799 H   0  0  0  0  0  0  0  0  0  0  0  0
    0.8569    0.1756    4.1926 H   0  0  0  0  0  0  0  0  0  0  0  0
    2.1025   -1.0894    4.2367 H   0  0  0  0  0  0  0  0  0  0  0  0
  1  2  1  0  0  0  0
  2  3  1  0  0  0  0
  2  4  1  0  0  0  0
  2  5  1  0  0  0  0
  5  6  2  0  0  0  0
  5  7  1  0  0  0  0
  7  8  1  0  0  0  0
  7  9  1  0  0  0  0
  9 10  1  0  0  0  0
  9 11  1  0  0  0  0
  9 12  1  0  0  0  0
 12 13  2  0  0  0  0
 12 14  1  0  0  0  0
 14 15  1  0  0  0  0
 14 16  1  0  0  0  0
 16 17  1  0  0  0  0
 16 18  1  0  0  0  0
 16 19  1  0  0  0  0
M  END
$$$$

  -OEChem-01062216083D

 19 18  0     0  0  0  0  0  0999 V2000
   -2.2192   -4.0543   -0.0036 H   0  0  0  0  0  0  0  0  0  0  0  0
   -2.2759   -2.9619   -0.0069 C   0  0  0  0  0  0  0  0  0  0  0  0
   -2.8120   -2.6346    0.8874 H   0  0  0  0  0  0  0  0  0  0  0  0
   -2.8293   -2.6415   -0.8931 H   0  0  0  0  0  0  0  0  0  0  0  0
   -0.8802   -2.3661   -0.0233 C   0  0  0  0  0  0  0  0  0  0  0  0
    0.0972   -3.0983    0.0023 O   0  0  0  0  0  0  0  0  0  0  0  0
   -0.7147   -0.9956   -0.0170 N   0  0  0  0  0  0  0  0  0  0  0  0
   -1.5507   -0.4199    0.0538 H   0  0  0  0  0  0  0  0  0  0  0  0
    0.5938   -0.3237   -0.0396 C   0  0  0  0  0  0  0  0  0  0  0  0
    1.3878   -1.0027   -0.3653 H   0  0  0  0  0  0  0  0  0  0  0  0
    0.5671    0.4973   -0.7620 H   0  0  0  0  0  0  0  0  0  0  0  0
    0.9575    0.2489    1.3309 C   0  0  0  0  0  0  0  0  0  0  0  0
    0.6029    1.3814    1.6250 O   0  0  0  0  0  0  0  0  0  0  0  0
    1.6560   -0.5357    2.2292 N   0  0  0  0  0  0  0  0  0  0  0  0
    1.8355   -1.4969    1.9455 H   0  0  0  0  0  0  0  0  0  0  0  0
    2.0267   -0.1281    3.5813 C   0  0  0  0  0  0  0  0  0  0  0  0
    1.6970    0.8912    3.8075 H   0  0  0  0  0  0  0  0  0  0  0  0
    1.5703   -0.8011    4.3136 H   0  0  0  0  0  0  0  0  0  0  0  0
    3.1142   -0.1651    3.6978 H   0  0  0  0  0  0  0  0  0  0  0  0
  1  2  1  0  0  0  0
  2  3  1  0  0  0  0
  2  4  1  0  0  0  0
  2  5  1  0  0  0  0
  5  6  2  0  0  0  0
  5  7  1  0  0  0  0
  7  8  1  0  0  0  0
  7  9  1  0  0  0  0
  9 10  1  0  0  0  0
  9 11  1  0  0  0  0
  9 12  1  0  0  0  0
 12 13  2  0  0  0  0
 12 14  1  0  0  0  0
 14 15  1  0  0  0  0
 14 16  1  0  0  0  0
 16 17  1  0  0  0  0
 16 18  1  0  0  0  0
 16 19  1  0  0  0  0
M  END
$$$$

  -OEChem-01062216083D

 19 18  0     0  0  0  0  0  0999 V2000
   -2.1026   -4.1083   -0.0633 H   0  0  0  0  0  0  0  0  0  0  0  0
   -2.1919   -3.0248    0.0553 C   0  0  0  0  0  0  0  0  0  0  0  0
   -2.6102   -2.8115    1.0420 H   0  0  0  0  0  0  0  0  0  0  0  0
   -2.8700   -2.6424   -0.7114 H   0  0  0  0  0  0  0  0  0  0  0  0
   -0.8300   -2.3697   -0.0825 C   0  0  0  0  0  0  0  0  0  0  0  0
    0.1700   -3.0610   -0.2013 O   0  0  0  0  0  0  0  0  0  0  0  0
   -0.7205   -0.9943   -0.0326 N   0  0  0  0  0  0  0  0  0  0  0  0
   -1.5593   -0.4677    0.2021 H   0  0  0  0  0  0  0  0  0  0  0  0
    0.5584   -0.2688   -0.0663 C   0  0  0  0  0  0  0  0  0  0  0  0
    1.3685   -0.9036   -0.4376 H   0  0  0  0  0  0  0  0  0  0  0  0
    0.4787    0.5757   -0.7567 H   0  0  0  0  0  0  0  0  0  0  0  0
    0.9345    0.2717    1.3146 C   0  0  0  0  0  0  0  0  0  0  0  0
    0.3155    1.2178    1.7816 O   0  0  0  0  0  0  0  0  0  0  0  0
    1.9260   -0.3423    2.0546 N   0  0  0  0  0  0  0  0  0  0  0  0
    2.3105   -1.2081    1.6837 H   0  0  0  0  0  0  0  0  0  0  0  0
    2.2565    0.0475    3.4193 C   0  0  0  0  0  0  0  0  0  0  0  0
    2.5870    1.0911    3.4499 H   0  0  0  0  0  0  0  0  0  0  0  0
    1.3848   -0.0660    4.0722 H   0  0  0  0  0  0  0  0  0  0  0  0
    3.0638   -0.5815    3.8067 H   0  0  0  0  0  0  0  0  0  0  0  0
  1  2  1  0  0  0  0
  2  3  1  0  0  0  0
  2  4  1  0  0  0  0
  2  5  1  0  0  0  0
  5  6  2  0  0  0  0
  5  7  1  0  0  0  0
  7  8  1  0  0  0  0
  7  9  1  0  0  0  0
  9 10  1  0  0  0  0
  9 11  1  0  0  0  0
  9 12  1  0  0  0  0
 12 13  2  0  0  0  0
 12 14  1  0  0  0  0
 14 15  1  0  0  0  0
 14 16  1  0  0  0  0
 16 17  1  0  0  0  0
 16 18  1  0  0  0  0
 16 19  1  0  0  0  0
M  END
$$$$

  -OEChem-01062216083D

 19 18  0     0  0  0  0  0  0999 V2000
   -2.0997   -4.0951   -0.0128 H   0  0  0  0  0  0  0  0  0  0  0  0
   -2.1814   -3.0099    0.0969 C   0  0  0  0  0  0  0  0  0  0  0  0
   -2.5468   -2.7840    1.1017 H   0  0  0  0  0  0  0  0  0  0  0  0
   -2.8989   -2.6354   -0.6372 H   0  0  0  0  0  0  0  0  0  0  0  0
   -0.8285   -2.3576   -0.1211 C   0  0  0  0  0  0  0  0  0  0  0  0
    0.1584   -3.0512   -0.3137 O   0  0  0  0  0  0  0  0  0  0  0  0
   -0.7154   -0.9823   -0.0706 N   0  0  0  0  0  0  0  0  0  0  0  0
   -1.5314   -0.4671    0.2543 H   0  0  0  0  0  0  0  0  0  0  0  0
    0.5677   -0.2635   -0.0962 C   0  0  0  0  0  0  0  0  0  0  0  0
    1.3754   -0.9053   -0.4599 H   0  0  0  0  0  0  0  0  0  0  0  0
    0.4980    0.5801   -0.7885 H   0  0  0  0  0  0  0  0  0  0  0  0
    0.9385    0.2769    1.2876 C   0  0  0  0  0  0  0  0  0  0  0  0
    0.1663    1.0309    1.8647 O   0  0  0  0  0  0  0  0  0  0  0  0
    2.1061   -0.1239    1.9081 N   0  0  0  0  0  0  0  0  0  0  0  0
    2.6461   -0.8558    1.4537 H   0  0  0  0  0  0  0  0  0  0  0  0
    2.4545    0.2628    3.2696 C   0  0  0  0  0  0  0  0  0  0  0  0
    2.4957    1.3535    3.3596 H   0  0  0  0  0  0  0  0  0  0  0  0
    1.7137   -0.1219    3.9785 H   0  0  0  0  0  0  0  0  0  0  0  0
    3.4351   -0.1417    3.5385 H   0  0  0  0  0  0  0  0  0  0  0  0
  1  2  1  0  0  0  0
  2  3  1  0  0  0  0
  2  4  1  0  0  0  0
  2  5  1  0  0  0  0
  5  6  2  0  0  0  0
  5  7  1  0  0  0  0
  7  8  1  0  0  0  0
  7  9  1  0  0  0  0
  9 10  1  0  0  0  0
  9 11  1  0  0  0  0
  9 12  1  0  0  0  0
 12 13  2  0  0  0  0
 12 14  1  0  0  0  0
 14 15  1  0  0  0  0
 14 16  1  0  0  0  0
 16 17  1  0  0  0  0
 16 18  1  0  0  0  0
 16 19  1  0  0  0  0
M  END
$$$$

  -OEChem-01062216083D

 19 18  0     0  0  0  0  0  0999 V2000
   -2.1990   -4.0256    0.1235 H   0  0  0  0  0  0  0  0  0  0  0  0
   -2.2475   -2.9332    0.1043 C   0  0  0  0  0  0  0  0  0  0  0  0
   -2.6453   -2.5820    1.0596 H   0  0  0  0  0  0  0  0  0  0  0  0
   -2.9210   -2.6244   -0.6988 H   0  0  0  0  0  0  0  0  0  0  0  0
   -0.8648   -2.3522   -0.1272 C   0  0  0  0  0  0  0  0  0  0  0  0
    0.0887   -3.0983   -0.2893 O   0  0  0  0  0  0  0  0  0  0  0  0
   -0.6910   -0.9823   -0.1333 N   0  0  0  0  0  0  0  0  0  0  0  0
   -1.4808   -0.4273    0.1912 H   0  0  0  0  0  0  0  0  0  0  0  0
    0.6268   -0.3273   -0.1199 C   0  0  0  0  0  0  0  0  0  0  0  0
    1.4177   -1.0269   -0.4055 H   0  0  0  0  0  0  0  0  0  0  0  0
    0.6375    0.4826   -0.8543 H   0  0  0  0  0  0  0  0  0  0  0  0
    0.9548    0.2639    1.2558 C   0  0  0  0  0  0  0  0  0  0  0  0
    0.0896    0.8844    1.8602 O   0  0  0  0  0  0  0  0  0  0  0  0
    2.2073    0.0775    1.8128 N   0  0  0  0  0  0  0  0  0  0  0  0
    2.8560   -0.5101    1.2962 H   0  0  0  0  0  0  0  0  0  0  0  0
    2.6064    0.5464    3.1374 C   0  0  0  0  0  0  0  0  0  0  0  0
    1.7878    1.0526    3.6593 H   0  0  0  0  0  0  0  0  0  0  0  0
    2.9246   -0.3007    3.7531 H   0  0  0  0  0  0  0  0  0  0  0  0
    3.4389    1.2511    3.0497 H   0  0  0  0  0  0  0  0  0  0  0  0
  1  2  1  0  0  0  0
  2  3  1  0  0  0  0
  2  4  1  0  0  0  0
  2  5  1  0  0  0  0
  5  6  2  0  0  0  0
  5  7  1  0  0  0  0
  7  8  1  0  0  0  0
  7  9  1  0  0  0  0
  9 10  1  0  0  0  0
  9 11  1  0  0  0  0
  9 12  1  0  0  0  0
 12 13  2  0  0  0  0
 12 14  1  0  0  0  0
 14 15  1  0  0  0  0
 14 16  1  0  0  0  0
 16 17  1  0  0  0  0
 16 18  1  0  0  0  0
 16 19  1  0  0  0  0
M  END
$$$$

  -OEChem-01062216083D

 19 18  0     0  0  0  0  0  0999 V2000
   -2.3187   -3.9394    0.1495 H   0  0  0  0  0  0  0  0  0  0  0  0
   -2.3040   -2.8462    0.1216 C   0  0  0  0  0  0  0  0  0  0  0  0
   -2.6760   -2.4646    1.0757 H   0  0  0  0  0  0  0  0  0  0  0  0
   -2.9626   -2.5058   -0.6812 H   0  0  0  0  0  0  0  0  0  0  0  0
   -0.8915   -2.3468   -0.1199 C   0  0  0  0  0  0  0  0  0  0  0  0
    0.0236   -3.1470   -0.2400 O   0  0  0  0  0  0  0  0  0  0  0  0
   -0.6514   -0.9887   -0.1912 N   0  0  0  0  0  0  0  0  0  0  0  0
   -1.4150   -0.3900    0.1188 H   0  0  0  0  0  0  0  0  0  0  0  0
    0.6972   -0.4001   -0.1432 C   0  0  0  0  0  0  0  0  0  0  0  0
    1.4629   -1.1556   -0.3435 H   0  0  0  0  0  0  0  0  0  0  0  0
    0.7871    0.3615   -0.9223 H   0  0  0  0  0  0  0  0  0  0  0  0
    0.9946    0.2547    1.2120 C   0  0  0  0  0  0  0  0  0  0  0  0
    0.0827    0.7519    1.8615 O   0  0  0  0  0  0  0  0  0  0  0  0
    2.2873    0.3038    1.6981 N   0  0  0  0  0  0  0  0  0  0  0  0
    3.0062   -0.1857    1.1728 H   0  0  0  0  0  0  0  0  0  0  0  0
    2.6285    0.8682    2.9980 C   0  0  0  0  0  0  0  0  0  0  0  0
    2.1266    0.3159    3.7993 H   0  0  0  0  0  0  0  0  0  0  0  0
    3.7089    0.8114    3.1619 H   0  0  0  0  0  0  0  0  0  0  0  0
    2.3263    1.9193    3.0512 H   0  0  0  0  0  0  0  0  0  0  0  0
  1  2  1  0  0  0  0
  2  3  1  0  0  0  0
  2  4  1  0  0  0  0
  2  5  1  0  0  0  0
  5  6  2  0  0  0  0
  5  7  1  0  0  0  0
  7  8  1  0  0  0  0
  7  9  1  0  0  0  0
  9 10  1  0  0  0  0
  9 11  1  0  0  0  0
  9 12  1  0  0  0  0
 12 13  2  0  0  0  0
 12 14  1  0  0  0  0
 14 15  1  0  0  0  0
 14 16  1  0  0  0  0
 16 17  1  0  0  0  0
 16 18  1  0  0  0  0
 16 19  1  0  0  0  0
M  END
$$$$

  -OEChem-01062216083D

 19 18  0     0  0  0  0  0  0999 V2000
   -2.3202   -3.9399    0.1468 H   0  0  0  0  0  0  0  0  0  0  0  0
   -2.3038   -2.8466    0.1246 C   0  0  0  0  0  0  0  0  0  0  0  0
   -2.6580   -2.4695    1.0872 H   0  0  0  0  0  0  0  0  0  0  0  0
   -2.9758   -2.5004   -0.6643 H   0  0  0  0  0  0  0  0  0  0  0  0
   -0.8943   -2.3493   -0.1381 C   0  0  0  0  0  0  0  0  0  0  0  0
    0.0166   -3.1518   -0.2744 O   0  0  0  0  0  0  0  0  0  0  0  0
   -0.6541   -0.9914   -0.2139 N   0  0  0  0  0  0  0  0  0  0  0  0
   -1.4137   -0.4006    0.1200 H   0  0  0  0  0  0  0  0  0  0  0  0
    0.6962   -0.4079   -0.1372 C   0  0  0  0  0  0  0  0  0  0  0  0
    1.4636   -1.1684   -0.3105 H   0  0  0  0  0  0  0  0  0  0  0  0
    0.8071    0.3456   -0.9214 H   0  0  0  0  0  0  0  0  0  0  0  0
    0.9704    0.2579    1.2186 C   0  0  0  0  0  0  0  0  0  0  0  0
    0.0392    0.5616    1.9548 O   0  0  0  0  0  0  0  0  0  0  0  0
    2.2630    0.5795    1.5869 N   0  0  0  0  0  0  0  0  0  0  0  0
    3.0170    0.2763    0.9773 H   0  0  0  0  0  0  0  0  0  0  0  0
    2.5968    1.2096    2.8587 C   0  0  0  0  0  0  0  0  0  0  0  0
    2.2994    0.5675    3.6945 H   0  0  0  0  0  0  0  0  0  0  0  0
    3.6752    1.3839    2.9227 H   0  0  0  0  0  0  0  0  0  0  0  0
    2.0857    2.1733    2.9550 H   0  0  0  0  0  0  0  0  0  0  0  0
  1  2  1  0  0  0  0
  2  3  1  0  0  0  0
  2  4  1  0  0  0  0
  2  5  1  0  0  0  0
  5  6  2  0  0  0  0
  5  7  1  0  0  0  0
  7  8  1  0  0  0  0
  7  9  1  0  0  0  0
  9 10  1  0  0  0  0
  9 11  1  0  0  0  0
  9 12  1  0  0  0  0
 12 13  2  0  0  0  0
 12 14  1  0  0  0  0
 14 15  1  0  0  0  0
 14 16  1  0  0  0  0
 16 17  1  0  0  0  0
 16 18  1  0  0  0  0
 16 19  1  0  0  0  0
M  END
$$$$

  -OEChem-01062216083D

 19 18  0     0  0  0  0  0  0999 V2000
   -2.2737   -3.9526    0.1554 H   0  0  0  0  0  0  0  0  0  0  0  0
   -2.2719   -2.8591    0.1652 C   0  0  0  0  0  0  0  0  0  0  0  0
   -2.5761   -2.5155    1.1571 H   0  0  0  0  0  0  0  0  0  0  0  0
   -2.9904   -2.4993   -0.5751 H   0  0  0  0  0  0  0  0  0  0  0  0
   -0.8849   -2.3352   -0.1583 C   0  0  0  0  0  0  0  0  0  0  0  0
    0.0316   -3.1207   -0.3476 O   0  0  0  0  0  0  0  0  0  0  0  0
   -0.6718   -0.9725   -0.2440 N   0  0  0  0  0  0  0  0  0  0  0  0
   -1.4272   -0.4044    0.1326 H   0  0  0  0  0  0  0  0  0  0  0  0
    0.6803   -0.3939   -0.1603 C   0  0  0  0  0  0  0  0  0  0  0  0
    1.4214   -1.0793   -0.5835 H   0  0  0  0  0  0  0  0  0  0  0  0
    0.7118    0.5202   -0.7586 H   0  0  0  0  0  0  0  0  0  0  0  0
    1.1008   -0.0463    1.2765 C   0  0  0  0  0  0  0  0  0  0  0  0
    0.2969   -0.1284    2.1976 O   0  0  0  0  0  0  0  0  0  0  0  0
    2.3462    0.5040    1.5151 N   0  0  0  0  0  0  0  0  0  0  0  0
    3.0050    0.5320    0.7425 H   0  0  0  0  0  0  0  0  0  0  0  0
    2.8049    0.8921    2.8438 C   0  0  0  0  0  0  0  0  0  0  0  0
    2.8265    0.0234    3.5104 H   0  0  0  0  0  0  0  0  0  0  0  0
    3.8142    1.3110    2.7877 H   0  0  0  0  0  0  0  0  0  0  0  0
    2.1411    1.6501    3.2732 H   0  0  0  0  0  0  0  0  0  0  0  0
  1  2  1  0  0  0  0
  2  3  1  0  0  0  0
  2  4  1  0  0  0  0
  2  5  1  0  0  0  0
  5  6  2  0  0  0  0
  5  7  1  0  0  0  0
  7  8  1  0  0  0  0
  7  9  1  0  0  0  0
  9 10  1  0  0  0  0
  9 11  1  0  0  0  0
  9 12  1  0  0  0  0
 12 13  2  0  0  0  0
 12 14  1  0  0  0  0
 14 15  1  0  0  0  0
 14 16  1  0  0  0  0
 16 17  1  0  0  0  0
 16 18  1  0  0  0  0
 16 19  1  0  0  0  0
M  END
$$$$

  -OEChem-01062216083D

 19 18  0     0  0  0  0  0  0999 V2000
   -2.2803   -3.9465    0.1503 H   0  0  0  0  0  0  0  0  0  0  0  0
   -2.2676   -2.8533    0.1744 C   0  0  0  0  0  0  0  0  0  0  0  0
   -2.5461   -2.5202    1.1773 H   0  0  0  0  0  0  0  0  0  0  0  0
   -2.9987   -2.4769   -0.5448 H   0  0  0  0  0  0  0  0  0  0  0  0
   -0.8827   -2.3385   -0.1715 C   0  0  0  0  0  0  0  0  0  0  0  0
    0.0254   -3.1300   -0.3755 O   0  0  0  0  0  0  0  0  0  0  0  0
   -0.6633   -0.9769   -0.2619 N   0  0  0  0  0  0  0  0  0  0  0  0
   -1.4204   -0.4073    0.1074 H   0  0  0  0  0  0  0  0  0  0  0  0
    0.6916   -0.4087   -0.1514 C   0  0  0  0  0  0  0  0  0  0  0  0
    1.4390   -1.1003   -0.5525 H   0  0  0  0  0  0  0  0  0  0  0  0
    0.7402    0.5006   -0.7562 H   0  0  0  0  0  0  0  0  0  0  0  0
    1.0849   -0.0537    1.2921 C   0  0  0  0  0  0  0  0  0  0  0  0
    0.3510   -0.3407    2.2300 O   0  0  0  0  0  0  0  0  0  0  0  0
    2.1787    0.7598    1.5227 N   0  0  0  0  0  0  0  0  0  0  0  0
    2.7795    0.9779    0.7333 H   0  0  0  0  0  0  0  0  0  0  0  0
    2.5816    1.1963    2.8545 C   0  0  0  0  0  0  0  0  0  0  0  0
    2.8082    0.3326    3.4886 H   0  0  0  0  0  0  0  0  0  0  0  0
    3.4758    1.8239    2.7921 H   0  0  0  0  0  0  0  0  0  0  0  0
    1.7830    1.7795    3.3250 H   0  0  0  0  0  0  0  0  0  0  0  0
  1  2  1  0  0  0  0
  2  3  1  0  0  0  0
  2  4  1  0  0  0  0
  2  5  1  0  0  0  0
  5  6  2  0  0  0  0
  5  7  1  0  0  0  0
  7  8  1  0  0  0  0
  7  9  1  0  0  0  0
  9 10  1  0  0  0  0
  9 11  1  0  0  0  0
  9 12  1  0  0  0  0
 12 13  2  0  0  0  0
 12 14  1  0  0  0  0
 14 15  1  0  0  0  0
 14 16  1  0  0  0  0
 16 17  1  0  0  0  0
 16 18  1  0  0  0  0
 16 19  1  0  0  0  0
M  END
$$$$

  -OEChem-01062216083D

 19 18  0     0  0  0  0  0  0999 V2000
   -2.2965   -3.9416    0.1059 H   0  0  0  0  0  0  0  0  0  0  0  0
   -2.2704   -2.8500    0.1645 C   0  0  0  0  0  0  0  0  0  0  0  0
   -2.5423   -2.5454    1.1783 H   0  0  0  0  0  0  0  0  0  0  0  0
   -2.9984   -2.4420   -0.5404 H   0  0  0  0  0  0  0  0  0  0  0  0
   -0.8805   -2.3411   -0.1699 C   0  0  0  0  0  0  0  0  0  0  0  0
    0.0216   -3.1363   -0.3855 O   0  0  0  0  0  0  0  0  0  0  0  0
   -0.6565   -0.9798   -0.2586 N   0  0  0  0  0  0  0  0  0  0  0  0
   -1.4189   -0.4080    0.0953 H   0  0  0  0  0  0  0  0  0  0  0  0
    0.6988   -0.4153   -0.1330 C   0  0  0  0  0  0  0  0  0  0  0  0
    1.4501   -1.1089   -0.5239 H   0  0  0  0  0  0  0  0  0  0  0  0
    0.7554    0.4909   -0.7416 H   0  0  0  0  0  0  0  0  0  0  0  0
    1.0769   -0.0601    1.3150 C   0  0  0  0  0  0  0  0  0  0  0  0
    0.4721   -0.5512    2.2596 O   0  0  0  0  0  0  0  0  0  0  0  0
    1.9564    0.9792    1.5580 N   0  0  0  0  0  0  0  0  0  0  0  0
    2.4502    1.3765    0.7643 H   0  0  0  0  0  0  0  0  0  0  0  0
    2.3050    1.4317    2.9000 C   0  0  0  0  0  0  0  0  0  0  0  0
    2.7790    0.6225    3.4654 H   0  0  0  0  0  0  0  0  0  0  0  0
    3.0035    2.2724    2.8466 H   0  0  0  0  0  0  0  0  0  0  0  0
    1.4104    1.7613    3.4390 H   0  0  0  0  0  0  0  0  0  0  0  0
  1  2  1  0  0  0  0
  2  3  1  0  0  0  0
  2  4  1  0  0  0  0
  2  5  1  0  0  0  0
  5  6  2  0  0  0  0
  5  7  1  0  0  0  0
  7  8  1  0  0  0  0
  7  9  1  0  0  0  0
  9 10  1  0  0  0  0
  9 11  1  0  0  0  0
  9 12  1  0  0  0  0
 12 13  2  0  0  0  0
 12 14  1  0  0  0  0
 14 15  1  0  0  0  0
 14 16  1  0  0  0  0
 16 17  1  0  0  0  0
 16 18  1  0  0  0  0
 16 19  1  0  0  0  0
M  END
$$$$

  -OEChem-01062216083D

 19 18  0     0  0  0  0  0  0999 V2000
   -2.2991   -3.9375    0.0967 H   0  0  0  0  0  0  0  0  0  0  0  0
   -2.2683   -2.8465    0.1650 C   0  0  0  0  0  0  0  0  0  0  0  0
   -2.5336   -2.5503    1.1830 H   0  0  0  0  0  0  0  0  0  0  0  0
   -2.9984   -2.4293   -0.5325 H   0  0  0  0  0  0  0  0  0  0  0  0
   -0.8777   -2.3408   -0.1714 C   0  0  0  0  0  0  0  0  0  0  0  0
    0.0176   -3.1390   -0.4023 O   0  0  0  0  0  0  0  0  0  0  0  0
   -0.6485   -0.9796   -0.2550 N   0  0  0  0  0  0  0  0  0  0  0  0
   -1.4151   -0.4047    0.0832 H   0  0  0  0  0  0  0  0  0  0  0  0
    0.7076   -0.4193   -0.1177 C   0  0  0  0  0  0  0  0  0  0  0  0
    1.4604   -1.1162   -0.4997 H   0  0  0  0  0  0  0  0  0  0  0  0
    0.7752    0.4850   -0.7277 H   0  0  0  0  0  0  0  0  0  0  0  0
    1.0722   -0.0695    1.3347 C   0  0  0  0  0  0  0  0  0  0  0  0
    0.6507   -0.7428    2.2653 O   0  0  0  0  0  0  0  0  0  0  0  0
    1.6894    1.1360    1.6160 N   0  0  0  0  0  0  0  0  0  0  0  0
    2.0166    1.6952    0.8340 H   0  0  0  0  0  0  0  0  0  0  0  0
    1.9801    1.5863    2.9725 C   0  0  0  0  0  0  0  0  0  0  0  0
    2.6424    0.8759    3.4784 H   0  0  0  0  0  0  0  0  0  0  0  0
    2.4732    2.5628    2.9496 H   0  0  0  0  0  0  0  0  0  0  0  0
    1.0557    1.6802    3.5519 H   0  0  0  0  0  0  0  0  0  0  0  0
  1  2  1  0  0  0  0
  2  3  1  0  0  0  0
  2  4  1  0  0  0  0
  2  5  1  0  0  0  0
  5  6  2  0  0  0  0
  5  7  1  0  0  0  0
  7  8  1  0  0  0  0
  7  9  1  0  0  0  0
  9 10  1  0  0  0  0
  9 11  1  0  0  0  0
  9 12  1  0  0  0  0
 12 13  2  0  0  0  0
 12 14  1  0  0  0  0
 14 15  1  0  0  0  0
 14 16  1  0  0  0  0
 16 17  1  0  0  0  0
 16 18  1  0  0  0  0
 16 19  1  0  0  0  0
M  END
$$$$

  -OEChem-01062216083D

 19 18  0     0  0  0  0  0  0999 V2000
   -2.3038   -3.9370    0.0799 H   0  0  0  0  0  0  0  0  0  0  0  0
   -2.2731   -2.8463    0.1532 C   0  0  0  0  0  0  0  0  0  0  0  0
   -2.5537   -2.5543    1.1682 H   0  0  0  0  0  0  0  0  0  0  0  0
   -2.9919   -2.4255   -0.5537 H   0  0  0  0  0  0  0  0  0  0  0  0
   -0.8767   -2.3417   -0.1604 C   0  0  0  0  0  0  0  0  0  0  0  0
    0.0162   -3.1408   -0.3951 O   0  0  0  0  0  0  0  0  0  0  0  0
   -0.6444   -0.9803   -0.2366 N   0  0  0  0  0  0  0  0  0  0  0  0
   -1.4172   -0.4014    0.0794 H   0  0  0  0  0  0  0  0  0  0  0  0
    0.7106   -0.4180   -0.0975 C   0  0  0  0  0  0  0  0  0  0  0  0
    1.4647   -1.1140   -0.4791 H   0  0  0  0  0  0  0  0  0  0  0  0
    0.7816    0.4870   -0.7059 H   0  0  0  0  0  0  0  0  0  0  0  0
    1.0689   -0.0766    1.3575 C   0  0  0  0  0  0  0  0  0  0  0  0
    0.8944   -0.8906    2.2528 O   0  0  0  0  0  0  0  0  0  0  0  0
    1.3876    1.2258    1.6980 N   0  0  0  0  0  0  0  0  0  0  0  0
    1.5092    1.8968    0.9457 H   0  0  0  0  0  0  0  0  0  0  0  0
    1.6452    1.6517    3.0689 C   0  0  0  0  0  0  0  0  0  0  0  0
    2.4918    1.0981    3.4890 H   0  0  0  0  0  0  0  0  0  0  0  0
    1.8829    2.7195    3.0959 H   0  0  0  0  0  0  0  0  0  0  0  0
    0.7642    1.4784    3.6960 H   0  0  0  0  0  0  0  0  0  0  0  0
  1  2  1  0  0  0  0
  2  3  1  0  0  0  0
  2  4  1  0  0  0  0
  2  5  1  0  0  0  0
  5  6  2  0  0  0  0
  5  7  1  0  0  0  0
  7  8  1  0  0  0  0
  7  9  1  0  0  0  0
  9 10  1  0  0  0  0
  9 11  1  0  0  0  0
  9 12  1  0  0  0  0
 12 13  2  0  0  0  0
 12 14  1  0  0  0  0
 14 15  1  0  0  0  0
 14 16  1  0  0  0  0
 16 17  1  0  0  0  0
 16 18  1  0  0  0  0
 16 19  1  0  0  0  0
M  END
$$$$

  -OEChem-01062216083D

 19 18  0     0  0  0  0  0  0999 V2000
   -2.3167   -3.9444    0.0566 H   0  0  0  0  0  0  0  0  0  0  0  0
   -2.2902   -2.8526    0.1162 C   0  0  0  0  0  0  0  0  0  0  0  0
   -2.6180   -2.5473    1.1129 H   0  0  0  0  0  0  0  0  0  0  0  0
   -2.9756   -2.4428   -0.6293 H   0  0  0  0  0  0  0  0  0  0  0  0
   -0.8813   -2.3505   -0.1399 C   0  0  0  0  0  0  0  0  0  0  0  0
    0.0174   -3.1514   -0.3394 O   0  0  0  0  0  0  0  0  0  0  0  0
   -0.6453   -0.9893   -0.2089 N   0  0  0  0  0  0  0  0  0  0  0  0
   -1.4304   -0.4028    0.0586 H   0  0  0  0  0  0  0  0  0  0  0  0
    0.7057   -0.4189   -0.0651 C   0  0  0  0  0  0  0  0  0  0  0  0
    1.4628   -1.1140   -0.4435 H   0  0  0  0  0  0  0  0  0  0  0  0
    0.7808    0.4867   -0.6719 H   0  0  0  0  0  0  0  0  0  0  0  0
    1.0561   -0.0819    1.3914 C   0  0  0  0  0  0  0  0  0  0  0  0
    1.2111   -0.9648    2.2207 O   0  0  0  0  0  0  0  0  0  0  0  0
    1.0586    1.2366    1.8097 N   0  0  0  0  0  0  0  0  0  0  0  0
    0.9237    1.9575    1.1076 H   0  0  0  0  0  0  0  0  0  0  0  0
    1.3355    1.6355    3.1848 C   0  0  0  0  0  0  0  0  0  0  0  0
    2.3386    1.3124    3.4824 H   0  0  0  0  0  0  0  0  0  0  0  0
    1.2795    2.7239    3.2814 H   0  0  0  0  0  0  0  0  0  0  0  0
    0.6048    1.1902    3.8682 H   0  0  0  0  0  0  0  0  0  0  0  0
  1  2  1  0  0  0  0
  2  3  1  0  0  0  0
  2  4  1  0  0  0  0
  2  5  1  0  0  0  0
  5  6  2  0  0  0  0
  5  7  1  0  0  0  0
  7  8  1  0  0  0  0
  7  9  1  0  0  0  0
  9 10  1  0  0  0  0
  9 11  1  0  0  0  0
  9 12  1  0  0  0  0
 12 13  2  0  0  0  0
 12 14  1  0  0  0  0
 14 15  1  0  0  0  0
 14 16  1  0  0  0  0
 16 17  1  0  0  0  0
 16 18  1  0  0  0  0
 16 19  1  0  0  0  0
M  END
$$$$

  -OEChem-01062216083D

 19 18  0     0  0  0  0  0  0999 V2000
   -2.3473   -3.9523   -0.0164 H   0  0  0  0  0  0  0  0  0  0  0  0
   -2.3172   -2.8620    0.0645 C   0  0  0  0  0  0  0  0  0  0  0  0
   -2.6888   -2.5727    1.0504 H   0  0  0  0  0  0  0  0  0  0  0  0
   -2.9663   -2.4350   -0.7038 H   0  0  0  0  0  0  0  0  0  0  0  0
   -0.8947   -2.3650   -0.1181 C   0  0  0  0  0  0  0  0  0  0  0  0
    0.0110   -3.1699   -0.2551 O   0  0  0  0  0  0  0  0  0  0  0  0
   -0.6494   -1.0050   -0.1748 N   0  0  0  0  0  0  0  0  0  0  0  0
   -1.4456   -0.4078    0.0273 H   0  0  0  0  0  0  0  0  0  0  0  0
    0.6992   -0.4285   -0.0261 C   0  0  0  0  0  0  0  0  0  0  0  0
    1.4579   -1.1192   -0.4100 H   0  0  0  0  0  0  0  0  0  0  0  0
    0.7747    0.4828   -0.6245 H   0  0  0  0  0  0  0  0  0  0  0  0
    1.0474   -0.1007    1.4320 C   0  0  0  0  0  0  0  0  0  0  0  0
    1.5640   -0.9332    2.1603 O   0  0  0  0  0  0  0  0  0  0  0  0
    0.7464    1.1489    1.9434 N   0  0  0  0  0  0  0  0  0  0  0  0
    0.3495    1.8373    1.3118 H   0  0  0  0  0  0  0  0  0  0  0  0
    1.0580    1.5444    3.3119 C   0  0  0  0  0  0  0  0  0  0  0  0
    2.1410    1.5401    3.4741 H   0  0  0  0  0  0  0  0  0  0  0  0
    0.6816    2.5525    3.5097 H   0  0  0  0  0  0  0  0  0  0  0  0
    0.5922    0.8567    4.0257 H   0  0  0  0  0  0  0  0  0  0  0  0
  1  2  1  0  0  0  0
  2  3  1  0  0  0  0
  2  4  1  0  0  0  0
  2  5  1  0  0  0  0
  5  6  2  0  0  0  0
  5  7  1  0  0  0  0
  7  8  1  0  0  0  0
  7  9  1  0  0  0  0
  9 10  1  0  0  0  0
  9 11  1  0  0  0  0
  9 12  1  0  0  0  0
 12 13  2  0  0  0  0
 12 14  1  0  0  0  0
 14 15  1  0  0  0  0
 14 16  1  0  0  0  0
 16 17  1  0  0  0  0
 16 18  1  0  0  0  0
 16 19  1  0  0  0  0
M  END
$$$$

  -OEChem-01062216083D

 19 18  0     0  0  0  0  0  0999 V2000
   -2.3617   -3.9801   -0.0821 H   0  0  0  0  0  0  0  0  0  0  0  0
   -2.3412   -2.8890   -0.0077 C   0  0  0  0  0  0  0  0  0  0  0  0
   -2.7903   -2.5937    0.9435 H   0  0  0  0  0  0  0  0  0  0  0  0
   -2.9289   -2.4704   -0.8280 H   0  0  0  0  0  0  0  0  0  0  0  0
   -0.9106   -2.3875   -0.0825 C   0  0  0  0  0  0  0  0  0  0  0  0
    0.0061   -3.1891   -0.1293 O   0  0  0  0  0  0  0  0  0  0  0  0
   -0.6651   -1.0273   -0.1246 N   0  0  0  0  0  0  0  0  0  0  0  0
   -1.4733   -0.4219   -0.0172 H   0  0  0  0  0  0  0  0  0  0  0  0
    0.6796   -0.4377    0.0138 C   0  0  0  0  0  0  0  0  0  0  0  0
    1.4369   -1.1179   -0.3915 H   0  0  0  0  0  0  0  0  0  0  0  0
    0.7386    0.4827   -0.5727 H   0  0  0  0  0  0  0  0  0  0  0  0
    1.0490   -0.1212    1.4690 C   0  0  0  0  0  0  0  0  0  0  0  0
    1.8932   -0.7756    2.0604 O   0  0  0  0  0  0  0  0  0  0  0  0
    0.4828    0.9739    2.0967 N   0  0  0  0  0  0  0  0  0  0  0  0
   -0.1677    1.5415    1.5638 H   0  0  0  0  0  0  0  0  0  0  0  0
    0.8371    1.3869    3.4496 C   0  0  0  0  0  0  0  0  0  0  0  0
    1.8998    1.6452    3.5053 H   0  0  0  0  0  0  0  0  0  0  0  0
    0.2518    2.2634    3.7436 H   0  0  0  0  0  0  0  0  0  0  0  0
    0.6334    0.5808    4.1624 H   0  0  0  0  0  0  0  0  0  0  0  0
  1  2  1  0  0  0  0
  2  3  1  0  0  0  0
  2  4  1  0  0  0  0
  2  5  1  0  0  0  0
  5  6  2  0  0  0  0
  5  7  1  0  0  0  0
  7  8  1  0  0  0  0
  7  9  1  0  0  0  0
  9 10  1  0  0  0  0
  9 11  1  0  0  0  0
  9 12  1  0  0  0  0
 12 13  2  0  0  0  0
 12 14  1  0  0  0  0
 14 15  1  0  0  0  0
 14 16  1  0  0  0  0
 16 17  1  0  0  0  0
 16 18  1  0  0  0  0
 16 19  1  0  0  0  0
M  END
$$$$

  -OEChem-01062216083D

 19 18  0     0  0  0  0  0  0999 V2000
   -2.2447   -4.0818   -0.0706 H   0  0  0  0  0  0  0  0  0  0  0  0
   -2.2945   -2.9890   -0.0615 C   0  0  0  0  0  0  0  0  0  0  0  0
   -2.8497   -2.6704    0.8242 H   0  0  0  0  0  0  0  0  0  0  0  0
   -2.8235   -2.6541   -0.9569 H   0  0  0  0  0  0  0  0  0  0  0  0
   -0.8946   -2.4033   -0.0347 C   0  0  0  0  0  0  0  0  0  0  0  0
    0.0704   -3.1467   -0.0110 O   0  0  0  0  0  0  0  0  0  0  0  0
   -0.7275   -1.0311   -0.0410 N   0  0  0  0  0  0  0  0  0  0  0  0
   -1.5695   -0.4651   -0.0861 H   0  0  0  0  0  0  0  0  0  0  0  0
    0.5857   -0.3608    0.0090 C   0  0  0  0  0  0  0  0  0  0  0  0
    1.3416   -0.9768   -0.4910 H   0  0  0  0  0  0  0  0  0  0  0  0
    0.5355    0.5843   -0.5375 H   0  0  0  0  0  0  0  0  0  0  0  0
    1.0672   -0.0705    1.4369 C   0  0  0  0  0  0  0  0  0  0  0  0
    2.1816   -0.4229    1.7905 O   0  0  0  0  0  0  0  0  0  0  0  0
    0.3045    0.7375    2.2640 N   0  0  0  0  0  0  0  0  0  0  0  0
   -0.6049    1.0213    1.9166 H   0  0  0  0  0  0  0  0  0  0  0  0
    0.6819    1.1314    3.6197 C   0  0  0  0  0  0  0  0  0  0  0  0
    1.6543    0.7222    3.9128 H   0  0  0  0  0  0  0  0  0  0  0  0
    0.7399    2.2218    3.6907 H   0  0  0  0  0  0  0  0  0  0  0  0
   -0.0633    0.7699    4.3349 H   0  0  0  0  0  0  0  0  0  0  0  0
  1  2  1  0  0  0  0
  2  3  1  0  0  0  0
  2  4  1  0  0  0  0
  2  5  1  0  0  0  0
  5  6  2  0  0  0  0
  5  7  1  0  0  0  0
  7  8  1  0  0  0  0
  7  9  1  0  0  0  0
  9 10  1  0  0  0  0
  9 11  1  0  0  0  0
  9 12  1  0  0  0  0
 12 13  2  0  0  0  0
 12 14  1  0  0  0  0
 14 15  1  0  0  0  0
 14 16  1  0  0  0  0
 16 17  1  0  0  0  0
 16 18  1  0  0  0  0
 16 19  1  0  0  0  0
M  END
$$$$

  -OEChem-01062216083D

 19 18  0     0  0  0  0  0  0999 V2000
   -2.2481   -4.1003   -0.1723 H   0  0  0  0  0  0  0  0  0  0  0  0
   -2.3100   -3.0085   -0.1446 C   0  0  0  0  0  0  0  0  0  0  0  0
   -2.9443   -2.7137    0.6947 H   0  0  0  0  0  0  0  0  0  0  0  0
   -2.7622   -2.6595   -1.0761 H   0  0  0  0  0  0  0  0  0  0  0  0
   -0.9243   -2.4110    0.0180 C   0  0  0  0  0  0  0  0  0  0  0  0
    0.0387   -3.1442    0.1575 O   0  0  0  0  0  0  0  0  0  0  0  0
   -0.7645   -1.0381    0.0099 N   0  0  0  0  0  0  0  0  0  0  0  0
   -1.5899   -0.4826   -0.1962 H   0  0  0  0  0  0  0  0  0  0  0  0
    0.5507   -0.3693    0.0386 C   0  0  0  0  0  0  0  0  0  0  0  0
    1.2954   -0.9835   -0.4798 H   0  0  0  0  0  0  0  0  0  0  0  0
    0.4869    0.5787   -0.5017 H   0  0  0  0  0  0  0  0  0  0  0  0
    1.0700   -0.0749    1.4522 C   0  0  0  0  0  0  0  0  0  0  0  0
    2.2684   -0.1419    1.6797 O   0  0  0  0  0  0  0  0  0  0  0  0
    0.2164    0.4632    2.4003 N   0  0  0  0  0  0  0  0  0  0  0  0
   -0.7697    0.4782    2.1638 H   0  0  0  0  0  0  0  0  0  0  0  0
    0.6112    0.8444    3.7545 C   0  0  0  0  0  0  0  0  0  0  0  0
    1.6808    0.6899    3.9311 H   0  0  0  0  0  0  0  0  0  0  0  0
    0.3906    1.9027    3.9248 H   0  0  0  0  0  0  0  0  0  0  0  0
    0.0599    0.2463    4.4867 H   0  0  0  0  0  0  0  0  0  0  0  0
  1  2  1  0  0  0  0
  2  3  1  0  0  0  0
  2  4  1  0  0  0  0
  2  5  1  0  0  0  0
  5  6  2  0  0  0  0
  5  7  1  0  0  0  0
  7  8  1  0  0  0  0
  7  9  1  0  0  0  0
  9 10  1  0  0  0  0
  9 11  1  0  0  0  0
  9 12  1  0  0  0  0
 12 13  2  0  0  0  0
 12 14  1  0  0  0  0
 14 15  1  0  0  0  0
 14 16  1  0  0  0  0
 16 17  1  0  0  0  0
 16 18  1  0  0  0  0
 16 19  1  0  0  0  0
M  END
$$$$

  -OEChem-01062216083D

 19 18  0     0  0  0  0  0  0999 V2000
   -2.3937   -4.0287   -0.0860 H   0  0  0  0  0  0  0  0  0  0  0  0
   -2.3823   -2.9408   -0.1990 C   0  0  0  0  0  0  0  0  0  0  0  0
   -3.0858   -2.5065    0.5154 H   0  0  0  0  0  0  0  0  0  0  0  0
   -2.7009   -2.6904   -1.2138 H   0  0  0  0  0  0  0  0  0  0  0  0
   -0.9849   -2.4044    0.0533 C   0  0  0  0  0  0  0  0  0  0  0  0
   -0.0749   -3.1748    0.3054 O   0  0  0  0  0  0  0  0  0  0  0  0
   -0.7521   -1.0429    0.0069 N   0  0  0  0  0  0  0  0  0  0  0  0
   -1.5277   -0.4561   -0.2887 H   0  0  0  0  0  0  0  0  0  0  0  0
    0.5972   -0.4462    0.0636 C   0  0  0  0  0  0  0  0  0  0  0  0
    1.3244   -1.1164   -0.4077 H   0  0  0  0  0  0  0  0  0  0  0  0
    0.6024    0.4859   -0.5076 H   0  0  0  0  0  0  0  0  0  0  0  0
    1.0889   -0.1299    1.4820 C   0  0  0  0  0  0  0  0  0  0  0  0
    2.2859    0.0033    1.6885 O   0  0  0  0  0  0  0  0  0  0  0  0
    0.1892    0.1952    2.4805 N   0  0  0  0  0  0  0  0  0  0  0  0
   -0.7863   -0.0168    2.2991 H   0  0  0  0  0  0  0  0  0  0  0  0
    0.6001    0.5198    3.8411 C   0  0  0  0  0  0  0  0  0  0  0  0
    1.2372    1.4106    3.8463 H   0  0  0  0  0  0  0  0  0  0  0  0
   -0.2769    0.7198    4.4640 H   0  0  0  0  0  0  0  0  0  0  0  0
    1.1566   -0.3136    4.2828 H   0  0  0  0  0  0  0  0  0  0  0  0
  1  2  1  0  0  0  0
  2  3  1  0  0  0  0
  2  4  1  0  0  0  0
  2  5  1  0  0  0  0
  5  6  2  0  0  0  0
  5  7  1  0  0  0  0
  7  8  1  0  0  0  0
  7  9  1  0  0  0  0
  9 10  1  0  0  0  0
  9 11  1  0  0  0  0
  9 12  1  0  0  0  0
 12 13  2  0  0  0  0
 12 14  1  0  0  0  0
 14 15  1  0  0  0  0
 14 16  1  0  0  0  0
 16 17  1  0  0  0  0
 16 18  1  0  0  0  0
 16 19  1  0  0  0  0
M  END
$$$$

  -OEChem-01062216083D

 19 18  0     0  0  0  0  0  0999 V2000
   -2.3920   -4.0290   -0.0807 H   0  0  0  0  0  0  0  0  0  0  0  0
   -2.3839   -2.9413   -0.1970 C   0  0  0  0  0  0  0  0  0  0  0  0
   -3.0822   -2.5066    0.5221 H   0  0  0  0  0  0  0  0  0  0  0  0
   -2.7120   -2.6943   -1.2096 H   0  0  0  0  0  0  0  0  0  0  0  0
   -0.9855   -2.4018    0.0423 C   0  0  0  0  0  0  0  0  0  0  0  0
   -0.0754   -3.1681    0.3058 O   0  0  0  0  0  0  0  0  0  0  0  0
   -0.7533   -1.0406   -0.0038 N   0  0  0  0  0  0  0  0  0  0  0  0
   -1.5314   -0.4509   -0.2879 H   0  0  0  0  0  0  0  0  0  0  0  0
    0.5956   -0.4417    0.0529 C   0  0  0  0  0  0  0  0  0  0  0  0
    1.3233   -1.1110   -0.4185 H   0  0  0  0  0  0  0  0  0  0  0  0
    0.5979    0.4900   -0.5193 H   0  0  0  0  0  0  0  0  0  0  0  0
    1.0928   -0.1225    1.4691 C   0  0  0  0  0  0  0  0  0  0  0  0
    2.2465    0.2482    1.6279 O   0  0  0  0  0  0  0  0  0  0  0  0
    0.2170   -0.0990    2.5384 N   0  0  0  0  0  0  0  0  0  0  0  0
   -0.6904   -0.5258    2.3822 H   0  0  0  0  0  0  0  0  0  0  0  0
    0.6476    0.1555    3.9075 C   0  0  0  0  0  0  0  0  0  0  0  0
    1.1237    1.1387    3.9845 H   0  0  0  0  0  0  0  0  0  0  0  0
   -0.2124    0.1362    4.5836 H   0  0  0  0  0  0  0  0  0  0  0  0
    1.3623   -0.6082    4.2318 H   0  0  0  0  0  0  0  0  0  0  0  0
  1  2  1  0  0  0  0
  2  3  1  0  0  0  0
  2  4  1  0  0  0  0
  2  5  1  0  0  0  0
  5  6  2  0  0  0  0
  5  7  1  0  0  0  0
  7  8  1  0  0  0  0
  7  9  1  0  0  0  0
  9 10  1  0  0  0  0
  9 11  1  0  0  0  0
  9 12  1  0  0  0  0
 12 13  2  0  0  0  0
 12 14  1  0  0  0  0
 14 15  1  0  0  0  0
 14 16  1  0  0  0  0
 16 17  1  0  0  0  0
 16 18  1  0  0  0  0
 16 19  1  0  0  0  0
M  END
$$$$

  -OEChem-01062216083D

 19 18  0     0  0  0  0  0  0999 V2000
   -2.4163   -4.0176   -0.0832 H   0  0  0  0  0  0  0  0  0  0  0  0
   -2.3968   -2.9325   -0.2200 C   0  0  0  0  0  0  0  0  0  0  0  0
   -3.1044   -2.4776    0.4773 H   0  0  0  0  0  0  0  0  0  0  0  0
   -2.7041   -2.7022   -1.2430 H   0  0  0  0  0  0  0  0  0  0  0  0
   -0.9990   -2.3988    0.0339 C   0  0  0  0  0  0  0  0  0  0  0  0
   -0.0936   -3.1654    0.3130 O   0  0  0  0  0  0  0  0  0  0  0  0
   -0.7624   -1.0387    0.0004 N   0  0  0  0  0  0  0  0  0  0  0  0
   -1.5424   -0.4421   -0.2636 H   0  0  0  0  0  0  0  0  0  0  0  0
    0.5870   -0.4407    0.0528 C   0  0  0  0  0  0  0  0  0  0  0  0
    1.3097   -1.1066   -0.4303 H   0  0  0  0  0  0  0  0  0  0  0  0
    0.5853    0.4958   -0.5120 H   0  0  0  0  0  0  0  0  0  0  0  0
    1.1000   -0.1345    1.4663 C   0  0  0  0  0  0  0  0  0  0  0  0
    2.1530    0.4718    1.5973 O   0  0  0  0  0  0  0  0  0  0  0  0
    0.3304   -0.4132    2.5800 N   0  0  0  0  0  0  0  0  0  0  0  0
   -0.4477   -1.0486    2.4319 H   0  0  0  0  0  0  0  0  0  0  0  0
    0.7984   -0.1832    3.9409 C   0  0  0  0  0  0  0  0  0  0  0  0
    1.0290    0.8764    4.0926 H   0  0  0  0  0  0  0  0  0  0  0  0
    0.0268   -0.4737    4.6602 H   0  0  0  0  0  0  0  0  0  0  0  0
    1.6996   -0.7723    4.1407 H   0  0  0  0  0  0  0  0  0  0  0  0
  1  2  1  0  0  0  0
  2  3  1  0  0  0  0
  2  4  1  0  0  0  0
  2  5  1  0  0  0  0
  5  6  2  0  0  0  0
  5  7  1  0  0  0  0
  7  8  1  0  0  0  0
  7  9  1  0  0  0  0
  9 10  1  0  0  0  0
  9 11  1  0  0  0  0
  9 12  1  0  0  0  0
 12 13  2  0  0  0  0
 12 14  1  0  0  0  0
 14 15  1  0  0  0  0
 14 16  1  0  0  0  0
 16 17  1  0  0  0  0
 16 18  1  0  0  0  0
 16 19  1  0  0  0  0
M  END
$$$$

  -OEChem-01062216083D

 19 18  0     0  0  0  0  0  0999 V2000
   -2.4205   -4.0108   -0.1010 H   0  0  0  0  0  0  0  0  0  0  0  0
   -2.4042   -2.9240   -0.2231 C   0  0  0  0  0  0  0  0  0  0  0  0
   -3.1171   -2.4809    0.4765 H   0  0  0  0  0  0  0  0  0  0  0  0
   -2.7068   -2.6811   -1.2446 H   0  0  0  0  0  0  0  0  0  0  0  0
   -1.0097   -2.3894    0.0456 C   0  0  0  0  0  0  0  0  0  0  0  0
   -0.1107   -3.1513    0.3586 O   0  0  0  0  0  0  0  0  0  0  0  0
   -0.7692   -1.0307    0.0113 N   0  0  0  0  0  0  0  0  0  0  0  0
   -1.5476   -0.4324   -0.2539 H   0  0  0  0  0  0  0  0  0  0  0  0
    0.5821   -0.4370    0.0481 C   0  0  0  0  0  0  0  0  0  0  0  0
    1.2970   -1.1044   -0.4441 H   0  0  0  0  0  0  0  0  0  0  0  0
    0.5766    0.5005   -0.5153 H   0  0  0  0  0  0  0  0  0  0  0  0
    1.1089   -0.1375    1.4580 C   0  0  0  0  0  0  0  0  0  0  0  0
    2.0172    0.6690    1.5950 O   0  0  0  0  0  0  0  0  0  0  0  0
    0.5041   -0.6862    2.5727 N   0  0  0  0  0  0  0  0  0  0  0  0
   -0.1034   -1.4817    2.3920 H   0  0  0  0  0  0  0  0  0  0  0  0
    1.0165   -0.4920    3.9231 C   0  0  0  0  0  0  0  0  0  0  0  0
    1.0356    0.5732    4.1765 H   0  0  0  0  0  0  0  0  0  0  0  0
    0.3773   -1.0060    4.6473 H   0  0  0  0  0  0  0  0  0  0  0  0
    2.0318   -0.8931    4.0087 H   0  0  0  0  0  0  0  0  0  0  0  0
  1  2  1  0  0  0  0
  2  3  1  0  0  0  0
  2  4  1  0  0  0  0
  2  5  1  0  0  0  0
  5  6  2  0  0  0  0
  5  7  1  0  0  0  0
  7  8  1  0  0  0  0
  7  9  1  0  0  0  0
  9 10  1  0  0  0  0
  9 11  1  0  0  0  0
  9 12  1  0  0  0  0
 12 13  2  0  0  0  0
 12 14  1  0  0  0  0
 14 15  1  0  0  0  0
 14 16  1  0  0  0  0
 16 17  1  0  0  0  0
 16 18  1  0  0  0  0
 16 19  1  0  0  0  0
M  END
$$$$

  -OEChem-01062216083D

 19 18  0     0  0  0  0  0  0999 V2000
   -2.4142   -3.9992   -0.0510 H   0  0  0  0  0  0  0  0  0  0  0  0
   -2.3995   -2.9134   -0.1822 C   0  0  0  0  0  0  0  0  0  0  0  0
   -3.0982   -2.4643    0.5279 H   0  0  0  0  0  0  0  0  0  0  0  0
   -2.7222   -2.6782   -1.1994 H   0  0  0  0  0  0  0  0  0  0  0  0
   -0.9998   -2.3771    0.0545 C   0  0  0  0  0  0  0  0  0  0  0  0
   -0.0942   -3.1354    0.3609 O   0  0  0  0  0  0  0  0  0  0  0  0
   -0.7607   -1.0186    0.0174 N   0  0  0  0  0  0  0  0  0  0  0  0
   -1.5471   -0.4178   -0.2160 H   0  0  0  0  0  0  0  0  0  0  0  0
    0.5899   -0.4241    0.0311 C   0  0  0  0  0  0  0  0  0  0  0  0
    1.2995   -1.0884   -0.4723 H   0  0  0  0  0  0  0  0  0  0  0  0
    0.5757    0.5157   -0.5287 H   0  0  0  0  0  0  0  0  0  0  0  0
    1.1234   -0.1342    1.4394 C   0  0  0  0  0  0  0  0  0  0  0  0
    1.8479    0.8331    1.6239 O   0  0  0  0  0  0  0  0  0  0  0  0
    0.7314   -0.9196    2.5061 N   0  0  0  0  0  0  0  0  0  0  0  0
    0.2921   -1.8053    2.2571 H   0  0  0  0  0  0  0  0  0  0  0  0
    1.2702   -0.7573    3.8498 C   0  0  0  0  0  0  0  0  0  0  0  0
    1.0913    0.2595    4.2152 H   0  0  0  0  0  0  0  0  0  0  0  0
    0.7876   -1.4589    4.5369 H   0  0  0  0  0  0  0  0  0  0  0  0
    2.3482   -0.9494    3.8556 H   0  0  0  0  0  0  0  0  0  0  0  0
  1  2  1  0  0  0  0
  2  3  1  0  0  0  0
  2  4  1  0  0  0  0
  2  5  1  0  0  0  0
  5  6  2  0  0  0  0
  5  7  1  0  0  0  0
  7  8  1  0  0  0  0
  7  9  1  0  0  0  0
  9 10  1  0  0  0  0
  9 11  1  0  0  0  0
  9 12  1  0  0  0  0
 12 13  2  0  0  0  0
 12 14  1  0  0  0  0
 14 15  1  0  0  0  0
 14 16  1  0  0  0  0
 16 17  1  0  0  0  0
 16 18  1  0  0  0  0
 16 19  1  0  0  0  0
M  END
$$$$

  -OEChem-01062216083D

 19 18  0     0  0  0  0  0  0999 V2000
   -2.3970   -3.9895    0.0152 H   0  0  0  0  0  0  0  0  0  0  0  0
   -2.3862   -2.9052   -0.1280 C   0  0  0  0  0  0  0  0  0  0  0  0
   -3.0612   -2.4482    0.5997 H   0  0  0  0  0  0  0  0  0  0  0  0
   -2.7421   -2.6807   -1.1364 H   0  0  0  0  0  0  0  0  0  0  0  0
   -0.9792   -2.3674    0.0574 C   0  0  0  0  0  0  0  0  0  0  0  0
   -0.0603   -3.1267    0.3237 O   0  0  0  0  0  0  0  0  0  0  0  0
   -0.7421   -1.0084    0.0136 N   0  0  0  0  0  0  0  0  0  0  0  0
   -1.5377   -0.4018   -0.1692 H   0  0  0  0  0  0  0  0  0  0  0  0
    0.6079   -0.4148    0.0085 C   0  0  0  0  0  0  0  0  0  0  0  0
    1.3145   -1.0780   -0.5006 H   0  0  0  0  0  0  0  0  0  0  0  0
    0.5887    0.5253   -0.5509 H   0  0  0  0  0  0  0  0  0  0  0  0
    1.1406   -0.1297    1.4165 C   0  0  0  0  0  0  0  0  0  0  0  0
    1.6607    0.9478    1.6679 O   0  0  0  0  0  0  0  0  0  0  0  0
    1.0013   -1.0846    2.4040 N   0  0  0  0  0  0  0  0  0  0  0  0
    0.6774   -2.0022    2.0940 H   0  0  0  0  0  0  0  0  0  0  0  0
    1.5554   -0.9414    3.7430 C   0  0  0  0  0  0  0  0  0  0  0  0
    1.1567   -0.0449    4.2291 H   0  0  0  0  0  0  0  0  0  0  0  0
    1.2929   -1.8102    4.3541 H   0  0  0  0  0  0  0  0  0  0  0  0
    2.6467   -0.8636    3.6992 H   0  0  0  0  0  0  0  0  0  0  0  0
  1  2  1  0  0  0  0
  2  3  1  0  0  0  0
  2  4  1  0  0  0  0
  2  5  1  0  0  0  0
  5  6  2  0  0  0  0
  5  7  1  0  0  0  0
  7  8  1  0  0  0  0
  7  9  1  0  0  0  0
  9 10  1  0  0  0  0
  9 11  1  0  0  0  0
  9 12  1  0  0  0  0
 12 13  2  0  0  0  0
 12 14  1  0  0  0  0
 14 15  1  0  0  0  0
 14 16  1  0  0  0  0
 16 17  1  0  0  0  0
 16 18  1  0  0  0  0
 16 19  1  0  0  0  0
M  END
$$$$

  -OEChem-01062216083D

 19 18  0     0  0  0  0  0  0999 V2000
   -2.2332   -4.0587   -0.0837 H   0  0  0  0  0  0  0  0  0  0  0  0
   -2.2979   -2.9671   -0.0739 C   0  0  0  0  0  0  0  0  0  0  0  0
   -2.9047   -2.6577    0.7805 H   0  0  0  0  0  0  0  0  0  0  0  0
   -2.7825   -2.6361   -0.9957 H   0  0  0  0  0  0  0  0  0  0  0  0
   -0.9102   -2.3624    0.0298 C   0  0  0  0  0  0  0  0  0  0  0  0
    0.0649   -3.0816    0.1895 O   0  0  0  0  0  0  0  0  0  0  0  0
   -0.7476   -0.9918    0.0248 N   0  0  0  0  0  0  0  0  0  0  0  0
   -1.5839   -0.4180   -0.0499 H   0  0  0  0  0  0  0  0  0  0  0  0
    0.5680   -0.3299   -0.0012 C   0  0  0  0  0  0  0  0  0  0  0  0
    1.2941   -0.9344   -0.5537 H   0  0  0  0  0  0  0  0  0  0  0  0
    0.4842    0.6271   -0.5247 H   0  0  0  0  0  0  0  0  0  0  0  0
    1.1145   -0.0706    1.4048 C   0  0  0  0  0  0  0  0  0  0  0  0
    1.3443    1.0733    1.7696 O   0  0  0  0  0  0  0  0  0  0  0  0
    1.3279   -1.1463    2.2453 N   0  0  0  0  0  0  0  0  0  0  0  0
    1.1151   -2.0664    1.8549 H   0  0  0  0  0  0  0  0  0  0  0  0
    1.8532   -1.0604    3.6036 C   0  0  0  0  0  0  0  0  0  0  0  0
    2.0199   -0.0233    3.9124 H   0  0  0  0  0  0  0  0  0  0  0  0
    1.1473   -1.5129    4.3064 H   0  0  0  0  0  0  0  0  0  0  0  0
    2.8075   -1.5916    3.6701 H   0  0  0  0  0  0  0  0  0  0  0  0
  1  2  1  0  0  0  0
  2  3  1  0  0  0  0
  2  4  1  0  0  0  0
  2  5  1  0  0  0  0
  5  6  2  0  0  0  0
  5  7  1  0  0  0  0
  7  8  1  0  0  0  0
  7  9  1  0  0  0  0
  9 10  1  0  0  0  0
  9 11  1  0  0  0  0
  9 12  1  0  0  0  0
 12 13  2  0  0  0  0
 12 14  1  0  0  0  0
 14 15  1  0  0  0  0
 14 16  1  0  0  0  0
 16 17  1  0  0  0  0
 16 18  1  0  0  0  0
 16 19  1  0  0  0  0
M  END
$$$$

  -OEChem-01062216083D

 19 18  0     0  0  0  0  0  0999 V2000
   -2.1895   -4.0573   -0.0095 H   0  0  0  0  0  0  0  0  0  0  0  0
   -2.2606   -2.9660   -0.0071 C   0  0  0  0  0  0  0  0  0  0  0  0
   -2.8131   -2.6510    0.8815 H   0  0  0  0  0  0  0  0  0  0  0  0
   -2.8055   -2.6476   -0.8989 H   0  0  0  0  0  0  0  0  0  0  0  0
   -0.8735   -2.3512   -0.0001 C   0  0  0  0  0  0  0  0  0  0  0  0
    0.1161   -3.0651    0.0735 O   0  0  0  0  0  0  0  0  0  0  0  0
   -0.7228   -0.9789   -0.0031 N   0  0  0  0  0  0  0  0  0  0  0  0
   -1.5633   -0.4072    0.0312 H   0  0  0  0  0  0  0  0  0  0  0  0
    0.5882   -0.3120   -0.0341 C   0  0  0  0  0  0  0  0  0  0  0  0
    1.3177   -0.9058   -0.5940 H   0  0  0  0  0  0  0  0  0  0  0  0
    0.4981    0.6489   -0.5494 H   0  0  0  0  0  0  0  0  0  0  0  0
    1.1241   -0.0611    1.3763 C   0  0  0  0  0  0  0  0  0  0  0  0
    1.1008    1.0663    1.8489 O   0  0  0  0  0  0  0  0  0  0  0  0
    1.6281   -1.1305    2.0913 N   0  0  0  0  0  0  0  0  0  0  0  0
    1.5243   -2.0472    1.6532 H   0  0  0  0  0  0  0  0  0  0  0  0
    2.1364   -1.0591    3.4574 C   0  0  0  0  0  0  0  0  0  0  0  0
    2.0746   -0.0444    3.8641 H   0  0  0  0  0  0  0  0  0  0  0  0
    1.5554   -1.7199    4.1080 H   0  0  0  0  0  0  0  0  0  0  0  0
    3.1849   -1.3714    3.4831 H   0  0  0  0  0  0  0  0  0  0  0  0
  1  2  1  0  0  0  0
  2  3  1  0  0  0  0
  2  4  1  0  0  0  0
  2  5  1  0  0  0  0
  5  6  2  0  0  0  0
  5  7  1  0  0  0  0
  7  8  1  0  0  0  0
  7  9  1  0  0  0  0
  9 10  1  0  0  0  0
  9 11  1  0  0  0  0
  9 12  1  0  0  0  0
 12 13  2  0  0  0  0
 12 14  1  0  0  0  0
 14 15  1  0  0  0  0
 14 16  1  0  0  0  0
 16 17  1  0  0  0  0
 16 18  1  0  0  0  0
 16 19  1  0  0  0  0
M  END
$$$$

  -OEChem-01062216083D

 19 18  0     0  0  0  0  0  0999 V2000
   -2.0601   -4.1210   -0.0630 H   0  0  0  0  0  0  0  0  0  0  0  0
   -2.1776   -3.0361    0.0090 C   0  0  0  0  0  0  0  0  0  0  0  0
   -2.6669   -2.7968    0.9563 H   0  0  0  0  0  0  0  0  0  0  0  0
   -2.8084   -2.6955   -0.8157 H   0  0  0  0  0  0  0  0  0  0  0  0
   -0.8223   -2.3575   -0.0609 C   0  0  0  0  0  0  0  0  0  0  0  0
    0.1989   -3.0267   -0.1207 O   0  0  0  0  0  0  0  0  0  0  0  0
   -0.7350   -0.9810   -0.0050 N   0  0  0  0  0  0  0  0  0  0  0  0
   -1.5886   -0.4593    0.1796 H   0  0  0  0  0  0  0  0  0  0  0  0
    0.5435   -0.2557   -0.0289 C   0  0  0  0  0  0  0  0  0  0  0  0
    1.2862   -0.7873   -0.6320 H   0  0  0  0  0  0  0  0  0  0  0  0
    0.3989    0.7228   -0.4959 H   0  0  0  0  0  0  0  0  0  0  0  0
    1.0955   -0.0418    1.3811 C   0  0  0  0  0  0  0  0  0  0  0  0
    0.7861    0.9579    2.0140 O   0  0  0  0  0  0  0  0  0  0  0  0
    1.9304   -0.9921    1.9337 N   0  0  0  0  0  0  0  0  0  0  0  0
    2.0031   -1.8755    1.4298 H   0  0  0  0  0  0  0  0  0  0  0  0
    2.4135   -0.9232    3.3063 C   0  0  0  0  0  0  0  0  0  0  0  0
    2.9461    0.0181    3.4787 H   0  0  0  0  0  0  0  0  0  0  0  0
    1.5775   -0.9893    4.0102 H   0  0  0  0  0  0  0  0  0  0  0  0
    3.1031   -1.7491    3.5060 H   0  0  0  0  0  0  0  0  0  0  0  0
  1  2  1  0  0  0  0
  2  3  1  0  0  0  0
  2  4  1  0  0  0  0
  2  5  1  0  0  0  0
  5  6  2  0  0  0  0
  5  7  1  0  0  0  0
  7  8  1  0  0  0  0
  7  9  1  0  0  0  0
  9 10  1  0  0  0  0
  9 11  1  0  0  0  0
  9 12  1  0  0  0  0
 12 13  2  0  0  0  0
 12 14  1  0  0  0  0
 14 15  1  0  0  0  0
 14 16  1  0  0  0  0
 16 17  1  0  0  0  0
 16 18  1  0  0  0  0
 16 19  1  0  0  0  0
M  END
$$$$

  -OEChem-01062216083D

 19 18  0     0  0  0  0  0  0999 V2000
   -2.0475   -4.1100   -0.0584 H   0  0  0  0  0  0  0  0  0  0  0  0
   -2.1560   -3.0281    0.0593 C   0  0  0  0  0  0  0  0  0  0  0  0
   -2.5535   -2.8203    1.0558 H   0  0  0  0  0  0  0  0  0  0  0  0
   -2.8615   -2.6622   -0.6907 H   0  0  0  0  0  0  0  0  0  0  0  0
   -0.8116   -2.3461   -0.1151 C   0  0  0  0  0  0  0  0  0  0  0  0
    0.1994   -3.0157   -0.2682 O   0  0  0  0  0  0  0  0  0  0  0  0
   -0.7233   -0.9693   -0.0570 N   0  0  0  0  0  0  0  0  0  0  0  0
   -1.5529   -0.4633    0.2452 H   0  0  0  0  0  0  0  0  0  0  0  0
    0.5588   -0.2502   -0.0661 C   0  0  0  0  0  0  0  0  0  0  0  0
    1.3049   -0.7828   -0.6638 H   0  0  0  0  0  0  0  0  0  0  0  0
    0.4229    0.7300   -0.5319 H   0  0  0  0  0  0  0  0  0  0  0  0
    1.0969   -0.0384    1.3508 C   0  0  0  0  0  0  0  0  0  0  0  0
    0.5740    0.7953    2.0775 O   0  0  0  0  0  0  0  0  0  0  0  0
    2.1502   -0.8031    1.8119 N   0  0  0  0  0  0  0  0  0  0  0  0
    2.4168   -1.6010    1.2387 H   0  0  0  0  0  0  0  0  0  0  0  0
    2.6395   -0.7321    3.1827 C   0  0  0  0  0  0  0  0  0  0  0  0
    2.9458    0.2903    3.4281 H   0  0  0  0  0  0  0  0  0  0  0  0
    1.8596   -1.0448    3.8848 H   0  0  0  0  0  0  0  0  0  0  0  0
    3.5052   -1.3892    3.3090 H   0  0  0  0  0  0  0  0  0  0  0  0
  1  2  1  0  0  0  0
  2  3  1  0  0  0  0
  2  4  1  0  0  0  0
  2  5  1  0  0  0  0
  5  6  2  0  0  0  0
  5  7  1  0  0  0  0
  7  8  1  0  0  0  0
  7  9  1  0  0  0  0
  9 10  1  0  0  0  0
  9 11  1  0  0  0  0
  9 12  1  0  0  0  0
 12 13  2  0  0  0  0
 12 14  1  0  0  0  0
 14 15  1  0  0  0  0
 14 16  1  0  0  0  0
 16 17  1  0  0  0  0
 16 18  1  0  0  0  0
 16 19  1  0  0  0  0
M  END
$$$$

  -OEChem-01062216083D

 19 18  0     0  0  0  0  0  0999 V2000
   -2.1299   -4.0399    0.1215 H   0  0  0  0  0  0  0  0  0  0  0  0
   -2.2061   -2.9491    0.1161 C   0  0  0  0  0  0  0  0  0  0  0  0
   -2.5976   -2.6195    1.0816 H   0  0  0  0  0  0  0  0  0  0  0  0
   -2.8992   -2.6484   -0.6732 H   0  0  0  0  0  0  0  0  0  0  0  0
   -0.8423   -2.3303   -0.1286 C   0  0  0  0  0  0  0  0  0  0  0  0
    0.1326   -3.0474   -0.2971 O   0  0  0  0  0  0  0  0  0  0  0  0
   -0.7004   -0.9568   -0.1264 N   0  0  0  0  0  0  0  0  0  0  0  0
   -1.4957   -0.4198    0.2130 H   0  0  0  0  0  0  0  0  0  0  0  0
    0.6123   -0.2939   -0.1232 C   0  0  0  0  0  0  0  0  0  0  0  0
    1.3503   -0.8869   -0.6722 H   0  0  0  0  0  0  0  0  0  0  0  0
    0.5359    0.6690   -0.6357 H   0  0  0  0  0  0  0  0  0  0  0  0
    1.1155   -0.0414    1.3016 C   0  0  0  0  0  0  0  0  0  0  0  0
    0.4388    0.6420    2.0582 O   0  0  0  0  0  0  0  0  0  0  0  0
    2.3067   -0.6010    1.7260 N   0  0  0  0  0  0  0  0  0  0  0  0
    2.7517   -1.2558    1.0877 H   0  0  0  0  0  0  0  0  0  0  0  0
    2.8353   -0.4968    3.0834 C   0  0  0  0  0  0  0  0  0  0  0  0
    2.1968    0.1162    3.7280 H   0  0  0  0  0  0  0  0  0  0  0  0
    2.9113   -1.4920    3.5324 H   0  0  0  0  0  0  0  0  0  0  0  0
    3.8307   -0.0425    3.0629 H   0  0  0  0  0  0  0  0  0  0  0  0
  1  2  1  0  0  0  0
  2  3  1  0  0  0  0
  2  4  1  0  0  0  0
  2  5  1  0  0  0  0
  5  6  2  0  0  0  0
  5  7  1  0  0  0  0
  7  8  1  0  0  0  0
  7  9  1  0  0  0  0
  9 10  1  0  0  0  0
  9 11  1  0  0  0  0
  9 12  1  0  0  0  0
 12 13  2  0  0  0  0
 12 14  1  0  0  0  0
 14 15  1  0  0  0  0
 14 16  1  0  0  0  0
 16 17  1  0  0  0  0
 16 18  1  0  0  0  0
 16 19  1  0  0  0  0
M  END
$$$$

  -OEChem-01062216083D

 19 18  0     0  0  0  0  0  0999 V2000
   -2.2446   -3.9441    0.2209 H   0  0  0  0  0  0  0  0  0  0  0  0
   -2.2607   -2.8515    0.1767 C   0  0  0  0  0  0  0  0  0  0  0  0
   -2.6090   -2.4656    1.1381 H   0  0  0  0  0  0  0  0  0  0  0  0
   -2.9557   -2.5403   -0.6070 H   0  0  0  0  0  0  0  0  0  0  0  0
   -0.8711   -2.3194   -0.1211 C   0  0  0  0  0  0  0  0  0  0  0  0
    0.0602   -3.0959   -0.2715 O   0  0  0  0  0  0  0  0  0  0  0  0
   -0.6609   -0.9565   -0.1951 N   0  0  0  0  0  0  0  0  0  0  0  0
   -1.4203   -0.3733    0.1503 H   0  0  0  0  0  0  0  0  0  0  0  0
    0.6855   -0.3636   -0.1880 C   0  0  0  0  0  0  0  0  0  0  0  0
    1.4048   -1.0300   -0.6738 H   0  0  0  0  0  0  0  0  0  0  0  0
    0.6763    0.5672   -0.7617 H   0  0  0  0  0  0  0  0  0  0  0  0
    1.1650   -0.0488    1.2342 C   0  0  0  0  0  0  0  0  0  0  0  0
    0.4013    0.4967    2.0209 O   0  0  0  0  0  0  0  0  0  0  0  0
    2.4466   -0.3761    1.6339 N   0  0  0  0  0  0  0  0  0  0  0  0
    2.9971   -0.9505    1.0013 H   0  0  0  0  0  0  0  0  0  0  0  0
    2.9216   -0.1875    2.9991 C   0  0  0  0  0  0  0  0  0  0  0  0
    2.3570   -0.8210    3.6912 H   0  0  0  0  0  0  0  0  0  0  0  0
    3.9811   -0.4515    3.0708 H   0  0  0  0  0  0  0  0  0  0  0  0
    2.8071    0.8579    3.3048 H   0  0  0  0  0  0  0  0  0  0  0  0
  1  2  1  0  0  0  0
  2  3  1  0  0  0  0
  2  4  1  0  0  0  0
  2  5  1  0  0  0  0
  5  6  2  0  0  0  0
  5  7  1  0  0  0  0
  7  8  1  0  0  0  0
  7  9  1  0  0  0  0
  9 10  1  0  0  0  0
  9 11  1  0  0  0  0
  9 12  1  0  0  0  0
 12 13  2  0  0  0  0
 12 14  1  0  0  0  0
 14 15  1  0  0  0  0
 14 16  1  0  0  0  0
 16 17  1  0  0  0  0
 16 18  1  0  0  0  0
 16 19  1  0  0  0  0
M  END
$$$$

  -OEChem-01062216083D

 19 18  0     0  0  0  0  0  0999 V2000
   -2.2618   -3.9513    0.1765 H   0  0  0  0  0  0  0  0  0  0  0  0
   -2.2694   -2.8578    0.1710 C   0  0  0  0  0  0  0  0  0  0  0  0
   -2.5978   -2.5029    1.1511 H   0  0  0  0  0  0  0  0  0  0  0  0
   -2.9751   -2.5143   -0.5893 H   0  0  0  0  0  0  0  0  0  0  0  0
   -0.8807   -2.3265   -0.1325 C   0  0  0  0  0  0  0  0  0  0  0  0
    0.0459   -3.1050   -0.3003 O   0  0  0  0  0  0  0  0  0  0  0  0
   -0.6716   -0.9633   -0.2088 N   0  0  0  0  0  0  0  0  0  0  0  0
   -1.4272   -0.3883    0.1578 H   0  0  0  0  0  0  0  0  0  0  0  0
    0.6754   -0.3706   -0.1794 C   0  0  0  0  0  0  0  0  0  0  0  0
    1.4019   -1.0422   -0.6470 H   0  0  0  0  0  0  0  0  0  0  0  0
    0.6757    0.5550   -0.7610 H   0  0  0  0  0  0  0  0  0  0  0  0
    1.1411   -0.0442    1.2463 C   0  0  0  0  0  0  0  0  0  0  0  0
    0.3218    0.2915    2.0929 O   0  0  0  0  0  0  0  0  0  0  0  0
    2.4841   -0.0802    1.5705 N   0  0  0  0  0  0  0  0  0  0  0  0
    3.1242   -0.4501    0.8735 H   0  0  0  0  0  0  0  0  0  0  0  0
    2.9836    0.1757    2.9159 C   0  0  0  0  0  0  0  0  0  0  0  0
    2.5929   -0.5688    3.6174 H   0  0  0  0  0  0  0  0  0  0  0  0
    4.0765    0.1252    2.9293 H   0  0  0  0  0  0  0  0  0  0  0  0
    2.6814    1.1723    3.2548 H   0  0  0  0  0  0  0  0  0  0  0  0
  1  2  1  0  0  0  0
  2  3  1  0  0  0  0
  2  4  1  0  0  0  0
  2  5  1  0  0  0  0
  5  6  2  0  0  0  0
  5  7  1  0  0  0  0
  7  8  1  0  0  0  0
  7  9  1  0  0  0  0
  9 10  1  0  0  0  0
  9 11  1  0  0  0  0
  9 12  1  0  0  0  0
 12 13  2  0  0  0  0
 12 14  1  0  0  0  0
 14 15  1  0  0  0  0
 14 16  1  0  0  0  0
 16 17  1  0  0  0  0
 16 18  1  0  0  0  0
 16 19  1  0  0  0  0
M  END
$$$$

  -OEChem-01062216083D

 19 18  0     0  0  0  0  0  0999 V2000
   -2.2646   -3.9540    0.1788 H   0  0  0  0  0  0  0  0  0  0  0  0
   -2.2708   -2.8605    0.1678 C   0  0  0  0  0  0  0  0  0  0  0  0
   -2.5945   -2.5005    1.1476 H   0  0  0  0  0  0  0  0  0  0  0  0
   -2.9794   -2.5198   -0.5909 H   0  0  0  0  0  0  0  0  0  0  0  0
   -0.8831   -2.3319   -0.1446 C   0  0  0  0  0  0  0  0  0  0  0  0
    0.0395   -3.1126   -0.3242 O   0  0  0  0  0  0  0  0  0  0  0  0
   -0.6743   -0.9688   -0.2257 N   0  0  0  0  0  0  0  0  0  0  0  0
   -1.4286   -0.3997    0.1520 H   0  0  0  0  0  0  0  0  0  0  0  0
    0.6743   -0.3804   -0.1711 C   0  0  0  0  0  0  0  0  0  0  0  0
    1.4090   -1.0577   -0.6170 H   0  0  0  0  0  0  0  0  0  0  0  0
    0.6881    0.5397   -0.7610 H   0  0  0  0  0  0  0  0  0  0  0  0
    1.1189   -0.0425    1.2596 C   0  0  0  0  0  0  0  0  0  0  0  0
    0.2870    0.0819    2.1505 O   0  0  0  0  0  0  0  0  0  0  0  0
    2.4487    0.2205    1.5293 N   0  0  0  0  0  0  0  0  0  0  0  0
    3.1210    0.0556    0.7859 H   0  0  0  0  0  0  0  0  0  0  0  0
    2.9411    0.5425    2.8632 C   0  0  0  0  0  0  0  0  0  0  0  0
    2.7406   -0.2826    3.5548 H   0  0  0  0  0  0  0  0  0  0  0  0
    4.0210    0.7170    2.8360 H   0  0  0  0  0  0  0  0  0  0  0  0
    2.4553    1.4475    3.2430 H   0  0  0  0  0  0  0  0  0  0  0  0
  1  2  1  0  0  0  0
  2  3  1  0  0  0  0
  2  4  1  0  0  0  0
  2  5  1  0  0  0  0
  5  6  2  0  0  0  0
  5  7  1  0  0  0  0
  7  8  1  0  0  0  0
  7  9  1  0  0  0  0
  9 10  1  0  0  0  0
  9 11  1  0  0  0  0
  9 12  1  0  0  0  0
 12 13  2  0  0  0  0
 12 14  1  0  0  0  0
 14 15  1  0  0  0  0
 14 16  1  0  0  0  0
 16 17  1  0  0  0  0
 16 18  1  0  0  0  0
 16 19  1  0  0  0  0
M  END
$$$$

  -OEChem-01062216083D

 19 18  0     0  0  0  0  0  0999 V2000
   -2.2141   -3.9670    0.1749 H   0  0  0  0  0  0  0  0  0  0  0  0
   -2.2312   -2.8741    0.2090 C   0  0  0  0  0  0  0  0  0  0  0  0
   -2.4827   -2.5577    1.2244 H   0  0  0  0  0  0  0  0  0  0  0  0
   -2.9974   -2.5116   -0.4802 H   0  0  0  0  0  0  0  0  0  0  0  0
   -0.8747   -2.3177   -0.1812 C   0  0  0  0  0  0  0  0  0  0  0  0
    0.0446   -3.0794   -0.4429 O   0  0  0  0  0  0  0  0  0  0  0  0
   -0.6917   -0.9500   -0.2630 N   0  0  0  0  0  0  0  0  0  0  0  0
   -1.4426   -0.4030    0.1498 H   0  0  0  0  0  0  0  0  0  0  0  0
    0.6595   -0.3690   -0.1894 C   0  0  0  0  0  0  0  0  0  0  0  0
    1.3389   -0.9208   -0.8465 H   0  0  0  0  0  0  0  0  0  0  0  0
    0.6240    0.6611   -0.5533 H   0  0  0  0  0  0  0  0  0  0  0  0
    1.2534   -0.3593    1.2298 C   0  0  0  0  0  0  0  0  0  0  0  0
    0.5603   -0.6443    2.1993 O   0  0  0  0  0  0  0  0  0  0  0  0
    2.5186    0.1575    1.4387 N   0  0  0  0  0  0  0  0  0  0  0  0
    3.0876    0.3527    0.6204 H   0  0  0  0  0  0  0  0  0  0  0  0
    3.1339    0.2461    2.7577 C   0  0  0  0  0  0  0  0  0  0  0  0
    3.2305   -0.7498    3.2026 H   0  0  0  0  0  0  0  0  0  0  0  0
    4.1313    0.6896    2.6808 H   0  0  0  0  0  0  0  0  0  0  0  0
    2.5291    0.8723    3.4221 H   0  0  0  0  0  0  0  0  0  0  0  0
  1  2  1  0  0  0  0
  2  3  1  0  0  0  0
  2  4  1  0  0  0  0
  2  5  1  0  0  0  0
  5  6  2  0  0  0  0
  5  7  1  0  0  0  0
  7  8  1  0  0  0  0
  7  9  1  0  0  0  0
  9 10  1  0  0  0  0
  9 11  1  0  0  0  0
  9 12  1  0  0  0  0
 12 13  2  0  0  0  0
 12 14  1  0  0  0  0
 14 15  1  0  0  0  0
 14 16  1  0  0  0  0
 16 17  1  0  0  0  0
 16 18  1  0  0  0  0
 16 19  1  0  0  0  0
M  END
$$$$

  -OEChem-01062216083D

 19 18  0     0  0  0  0  0  0999 V2000
   -2.2388   -3.9563    0.1381 H   0  0  0  0  0  0  0  0  0  0  0  0
   -2.2293   -2.8658    0.2185 C   0  0  0  0  0  0  0  0  0  0  0  0
   -2.4366   -2.5877    1.2549 H   0  0  0  0  0  0  0  0  0  0  0  0
   -3.0113   -2.4580   -0.4261 H   0  0  0  0  0  0  0  0  0  0  0  0
   -0.8745   -2.3229   -0.1964 C   0  0  0  0  0  0  0  0  0  0  0  0
    0.0310   -3.0934   -0.4792 O   0  0  0  0  0  0  0  0  0  0  0  0
   -0.6795   -0.9566   -0.2834 N   0  0  0  0  0  0  0  0  0  0  0  0
   -1.4311   -0.4037    0.1197 H   0  0  0  0  0  0  0  0  0  0  0  0
    0.6764   -0.3892   -0.1849 C   0  0  0  0  0  0  0  0  0  0  0  0
    1.3652   -0.9505   -0.8243 H   0  0  0  0  0  0  0  0  0  0  0  0
    0.6550    0.6376   -0.5584 H   0  0  0  0  0  0  0  0  0  0  0  0
    1.2461   -0.3733    1.2455 C   0  0  0  0  0  0  0  0  0  0  0  0
    0.6199   -0.8599    2.1792 O   0  0  0  0  0  0  0  0  0  0  0  0
    2.3580    0.3997    1.5256 N   0  0  0  0  0  0  0  0  0  0  0  0
    2.8698    0.7922    0.7411 H   0  0  0  0  0  0  0  0  0  0  0  0
    2.9141    0.5389    2.8667 C   0  0  0  0  0  0  0  0  0  0  0  0
    3.2205   -0.4372    3.2574 H   0  0  0  0  0  0  0  0  0  0  0  0
    3.7900    1.1943    2.8470 H   0  0  0  0  0  0  0  0  0  0  0  0
    2.1736    0.9739    3.5462 H   0  0  0  0  0  0  0  0  0  0  0  0
  1  2  1  0  0  0  0
  2  3  1  0  0  0  0
  2  4  1  0  0  0  0
  2  5  1  0  0  0  0
  5  6  2  0  0  0  0
  5  7  1  0  0  0  0
  7  8  1  0  0  0  0
  7  9  1  0  0  0  0
  9 10  1  0  0  0  0
  9 11  1  0  0  0  0
  9 12  1  0  0  0  0
 12 13  2  0  0  0  0
 12 14  1  0  0  0  0
 14 15  1  0  0  0  0
 14 16  1  0  0  0  0
 16 17  1  0  0  0  0
 16 18  1  0  0  0  0
 16 19  1  0  0  0  0
M  END
$$$$

  -OEChem-01062216083D

 19 18  0     0  0  0  0  0  0999 V2000
   -2.2403   -3.9580    0.1421 H   0  0  0  0  0  0  0  0  0  0  0  0
   -2.2380   -2.8660    0.2023 C   0  0  0  0  0  0  0  0  0  0  0  0
   -2.4683   -2.5704    1.2290 H   0  0  0  0  0  0  0  0  0  0  0  0
   -3.0082   -2.4744   -0.4664 H   0  0  0  0  0  0  0  0  0  0  0  0
   -0.8775   -2.3245   -0.1951 C   0  0  0  0  0  0  0  0  0  0  0  0
    0.0197   -3.0966   -0.4986 O   0  0  0  0  0  0  0  0  0  0  0  0
   -0.6763   -0.9579   -0.2706 N   0  0  0  0  0  0  0  0  0  0  0  0
   -1.4318   -0.4042    0.1231 H   0  0  0  0  0  0  0  0  0  0  0  0
    0.6808   -0.3947   -0.1593 C   0  0  0  0  0  0  0  0  0  0  0  0
    1.3728   -0.9537   -0.7975 H   0  0  0  0  0  0  0  0  0  0  0  0
    0.6620    0.6330   -0.5306 H   0  0  0  0  0  0  0  0  0  0  0  0
    1.2484   -0.3862    1.2727 C   0  0  0  0  0  0  0  0  0  0  0  0
    0.7557   -1.0767    2.1555 O   0  0  0  0  0  0  0  0  0  0  0  0
    2.1475    0.6001    1.6362 N   0  0  0  0  0  0  0  0  0  0  0  0
    2.5429    1.1741    0.8977 H   0  0  0  0  0  0  0  0  0  0  0  0
    2.6575    0.7551    2.9938 C   0  0  0  0  0  0  0  0  0  0  0  0
    3.1680   -0.1579    3.3180 H   0  0  0  0  0  0  0  0  0  0  0  0
    3.3704    1.5840    3.0375 H   0  0  0  0  0  0  0  0  0  0  0  0
    1.8386    0.9674    3.6893 H   0  0  0  0  0  0  0  0  0  0  0  0
  1  2  1  0  0  0  0
  2  3  1  0  0  0  0
  2  4  1  0  0  0  0
  2  5  1  0  0  0  0
  5  6  2  0  0  0  0
  5  7  1  0  0  0  0
  7  8  1  0  0  0  0
  7  9  1  0  0  0  0
  9 10  1  0  0  0  0
  9 11  1  0  0  0  0
  9 12  1  0  0  0  0
 12 13  2  0  0  0  0
 12 14  1  0  0  0  0
 14 15  1  0  0  0  0
 14 16  1  0  0  0  0
 16 17  1  0  0  0  0
 16 18  1  0  0  0  0
 16 19  1  0  0  0  0
M  END
$$$$

  -OEChem-01062216083D

 19 18  0     0  0  0  0  0  0999 V2000
   -2.2554   -3.9470    0.1309 H   0  0  0  0  0  0  0  0  0  0  0  0
   -2.2361   -2.8566    0.2113 C   0  0  0  0  0  0  0  0  0  0  0  0
   -2.4446   -2.5774    1.2470 H   0  0  0  0  0  0  0  0  0  0  0  0
   -3.0115   -2.4415   -0.4366 H   0  0  0  0  0  0  0  0  0  0  0  0
   -0.8743   -2.3275   -0.1990 C   0  0  0  0  0  0  0  0  0  0  0  0
    0.0072   -3.1070   -0.5267 O   0  0  0  0  0  0  0  0  0  0  0  0
   -0.6614   -0.9625   -0.2754 N   0  0  0  0  0  0  0  0  0  0  0  0
   -1.4195   -0.4020    0.1029 H   0  0  0  0  0  0  0  0  0  0  0  0
    0.6972   -0.4051   -0.1497 C   0  0  0  0  0  0  0  0  0  0  0  0
    1.3947   -0.9727   -0.7743 H   0  0  0  0  0  0  0  0  0  0  0  0
    0.6902    0.6192   -0.5307 H   0  0  0  0  0  0  0  0  0  0  0  0
    1.2467   -0.3948    1.2896 C   0  0  0  0  0  0  0  0  0  0  0  0
    0.9354   -1.2596    2.0968 O   0  0  0  0  0  0  0  0  0  0  0  0
    1.8867    0.7378    1.7607 N   0  0  0  0  0  0  0  0  0  0  0  0
    2.1245    1.4612    1.0890 H   0  0  0  0  0  0  0  0  0  0  0  0
    2.3393    0.8844    3.1395 C   0  0  0  0  0  0  0  0  0  0  0  0
    3.0498    0.0915    3.3960 H   0  0  0  0  0  0  0  0  0  0  0  0
    2.8359    1.8501    3.2740 H   0  0  0  0  0  0  0  0  0  0  0  0
    1.4904    0.8337    3.8295 H   0  0  0  0  0  0  0  0  0  0  0  0
  1  2  1  0  0  0  0
  2  3  1  0  0  0  0
  2  4  1  0  0  0  0
  2  5  1  0  0  0  0
  5  6  2  0  0  0  0
  5  7  1  0  0  0  0
  7  8  1  0  0  0  0
  7  9  1  0  0  0  0
  9 10  1  0  0  0  0
  9 11  1  0  0  0  0
  9 12  1  0  0  0  0
 12 13  2  0  0  0  0
 12 14  1  0  0  0  0
 14 15  1  0  0  0  0
 14 16  1  0  0  0  0
 16 17  1  0  0  0  0
 16 18  1  0  0  0  0
 16 19  1  0  0  0  0
M  END
$$$$

  -OEChem-01062216083D

 19 18  0     0  0  0  0  0  0999 V2000
   -2.2691   -3.9393    0.1284 H   0  0  0  0  0  0  0  0  0  0  0  0
   -2.2433   -2.8486    0.2052 C   0  0  0  0  0  0  0  0  0  0  0  0
   -2.4634   -2.5645    1.2372 H   0  0  0  0  0  0  0  0  0  0  0  0
   -3.0077   -2.4310   -0.4541 H   0  0  0  0  0  0  0  0  0  0  0  0
   -0.8732   -2.3301   -0.1909 C   0  0  0  0  0  0  0  0  0  0  0  0
    0.0010   -3.1162   -0.5196 O   0  0  0  0  0  0  0  0  0  0  0  0
   -0.6510   -0.9665   -0.2662 N   0  0  0  0  0  0  0  0  0  0  0  0
   -1.4161   -0.3976    0.0837 H   0  0  0  0  0  0  0  0  0  0  0  0
    0.7065   -0.4087   -0.1326 C   0  0  0  0  0  0  0  0  0  0  0  0
    1.4086   -0.9812   -0.7475 H   0  0  0  0  0  0  0  0  0  0  0  0
    0.7081    0.6133   -0.5191 H   0  0  0  0  0  0  0  0  0  0  0  0
    1.2394   -0.4000    1.3120 C   0  0  0  0  0  0  0  0  0  0  0  0
    1.1871   -1.3963    2.0175 O   0  0  0  0  0  0  0  0  0  0  0  0
    1.5871    0.8029    1.9009 N   0  0  0  0  0  0  0  0  0  0  0  0
    1.6151    1.6288    1.3113 H   0  0  0  0  0  0  0  0  0  0  0  0
    2.0201    0.9165    3.2893 C   0  0  0  0  0  0  0  0  0  0  0  0
    2.9225    0.3197    3.4590 H   0  0  0  0  0  0  0  0  0  0  0  0
    2.2444    1.9597    3.5317 H   0  0  0  0  0  0  0  0  0  0  0  0
    1.2341    0.5663    3.9668 H   0  0  0  0  0  0  0  0  0  0  0  0
  1  2  1  0  0  0  0
  2  3  1  0  0  0  0
  2  4  1  0  0  0  0
  2  5  1  0  0  0  0
  5  6  2  0  0  0  0
  5  7  1  0  0  0  0
  7  8  1  0  0  0  0
  7  9  1  0  0  0  0
  9 10  1  0  0  0  0
  9 11  1  0  0  0  0
  9 12  1  0  0  0  0
 12 13  2  0  0  0  0
 12 14  1  0  0  0  0
 14 15  1  0  0  0  0
 14 16  1  0  0  0  0
 16 17  1  0  0  0  0
 16 18  1  0  0  0  0
 16 19  1  0  0  0  0
M  END
$$$$

  -OEChem-01062216083D

 19 18  0     0  0  0  0  0  0999 V2000
   -2.3080   -3.9421    0.0757 H   0  0  0  0  0  0  0  0  0  0  0  0
   -2.2774   -2.8517    0.1564 C   0  0  0  0  0  0  0  0  0  0  0  0
   -2.5543   -2.5672    1.1743 H   0  0  0  0  0  0  0  0  0  0  0  0
   -2.9991   -2.4268   -0.5453 H   0  0  0  0  0  0  0  0  0  0  0  0
   -0.8822   -2.3444   -0.1593 C   0  0  0  0  0  0  0  0  0  0  0  0
    0.0022   -3.1394   -0.4296 O   0  0  0  0  0  0  0  0  0  0  0  0
   -0.6488   -0.9825   -0.2295 N   0  0  0  0  0  0  0  0  0  0  0  0
   -1.4278   -0.4004    0.0633 H   0  0  0  0  0  0  0  0  0  0  0  0
    0.7056   -0.4168   -0.0948 C   0  0  0  0  0  0  0  0  0  0  0  0
    1.4095   -0.9903   -0.7072 H   0  0  0  0  0  0  0  0  0  0  0  0
    0.7113    0.6051   -0.4822 H   0  0  0  0  0  0  0  0  0  0  0  0
    1.2339   -0.4097    1.3496 C   0  0  0  0  0  0  0  0  0  0  0  0
    1.5364   -1.4422    1.9263 O   0  0  0  0  0  0  0  0  0  0  0  0
    1.2769    0.7810    2.0530 N   0  0  0  0  0  0  0  0  0  0  0  0
    1.0288    1.6329    1.5600 H   0  0  0  0  0  0  0  0  0  0  0  0
    1.7369    0.8752    3.4339 C   0  0  0  0  0  0  0  0  0  0  0  0
    2.7764    0.5399    3.5148 H   0  0  0  0  0  0  0  0  0  0  0  0
    1.6791    1.9110    3.7821 H   0  0  0  0  0  0  0  0  0  0  0  0
    1.1149    0.2557    4.0887 H   0  0  0  0  0  0  0  0  0  0  0  0
  1  2  1  0  0  0  0
  2  3  1  0  0  0  0
  2  4  1  0  0  0  0
  2  5  1  0  0  0  0
  5  6  2  0  0  0  0
  5  7  1  0  0  0  0
  7  8  1  0  0  0  0
  7  9  1  0  0  0  0
  9 10  1  0  0  0  0
  9 11  1  0  0  0  0
  9 12  1  0  0  0  0
 12 13  2  0  0  0  0
 12 14  1  0  0  0  0
 14 15  1  0  0  0  0
 14 16  1  0  0  0  0
 16 17  1  0  0  0  0
 16 18  1  0  0  0  0
 16 19  1  0  0  0  0
M  END
$$$$

  -OEChem-01062216083D

 19 18  0     0  0  0  0  0  0999 V2000
   -2.2133   -4.0366    0.0763 H   0  0  0  0  0  0  0  0  0  0  0  0
   -2.2551   -2.9436    0.0712 C   0  0  0  0  0  0  0  0  0  0  0  0
   -2.6519   -2.6037    1.0307 H   0  0  0  0  0  0  0  0  0  0  0  0
   -2.9250   -2.6212   -0.7294 H   0  0  0  0  0  0  0  0  0  0  0  0
   -0.8674   -2.3692   -0.1490 C   0  0  0  0  0  0  0  0  0  0  0  0
    0.0665   -3.1193   -0.3714 O   0  0  0  0  0  0  0  0  0  0  0  0
   -0.6900   -0.9976   -0.1556 N   0  0  0  0  0  0  0  0  0  0  0  0
   -1.5073   -0.4464    0.0878 H   0  0  0  0  0  0  0  0  0  0  0  0
    0.6345   -0.3585   -0.0512 C   0  0  0  0  0  0  0  0  0  0  0  0
    1.3381   -0.8598   -0.7250 H   0  0  0  0  0  0  0  0  0  0  0  0
    0.5679    0.6808   -0.3823 H   0  0  0  0  0  0  0  0  0  0  0  0
    1.2289   -0.3930    1.3657 C   0  0  0  0  0  0  0  0  0  0  0  0
    1.9793   -1.2909    1.7111 O   0  0  0  0  0  0  0  0  0  0  0  0
    0.9588    0.6498    2.2369 N   0  0  0  0  0  0  0  0  0  0  0  0
    0.3521    1.3899    1.8993 H   0  0  0  0  0  0  0  0  0  0  0  0
    1.4948    0.7610    3.5923 C   0  0  0  0  0  0  0  0  0  0  0  0
    2.1593   -0.0720    3.8444 H   0  0  0  0  0  0  0  0  0  0  0  0
    2.0664    1.6887    3.6933 H   0  0  0  0  0  0  0  0  0  0  0  0
    0.6766    0.7700    4.3188 H   0  0  0  0  0  0  0  0  0  0  0  0
  1  2  1  0  0  0  0
  2  3  1  0  0  0  0
  2  4  1  0  0  0  0
  2  5  1  0  0  0  0
  5  6  2  0  0  0  0
  5  7  1  0  0  0  0
  7  8  1  0  0  0  0
  7  9  1  0  0  0  0
  9 10  1  0  0  0  0
  9 11  1  0  0  0  0
  9 12  1  0  0  0  0
 12 13  2  0  0  0  0
 12 14  1  0  0  0  0
 14 15  1  0  0  0  0
 14 16  1  0  0  0  0
 16 17  1  0  0  0  0
 16 18  1  0  0  0  0
 16 19  1  0  0  0  0
M  END
$$$$

  -OEChem-01062216083D

 19 18  0     0  0  0  0  0  0999 V2000
   -2.1131   -4.1278   -0.0777 H   0  0  0  0  0  0  0  0  0  0  0  0
   -2.2172   -3.0398   -0.0327 C   0  0  0  0  0  0  0  0  0  0  0  0
   -2.7137   -2.7735    0.9033 H   0  0  0  0  0  0  0  0  0  0  0  0
   -2.8334   -2.7107   -0.8728 H   0  0  0  0  0  0  0  0  0  0  0  0
   -0.8510   -2.3825   -0.1019 C   0  0  0  0  0  0  0  0  0  0  0  0
    0.1452   -3.0733   -0.2177 O   0  0  0  0  0  0  0  0  0  0  0  0
   -0.7520   -1.0044   -0.0602 N   0  0  0  0  0  0  0  0  0  0  0  0
   -1.6184   -0.4860    0.0486 H   0  0  0  0  0  0  0  0  0  0  0  0
    0.5277   -0.2743   -0.0032 C   0  0  0  0  0  0  0  0  0  0  0  0
    1.2209   -0.6957   -0.7397 H   0  0  0  0  0  0  0  0  0  0  0  0
    0.3680    0.7715   -0.2775 H   0  0  0  0  0  0  0  0  0  0  0  0
    1.2064   -0.3201    1.3734 C   0  0  0  0  0  0  0  0  0  0  0  0
    2.2745   -0.8916    1.5276 O   0  0  0  0  0  0  0  0  0  0  0  0
    0.7054    0.4521    2.4059 N   0  0  0  0  0  0  0  0  0  0  0  0
   -0.1747    0.9323    2.2519 H   0  0  0  0  0  0  0  0  0  0  0  0
    1.3262    0.5190    3.7233 C   0  0  0  0  0  0  0  0  0  0  0  0
    1.3319   -0.4700    4.1934 H   0  0  0  0  0  0  0  0  0  0  0  0
    2.3581    0.8770    3.6440 H   0  0  0  0  0  0  0  0  0  0  0  0
    0.7720    1.2068    4.3688 H   0  0  0  0  0  0  0  0  0  0  0  0
  1  2  1  0  0  0  0
  2  3  1  0  0  0  0
  2  4  1  0  0  0  0
  2  5  1  0  0  0  0
  5  6  2  0  0  0  0
  5  7  1  0  0  0  0
  7  8  1  0  0  0  0
  7  9  1  0  0  0  0
  9 10  1  0  0  0  0
  9 11  1  0  0  0  0
  9 12  1  0  0  0  0
 12 13  2  0  0  0  0
 12 14  1  0  0  0  0
 14 15  1  0  0  0  0
 14 16  1  0  0  0  0
 16 17  1  0  0  0  0
 16 18  1  0  0  0  0
 16 19  1  0  0  0  0
M  END
$$$$

  -OEChem-01062216083D

 19 18  0     0  0  0  0  0  0999 V2000
   -2.1313   -4.1428   -0.0752 H   0  0  0  0  0  0  0  0  0  0  0  0
   -2.2401   -3.0559   -0.1328 C   0  0  0  0  0  0  0  0  0  0  0  0
   -2.8822   -2.7243    0.6867 H   0  0  0  0  0  0  0  0  0  0  0  0
   -2.7116   -2.8001   -1.0847 H   0  0  0  0  0  0  0  0  0  0  0  0
   -0.8798   -2.3903   -0.0319 C   0  0  0  0  0  0  0  0  0  0  0  0
    0.1269   -3.0749    0.0009 O   0  0  0  0  0  0  0  0  0  0  0  0
   -0.7912   -1.0117    0.0115 N   0  0  0  0  0  0  0  0  0  0  0  0
   -1.6582   -0.4909   -0.0843 H   0  0  0  0  0  0  0  0  0  0  0  0
    0.4847   -0.2727    0.0401 C   0  0  0  0  0  0  0  0  0  0  0  0
    1.1610   -0.6826   -0.7181 H   0  0  0  0  0  0  0  0  0  0  0  0
    0.3072    0.7744   -0.2178 H   0  0  0  0  0  0  0  0  0  0  0  0
    1.2022   -0.3148    1.3963 C   0  0  0  0  0  0  0  0  0  0  0  0
    2.3935   -0.5800    1.4542 O   0  0  0  0  0  0  0  0  0  0  0  0
    0.5710    0.1876    2.5196 N   0  0  0  0  0  0  0  0  0  0  0  0
   -0.4250    0.3666    2.4507 H   0  0  0  0  0  0  0  0  0  0  0  0
    1.2094    0.2453    3.8290 C   0  0  0  0  0  0  0  0  0  0  0  0
    1.4618   -0.7622    4.1761 H   0  0  0  0  0  0  0  0  0  0  0  0
    2.1267    0.8420    3.7831 H   0  0  0  0  0  0  0  0  0  0  0  0
    0.5363    0.7058    4.5584 H   0  0  0  0  0  0  0  0  0  0  0  0
  1  2  1  0  0  0  0
  2  3  1  0  0  0  0
  2  4  1  0  0  0  0
  2  5  1  0  0  0  0
  5  6  2  0  0  0  0
  5  7  1  0  0  0  0
  7  8  1  0  0  0  0
  7  9  1  0  0  0  0
  9 10  1  0  0  0  0
  9 11  1  0  0  0  0
  9 12  1  0  0  0  0
 12 13  2  0  0  0  0
 12 14  1  0  0  0  0
 14 15  1  0  0  0  0
 14 16  1  0  0  0  0
 16 17  1  0  0  0  0
 16 18  1  0  0  0  0
 16 19  1  0  0  0  0
M  END
$$$$

  -OEChem-01062216083D

 19 18  0     0  0  0  0  0  0999 V2000
   -2.2791   -4.0754   -0.1713 H   0  0  0  0  0  0  0  0  0  0  0  0
   -2.3318   -2.9829   -0.1465 C   0  0  0  0  0  0  0  0  0  0  0  0
   -2.9663   -2.6806    0.6901 H   0  0  0  0  0  0  0  0  0  0  0  0
   -2.7782   -2.6326   -1.0803 H   0  0  0  0  0  0  0  0  0  0  0  0
   -0.9412   -2.3972    0.0177 C   0  0  0  0  0  0  0  0  0  0  0  0
    0.0154   -3.1377    0.1606 O   0  0  0  0  0  0  0  0  0  0  0  0
   -0.7668   -1.0262    0.0101 N   0  0  0  0  0  0  0  0  0  0  0  0
   -1.5838   -0.4609   -0.2040 H   0  0  0  0  0  0  0  0  0  0  0  0
    0.5565   -0.3741    0.0358 C   0  0  0  0  0  0  0  0  0  0  0  0
    1.2151   -0.8565   -0.6946 H   0  0  0  0  0  0  0  0  0  0  0  0
    0.4522    0.6724   -0.2620 H   0  0  0  0  0  0  0  0  0  0  0  0
    1.2528   -0.4074    1.4036 C   0  0  0  0  0  0  0  0  0  0  0  0
    2.4713   -0.4848    1.4541 O   0  0  0  0  0  0  0  0  0  0  0  0
    0.5309   -0.1071    2.5460 N   0  0  0  0  0  0  0  0  0  0  0  0
   -0.4780   -0.0760    2.4443 H   0  0  0  0  0  0  0  0  0  0  0  0
    1.0955   -0.0390    3.8916 C   0  0  0  0  0  0  0  0  0  0  0  0
    2.1741   -0.2280    3.8960 H   0  0  0  0  0  0  0  0  0  0  0  0
    0.9246    0.9535    4.3195 H   0  0  0  0  0  0  0  0  0  0  0  0
    0.6211   -0.7872    4.5340 H   0  0  0  0  0  0  0  0  0  0  0  0
  1  2  1  0  0  0  0
  2  3  1  0  0  0  0
  2  4  1  0  0  0  0
  2  5  1  0  0  0  0
  5  6  2  0  0  0  0
  5  7  1  0  0  0  0
  7  8  1  0  0  0  0
  7  9  1  0  0  0  0
  9 10  1  0  0  0  0
  9 11  1  0  0  0  0
  9 12  1  0  0  0  0
 12 13  2  0  0  0  0
 12 14  1  0  0  0  0
 14 15  1  0  0  0  0
 14 16  1  0  0  0  0
 16 17  1  0  0  0  0
 16 18  1  0  0  0  0
 16 19  1  0  0  0  0
M  END
$$$$

  -OEChem-01062216083D

 19 18  0     0  0  0  0  0  0999 V2000
   -2.4146   -4.0018   -0.0515 H   0  0  0  0  0  0  0  0  0  0  0  0
   -2.4016   -2.9123   -0.1477 C   0  0  0  0  0  0  0  0  0  0  0  0
   -3.0710   -2.4856    0.6030 H   0  0  0  0  0  0  0  0  0  0  0  0
   -2.7616   -2.6436   -1.1438 H   0  0  0  0  0  0  0  0  0  0  0  0
   -0.9920   -2.3878    0.0536 C   0  0  0  0  0  0  0  0  0  0  0  0
   -0.0830   -3.1631    0.2920 O   0  0  0  0  0  0  0  0  0  0  0  0
   -0.7464   -1.0295   -0.0099 N   0  0  0  0  0  0  0  0  0  0  0  0
   -1.5220   -0.4351   -0.2902 H   0  0  0  0  0  0  0  0  0  0  0  0
    0.6094   -0.4470    0.0260 C   0  0  0  0  0  0  0  0  0  0  0  0
    1.2607   -0.9955   -0.6627 H   0  0  0  0  0  0  0  0  0  0  0  0
    0.5670    0.5893   -0.3196 H   0  0  0  0  0  0  0  0  0  0  0  0
    1.2729   -0.4498    1.4102 C   0  0  0  0  0  0  0  0  0  0  0  0
    2.4879   -0.3455    1.4935 O   0  0  0  0  0  0  0  0  0  0  0  0
    0.5031   -0.3662    2.5555 N   0  0  0  0  0  0  0  0  0  0  0  0
   -0.4864   -0.5613    2.4452 H   0  0  0  0  0  0  0  0  0  0  0  0
    1.0776   -0.3870    3.8946 C   0  0  0  0  0  0  0  0  0  0  0  0
    1.7686    0.4518    4.0288 H   0  0  0  0  0  0  0  0  0  0  0  0
    0.2873   -0.3049    4.6467 H   0  0  0  0  0  0  0  0  0  0  0  0
    1.6220   -1.3222    4.0626 H   0  0  0  0  0  0  0  0  0  0  0  0
  1  2  1  0  0  0  0
  2  3  1  0  0  0  0
  2  4  1  0  0  0  0
  2  5  1  0  0  0  0
  5  6  2  0  0  0  0
  5  7  1  0  0  0  0
  7  8  1  0  0  0  0
  7  9  1  0  0  0  0
  9 10  1  0  0  0  0
  9 11  1  0  0  0  0
  9 12  1  0  0  0  0
 12 13  2  0  0  0  0
 12 14  1  0  0  0  0
 14 15  1  0  0  0  0
 14 16  1  0  0  0  0
 16 17  1  0  0  0  0
 16 18  1  0  0  0  0
 16 19  1  0  0  0  0
M  END
$$$$

  -OEChem-01062216083D

 19 18  0     0  0  0  0  0  0999 V2000
   -2.4525   -3.9905   -0.0325 H   0  0  0  0  0  0  0  0  0  0  0  0
   -2.4216   -2.9083   -0.1895 C   0  0  0  0  0  0  0  0  0  0  0  0
   -3.1202   -2.4332    0.5034 H   0  0  0  0  0  0  0  0  0  0  0  0
   -2.7322   -2.6933   -1.2149 H   0  0  0  0  0  0  0  0  0  0  0  0
   -1.0162   -2.3862    0.0467 C   0  0  0  0  0  0  0  0  0  0  0  0
   -0.1142   -3.1609    0.3132 O   0  0  0  0  0  0  0  0  0  0  0  0
   -0.7662   -1.0286   -0.0033 N   0  0  0  0  0  0  0  0  0  0  0  0
   -1.5390   -0.4300   -0.2829 H   0  0  0  0  0  0  0  0  0  0  0  0
    0.5903   -0.4462    0.0348 C   0  0  0  0  0  0  0  0  0  0  0  0
    1.2372   -0.9878   -0.6631 H   0  0  0  0  0  0  0  0  0  0  0  0
    0.5432    0.5928   -0.3026 H   0  0  0  0  0  0  0  0  0  0  0  0
    1.2731   -0.4552    1.4105 C   0  0  0  0  0  0  0  0  0  0  0  0
    2.4384   -0.0953    1.4945 O   0  0  0  0  0  0  0  0  0  0  0  0
    0.5482   -0.6891    2.5641 N   0  0  0  0  0  0  0  0  0  0  0  0
   -0.3554   -1.1326    2.4334 H   0  0  0  0  0  0  0  0  0  0  0  0
    1.1661   -0.7410    3.8831 C   0  0  0  0  0  0  0  0  0  0  0  0
    1.6520    0.2122    4.1167 H   0  0  0  0  0  0  0  0  0  0  0  0
    0.4091   -0.9370    4.6484 H   0  0  0  0  0  0  0  0  0  0  0  0
    1.9160   -1.5381    3.9235 H   0  0  0  0  0  0  0  0  0  0  0  0
  1  2  1  0  0  0  0
  2  3  1  0  0  0  0
  2  4  1  0  0  0  0
  2  5  1  0  0  0  0
  5  6  2  0  0  0  0
  5  7  1  0  0  0  0
  7  8  1  0  0  0  0
  7  9  1  0  0  0  0
  9 10  1  0  0  0  0
  9 11  1  0  0  0  0
  9 12  1  0  0  0  0
 12 13  2  0  0  0  0
 12 14  1  0  0  0  0
 14 15  1  0  0  0  0
 14 16  1  0  0  0  0
 16 17  1  0  0  0  0
 16 18  1  0  0  0  0
 16 19  1  0  0  0  0
M  END
$$$$

  -OEChem-01062216083D

 19 18  0     0  0  0  0  0  0999 V2000
   -2.4735   -3.9842   -0.1014 H   0  0  0  0  0  0  0  0  0  0  0  0
   -2.4413   -2.8968   -0.2158 C   0  0  0  0  0  0  0  0  0  0  0  0
   -3.1406   -2.4475    0.4936 H   0  0  0  0  0  0  0  0  0  0  0  0
   -2.7496   -2.6418   -1.2327 H   0  0  0  0  0  0  0  0  0  0  0  0
   -1.0362   -2.3853    0.0430 C   0  0  0  0  0  0  0  0  0  0  0  0
   -0.1474   -3.1629    0.3447 O   0  0  0  0  0  0  0  0  0  0  0  0
   -0.7737   -1.0307   -0.0004 N   0  0  0  0  0  0  0  0  0  0  0  0
   -1.5439   -0.4236   -0.2689 H   0  0  0  0  0  0  0  0  0  0  0  0
    0.5852   -0.4530    0.0383 C   0  0  0  0  0  0  0  0  0  0  0  0
    1.2270   -0.9942   -0.6642 H   0  0  0  0  0  0  0  0  0  0  0  0
    0.5390    0.5869   -0.2969 H   0  0  0  0  0  0  0  0  0  0  0  0
    1.2801   -0.4663    1.4088 C   0  0  0  0  0  0  0  0  0  0  0  0
    2.3441    0.1233    1.5324 O   0  0  0  0  0  0  0  0  0  0  0  0
    0.6579   -0.9929    2.5245 N   0  0  0  0  0  0  0  0  0  0  0  0
   -0.0875   -1.6549    2.3247 H   0  0  0  0  0  0  0  0  0  0  0  0
    1.3132   -1.0651    3.8241 C   0  0  0  0  0  0  0  0  0  0  0  0
    1.5902   -0.0639    4.1704 H   0  0  0  0  0  0  0  0  0  0  0  0
    0.6394   -1.5095    4.5626 H   0  0  0  0  0  0  0  0  0  0  0  0
    2.2175   -1.6795    3.7632 H   0  0  0  0  0  0  0  0  0  0  0  0
  1  2  1  0  0  0  0
  2  3  1  0  0  0  0
  2  4  1  0  0  0  0
  2  5  1  0  0  0  0
  5  6  2  0  0  0  0
  5  7  1  0  0  0  0
  7  8  1  0  0  0  0
  7  9  1  0  0  0  0
  9 10  1  0  0  0  0
  9 11  1  0  0  0  0
  9 12  1  0  0  0  0
 12 13  2  0  0  0  0
 12 14  1  0  0  0  0
 14 15  1  0  0  0  0
 14 16  1  0  0  0  0
 16 17  1  0  0  0  0
 16 18  1  0  0  0  0
 16 19  1  0  0  0  0
M  END
$$$$

  -OEChem-01062216083D

 19 18  0     0  0  0  0  0  0999 V2000
   -2.4888   -3.9717   -0.0757 H   0  0  0  0  0  0  0  0  0  0  0  0
   -2.4505   -2.8848   -0.1929 C   0  0  0  0  0  0  0  0  0  0  0  0
   -3.1260   -2.4288    0.5351 H   0  0  0  0  0  0  0  0  0  0  0  0
   -2.7852   -2.6286   -1.2011 H   0  0  0  0  0  0  0  0  0  0  0  0
   -1.0347   -2.3847    0.0262 C   0  0  0  0  0  0  0  0  0  0  0  0
   -0.1424   -3.1704    0.2992 O   0  0  0  0  0  0  0  0  0  0  0  0
   -0.7653   -1.0312   -0.0077 N   0  0  0  0  0  0  0  0  0  0  0  0
   -1.5443   -0.4141   -0.2223 H   0  0  0  0  0  0  0  0  0  0  0  0
    0.5921   -0.4496    0.0276 C   0  0  0  0  0  0  0  0  0  0  0  0
    1.2314   -0.9839   -0.6823 H   0  0  0  0  0  0  0  0  0  0  0  0
    0.5410    0.5924   -0.3012 H   0  0  0  0  0  0  0  0  0  0  0  0
    1.2932   -0.4728    1.3953 C   0  0  0  0  0  0  0  0  0  0  0  0
    2.2107    0.3091    1.5997 O   0  0  0  0  0  0  0  0  0  0  0  0
    0.8281   -1.2666    2.4258 N   0  0  0  0  0  0  0  0  0  0  0  0
    0.2521   -2.0529    2.1267 H   0  0  0  0  0  0  0  0  0  0  0  0
    1.5057   -1.3587    3.7124 C   0  0  0  0  0  0  0  0  0  0  0  0
    1.5576   -0.3746    4.1896 H   0  0  0  0  0  0  0  0  0  0  0  0
    0.9605   -2.0347    4.3779 H   0  0  0  0  0  0  0  0  0  0  0  0
    2.5233   -1.7417    3.5838 H   0  0  0  0  0  0  0  0  0  0  0  0
  1  2  1  0  0  0  0
  2  3  1  0  0  0  0
  2  4  1  0  0  0  0
  2  5  1  0  0  0  0
  5  6  2  0  0  0  0
  5  7  1  0  0  0  0
  7  8  1  0  0  0  0
  7  9  1  0  0  0  0
  9 10  1  0  0  0  0
  9 11  1  0  0  0  0
  9 12  1  0  0  0  0
 12 13  2  0  0  0  0
 12 14  1  0  0  0  0
 14 15  1  0  0  0  0
 14 16  1  0  0  0  0
 16 17  1  0  0  0  0
 16 18  1  0  0  0  0
 16 19  1  0  0  0  0
M  END
$$$$

  -OEChem-01062216083D

 19 18  0     0  0  0  0  0  0999 V2000
   -2.4672   -3.9741   -0.0811 H   0  0  0  0  0  0  0  0  0  0  0  0
   -2.4398   -2.8827   -0.1487 C   0  0  0  0  0  0  0  0  0  0  0  0
   -3.0661   -2.4652    0.6435 H   0  0  0  0  0  0  0  0  0  0  0  0
   -2.8418   -2.5809   -1.1189 H   0  0  0  0  0  0  0  0  0  0  0  0
   -1.0138   -2.3854   -0.0006 C   0  0  0  0  0  0  0  0  0  0  0  0
   -0.1064   -3.1778    0.1972 O   0  0  0  0  0  0  0  0  0  0  0  0
   -0.7469   -1.0309   -0.0299 N   0  0  0  0  0  0  0  0  0  0  0  0
   -1.5394   -0.4069   -0.1587 H   0  0  0  0  0  0  0  0  0  0  0  0
    0.6063   -0.4411    0.0096 C   0  0  0  0  0  0  0  0  0  0  0  0
    1.2515   -0.9699   -0.6987 H   0  0  0  0  0  0  0  0  0  0  0  0
    0.5507    0.6007   -0.3197 H   0  0  0  0  0  0  0  0  0  0  0  0
    1.2978   -0.4669    1.3822 C   0  0  0  0  0  0  0  0  0  0  0  0
    2.0449    0.4516    1.6878 O   0  0  0  0  0  0  0  0  0  0  0  0
    1.0347   -1.4688    2.2956 N   0  0  0  0  0  0  0  0  0  0  0  0
    0.5837   -2.2989    1.9066 H   0  0  0  0  0  0  0  0  0  0  0  0
    1.7396   -1.5902    3.5647 C   0  0  0  0  0  0  0  0  0  0  0  0
    1.6296   -0.6743    4.1548 H   0  0  0  0  0  0  0  0  0  0  0  0
    1.3306   -2.4230    4.1445 H   0  0  0  0  0  0  0  0  0  0  0  0
    2.8053   -1.7741    3.3941 H   0  0  0  0  0  0  0  0  0  0  0  0
  1  2  1  0  0  0  0
  2  3  1  0  0  0  0
  2  4  1  0  0  0  0
  2  5  1  0  0  0  0
  5  6  2  0  0  0  0
  5  7  1  0  0  0  0
  7  8  1  0  0  0  0
  7  9  1  0  0  0  0
  9 10  1  0  0  0  0
  9 11  1  0  0  0  0
  9 12  1  0  0  0  0
 12 13  2  0  0  0  0
 12 14  1  0  0  0  0
 14 15  1  0  0  0  0
 14 16  1  0  0  0  0
 16 17  1  0  0  0  0
 16 18  1  0  0  0  0
 16 19  1  0  0  0  0
M  END
$$$$

  -OEChem-01062216083D

 19 18  0     0  0  0  0  0  0999 V2000
   -2.4318   -3.9739   -0.0420 H   0  0  0  0  0  0  0  0  0  0  0  0
   -2.4131   -2.8810   -0.0789 C   0  0  0  0  0  0  0  0  0  0  0  0
   -2.9755   -2.4908    0.7728 H   0  0  0  0  0  0  0  0  0  0  0  0
   -2.8918   -2.5529   -1.0048 H   0  0  0  0  0  0  0  0  0  0  0  0
   -0.9815   -2.3808   -0.0288 C   0  0  0  0  0  0  0  0  0  0  0  0
   -0.0593   -3.1752    0.0746 O   0  0  0  0  0  0  0  0  0  0  0  0
   -0.7221   -1.0244   -0.0559 N   0  0  0  0  0  0  0  0  0  0  0  0
   -1.5238   -0.3994   -0.0816 H   0  0  0  0  0  0  0  0  0  0  0  0
    0.6281   -0.4300   -0.0236 C   0  0  0  0  0  0  0  0  0  0  0  0
    1.2739   -0.9526   -0.7360 H   0  0  0  0  0  0  0  0  0  0  0  0
    0.5684    0.6132   -0.3480 H   0  0  0  0  0  0  0  0  0  0  0  0
    1.3137   -0.4649    1.3507 C   0  0  0  0  0  0  0  0  0  0  0  0
    1.8643    0.5420    1.7728 O   0  0  0  0  0  0  0  0  0  0  0  0
    1.2909   -1.6091    2.1228 N   0  0  0  0  0  0  0  0  0  0  0  0
    0.9262   -2.4485    1.6665 H   0  0  0  0  0  0  0  0  0  0  0  0
    1.9923   -1.7384    3.3925 C   0  0  0  0  0  0  0  0  0  0  0  0
    1.6510   -0.9741    4.0983 H   0  0  0  0  0  0  0  0  0  0  0  0
    1.8001   -2.7224    3.8308 H   0  0  0  0  0  0  0  0  0  0  0  0
    3.0717   -1.6274    3.2465 H   0  0  0  0  0  0  0  0  0  0  0  0
  1  2  1  0  0  0  0
  2  3  1  0  0  0  0
  2  4  1  0  0  0  0
  2  5  1  0  0  0  0
  5  6  2  0  0  0  0
  5  7  1  0  0  0  0
  7  8  1  0  0  0  0
  7  9  1  0  0  0  0
  9 10  1  0  0  0  0
  9 11  1  0  0  0  0
  9 12  1  0  0  0  0
 12 13  2  0  0  0  0
 12 14  1  0  0  0  0
 14 15  1  0  0  0  0
 14 16  1  0  0  0  0
 16 17  1  0  0  0  0
 16 18  1  0  0  0  0
 16 19  1  0  0  0  0
M  END
$$$$

  -OEChem-01062216083D

 19 18  0     0  0  0  0  0  0999 V2000
   -2.2435   -4.0489   -0.0256 H   0  0  0  0  0  0  0  0  0  0  0  0
   -2.2961   -2.9565   -0.0290 C   0  0  0  0  0  0  0  0  0  0  0  0
   -2.8129   -2.6268    0.8756 H   0  0  0  0  0  0  0  0  0  0  0  0
   -2.8656   -2.6347   -0.9042 H   0  0  0  0  0  0  0  0  0  0  0  0
   -0.8993   -2.3658   -0.0741 C   0  0  0  0  0  0  0  0  0  0  0  0
    0.0761   -3.1016   -0.1046 O   0  0  0  0  0  0  0  0  0  0  0  0
   -0.7275   -0.9954   -0.0440 N   0  0  0  0  0  0  0  0  0  0  0  0
   -1.5609   -0.4251    0.0761 H   0  0  0  0  0  0  0  0  0  0  0  0
    0.5865   -0.3277   -0.0177 C   0  0  0  0  0  0  0  0  0  0  0  0
    1.2455   -0.7749   -0.7684 H   0  0  0  0  0  0  0  0  0  0  0  0
    0.4624    0.7256   -0.2868 H   0  0  0  0  0  0  0  0  0  0  0  0
    1.2893   -0.3995    1.3449 C   0  0  0  0  0  0  0  0  0  0  0  0
    1.5553    0.6358    1.9382 O   0  0  0  0  0  0  0  0  0  0  0  0
    1.5990   -1.6281    1.8958 N   0  0  0  0  0  0  0  0  0  0  0  0
    1.3230   -2.4450    1.3451 H   0  0  0  0  0  0  0  0  0  0  0  0
    2.2460   -1.8359    3.1869 C   0  0  0  0  0  0  0  0  0  0  0  0
    2.4650   -0.8896    3.6922 H   0  0  0  0  0  0  0  0  0  0  0  0
    1.5955   -2.4258    3.8399 H   0  0  0  0  0  0  0  0  0  0  0  0
    3.1893   -2.3733    3.0497 H   0  0  0  0  0  0  0  0  0  0  0  0
  1  2  1  0  0  0  0
  2  3  1  0  0  0  0
  2  4  1  0  0  0  0
  2  5  1  0  0  0  0
  5  6  2  0  0  0  0
  5  7  1  0  0  0  0
  7  8  1  0  0  0  0
  7  9  1  0  0  0  0
  9 10  1  0  0  0  0
  9 11  1  0  0  0  0
  9 12  1  0  0  0  0
 12 13  2  0  0  0  0
 12 14  1  0  0  0  0
 14 15  1  0  0  0  0
 14 16  1  0  0  0  0
 16 17  1  0  0  0  0
 16 18  1  0  0  0  0
 16 19  1  0  0  0  0
M  END
$$$$

  -OEChem-01062216083D

 19 18  0     0  0  0  0  0  0999 V2000
   -2.0780   -4.1240   -0.0787 H   0  0  0  0  0  0  0  0  0  0  0  0
   -2.1923   -3.0371   -0.0331 C   0  0  0  0  0  0  0  0  0  0  0  0
   -2.6940   -2.7753    0.9017 H   0  0  0  0  0  0  0  0  0  0  0  0
   -2.8103   -2.7129   -0.8741 H   0  0  0  0  0  0  0  0  0  0  0  0
   -0.8337   -2.3642   -0.0983 C   0  0  0  0  0  0  0  0  0  0  0  0
    0.1820   -3.0384   -0.1939 O   0  0  0  0  0  0  0  0  0  0  0  0
   -0.7395   -0.9885   -0.0172 N   0  0  0  0  0  0  0  0  0  0  0  0
   -1.5943   -0.4707    0.1712 H   0  0  0  0  0  0  0  0  0  0  0  0
    0.5418   -0.2640    0.0056 C   0  0  0  0  0  0  0  0  0  0  0  0
    1.2040   -0.6444   -0.7783 H   0  0  0  0  0  0  0  0  0  0  0  0
    0.3652    0.7940   -0.2093 H   0  0  0  0  0  0  0  0  0  0  0  0
    1.2629   -0.3696    1.3542 C   0  0  0  0  0  0  0  0  0  0  0  0
    1.2745    0.5869    2.1161 O   0  0  0  0  0  0  0  0  0  0  0  0
    1.8979   -1.5450    1.7001 N   0  0  0  0  0  0  0  0  0  0  0  0
    1.7048   -2.3488    1.0979 H   0  0  0  0  0  0  0  0  0  0  0  0
    2.5195   -1.7676    2.9984 C   0  0  0  0  0  0  0  0  0  0  0  0
    3.2636   -0.9915    3.2061 H   0  0  0  0  0  0  0  0  0  0  0  0
    1.7649   -1.7537    3.7914 H   0  0  0  0  0  0  0  0  0  0  0  0
    3.0235   -2.7388    3.0132 H   0  0  0  0  0  0  0  0  0  0  0  0
  1  2  1  0  0  0  0
  2  3  1  0  0  0  0
  2  4  1  0  0  0  0
  2  5  1  0  0  0  0
  5  6  2  0  0  0  0
  5  7  1  0  0  0  0
  7  8  1  0  0  0  0
  7  9  1  0  0  0  0
  9 10  1  0  0  0  0
  9 11  1  0  0  0  0
  9 12  1  0  0  0  0
 12 13  2  0  0  0  0
 12 14  1  0  0  0  0
 14 15  1  0  0  0  0
 14 16  1  0  0  0  0
 16 17  1  0  0  0  0
 16 18  1  0  0  0  0
 16 19  1  0  0  0  0
M  END
$$$$

  -OEChem-01062216083D

 19 18  0     0  0  0  0  0  0999 V2000
   -2.0236   -4.1192   -0.1232 H   0  0  0  0  0  0  0  0  0  0  0  0
   -2.1436   -3.0407    0.0122 C   0  0  0  0  0  0  0  0  0  0  0  0
   -2.5621   -2.8548    1.0044 H   0  0  0  0  0  0  0  0  0  0  0  0
   -2.8375   -2.6670   -0.7446 H   0  0  0  0  0  0  0  0  0  0  0  0
   -0.8027   -2.3434   -0.1238 C   0  0  0  0  0  0  0  0  0  0  0  0
    0.2199   -2.9989   -0.2691 O   0  0  0  0  0  0  0  0  0  0  0  0
   -0.7276   -0.9661   -0.0487 N   0  0  0  0  0  0  0  0  0  0  0  0
   -1.5702   -0.4660    0.2241 H   0  0  0  0  0  0  0  0  0  0  0  0
    0.5541   -0.2459   -0.0276 C   0  0  0  0  0  0  0  0  0  0  0  0
    1.2188   -0.6254   -0.8100 H   0  0  0  0  0  0  0  0  0  0  0  0
    0.3824    0.8131   -0.2409 H   0  0  0  0  0  0  0  0  0  0  0  0
    1.2575   -0.3583    1.3283 C   0  0  0  0  0  0  0  0  0  0  0  0
    1.0555    0.4844    2.1915 O   0  0  0  0  0  0  0  0  0  0  0  0
    2.1320   -1.4013    1.5570 N   0  0  0  0  0  0  0  0  0  0  0  0
    2.0700   -2.1776    0.8968 H   0  0  0  0  0  0  0  0  0  0  0  0
    2.7601   -1.6351    2.8504 C   0  0  0  0  0  0  0  0  0  0  0  0
    3.3366   -0.7572    3.1604 H   0  0  0  0  0  0  0  0  0  0  0  0
    2.0025   -1.8465    3.6120 H   0  0  0  0  0  0  0  0  0  0  0  0
    3.4415   -2.4890    2.7902 H   0  0  0  0  0  0  0  0  0  0  0  0
  1  2  1  0  0  0  0
  2  3  1  0  0  0  0
  2  4  1  0  0  0  0
  2  5  1  0  0  0  0
  5  6  2  0  0  0  0
  5  7  1  0  0  0  0
  7  8  1  0  0  0  0
  7  9  1  0  0  0  0
  9 10  1  0  0  0  0
  9 11  1  0  0  0  0
  9 12  1  0  0  0  0
 12 13  2  0  0  0  0
 12 14  1  0  0  0  0
 14 15  1  0  0  0  0
 14 16  1  0  0  0  0
 16 17  1  0  0  0  0
 16 18  1  0  0  0  0
 16 19  1  0  0  0  0
M  END
$$$$

  -OEChem-01062216083D

 19 18  0     0  0  0  0  0  0999 V2000
   -1.9781   -4.1184   -0.0428 H   0  0  0  0  0  0  0  0  0  0  0  0
   -2.1115   -3.0373    0.0568 C   0  0  0  0  0  0  0  0  0  0  0  0
   -2.4958   -2.8203    1.0565 H   0  0  0  0  0  0  0  0  0  0  0  0
   -2.8394   -2.7027   -0.6864 H   0  0  0  0  0  0  0  0  0  0  0  0
   -0.7886   -2.3253   -0.1559 C   0  0  0  0  0  0  0  0  0  0  0  0
    0.2286   -2.9696   -0.3698 O   0  0  0  0  0  0  0  0  0  0  0  0
   -0.7255   -0.9474   -0.0836 N   0  0  0  0  0  0  0  0  0  0  0  0
   -1.5447   -0.4711    0.2863 H   0  0  0  0  0  0  0  0  0  0  0  0
    0.5574   -0.2304   -0.0619 C   0  0  0  0  0  0  0  0  0  0  0  0
    1.2210   -0.6122   -0.8439 H   0  0  0  0  0  0  0  0  0  0  0  0
    0.3898    0.8292   -0.2749 H   0  0  0  0  0  0  0  0  0  0  0  0
    1.2538   -0.3440    1.2978 C   0  0  0  0  0  0  0  0  0  0  0  0
    0.8426    0.3154    2.2428 O   0  0  0  0  0  0  0  0  0  0  0  0
    2.3416   -1.1806    1.4487 N   0  0  0  0  0  0  0  0  0  0  0  0
    2.4775   -1.8662    0.7077 H   0  0  0  0  0  0  0  0  0  0  0  0
    2.9709   -1.4249    2.7400 C   0  0  0  0  0  0  0  0  0  0  0  0
    3.2952   -0.4824    3.1940 H   0  0  0  0  0  0  0  0  0  0  0  0
    2.2703   -1.9211    3.4197 H   0  0  0  0  0  0  0  0  0  0  0  0
    3.8491   -2.0656    2.6156 H   0  0  0  0  0  0  0  0  0  0  0  0
  1  2  1  0  0  0  0
  2  3  1  0  0  0  0
  2  4  1  0  0  0  0
  2  5  1  0  0  0  0
  5  6  2  0  0  0  0
  5  7  1  0  0  0  0
  7  8  1  0  0  0  0
  7  9  1  0  0  0  0
  9 10  1  0  0  0  0
  9 11  1  0  0  0  0
  9 12  1  0  0  0  0
 12 13  2  0  0  0  0
 12 14  1  0  0  0  0
 14 15  1  0  0  0  0
 14 16  1  0  0  0  0
 16 17  1  0  0  0  0
 16 18  1  0  0  0  0
 16 19  1  0  0  0  0
M  END
$$$$

  -OEChem-01062216083D

 19 18  0     0  0  0  0  0  0999 V2000
   -1.9684   -4.1154   -0.0184 H   0  0  0  0  0  0  0  0  0  0  0  0
   -2.1006   -3.0348    0.0854 C   0  0  0  0  0  0  0  0  0  0  0  0
   -2.4462   -2.8184    1.0993 H   0  0  0  0  0  0  0  0  0  0  0  0
   -2.8575   -2.7026   -0.6294 H   0  0  0  0  0  0  0  0  0  0  0  0
   -0.7889   -2.3190   -0.1788 C   0  0  0  0  0  0  0  0  0  0  0  0
    0.2189   -2.9604   -0.4386 O   0  0  0  0  0  0  0  0  0  0  0  0
   -0.7297   -0.9407   -0.1114 N   0  0  0  0  0  0  0  0  0  0  0  0
   -1.5327   -0.4783    0.3084 H   0  0  0  0  0  0  0  0  0  0  0  0
    0.5541   -0.2248   -0.0862 C   0  0  0  0  0  0  0  0  0  0  0  0
    1.2189   -0.6115   -0.8648 H   0  0  0  0  0  0  0  0  0  0  0  0
    0.3886    0.8339   -0.3038 H   0  0  0  0  0  0  0  0  0  0  0  0
    1.2472   -0.3313    1.2770 C   0  0  0  0  0  0  0  0  0  0  0  0
    0.6851    0.1076    2.2719 O   0  0  0  0  0  0  0  0  0  0  0  0
    2.4984   -0.9067    1.3832 N   0  0  0  0  0  0  0  0  0  0  0  0
    2.8220   -1.4331    0.5753 H   0  0  0  0  0  0  0  0  0  0  0  0
    3.1474   -1.1411    2.6670 C   0  0  0  0  0  0  0  0  0  0  0  0
    3.2455   -0.2036    3.2248 H   0  0  0  0  0  0  0  0  0  0  0  0
    2.5654   -1.8489    3.2665 H   0  0  0  0  0  0  0  0  0  0  0  0
    4.1486   -1.5554    2.5138 H   0  0  0  0  0  0  0  0  0  0  0  0
  1  2  1  0  0  0  0
  2  3  1  0  0  0  0
  2  4  1  0  0  0  0
  2  5  1  0  0  0  0
  5  6  2  0  0  0  0
  5  7  1  0  0  0  0
  7  8  1  0  0  0  0
  7  9  1  0  0  0  0
  9 10  1  0  0  0  0
  9 11  1  0  0  0  0
  9 12  1  0  0  0  0
 12 13  2  0  0  0  0
 12 14  1  0  0  0  0
 14 15  1  0  0  0  0
 14 16  1  0  0  0  0
 16 17  1  0  0  0  0
 16 18  1  0  0  0  0
 16 19  1  0  0  0  0
M  END
$$$$

  -OEChem-01062216083D

 19 18  0     0  0  0  0  0  0999 V2000
   -2.1722   -3.9676    0.2176 H   0  0  0  0  0  0  0  0  0  0  0  0
   -2.2089   -2.8746    0.2199 C   0  0  0  0  0  0  0  0  0  0  0  0
   -2.5017   -2.5346    1.2164 H   0  0  0  0  0  0  0  0  0  0  0  0
   -2.9571   -2.5458   -0.5051 H   0  0  0  0  0  0  0  0  0  0  0  0
   -0.8500   -2.3042   -0.1412 C   0  0  0  0  0  0  0  0  0  0  0  0
    0.0935   -3.0533   -0.3477 O   0  0  0  0  0  0  0  0  0  0  0  0
   -0.6780   -0.9360   -0.2222 N   0  0  0  0  0  0  0  0  0  0  0  0
   -1.4326   -0.3788    0.1716 H   0  0  0  0  0  0  0  0  0  0  0  0
    0.6634   -0.3328   -0.2205 C   0  0  0  0  0  0  0  0  0  0  0  0
    1.3148   -0.8638   -0.9217 H   0  0  0  0  0  0  0  0  0  0  0  0
    0.6002    0.7036   -0.5628 H   0  0  0  0  0  0  0  0  0  0  0  0
    1.3030   -0.3413    1.1744 C   0  0  0  0  0  0  0  0  0  0  0  0
    0.6437    0.0215    2.1407 O   0  0  0  0  0  0  0  0  0  0  0  0
    2.6201   -0.7235    1.3432 N   0  0  0  0  0  0  0  0  0  0  0  0
    3.0760   -1.1635    0.5486 H   0  0  0  0  0  0  0  0  0  0  0  0
    3.2450   -0.8383    2.6551 C   0  0  0  0  0  0  0  0  0  0  0  0
    2.7393   -1.6030    3.2542 H   0  0  0  0  0  0  0  0  0  0  0  0
    4.2973   -1.1193    2.5493 H   0  0  0  0  0  0  0  0  0  0  0  0
    3.1967    0.1168    3.1888 H   0  0  0  0  0  0  0  0  0  0  0  0
  1  2  1  0  0  0  0
  2  3  1  0  0  0  0
  2  4  1  0  0  0  0
  2  5  1  0  0  0  0
  5  6  2  0  0  0  0
  5  7  1  0  0  0  0
  7  8  1  0  0  0  0
  7  9  1  0  0  0  0
  9 10  1  0  0  0  0
  9 11  1  0  0  0  0
  9 12  1  0  0  0  0
 12 13  2  0  0  0  0
 12 14  1  0  0  0  0
 14 15  1  0  0  0  0
 14 16  1  0  0  0  0
 16 17  1  0  0  0  0
 16 18  1  0  0  0  0
 16 19  1  0  0  0  0
M  END
$$$$

  -OEChem-01062216083D

 19 18  0     0  0  0  0  0  0999 V2000
   -2.1806   -3.9698    0.2225 H   0  0  0  0  0  0  0  0  0  0  0  0
   -2.2199   -2.8769    0.2162 C   0  0  0  0  0  0  0  0  0  0  0  0
   -2.5124   -2.5296    1.2103 H   0  0  0  0  0  0  0  0  0  0  0  0
   -2.9693   -2.5558   -0.5112 H   0  0  0  0  0  0  0  0  0  0  0  0
   -0.8625   -2.3062   -0.1502 C   0  0  0  0  0  0  0  0  0  0  0  0
    0.0759   -3.0563   -0.3747 O   0  0  0  0  0  0  0  0  0  0  0  0
   -0.6918   -0.9375   -0.2295 N   0  0  0  0  0  0  0  0  0  0  0  0
   -1.4445   -0.3880    0.1779 H   0  0  0  0  0  0  0  0  0  0  0  0
    0.6507   -0.3355   -0.2075 C   0  0  0  0  0  0  0  0  0  0  0  0
    1.3102   -0.8722   -0.8966 H   0  0  0  0  0  0  0  0  0  0  0  0
    0.5930    0.6989   -0.5564 H   0  0  0  0  0  0  0  0  0  0  0  0
    1.2814   -0.3370    1.1930 C   0  0  0  0  0  0  0  0  0  0  0  0
    0.5710   -0.2016    2.1819 O   0  0  0  0  0  0  0  0  0  0  0  0
    2.6534   -0.4134    1.3408 N   0  0  0  0  0  0  0  0  0  0  0  0
    3.1983   -0.6332    0.5121 H   0  0  0  0  0  0  0  0  0  0  0  0
    3.3065   -0.4766    2.6425 C   0  0  0  0  0  0  0  0  0  0  0  0
    3.0042   -1.3825    3.1785 H   0  0  0  0  0  0  0  0  0  0  0  0
    4.3936   -0.4927    2.5191 H   0  0  0  0  0  0  0  0  0  0  0  0
    3.0422    0.3967    3.2482 H   0  0  0  0  0  0  0  0  0  0  0  0
  1  2  1  0  0  0  0
  2  3  1  0  0  0  0
  2  4  1  0  0  0  0
  2  5  1  0  0  0  0
  5  6  2  0  0  0  0
  5  7  1  0  0  0  0
  7  8  1  0  0  0  0
  7  9  1  0  0  0  0
  9 10  1  0  0  0  0
  9 11  1  0  0  0  0
  9 12  1  0  0  0  0
 12 13  2  0  0  0  0
 12 14  1  0  0  0  0
 14 15  1  0  0  0  0
 14 16  1  0  0  0  0
 16 17  1  0  0  0  0
 16 18  1  0  0  0  0
 16 19  1  0  0  0  0
M  END
$$$$

  -OEChem-01062216083D

 19 18  0     0  0  0  0  0  0999 V2000
   -2.2024   -3.9672    0.1769 H   0  0  0  0  0  0  0  0  0  0  0  0
   -2.2225   -2.8745    0.2187 C   0  0  0  0  0  0  0  0  0  0  0  0
   -2.4730   -2.5659    1.2368 H   0  0  0  0  0  0  0  0  0  0  0  0
   -2.9916   -2.5097   -0.4662 H   0  0  0  0  0  0  0  0  0  0  0  0
   -0.8685   -2.3116   -0.1711 C   0  0  0  0  0  0  0  0  0  0  0  0
    0.0597   -3.0683   -0.4152 O   0  0  0  0  0  0  0  0  0  0  0  0
   -0.6916   -0.9437   -0.2560 N   0  0  0  0  0  0  0  0  0  0  0  0
   -1.4400   -0.3961    0.1614 H   0  0  0  0  0  0  0  0  0  0  0  0
    0.6566   -0.3542   -0.2075 C   0  0  0  0  0  0  0  0  0  0  0  0
    1.3274   -0.9020   -0.8770 H   0  0  0  0  0  0  0  0  0  0  0  0
    0.6134    0.6773   -0.5665 H   0  0  0  0  0  0  0  0  0  0  0  0
    1.2634   -0.3480    1.2049 C   0  0  0  0  0  0  0  0  0  0  0  0
    0.5370   -0.4191    2.1892 O   0  0  0  0  0  0  0  0  0  0  0  0
    2.6165   -0.1242    1.3762 N   0  0  0  0  0  0  0  0  0  0  0  0
    3.2025   -0.1395    0.5467 H   0  0  0  0  0  0  0  0  0  0  0  0
    3.2564   -0.0986    2.6858 C   0  0  0  0  0  0  0  0  0  0  0  0
    3.1424   -1.0659    3.1863 H   0  0  0  0  0  0  0  0  0  0  0  0
    4.3247    0.1143    2.5810 H   0  0  0  0  0  0  0  0  0  0  0  0
    2.8107    0.6790    3.3152 H   0  0  0  0  0  0  0  0  0  0  0  0
  1  2  1  0  0  0  0
  2  3  1  0  0  0  0
  2  4  1  0  0  0  0
  2  5  1  0  0  0  0
  5  6  2  0  0  0  0
  5  7  1  0  0  0  0
  7  8  1  0  0  0  0
  7  9  1  0  0  0  0
  9 10  1  0  0  0  0
  9 11  1  0  0  0  0
  9 12  1  0  0  0  0
 12 13  2  0  0  0  0
 12 14  1  0  0  0  0
 14 15  1  0  0  0  0
 14 16  1  0  0  0  0
 16 17  1  0  0  0  0
 16 18  1  0  0  0  0
 16 19  1  0  0  0  0
M  END
$$$$

  -OEChem-01062216083D

 19 18  0     0  0  0  0  0  0999 V2000
   -2.1879   -3.9842    0.1404 H   0  0  0  0  0  0  0  0  0  0  0  0
   -2.1994   -2.8952    0.2385 C   0  0  0  0  0  0  0  0  0  0  0  0
   -2.3721   -2.6389    1.2867 H   0  0  0  0  0  0  0  0  0  0  0  0
   -3.0150   -2.4955   -0.3684 H   0  0  0  0  0  0  0  0  0  0  0  0
   -0.8745   -2.3148   -0.2199 C   0  0  0  0  0  0  0  0  0  0  0  0
    0.0281   -3.0565   -0.5793 O   0  0  0  0  0  0  0  0  0  0  0  0
   -0.7065   -0.9434   -0.2861 N   0  0  0  0  0  0  0  0  0  0  0  0
   -1.4543   -0.4142    0.1535 H   0  0  0  0  0  0  0  0  0  0  0  0
    0.6434   -0.3576   -0.2056 C   0  0  0  0  0  0  0  0  0  0  0  0
    1.2422   -0.7264   -1.0441 H   0  0  0  0  0  0  0  0  0  0  0  0
    0.5699    0.7279   -0.3099 H   0  0  0  0  0  0  0  0  0  0  0  0
    1.4061   -0.6643    1.0977 C   0  0  0  0  0  0  0  0  0  0  0  0
    0.8282   -1.1443    2.0658 O   0  0  0  0  0  0  0  0  0  0  0  0
    2.6830   -0.1625    1.2700 N   0  0  0  0  0  0  0  0  0  0  0  0
    3.1501    0.2244    0.4556 H   0  0  0  0  0  0  0  0  0  0  0  0
    3.4455   -0.3340    2.5009 C   0  0  0  0  0  0  0  0  0  0  0  0
    3.5687   -1.3977    2.7305 H   0  0  0  0  0  0  0  0  0  0  0  0
    4.4379    0.1147    2.3966 H   0  0  0  0  0  0  0  0  0  0  0  0
    2.9339    0.1508    3.3389 H   0  0  0  0  0  0  0  0  0  0  0  0
  1  2  1  0  0  0  0
  2  3  1  0  0  0  0
  2  4  1  0  0  0  0
  2  5  1  0  0  0  0
  5  6  2  0  0  0  0
  5  7  1  0  0  0  0
  7  8  1  0  0  0  0
  7  9  1  0  0  0  0
  9 10  1  0  0  0  0
  9 11  1  0  0  0  0
  9 12  1  0  0  0  0
 12 13  2  0  0  0  0
 12 14  1  0  0  0  0
 14 15  1  0  0  0  0
 14 16  1  0  0  0  0
 16 17  1  0  0  0  0
 16 18  1  0  0  0  0
 16 19  1  0  0  0  0
M  END
$$$$

  -OEChem-01062216083D

 19 18  0     0  0  0  0  0  0999 V2000
   -2.2055   -3.9802    0.1371 H   0  0  0  0  0  0  0  0  0  0  0  0
   -2.2126   -2.8903    0.2271 C   0  0  0  0  0  0  0  0  0  0  0  0
   -2.3907   -2.6256    1.2724 H   0  0  0  0  0  0  0  0  0  0  0  0
   -3.0222   -2.4908   -0.3881 H   0  0  0  0  0  0  0  0  0  0  0  0
   -0.8819   -2.3202   -0.2277 C   0  0  0  0  0  0  0  0  0  0  0  0
    0.0035   -3.0672   -0.6177 O   0  0  0  0  0  0  0  0  0  0  0  0
   -0.6995   -0.9500   -0.2843 N   0  0  0  0  0  0  0  0  0  0  0  0
   -1.4467   -0.4177    0.1520 H   0  0  0  0  0  0  0  0  0  0  0  0
    0.6546   -0.3758   -0.1846 C   0  0  0  0  0  0  0  0  0  0  0  0
    1.2589   -0.7443   -1.0194 H   0  0  0  0  0  0  0  0  0  0  0  0
    0.5836    0.7098   -0.2891 H   0  0  0  0  0  0  0  0  0  0  0  0
    1.4147   -0.6848    1.1219 C   0  0  0  0  0  0  0  0  0  0  0  0
    0.9080   -1.3581    2.0109 O   0  0  0  0  0  0  0  0  0  0  0  0
    2.5424    0.0551    1.4292 N   0  0  0  0  0  0  0  0  0  0  0  0
    2.9497    0.6202    0.6904 H   0  0  0  0  0  0  0  0  0  0  0  0
    3.2629   -0.0733    2.6910 C   0  0  0  0  0  0  0  0  0  0  0  0
    3.6046   -1.1039    2.8344 H   0  0  0  0  0  0  0  0  0  0  0  0
    4.1374    0.5845    2.6959 H   0  0  0  0  0  0  0  0  0  0  0  0
    2.6179    0.2044    3.5313 H   0  0  0  0  0  0  0  0  0  0  0  0
  1  2  1  0  0  0  0
  2  3  1  0  0  0  0
  2  4  1  0  0  0  0
  2  5  1  0  0  0  0
  5  6  2  0  0  0  0
  5  7  1  0  0  0  0
  7  8  1  0  0  0  0
  7  9  1  0  0  0  0
  9 10  1  0  0  0  0
  9 11  1  0  0  0  0
  9 12  1  0  0  0  0
 12 13  2  0  0  0  0
 12 14  1  0  0  0  0
 14 15  1  0  0  0  0
 14 16  1  0  0  0  0
 16 17  1  0  0  0  0
 16 18  1  0  0  0  0
 16 19  1  0  0  0  0
M  END
$$$$

  -OEChem-01062216083D

 19 18  0     0  0  0  0  0  0999 V2000
   -2.2286   -3.9662    0.1253 H   0  0  0  0  0  0  0  0  0  0  0  0
   -2.2110   -2.8789    0.2417 C   0  0  0  0  0  0  0  0  0  0  0  0
   -2.3484   -2.6371    1.2985 H   0  0  0  0  0  0  0  0  0  0  0  0
   -3.0325   -2.4489   -0.3360 H   0  0  0  0  0  0  0  0  0  0  0  0
   -0.8839   -2.3247   -0.2428 C   0  0  0  0  0  0  0  0  0  0  0  0
   -0.0235   -3.0813   -0.6674 O   0  0  0  0  0  0  0  0  0  0  0  0
   -0.6835   -0.9567   -0.3006 N   0  0  0  0  0  0  0  0  0  0  0  0
   -1.4312   -0.4161    0.1242 H   0  0  0  0  0  0  0  0  0  0  0  0
    0.6745   -0.3936   -0.1806 C   0  0  0  0  0  0  0  0  0  0  0  0
    1.2895   -0.7710   -1.0038 H   0  0  0  0  0  0  0  0  0  0  0  0
    0.6101    0.6911   -0.2966 H   0  0  0  0  0  0  0  0  0  0  0  0
    1.4205   -0.6971    1.1371 C   0  0  0  0  0  0  0  0  0  0  0  0
    1.0320   -1.5567    1.9169 O   0  0  0  0  0  0  0  0  0  0  0  0
    2.3430    0.2221    1.6051 N   0  0  0  0  0  0  0  0  0  0  0  0
    2.6476    0.9510    0.9672 H   0  0  0  0  0  0  0  0  0  0  0  0
    3.0035    0.1046    2.9008 C   0  0  0  0  0  0  0  0  0  0  0  0
    3.5689   -0.8316    2.9595 H   0  0  0  0  0  0  0  0  0  0  0  0
    3.6975    0.9376    3.0485 H   0  0  0  0  0  0  0  0  0  0  0  0
    2.2664    0.1224    3.7107 H   0  0  0  0  0  0  0  0  0  0  0  0
  1  2  1  0  0  0  0
  2  3  1  0  0  0  0
  2  4  1  0  0  0  0
  2  5  1  0  0  0  0
  5  6  2  0  0  0  0
  5  7  1  0  0  0  0
  7  8  1  0  0  0  0
  7  9  1  0  0  0  0
  9 10  1  0  0  0  0
  9 11  1  0  0  0  0
  9 12  1  0  0  0  0
 12 13  2  0  0  0  0
 12 14  1  0  0  0  0
 14 15  1  0  0  0  0
 14 16  1  0  0  0  0
 16 17  1  0  0  0  0
 16 18  1  0  0  0  0
 16 19  1  0  0  0  0
M  END
$$$$

  -OEChem-01062216083D

 19 18  0     0  0  0  0  0  0999 V2000
   -2.2601   -3.9519    0.1041 H   0  0  0  0  0  0  0  0  0  0  0  0
   -2.2200   -2.8677    0.2410 C   0  0  0  0  0  0  0  0  0  0  0  0
   -2.3483   -2.6431    1.3027 H   0  0  0  0  0  0  0  0  0  0  0  0
   -3.0345   -2.4105   -0.3255 H   0  0  0  0  0  0  0  0  0  0  0  0
   -0.8843   -2.3316   -0.2394 C   0  0  0  0  0  0  0  0  0  0  0  0
   -0.0450   -3.0974   -0.6869 O   0  0  0  0  0  0  0  0  0  0  0  0
   -0.6682   -0.9662   -0.2980 N   0  0  0  0  0  0  0  0  0  0  0  0
   -1.4189   -0.4177    0.1104 H   0  0  0  0  0  0  0  0  0  0  0  0
    0.6904   -0.4062   -0.1649 C   0  0  0  0  0  0  0  0  0  0  0  0
    1.3134   -0.7923   -0.9781 H   0  0  0  0  0  0  0  0  0  0  0  0
    0.6319    0.6776   -0.2933 H   0  0  0  0  0  0  0  0  0  0  0  0
    1.4253   -0.7037    1.1605 C   0  0  0  0  0  0  0  0  0  0  0  0
    1.2365   -1.7299    1.7976 O   0  0  0  0  0  0  0  0  0  0  0  0
    2.0962    0.3285    1.7936 N   0  0  0  0  0  0  0  0  0  0  0  0
    2.2304    1.1923    1.2773 H   0  0  0  0  0  0  0  0  0  0  0  0
    2.7201    0.1928    3.1055 C   0  0  0  0  0  0  0  0  0  0  0  0
    3.4986   -0.5769    3.0814 H   0  0  0  0  0  0  0  0  0  0  0  0
    3.1788    1.1396    3.4059 H   0  0  0  0  0  0  0  0  0  0  0  0
    1.9747   -0.0831    3.8590 H   0  0  0  0  0  0  0  0  0  0  0  0
  1  2  1  0  0  0  0
  2  3  1  0  0  0  0
  2  4  1  0  0  0  0
  2  5  1  0  0  0  0
  5  6  2  0  0  0  0
  5  7  1  0  0  0  0
  7  8  1  0  0  0  0
  7  9  1  0  0  0  0
  9 10  1  0  0  0  0
  9 11  1  0  0  0  0
  9 12  1  0  0  0  0
 12 13  2  0  0  0  0
 12 14  1  0  0  0  0
 14 15  1  0  0  0  0
 14 16  1  0  0  0  0
 16 17  1  0  0  0  0
 16 18  1  0  0  0  0
 16 19  1  0  0  0  0
M  END
$$$$

  -OEChem-01062216083D

 19 18  0     0  0  0  0  0  0999 V2000
   -2.2644   -3.9489    0.1397 H   0  0  0  0  0  0  0  0  0  0  0  0
   -2.2317   -2.8597    0.2324 C   0  0  0  0  0  0  0  0  0  0  0  0
   -2.3969   -2.5923    1.2788 H   0  0  0  0  0  0  0  0  0  0  0  0
   -3.0282   -2.4298   -0.3793 H   0  0  0  0  0  0  0  0  0  0  0  0
   -0.8823   -2.3386   -0.2263 C   0  0  0  0  0  0  0  0  0  0  0  0
   -0.0515   -3.1143   -0.6694 O   0  0  0  0  0  0  0  0  0  0  0  0
   -0.6555   -0.9752   -0.2869 N   0  0  0  0  0  0  0  0  0  0  0  0
   -1.4155   -0.4161    0.0889 H   0  0  0  0  0  0  0  0  0  0  0  0
    0.7004   -0.4110   -0.1464 C   0  0  0  0  0  0  0  0  0  0  0  0
    1.3313   -0.8048   -0.9500 H   0  0  0  0  0  0  0  0  0  0  0  0
    0.6469    0.6714   -0.2856 H   0  0  0  0  0  0  0  0  0  0  0  0
    1.4191   -0.7055    1.1869 C   0  0  0  0  0  0  0  0  0  0  0  0
    1.5208   -1.8329    1.6444 O   0  0  0  0  0  0  0  0  0  0  0  0
    1.8080    0.3560    1.9856 N   0  0  0  0  0  0  0  0  0  0  0  0
    1.7087    1.2938    1.6100 H   0  0  0  0  0  0  0  0  0  0  0  0
    2.4273    0.1861    3.2955 C   0  0  0  0  0  0  0  0  0  0  0  0
    3.3546   -0.3903    3.2091 H   0  0  0  0  0  0  0  0  0  0  0  0
    2.6658    1.1613    3.7307 H   0  0  0  0  0  0  0  0  0  0  0  0
    1.7482   -0.3389    3.9758 H   0  0  0  0  0  0  0  0  0  0  0  0
  1  2  1  0  0  0  0
  2  3  1  0  0  0  0
  2  4  1  0  0  0  0
  2  5  1  0  0  0  0
  5  6  2  0  0  0  0
  5  7  1  0  0  0  0
  7  8  1  0  0  0  0
  7  9  1  0  0  0  0
  9 10  1  0  0  0  0
  9 11  1  0  0  0  0
  9 12  1  0  0  0  0
 12 13  2  0  0  0  0
 12 14  1  0  0  0  0
 14 15  1  0  0  0  0
 14 16  1  0  0  0  0
 16 17  1  0  0  0  0
 16 18  1  0  0  0  0
 16 19  1  0  0  0  0
M  END
$$$$

  -OEChem-01062216083D

 19 18  0     0  0  0  0  0  0999 V2000
   -2.1067   -4.1020   -0.0459 H   0  0  0  0  0  0  0  0  0  0  0  0
   -2.1760   -3.0163    0.0687 C   0  0  0  0  0  0  0  0  0  0  0  0
   -2.4805   -2.7914    1.0936 H   0  0  0  0  0  0  0  0  0  0  0  0
   -2.9320   -2.6370   -0.6229 H   0  0  0  0  0  0  0  0  0  0  0  0
   -0.8324   -2.3750   -0.2264 C   0  0  0  0  0  0  0  0  0  0  0  0
    0.0943   -3.0699   -0.6023 O   0  0  0  0  0  0  0  0  0  0  0  0
   -0.7094   -0.9979   -0.1834 N   0  0  0  0  0  0  0  0  0  0  0  0
   -1.5361   -0.5056    0.1411 H   0  0  0  0  0  0  0  0  0  0  0  0
    0.5861   -0.3061   -0.0415 C   0  0  0  0  0  0  0  0  0  0  0  0
    1.2225   -0.5748   -0.8912 H   0  0  0  0  0  0  0  0  0  0  0  0
    0.4260    0.7735   -0.0936 H   0  0  0  0  0  0  0  0  0  0  0  0
    1.3763   -0.6286    1.2408 C   0  0  0  0  0  0  0  0  0  0  0  0
    2.0181   -1.6582    1.3690 O   0  0  0  0  0  0  0  0  0  0  0  0
    1.4183    0.3060    2.2608 N   0  0  0  0  0  0  0  0  0  0  0  0
    0.9147    1.1771    2.1286 H   0  0  0  0  0  0  0  0  0  0  0  0
    2.1994    0.1224    3.4788 C   0  0  0  0  0  0  0  0  0  0  0  0
    1.8783   -0.7813    4.0078 H   0  0  0  0  0  0  0  0  0  0  0  0
    3.2643    0.0312    3.2401 H   0  0  0  0  0  0  0  0  0  0  0  0
    2.0668    0.9787    4.1470 H   0  0  0  0  0  0  0  0  0  0  0  0
  1  2  1  0  0  0  0
  2  3  1  0  0  0  0
  2  4  1  0  0  0  0
  2  5  1  0  0  0  0
  5  6  2  0  0  0  0
  5  7  1  0  0  0  0
  7  8  1  0  0  0  0
  7  9  1  0  0  0  0
  9 10  1  0  0  0  0
  9 11  1  0  0  0  0
  9 12  1  0  0  0  0
 12 13  2  0  0  0  0
 12 14  1  0  0  0  0
 14 15  1  0  0  0  0
 14 16  1  0  0  0  0
 16 17  1  0  0  0  0
 16 18  1  0  0  0  0
 16 19  1  0  0  0  0
M  END
$$$$

  -OEChem-01062216083D

 19 18  0     0  0  0  0  0  0999 V2000
   -2.1837   -4.1078   -0.1350 H   0  0  0  0  0  0  0  0  0  0  0  0
   -2.2564   -3.0187   -0.0634 C   0  0  0  0  0  0  0  0  0  0  0  0
   -2.7340   -2.7608    0.8847 H   0  0  0  0  0  0  0  0  0  0  0  0
   -2.8732   -2.6533   -0.8879 H   0  0  0  0  0  0  0  0  0  0  0  0
   -0.8733   -2.3973   -0.1339 C   0  0  0  0  0  0  0  0  0  0  0  0
    0.0984   -3.1138   -0.2855 O   0  0  0  0  0  0  0  0  0  0  0  0
   -0.7419   -1.0221   -0.0724 N   0  0  0  0  0  0  0  0  0  0  0  0
   -1.6002   -0.4940    0.0536 H   0  0  0  0  0  0  0  0  0  0  0  0
    0.5435   -0.3044    0.0292 C   0  0  0  0  0  0  0  0  0  0  0  0
    1.1487   -0.5414   -0.8525 H   0  0  0  0  0  0  0  0  0  0  0  0
    0.3623    0.7732    0.0115 H   0  0  0  0  0  0  0  0  0  0  0  0
    1.3857   -0.6359    1.2732 C   0  0  0  0  0  0  0  0  0  0  0  0
    2.3545   -1.3756    1.2010 O   0  0  0  0  0  0  0  0  0  0  0  0
    1.2081    0.1070    2.4271 N   0  0  0  0  0  0  0  0  0  0  0  0
    0.4190    0.7436    2.4630 H   0  0  0  0  0  0  0  0  0  0  0  0
    2.0457   -0.0470    3.6110 C   0  0  0  0  0  0  0  0  0  0  0  0
    1.9902   -1.0735    3.9887 H   0  0  0  0  0  0  0  0  0  0  0  0
    3.0896    0.1852    3.3748 H   0  0  0  0  0  0  0  0  0  0  0  0
    1.7119    0.6313    4.4019 H   0  0  0  0  0  0  0  0  0  0  0  0
  1  2  1  0  0  0  0
  2  3  1  0  0  0  0
  2  4  1  0  0  0  0
  2  5  1  0  0  0  0
  5  6  2  0  0  0  0
  5  7  1  0  0  0  0
  7  8  1  0  0  0  0
  7  9  1  0  0  0  0
  9 10  1  0  0  0  0
  9 11  1  0  0  0  0
  9 12  1  0  0  0  0
 12 13  2  0  0  0  0
 12 14  1  0  0  0  0
 14 15  1  0  0  0  0
 14 16  1  0  0  0  0
 16 17  1  0  0  0  0
 16 18  1  0  0  0  0
 16 19  1  0  0  0  0
M  END
$$$$

  -OEChem-01062216083D

 19 18  0     0  0  0  0  0  0999 V2000
   -2.1849   -4.1222   -0.1507 H   0  0  0  0  0  0  0  0  0  0  0  0
   -2.2726   -3.0318   -0.1455 C   0  0  0  0  0  0  0  0  0  0  0  0
   -2.8833   -2.7337    0.7100 H   0  0  0  0  0  0  0  0  0  0  0  0
   -2.7659   -2.7148   -1.0674 H   0  0  0  0  0  0  0  0  0  0  0  0
   -0.8970   -2.3979   -0.0491 C   0  0  0  0  0  0  0  0  0  0  0  0
    0.0912   -3.1080   -0.0390 O   0  0  0  0  0  0  0  0  0  0  0  0
   -0.7819   -1.0213    0.0109 N   0  0  0  0  0  0  0  0  0  0  0  0
   -1.6433   -0.4883   -0.0670 H   0  0  0  0  0  0  0  0  0  0  0  0
    0.4974   -0.2885    0.0688 C   0  0  0  0  0  0  0  0  0  0  0  0
    1.0719   -0.5106   -0.8367 H   0  0  0  0  0  0  0  0  0  0  0  0
    0.3025    0.7870    0.0736 H   0  0  0  0  0  0  0  0  0  0  0  0
    1.3843   -0.6160    1.2808 C   0  0  0  0  0  0  0  0  0  0  0  0
    2.5047   -1.0762    1.1188 O   0  0  0  0  0  0  0  0  0  0  0  0
    1.0448   -0.1159    2.5252 N   0  0  0  0  0  0  0  0  0  0  0  0
    0.1036    0.2446    2.6404 H   0  0  0  0  0  0  0  0  0  0  0  0
    1.8754   -0.3072    3.7082 C   0  0  0  0  0  0  0  0  0  0  0  0
    1.9788   -1.3740    3.9332 H   0  0  0  0  0  0  0  0  0  0  0  0
    2.8723    0.1178    3.5501 H   0  0  0  0  0  0  0  0  0  0  0  0
    1.4242    0.1884    4.5731 H   0  0  0  0  0  0  0  0  0  0  0  0
  1  2  1  0  0  0  0
  2  3  1  0  0  0  0
  2  4  1  0  0  0  0
  2  5  1  0  0  0  0
  5  6  2  0  0  0  0
  5  7  1  0  0  0  0
  7  8  1  0  0  0  0
  7  9  1  0  0  0  0
  9 10  1  0  0  0  0
  9 11  1  0  0  0  0
  9 12  1  0  0  0  0
 12 13  2  0  0  0  0
 12 14  1  0  0  0  0
 14 15  1  0  0  0  0
 14 16  1  0  0  0  0
 16 17  1  0  0  0  0
 16 18  1  0  0  0  0
 16 19  1  0  0  0  0
M  END
$$$$

  -OEChem-01062216083D

 19 18  0     0  0  0  0  0  0999 V2000
   -2.1934   -4.1194   -0.1402 H   0  0  0  0  0  0  0  0  0  0  0  0
   -2.2795   -3.0296   -0.1787 C   0  0  0  0  0  0  0  0  0  0  0  0
   -2.9402   -2.7014    0.6273 H   0  0  0  0  0  0  0  0  0  0  0  0
   -2.7167   -2.7462   -1.1391 H   0  0  0  0  0  0  0  0  0  0  0  0
   -0.9106   -2.3924   -0.0225 C   0  0  0  0  0  0  0  0  0  0  0  0
    0.0781   -3.0991    0.0493 O   0  0  0  0  0  0  0  0  0  0  0  0
   -0.7988   -1.0156    0.0342 N   0  0  0  0  0  0  0  0  0  0  0  0
   -1.6517   -0.4842   -0.1162 H   0  0  0  0  0  0  0  0  0  0  0  0
    0.4831   -0.2854    0.0818 C   0  0  0  0  0  0  0  0  0  0  0  0
    1.0511   -0.5051   -0.8283 H   0  0  0  0  0  0  0  0  0  0  0  0
    0.2883    0.7902    0.0944 H   0  0  0  0  0  0  0  0  0  0  0  0
    1.3779   -0.6126    1.2870 C   0  0  0  0  0  0  0  0  0  0  0  0
    2.5716   -0.8178    1.1207 O   0  0  0  0  0  0  0  0  0  0  0  0
    0.9069   -0.3879    2.5676 N   0  0  0  0  0  0  0  0  0  0  0  0
   -0.0961   -0.2781    2.6729 H   0  0  0  0  0  0  0  0  0  0  0  0
    1.7166   -0.6204    3.7573 C   0  0  0  0  0  0  0  0  0  0  0  0
    2.0206   -1.6710    3.8136 H   0  0  0  0  0  0  0  0  0  0  0  0
    2.6149    0.0057    3.7384 H   0  0  0  0  0  0  0  0  0  0  0  0
    1.1459   -0.3749    4.6578 H   0  0  0  0  0  0  0  0  0  0  0  0
  1  2  1  0  0  0  0
  2  3  1  0  0  0  0
  2  4  1  0  0  0  0
  2  5  1  0  0  0  0
  5  6  2  0  0  0  0
  5  7  1  0  0  0  0
  7  8  1  0  0  0  0
  7  9  1  0  0  0  0
  9 10  1  0  0  0  0
  9 11  1  0  0  0  0
  9 12  1  0  0  0  0
 12 13  2  0  0  0  0
 12 14  1  0  0  0  0
 14 15  1  0  0  0  0
 14 16  1  0  0  0  0
 16 17  1  0  0  0  0
 16 18  1  0  0  0  0
 16 19  1  0  0  0  0
M  END
$$$$

  -OEChem-01062216083D

 19 18  0     0  0  0  0  0  0999 V2000
   -2.3323   -4.0483   -0.1611 H   0  0  0  0  0  0  0  0  0  0  0  0
   -2.3616   -2.9550   -0.1393 C   0  0  0  0  0  0  0  0  0  0  0  0
   -2.9775   -2.6370    0.7052 H   0  0  0  0  0  0  0  0  0  0  0  0
   -2.8141   -2.5982   -1.0676 H   0  0  0  0  0  0  0  0  0  0  0  0
   -0.9572   -2.3977    0.0032 C   0  0  0  0  0  0  0  0  0  0  0  0
   -0.0144   -3.1585    0.1268 O   0  0  0  0  0  0  0  0  0  0  0  0
   -0.7594   -1.0294   -0.0018 N   0  0  0  0  0  0  0  0  0  0  0  0
   -1.5745   -0.4512   -0.1868 H   0  0  0  0  0  0  0  0  0  0  0  0
    0.5669   -0.3816    0.0321 C   0  0  0  0  0  0  0  0  0  0  0  0
    1.1300   -0.6799   -0.8583 H   0  0  0  0  0  0  0  0  0  0  0  0
    0.4405    0.7035   -0.0063 H   0  0  0  0  0  0  0  0  0  0  0  0
    1.4283   -0.7046    1.2626 C   0  0  0  0  0  0  0  0  0  0  0  0
    2.6442   -0.7456    1.1443 O   0  0  0  0  0  0  0  0  0  0  0  0
    0.8551   -0.6839    2.5223 N   0  0  0  0  0  0  0  0  0  0  0  0
   -0.1590   -0.6818    2.5503 H   0  0  0  0  0  0  0  0  0  0  0  0
    1.5816   -0.9192    3.7673 C   0  0  0  0  0  0  0  0  0  0  0  0
    2.6483   -1.0957    3.5951 H   0  0  0  0  0  0  0  0  0  0  0  0
    1.4842   -0.0520    4.4274 H   0  0  0  0  0  0  0  0  0  0  0  0
    1.1742   -1.7982    4.2761 H   0  0  0  0  0  0  0  0  0  0  0  0
  1  2  1  0  0  0  0
  2  3  1  0  0  0  0
  2  4  1  0  0  0  0
  2  5  1  0  0  0  0
  5  6  2  0  0  0  0
  5  7  1  0  0  0  0
  7  8  1  0  0  0  0
  7  9  1  0  0  0  0
  9 10  1  0  0  0  0
  9 11  1  0  0  0  0
  9 12  1  0  0  0  0
 12 13  2  0  0  0  0
 12 14  1  0  0  0  0
 14 15  1  0  0  0  0
 14 16  1  0  0  0  0
 16 17  1  0  0  0  0
 16 18  1  0  0  0  0
 16 19  1  0  0  0  0
M  END
$$$$

  -OEChem-01062216083D

 19 18  0     0  0  0  0  0  0999 V2000
   -2.4959   -3.9622    0.0392 H   0  0  0  0  0  0  0  0  0  0  0  0
   -2.4464   -2.8845   -0.1411 C   0  0  0  0  0  0  0  0  0  0  0  0
   -3.1167   -2.3804    0.5592 H   0  0  0  0  0  0  0  0  0  0  0  0
   -2.7792   -2.6839   -1.1624 H   0  0  0  0  0  0  0  0  0  0  0  0
   -1.0243   -2.3886    0.0471 C   0  0  0  0  0  0  0  0  0  0  0  0
   -0.1291   -3.1846    0.2677 O   0  0  0  0  0  0  0  0  0  0  0  0
   -0.7552   -1.0344   -0.0151 N   0  0  0  0  0  0  0  0  0  0  0  0
   -1.5319   -0.4270   -0.2625 H   0  0  0  0  0  0  0  0  0  0  0  0
    0.6021   -0.4515    0.0135 C   0  0  0  0  0  0  0  0  0  0  0  0
    1.1613   -0.8145   -0.8549 H   0  0  0  0  0  0  0  0  0  0  0  0
    0.5251    0.6353   -0.0751 H   0  0  0  0  0  0  0  0  0  0  0  0
    1.4430   -0.7496    1.2651 C   0  0  0  0  0  0  0  0  0  0  0  0
    2.6561   -0.6059    1.2112 O   0  0  0  0  0  0  0  0  0  0  0  0
    0.8369   -0.9514    2.4910 N   0  0  0  0  0  0  0  0  0  0  0  0
   -0.1443   -1.2080    2.4601 H   0  0  0  0  0  0  0  0  0  0  0  0
    1.5958   -1.2537    3.6979 C   0  0  0  0  0  0  0  0  0  0  0  0
    2.2842   -0.4352    3.9331 H   0  0  0  0  0  0  0  0  0  0  0  0
    0.9182   -1.3873    4.5464 H   0  0  0  0  0  0  0  0  0  0  0  0
    2.1743   -2.1741    3.5663 H   0  0  0  0  0  0  0  0  0  0  0  0
  1  2  1  0  0  0  0
  2  3  1  0  0  0  0
  2  4  1  0  0  0  0
  2  5  1  0  0  0  0
  5  6  2  0  0  0  0
  5  7  1  0  0  0  0
  7  8  1  0  0  0  0
  7  9  1  0  0  0  0
  9 10  1  0  0  0  0
  9 11  1  0  0  0  0
  9 12  1  0  0  0  0
 12 13  2  0  0  0  0
 12 14  1  0  0  0  0
 14 15  1  0  0  0  0
 14 16  1  0  0  0  0
 16 17  1  0  0  0  0
 16 18  1  0  0  0  0
 16 19  1  0  0  0  0
M  END
$$$$

  -OEChem-01062216083D

 19 18  0     0  0  0  0  0  0999 V2000
   -2.5262   -3.9592   -0.0759 H   0  0  0  0  0  0  0  0  0  0  0  0
   -2.4743   -2.8716   -0.1805 C   0  0  0  0  0  0  0  0  0  0  0  0
   -3.1373   -2.4153    0.5585 H   0  0  0  0  0  0  0  0  0  0  0  0
   -2.8134   -2.5989   -1.1829 H   0  0  0  0  0  0  0  0  0  0  0  0
   -1.0502   -2.3932    0.0325 C   0  0  0  0  0  0  0  0  0  0  0  0
   -0.1711   -3.1971    0.2881 O   0  0  0  0  0  0  0  0  0  0  0  0
   -0.7636   -1.0430   -0.0242 N   0  0  0  0  0  0  0  0  0  0  0  0
   -1.5337   -0.4264   -0.2700 H   0  0  0  0  0  0  0  0  0  0  0  0
    0.5964   -0.4656    0.0202 C   0  0  0  0  0  0  0  0  0  0  0  0
    1.1600   -0.8303   -0.8443 H   0  0  0  0  0  0  0  0  0  0  0  0
    0.5207    0.6214   -0.0718 H   0  0  0  0  0  0  0  0  0  0  0  0
    1.4419   -0.7554    1.2722 C   0  0  0  0  0  0  0  0  0  0  0  0
    2.6040   -0.3752    1.2900 O   0  0  0  0  0  0  0  0  0  0  0  0
    0.8713   -1.2526    2.4288 N   0  0  0  0  0  0  0  0  0  0  0  0
   -0.0004   -1.7556    2.2885 H   0  0  0  0  0  0  0  0  0  0  0  0
    1.6639   -1.5785    3.6076 C   0  0  0  0  0  0  0  0  0  0  0  0
    2.2042   -0.6953    3.9645 H   0  0  0  0  0  0  0  0  0  0  0  0
    1.0139   -1.9318    4.4137 H   0  0  0  0  0  0  0  0  0  0  0  0
    2.3894   -2.3651    3.3749 H   0  0  0  0  0  0  0  0  0  0  0  0
  1  2  1  0  0  0  0
  2  3  1  0  0  0  0
  2  4  1  0  0  0  0
  2  5  1  0  0  0  0
  5  6  2  0  0  0  0
  5  7  1  0  0  0  0
  7  8  1  0  0  0  0
  7  9  1  0  0  0  0
  9 10  1  0  0  0  0
  9 11  1  0  0  0  0
  9 12  1  0  0  0  0
 12 13  2  0  0  0  0
 12 14  1  0  0  0  0
 14 15  1  0  0  0  0
 14 16  1  0  0  0  0
 16 17  1  0  0  0  0
 16 18  1  0  0  0  0
 16 19  1  0  0  0  0
M  END
$$$$

  -OEChem-01062216083D

 19 18  0     0  0  0  0  0  0999 V2000
   -2.5755   -3.9364   -0.0900 H   0  0  0  0  0  0  0  0  0  0  0  0
   -2.5065   -2.8489   -0.1858 C   0  0  0  0  0  0  0  0  0  0  0  0
   -3.1410   -2.3884    0.5755 H   0  0  0  0  0  0  0  0  0  0  0  0
   -2.8684   -2.5602   -1.1757 H   0  0  0  0  0  0  0  0  0  0  0  0
   -1.0687   -2.3981   -0.0069 C   0  0  0  0  0  0  0  0  0  0  0  0
   -0.1972   -3.2215    0.2140 O   0  0  0  0  0  0  0  0  0  0  0  0
   -0.7610   -1.0521   -0.0441 N   0  0  0  0  0  0  0  0  0  0  0  0
   -1.5332   -0.4176   -0.2306 H   0  0  0  0  0  0  0  0  0  0  0  0
    0.6010   -0.4786    0.0167 C   0  0  0  0  0  0  0  0  0  0  0  0
    1.1670   -0.8347   -0.8497 H   0  0  0  0  0  0  0  0  0  0  0  0
    0.5251    0.6094   -0.0672 H   0  0  0  0  0  0  0  0  0  0  0  0
    1.4506   -0.7770    1.2659 C   0  0  0  0  0  0  0  0  0  0  0  0
    2.5122   -0.1839    1.3957 O   0  0  0  0  0  0  0  0  0  0  0  0
    0.9774   -1.5543    2.3058 N   0  0  0  0  0  0  0  0  0  0  0  0
    0.2653   -2.2282    2.0272 H   0  0  0  0  0  0  0  0  0  0  0  0
    1.7933   -1.8747    3.4700 C   0  0  0  0  0  0  0  0  0  0  0  0
    2.0851   -0.9604    3.9971 H   0  0  0  0  0  0  0  0  0  0  0  0
    1.2292   -2.5059    4.1632 H   0  0  0  0  0  0  0  0  0  0  0  0
    2.6985   -2.4118    3.1679 H   0  0  0  0  0  0  0  0  0  0  0  0
  1  2  1  0  0  0  0
  2  3  1  0  0  0  0
  2  4  1  0  0  0  0
  2  5  1  0  0  0  0
  5  6  2  0  0  0  0
  5  7  1  0  0  0  0
  7  8  1  0  0  0  0
  7  9  1  0  0  0  0
  9 10  1  0  0  0  0
  9 11  1  0  0  0  0
  9 12  1  0  0  0  0
 12 13  2  0  0  0  0
 12 14  1  0  0  0  0
 14 15  1  0  0  0  0
 14 16  1  0  0  0  0
 16 17  1  0  0  0  0
 16 18  1  0  0  0  0
 16 19  1  0  0  0  0
M  END
$$$$

  -OEChem-01062216083D

 19 18  0     0  0  0  0  0  0999 V2000
   -2.5846   -3.9299   -0.1153 H   0  0  0  0  0  0  0  0  0  0  0  0
   -2.5143   -2.8391   -0.1568 C   0  0  0  0  0  0  0  0  0  0  0  0
   -3.0881   -2.4178    0.6724 H   0  0  0  0  0  0  0  0  0  0  0  0
   -2.9444   -2.4955   -1.1009 H   0  0  0  0  0  0  0  0  0  0  0  0
   -1.0642   -2.4035   -0.0586 C   0  0  0  0  0  0  0  0  0  0  0  0
   -0.1848   -3.2415    0.0547 O   0  0  0  0  0  0  0  0  0  0  0  0
   -0.7505   -1.0584   -0.0766 N   0  0  0  0  0  0  0  0  0  0  0  0
   -1.5338   -0.4138   -0.1455 H   0  0  0  0  0  0  0  0  0  0  0  0
    0.6088   -0.4804    0.0016 C   0  0  0  0  0  0  0  0  0  0  0  0
    1.1812   -0.8259   -0.8647 H   0  0  0  0  0  0  0  0  0  0  0  0
    0.5279    0.6078   -0.0760 H   0  0  0  0  0  0  0  0  0  0  0  0
    1.4559   -0.7851    1.2521 C   0  0  0  0  0  0  0  0  0  0  0  0
    2.3848   -0.0342    1.5147 O   0  0  0  0  0  0  0  0  0  0  0  0
    1.1353   -1.7952    2.1381 N   0  0  0  0  0  0  0  0  0  0  0  0
    0.5452   -2.5298    1.7446 H   0  0  0  0  0  0  0  0  0  0  0  0
    1.9698   -2.1293    3.2849 C   0  0  0  0  0  0  0  0  0  0  0  0
    2.0658   -1.2672    3.9533 H   0  0  0  0  0  0  0  0  0  0  0  0
    1.5226   -2.9533    3.8492 H   0  0  0  0  0  0  0  0  0  0  0  0
    2.9688   -2.4344    2.9566 H   0  0  0  0  0  0  0  0  0  0  0  0
  1  2  1  0  0  0  0
  2  3  1  0  0  0  0
  2  4  1  0  0  0  0
  2  5  1  0  0  0  0
  5  6  2  0  0  0  0
  5  7  1  0  0  0  0
  7  8  1  0  0  0  0
  7  9  1  0  0  0  0
  9 10  1  0  0  0  0
  9 11  1  0  0  0  0
  9 12  1  0  0  0  0
 12 13  2  0  0  0  0
 12 14  1  0  0  0  0
 14 15  1  0  0  0  0
 14 16  1  0  0  0  0
 16 17  1  0  0  0  0
 16 18  1  0  0  0  0
 16 19  1  0  0  0  0
M  END
$$$$

  -OEChem-01062216083D

 19 18  0     0  0  0  0  0  0999 V2000
   -2.5565   -3.9336   -0.1280 H   0  0  0  0  0  0  0  0  0  0  0  0
   -2.4929   -2.8421   -0.0975 C   0  0  0  0  0  0  0  0  0  0  0  0
   -2.9856   -2.4863    0.8108 H   0  0  0  0  0  0  0  0  0  0  0  0
   -3.0126   -2.4360   -0.9688 H   0  0  0  0  0  0  0  0  0  0  0  0
   -1.0404   -2.4023   -0.1073 C   0  0  0  0  0  0  0  0  0  0  0  0
   -0.1530   -3.2406   -0.1111 O   0  0  0  0  0  0  0  0  0  0  0  0
   -0.7328   -1.0551   -0.1150 N   0  0  0  0  0  0  0  0  0  0  0  0
   -1.5218   -0.4152   -0.0712 H   0  0  0  0  0  0  0  0  0  0  0  0
    0.6236   -0.4726   -0.0287 C   0  0  0  0  0  0  0  0  0  0  0  0
    1.2012   -0.8119   -0.8937 H   0  0  0  0  0  0  0  0  0  0  0  0
    0.5399    0.6157   -0.1033 H   0  0  0  0  0  0  0  0  0  0  0  0
    1.4619   -0.7862    1.2259 C   0  0  0  0  0  0  0  0  0  0  0  0
    2.2298    0.0713    1.6387 O   0  0  0  0  0  0  0  0  0  0  0  0
    1.3304   -1.9649    1.9329 N   0  0  0  0  0  0  0  0  0  0  0  0
    0.8343   -2.7140    1.4453 H   0  0  0  0  0  0  0  0  0  0  0  0
    2.1724   -2.3125    3.0698 C   0  0  0  0  0  0  0  0  0  0  0  0
    2.0755   -1.5628    3.8621 H   0  0  0  0  0  0  0  0  0  0  0  0
    1.8732   -3.2832    3.4768 H   0  0  0  0  0  0  0  0  0  0  0  0
    3.2225   -2.3713    2.7654 H   0  0  0  0  0  0  0  0  0  0  0  0
  1  2  1  0  0  0  0
  2  3  1  0  0  0  0
  2  4  1  0  0  0  0
  2  5  1  0  0  0  0
  5  6  2  0  0  0  0
  5  7  1  0  0  0  0
  7  8  1  0  0  0  0
  7  9  1  0  0  0  0
  9 10  1  0  0  0  0
  9 11  1  0  0  0  0
  9 12  1  0  0  0  0
 12 13  2  0  0  0  0
 12 14  1  0  0  0  0
 14 15  1  0  0  0  0
 14 16  1  0  0  0  0
 16 17  1  0  0  0  0
 16 18  1  0  0  0  0
 16 19  1  0  0  0  0
M  END
$$$$

  -OEChem-01062216083D

 19 18  0     0  0  0  0  0  0999 V2000
   -2.3976   -4.0123   -0.1443 H   0  0  0  0  0  0  0  0  0  0  0  0
   -2.3992   -2.9195   -0.0973 C   0  0  0  0  0  0  0  0  0  0  0  0
   -2.8716   -2.6092    0.8379 H   0  0  0  0  0  0  0  0  0  0  0  0
   -2.9806   -2.5323   -0.9378 H   0  0  0  0  0  0  0  0  0  0  0  0
   -0.9782   -2.3906   -0.1621 C   0  0  0  0  0  0  0  0  0  0  0  0
   -0.0474   -3.1684   -0.3027 O   0  0  0  0  0  0  0  0  0  0  0  0
   -0.7505   -1.0296   -0.0874 N   0  0  0  0  0  0  0  0  0  0  0  0
   -1.5696   -0.4498    0.0766 H   0  0  0  0  0  0  0  0  0  0  0  0
    0.5722   -0.3783    0.0184 C   0  0  0  0  0  0  0  0  0  0  0  0
    1.1555   -0.6288   -0.8727 H   0  0  0  0  0  0  0  0  0  0  0  0
    0.4287    0.7064    0.0133 H   0  0  0  0  0  0  0  0  0  0  0  0
    1.4384   -0.7302    1.2435 C   0  0  0  0  0  0  0  0  0  0  0  0
    1.9702    0.1847    1.8560 O   0  0  0  0  0  0  0  0  0  0  0  0
    1.6001   -2.0316    1.6787 N   0  0  0  0  0  0  0  0  0  0  0  0
    1.1787   -2.7527    1.0877 H   0  0  0  0  0  0  0  0  0  0  0  0
    2.4175   -2.4493    2.8135 C   0  0  0  0  0  0  0  0  0  0  0  0
    2.9190   -1.6022    3.2926 H   0  0  0  0  0  0  0  0  0  0  0  0
    1.7909   -2.9413    3.5636 H   0  0  0  0  0  0  0  0  0  0  0  0
    3.1871   -3.1524    2.4802 H   0  0  0  0  0  0  0  0  0  0  0  0
  1  2  1  0  0  0  0
  2  3  1  0  0  0  0
  2  4  1  0  0  0  0
  2  5  1  0  0  0  0
  5  6  2  0  0  0  0
  5  7  1  0  0  0  0
  7  8  1  0  0  0  0
  7  9  1  0  0  0  0
  9 10  1  0  0  0  0
  9 11  1  0  0  0  0
  9 12  1  0  0  0  0
 12 13  2  0  0  0  0
 12 14  1  0  0  0  0
 14 15  1  0  0  0  0
 14 16  1  0  0  0  0
 16 17  1  0  0  0  0
 16 18  1  0  0  0  0
 16 19  1  0  0  0  0
M  END
$$$$

  -OEChem-01062216083D

 19 18  0     0  0  0  0  0  0999 V2000
   -2.2339   -4.0814   -0.2504 H   0  0  0  0  0  0  0  0  0  0  0  0
   -2.2940   -2.9985   -0.1088 C   0  0  0  0  0  0  0  0  0  0  0  0
   -2.7253   -2.7966    0.8747 H   0  0  0  0  0  0  0  0  0  0  0  0
   -2.9461   -2.5792   -0.8788 H   0  0  0  0  0  0  0  0  0  0  0  0
   -0.9118   -2.3796   -0.2071 C   0  0  0  0  0  0  0  0  0  0  0  0
    0.0553   -3.0876   -0.4436 O   0  0  0  0  0  0  0  0  0  0  0  0
   -0.7609   -1.0135   -0.0615 N   0  0  0  0  0  0  0  0  0  0  0  0
   -1.5989   -0.4973    0.1940 H   0  0  0  0  0  0  0  0  0  0  0  0
    0.5324   -0.3118    0.0648 C   0  0  0  0  0  0  0  0  0  0  0  0
    1.1187   -0.4846   -0.8426 H   0  0  0  0  0  0  0  0  0  0  0  0
    0.3467    0.7647    0.1262 H   0  0  0  0  0  0  0  0  0  0  0  0
    1.4071   -0.7104    1.2667 C   0  0  0  0  0  0  0  0  0  0  0  0
    1.7144    0.1450    2.0848 O   0  0  0  0  0  0  0  0  0  0  0  0
    1.8561   -2.0035    1.4390 N   0  0  0  0  0  0  0  0  0  0  0  0
    1.5147   -2.6963    0.7677 H   0  0  0  0  0  0  0  0  0  0  0  0
    2.6659   -2.4409    2.5677 C   0  0  0  0  0  0  0  0  0  0  0  0
    3.6079   -1.8838    2.6015 H   0  0  0  0  0  0  0  0  0  0  0  0
    2.1290   -2.2841    3.5088 H   0  0  0  0  0  0  0  0  0  0  0  0
    2.8981   -3.5061    2.4740 H   0  0  0  0  0  0  0  0  0  0  0  0
  1  2  1  0  0  0  0
  2  3  1  0  0  0  0
  2  4  1  0  0  0  0
  2  5  1  0  0  0  0
  5  6  2  0  0  0  0
  5  7  1  0  0  0  0
  7  8  1  0  0  0  0
  7  9  1  0  0  0  0
  9 10  1  0  0  0  0
  9 11  1  0  0  0  0
  9 12  1  0  0  0  0
 12 13  2  0  0  0  0
 12 14  1  0  0  0  0
 14 15  1  0  0  0  0
 14 16  1  0  0  0  0
 16 17  1  0  0  0  0
 16 18  1  0  0  0  0
 16 19  1  0  0  0  0
M  END
$$$$

  -OEChem-01062216083D

 19 18  0     0  0  0  0  0  0999 V2000
   -2.1455   -4.0934   -0.2719 H   0  0  0  0  0  0  0  0  0  0  0  0
   -2.2154   -3.0253   -0.0476 C   0  0  0  0  0  0  0  0  0  0  0  0
   -2.5763   -2.9034    0.9765 H   0  0  0  0  0  0  0  0  0  0  0  0
   -2.9309   -2.5686   -0.7357 H   0  0  0  0  0  0  0  0  0  0  0  0
   -0.8561   -2.3682   -0.1996 C   0  0  0  0  0  0  0  0  0  0  0  0
    0.1256   -3.0502   -0.4550 O   0  0  0  0  0  0  0  0  0  0  0  0
   -0.7371   -0.9965   -0.0780 N   0  0  0  0  0  0  0  0  0  0  0  0
   -1.5709   -0.4990    0.2242 H   0  0  0  0  0  0  0  0  0  0  0  0
    0.5518   -0.2856    0.0153 C   0  0  0  0  0  0  0  0  0  0  0  0
    1.1288   -0.4633   -0.8972 H   0  0  0  0  0  0  0  0  0  0  0  0
    0.3652    0.7909    0.0719 H   0  0  0  0  0  0  0  0  0  0  0  0
    1.4248   -0.6817    1.2166 C   0  0  0  0  0  0  0  0  0  0  0  0
    1.5321    0.0911    2.1584 O   0  0  0  0  0  0  0  0  0  0  0  0
    2.1075   -1.8807    1.2296 N   0  0  0  0  0  0  0  0  0  0  0  0
    1.8141   -2.5593    0.5221 H   0  0  0  0  0  0  0  0  0  0  0  0
    2.8674   -2.3526    2.3790 C   0  0  0  0  0  0  0  0  0  0  0  0
    3.6627   -1.6428    2.6297 H   0  0  0  0  0  0  0  0  0  0  0  0
    2.2130   -2.4716    3.2487 H   0  0  0  0  0  0  0  0  0  0  0  0
    3.3275   -3.3197    2.1547 H   0  0  0  0  0  0  0  0  0  0  0  0
  1  2  1  0  0  0  0
  2  3  1  0  0  0  0
  2  4  1  0  0  0  0
  2  5  1  0  0  0  0
  5  6  2  0  0  0  0
  5  7  1  0  0  0  0
  7  8  1  0  0  0  0
  7  9  1  0  0  0  0
  9 10  1  0  0  0  0
  9 11  1  0  0  0  0
  9 12  1  0  0  0  0
 12 13  2  0  0  0  0
 12 14  1  0  0  0  0
 14 15  1  0  0  0  0
 14 16  1  0  0  0  0
 16 17  1  0  0  0  0
 16 18  1  0  0  0  0
 16 19  1  0  0  0  0
M  END
$$$$

  -OEChem-01062216083D

 19 18  0     0  0  0  0  0  0999 V2000
   -2.0298   -4.1143   -0.1539 H   0  0  0  0  0  0  0  0  0  0  0  0
   -2.1403   -3.0374    0.0020 C   0  0  0  0  0  0  0  0  0  0  0  0
   -2.4928   -2.8642    1.0218 H   0  0  0  0  0  0  0  0  0  0  0  0
   -2.8820   -2.6545   -0.7032 H   0  0  0  0  0  0  0  0  0  0  0  0
   -0.8104   -2.3386   -0.2121 C   0  0  0  0  0  0  0  0  0  0  0  0
    0.1851   -2.9895   -0.4966 O   0  0  0  0  0  0  0  0  0  0  0  0
   -0.7270   -0.9635   -0.1002 N   0  0  0  0  0  0  0  0  0  0  0  0
   -1.5517   -0.4915    0.2622 H   0  0  0  0  0  0  0  0  0  0  0  0
    0.5589   -0.2506   -0.0170 C   0  0  0  0  0  0  0  0  0  0  0  0
    1.1369   -0.4273   -0.9292 H   0  0  0  0  0  0  0  0  0  0  0  0
    0.3755    0.8261    0.0439 H   0  0  0  0  0  0  0  0  0  0  0  0
    1.4123   -0.6599    1.1913 C   0  0  0  0  0  0  0  0  0  0  0  0
    1.3140   -0.0313    2.2361 O   0  0  0  0  0  0  0  0  0  0  0  0
    2.3130   -1.7002    1.0851 N   0  0  0  0  0  0  0  0  0  0  0  0
    2.1395   -2.3372    0.3055 H   0  0  0  0  0  0  0  0  0  0  0  0
    3.0707   -2.2000    2.2244 C   0  0  0  0  0  0  0  0  0  0  0  0
    3.6606   -1.3954    2.6757 H   0  0  0  0  0  0  0  0  0  0  0  0
    2.3960   -2.6110    2.9825 H   0  0  0  0  0  0  0  0  0  0  0  0
    3.7567   -2.9895    1.9031 H   0  0  0  0  0  0  0  0  0  0  0  0
  1  2  1  0  0  0  0
  2  3  1  0  0  0  0
  2  4  1  0  0  0  0
  2  5  1  0  0  0  0
  5  6  2  0  0  0  0
  5  7  1  0  0  0  0
  7  8  1  0  0  0  0
  7  9  1  0  0  0  0
  9 10  1  0  0  0  0
  9 11  1  0  0  0  0
  9 12  1  0  0  0  0
 12 13  2  0  0  0  0
 12 14  1  0  0  0  0
 14 15  1  0  0  0  0
 14 16  1  0  0  0  0
 16 17  1  0  0  0  0
 16 18  1  0  0  0  0
 16 19  1  0  0  0  0
M  END
$$$$

  -OEChem-01062216083D

 19 18  0     0  0  0  0  0  0999 V2000
   -1.9879   -4.1107   -0.1825 H   0  0  0  0  0  0  0  0  0  0  0  0
   -2.0993   -3.0438    0.0306 C   0  0  0  0  0  0  0  0  0  0  0  0
   -2.3942   -2.9220    1.0757 H   0  0  0  0  0  0  0  0  0  0  0  0
   -2.8838   -2.6371   -0.6121 H   0  0  0  0  0  0  0  0  0  0  0  0
   -0.7905   -2.3197   -0.2245 C   0  0  0  0  0  0  0  0  0  0  0  0
    0.2094   -2.9505   -0.5377 O   0  0  0  0  0  0  0  0  0  0  0  0
   -0.7299   -0.9431   -0.1189 N   0  0  0  0  0  0  0  0  0  0  0  0
   -1.5412   -0.4930    0.2972 H   0  0  0  0  0  0  0  0  0  0  0  0
    0.5543   -0.2294   -0.0426 C   0  0  0  0  0  0  0  0  0  0  0  0
    1.1298   -0.4064   -0.9562 H   0  0  0  0  0  0  0  0  0  0  0  0
    0.3725    0.8473    0.0202 H   0  0  0  0  0  0  0  0  0  0  0  0
    1.3998   -0.6435    1.1692 C   0  0  0  0  0  0  0  0  0  0  0  0
    1.1114   -0.2082    2.2758 O   0  0  0  0  0  0  0  0  0  0  0  0
    2.5000   -1.4615    1.0064 N   0  0  0  0  0  0  0  0  0  0  0  0
    2.5139   -2.0005    0.1420 H   0  0  0  0  0  0  0  0  0  0  0  0
    3.2706   -1.9624    2.1370 C   0  0  0  0  0  0  0  0  0  0  0  0
    3.6908   -1.1308    2.7126 H   0  0  0  0  0  0  0  0  0  0  0  0
    2.6358   -2.5633    2.7965 H   0  0  0  0  0  0  0  0  0  0  0  0
    4.0962   -2.5878    1.7843 H   0  0  0  0  0  0  0  0  0  0  0  0
  1  2  1  0  0  0  0
  2  3  1  0  0  0  0
  2  4  1  0  0  0  0
  2  5  1  0  0  0  0
  5  6  2  0  0  0  0
  5  7  1  0  0  0  0
  7  8  1  0  0  0  0
  7  9  1  0  0  0  0
  9 10  1  0  0  0  0
  9 11  1  0  0  0  0
  9 12  1  0  0  0  0
 12 13  2  0  0  0  0
 12 14  1  0  0  0  0
 14 15  1  0  0  0  0
 14 16  1  0  0  0  0
 16 17  1  0  0  0  0
 16 18  1  0  0  0  0
 16 19  1  0  0  0  0
M  END
$$$$

  -OEChem-01062216083D

 19 18  0     0  0  0  0  0  0999 V2000
   -1.9630   -4.1094   -0.1521 H   0  0  0  0  0  0  0  0  0  0  0  0
   -2.0756   -3.0439    0.0670 C   0  0  0  0  0  0  0  0  0  0  0  0
   -2.3283   -2.9265    1.1238 H   0  0  0  0  0  0  0  0  0  0  0  0
   -2.8893   -2.6437   -0.5425 H   0  0  0  0  0  0  0  0  0  0  0  0
   -0.7850   -2.3074   -0.2405 C   0  0  0  0  0  0  0  0  0  0  0  0
    0.2096   -2.9294   -0.5854 O   0  0  0  0  0  0  0  0  0  0  0  0
   -0.7356   -0.9296   -0.1457 N   0  0  0  0  0  0  0  0  0  0  0  0
   -1.5336   -0.4947    0.3107 H   0  0  0  0  0  0  0  0  0  0  0  0
    0.5494   -0.2166   -0.0719 C   0  0  0  0  0  0  0  0  0  0  0  0
    1.1247   -0.4030   -0.9838 H   0  0  0  0  0  0  0  0  0  0  0  0
    0.3702    0.8606   -0.0166 H   0  0  0  0  0  0  0  0  0  0  0  0
    1.3895   -0.6245    1.1467 C   0  0  0  0  0  0  0  0  0  0  0  0
    0.9492   -0.4162    2.2698 O   0  0  0  0  0  0  0  0  0  0  0  0
    2.6449   -1.1771    0.9847 N   0  0  0  0  0  0  0  0  0  0  0  0
    2.8586   -1.5325    0.0561 H   0  0  0  0  0  0  0  0  0  0  0  0
    3.4266   -1.6762    2.1088 C   0  0  0  0  0  0  0  0  0  0  0  0
    3.6136   -0.8748    2.8313 H   0  0  0  0  0  0  0  0  0  0  0  0
    2.8948   -2.4896    2.6134 H   0  0  0  0  0  0  0  0  0  0  0  0
    4.3917   -2.0555    1.7594 H   0  0  0  0  0  0  0  0  0  0  0  0
  1  2  1  0  0  0  0
  2  3  1  0  0  0  0
  2  4  1  0  0  0  0
  2  5  1  0  0  0  0
  5  6  2  0  0  0  0
  5  7  1  0  0  0  0
  7  8  1  0  0  0  0
  7  9  1  0  0  0  0
  9 10  1  0  0  0  0
  9 11  1  0  0  0  0
  9 12  1  0  0  0  0
 12 13  2  0  0  0  0
 12 14  1  0  0  0  0
 14 15  1  0  0  0  0
 14 16  1  0  0  0  0
 16 17  1  0  0  0  0
 16 18  1  0  0  0  0
 16 19  1  0  0  0  0
M  END
$$$$

  -OEChem-01062216083D

 19 18  0     0  0  0  0  0  0999 V2000
   -1.9277   -4.1131   -0.0641 H   0  0  0  0  0  0  0  0  0  0  0  0
   -2.0647   -3.0400    0.0964 C   0  0  0  0  0  0  0  0  0  0  0  0
   -2.3138   -2.8710    1.1471 H   0  0  0  0  0  0  0  0  0  0  0  0
   -2.8909   -2.6928   -0.5286 H   0  0  0  0  0  0  0  0  0  0  0  0
   -0.7932   -2.2920   -0.2588 C   0  0  0  0  0  0  0  0  0  0  0  0
    0.1903   -2.9053   -0.6476 O   0  0  0  0  0  0  0  0  0  0  0  0
   -0.7505   -0.9140   -0.1591 N   0  0  0  0  0  0  0  0  0  0  0  0
   -1.5346   -0.4961    0.3352 H   0  0  0  0  0  0  0  0  0  0  0  0
    0.5369   -0.2053   -0.0790 C   0  0  0  0  0  0  0  0  0  0  0  0
    1.1132   -0.3973   -0.9891 H   0  0  0  0  0  0  0  0  0  0  0  0
    0.3622    0.8726   -0.0258 H   0  0  0  0  0  0  0  0  0  0  0  0
    1.3764   -0.6172    1.1403 C   0  0  0  0  0  0  0  0  0  0  0  0
    0.8514   -0.6530    2.2463 O   0  0  0  0  0  0  0  0  0  0  0  0
    2.7270   -0.8777    1.0094 N   0  0  0  0  0  0  0  0  0  0  0  0
    3.0753   -1.0046    0.0634 H   0  0  0  0  0  0  0  0  0  0  0  0
    3.5429   -1.3594    2.1169 C   0  0  0  0  0  0  0  0  0  0  0  0
    3.5326   -0.6404    2.9427 H   0  0  0  0  0  0  0  0  0  0  0  0
    3.1653   -2.3205    2.4813 H   0  0  0  0  0  0  0  0  0  0  0  0
    4.5789   -1.4939    1.7918 H   0  0  0  0  0  0  0  0  0  0  0  0
  1  2  1  0  0  0  0
  2  3  1  0  0  0  0
  2  4  1  0  0  0  0
  2  5  1  0  0  0  0
  5  6  2  0  0  0  0
  5  7  1  0  0  0  0
  7  8  1  0  0  0  0
  7  9  1  0  0  0  0
  9 10  1  0  0  0  0
  9 11  1  0  0  0  0
  9 12  1  0  0  0  0
 12 13  2  0  0  0  0
 12 14  1  0  0  0  0
 14 15  1  0  0  0  0
 14 16  1  0  0  0  0
 16 17  1  0  0  0  0
 16 18  1  0  0  0  0
 16 19  1  0  0  0  0
M  END
$$$$

  -OEChem-01062216083D

 19 18  0     0  0  0  0  0  0999 V2000
   -2.1180   -3.9962    0.2192 H   0  0  0  0  0  0  0  0  0  0  0  0
   -2.1801   -2.9046    0.2403 C   0  0  0  0  0  0  0  0  0  0  0  0
   -2.4270   -2.5865    1.2562 H   0  0  0  0  0  0  0  0  0  0  0  0
   -2.9728   -2.5831   -0.4394 H   0  0  0  0  0  0  0  0  0  0  0  0
   -0.8554   -2.2972   -0.1821 C   0  0  0  0  0  0  0  0  0  0  0  0
    0.0782   -3.0209   -0.4965 O   0  0  0  0  0  0  0  0  0  0  0  0
   -0.7142   -0.9234   -0.2442 N   0  0  0  0  0  0  0  0  0  0  0  0
   -1.4672   -0.4010    0.1957 H   0  0  0  0  0  0  0  0  0  0  0  0
    0.6222   -0.3060   -0.2137 C   0  0  0  0  0  0  0  0  0  0  0  0
    1.1957   -0.6507   -1.0795 H   0  0  0  0  0  0  0  0  0  0  0  0
    0.5272    0.7799   -0.2964 H   0  0  0  0  0  0  0  0  0  0  0  0
    1.4176   -0.6223    1.0641 C   0  0  0  0  0  0  0  0  0  0  0  0
    0.8337   -0.7071    2.1379 O   0  0  0  0  0  0  0  0  0  0  0  0
    2.7980   -0.6853    1.0306 N   0  0  0  0  0  0  0  0  0  0  0  0
    3.2360   -0.7243    0.1150 H   0  0  0  0  0  0  0  0  0  0  0  0
    3.5992   -1.0250    2.2004 C   0  0  0  0  0  0  0  0  0  0  0  0
    3.3622   -2.0371    2.5449 H   0  0  0  0  0  0  0  0  0  0  0  0
    4.6646   -0.9821    1.9549 H   0  0  0  0  0  0  0  0  0  0  0  0
    3.4064   -0.3206    3.0164 H   0  0  0  0  0  0  0  0  0  0  0  0
  1  2  1  0  0  0  0
  2  3  1  0  0  0  0
  2  4  1  0  0  0  0
  2  5  1  0  0  0  0
  5  6  2  0  0  0  0
  5  7  1  0  0  0  0
  7  8  1  0  0  0  0
  7  9  1  0  0  0  0
  9 10  1  0  0  0  0
  9 11  1  0  0  0  0
  9 12  1  0  0  0  0
 12 13  2  0  0  0  0
 12 14  1  0  0  0  0
 14 15  1  0  0  0  0
 14 16  1  0  0  0  0
 16 17  1  0  0  0  0
 16 18  1  0  0  0  0
 16 19  1  0  0  0  0
M  END
$$$$

  -OEChem-01062216083D

 19 18  0     0  0  0  0  0  0999 V2000
   -2.1610   -3.9920    0.1469 H   0  0  0  0  0  0  0  0  0  0  0  0
   -2.1900   -2.9027    0.2395 C   0  0  0  0  0  0  0  0  0  0  0  0
   -2.3854   -2.6433    1.2831 H   0  0  0  0  0  0  0  0  0  0  0  0
   -3.0000   -2.5175   -0.3844 H   0  0  0  0  0  0  0  0  0  0  0  0
   -0.8652   -2.3065   -0.1990 C   0  0  0  0  0  0  0  0  0  0  0  0
    0.0561   -3.0384   -0.5306 O   0  0  0  0  0  0  0  0  0  0  0  0
   -0.7138   -0.9336   -0.2671 N   0  0  0  0  0  0  0  0  0  0  0  0
   -1.4644   -0.4086    0.1734 H   0  0  0  0  0  0  0  0  0  0  0  0
    0.6287   -0.3299   -0.2121 C   0  0  0  0  0  0  0  0  0  0  0  0
    1.2167   -0.6901   -1.0620 H   0  0  0  0  0  0  0  0  0  0  0  0
    0.5435    0.7555   -0.3096 H   0  0  0  0  0  0  0  0  0  0  0  0
    1.4059   -0.6375    1.0807 C   0  0  0  0  0  0  0  0  0  0  0  0
    0.8054   -0.9231    2.1101 O   0  0  0  0  0  0  0  0  0  0  0  0
    2.7676   -0.4066    1.1369 N   0  0  0  0  0  0  0  0  0  0  0  0
    3.2477   -0.2326    0.2592 H   0  0  0  0  0  0  0  0  0  0  0  0
    3.5650   -0.6606    2.3306 C   0  0  0  0  0  0  0  0  0  0  0  0
    3.5035   -1.7166    2.6138 H   0  0  0  0  0  0  0  0  0  0  0  0
    4.6143   -0.4122    2.1442 H   0  0  0  0  0  0  0  0  0  0  0  0
    3.2097   -0.0498    3.1671 H   0  0  0  0  0  0  0  0  0  0  0  0
  1  2  1  0  0  0  0
  2  3  1  0  0  0  0
  2  4  1  0  0  0  0
  2  5  1  0  0  0  0
  5  6  2  0  0  0  0
  5  7  1  0  0  0  0
  7  8  1  0  0  0  0
  7  9  1  0  0  0  0
  9 10  1  0  0  0  0
  9 11  1  0  0  0  0
  9 12  1  0  0  0  0
 12 13  2  0  0  0  0
 12 14  1  0  0  0  0
 14 15  1  0  0  0  0
 14 16  1  0  0  0  0
 16 17  1  0  0  0  0
 16 18  1  0  0  0  0
 16 19  1  0  0  0  0
M  END
$$$$

  -OEChem-01062216083D

 19 18  0     0  0  0  0  0  0999 V2000
   -2.1983   -4.0008    0.1194 H   0  0  0  0  0  0  0  0  0  0  0  0
   -2.2054   -2.9136    0.2377 C   0  0  0  0  0  0  0  0  0  0  0  0
   -2.3325   -2.6771    1.2970 H   0  0  0  0  0  0  0  0  0  0  0  0
   -3.0457   -2.5025   -0.3267 H   0  0  0  0  0  0  0  0  0  0  0  0
   -0.9003   -2.3263   -0.2663 C   0  0  0  0  0  0  0  0  0  0  0  0
   -0.0432   -3.0557   -0.7431 O   0  0  0  0  0  0  0  0  0  0  0  0
   -0.7216   -0.9545   -0.2948 N   0  0  0  0  0  0  0  0  0  0  0  0
   -1.4654   -0.4385    0.1658 H   0  0  0  0  0  0  0  0  0  0  0  0
    0.6277   -0.3646   -0.1973 C   0  0  0  0  0  0  0  0  0  0  0  0
    1.1258   -0.4941   -1.1626 H   0  0  0  0  0  0  0  0  0  0  0  0
    0.5326    0.7095   -0.0181 H   0  0  0  0  0  0  0  0  0  0  0  0
    1.5613   -0.9425    0.8878 C   0  0  0  0  0  0  0  0  0  0  0  0
    1.1146   -1.6061    1.8159 O   0  0  0  0  0  0  0  0  0  0  0  0
    2.8379   -0.4255    1.0161 N   0  0  0  0  0  0  0  0  0  0  0  0
    3.1962    0.1362    0.2500 H   0  0  0  0  0  0  0  0  0  0  0  0
    3.7492   -0.8098    2.0879 C   0  0  0  0  0  0  0  0  0  0  0  0
    3.9189   -1.8917    2.0774 H   0  0  0  0  0  0  0  0  0  0  0  0
    4.7130   -0.3073    1.9628 H   0  0  0  0  0  0  0  0  0  0  0  0
    3.3366   -0.5273    3.0621 H   0  0  0  0  0  0  0  0  0  0  0  0
  1  2  1  0  0  0  0
  2  3  1  0  0  0  0
  2  4  1  0  0  0  0
  2  5  1  0  0  0  0
  5  6  2  0  0  0  0
  5  7  1  0  0  0  0
  7  8  1  0  0  0  0
  7  9  1  0  0  0  0
  9 10  1  0  0  0  0
  9 11  1  0  0  0  0
  9 12  1  0  0  0  0
 12 13  2  0  0  0  0
 12 14  1  0  0  0  0
 14 15  1  0  0  0  0
 14 16  1  0  0  0  0
 16 17  1  0  0  0  0
 16 18  1  0  0  0  0
 16 19  1  0  0  0  0
M  END
$$$$

  -OEChem-01062216083D

 19 18  0     0  0  0  0  0  0999 V2000
   -2.2330   -3.9867    0.0875 H   0  0  0  0  0  0  0  0  0  0  0  0
   -2.2076   -2.9047    0.2450 C   0  0  0  0  0  0  0  0  0  0  0  0
   -2.2889   -2.7038    1.3161 H   0  0  0  0  0  0  0  0  0  0  0  0
   -3.0573   -2.4526   -0.2716 H   0  0  0  0  0  0  0  0  0  0  0  0
   -0.9072   -2.3318   -0.2868 C   0  0  0  0  0  0  0  0  0  0  0  0
   -0.0815   -3.0664   -0.8080 O   0  0  0  0  0  0  0  0  0  0  0  0
   -0.7079   -0.9626   -0.3101 N   0  0  0  0  0  0  0  0  0  0  0  0
   -1.4470   -0.4408    0.1513 H   0  0  0  0  0  0  0  0  0  0  0  0
    0.6481   -0.3898   -0.1931 C   0  0  0  0  0  0  0  0  0  0  0  0
    1.1561   -0.5221   -1.1531 H   0  0  0  0  0  0  0  0  0  0  0  0
    0.5554    0.6852   -0.0179 H   0  0  0  0  0  0  0  0  0  0  0  0
    1.5780   -0.9656    0.8993 C   0  0  0  0  0  0  0  0  0  0  0  0
    1.1891   -1.8048    1.7018 O   0  0  0  0  0  0  0  0  0  0  0  0
    2.7164   -0.2530    1.2328 N   0  0  0  0  0  0  0  0  0  0  0  0
    3.0244    0.4698    0.5896 H   0  0  0  0  0  0  0  0  0  0  0  0
    3.5759   -0.5998    2.3594 C   0  0  0  0  0  0  0  0  0  0  0  0
    3.9328   -1.6310    2.2663 H   0  0  0  0  0  0  0  0  0  0  0  0
    4.4447    0.0645    2.3912 H   0  0  0  0  0  0  0  0  0  0  0  0
    3.0296   -0.4998    3.3033 H   0  0  0  0  0  0  0  0  0  0  0  0
  1  2  1  0  0  0  0
  2  3  1  0  0  0  0
  2  4  1  0  0  0  0
  2  5  1  0  0  0  0
  5  6  2  0  0  0  0
  5  7  1  0  0  0  0
  7  8  1  0  0  0  0
  7  9  1  0  0  0  0
  9 10  1  0  0  0  0
  9 11  1  0  0  0  0
  9 12  1  0  0  0  0
 12 13  2  0  0  0  0
 12 14  1  0  0  0  0
 14 15  1  0  0  0  0
 14 16  1  0  0  0  0
 16 17  1  0  0  0  0
 16 18  1  0  0  0  0
 16 19  1  0  0  0  0
M  END
$$$$

  -OEChem-01062216083D

 19 18  0     0  0  0  0  0  0999 V2000
   -2.2704   -3.9675    0.0954 H   0  0  0  0  0  0  0  0  0  0  0  0
   -2.2152   -2.8881    0.2612 C   0  0  0  0  0  0  0  0  0  0  0  0
   -2.2665   -2.6957    1.3356 H   0  0  0  0  0  0  0  0  0  0  0  0
   -3.0655   -2.4114   -0.2317 H   0  0  0  0  0  0  0  0  0  0  0  0
   -0.9135   -2.3428   -0.2962 C   0  0  0  0  0  0  0  0  0  0  0  0
   -0.1275   -3.0901   -0.8577 O   0  0  0  0  0  0  0  0  0  0  0  0
   -0.6876   -0.9782   -0.3250 N   0  0  0  0  0  0  0  0  0  0  0  0
   -1.4252   -0.4443    0.1245 H   0  0  0  0  0  0  0  0  0  0  0  0
    0.6720   -0.4161   -0.1901 C   0  0  0  0  0  0  0  0  0  0  0  0
    1.1927   -0.5621   -1.1415 H   0  0  0  0  0  0  0  0  0  0  0  0
    0.5791    0.6616   -0.0334 H   0  0  0  0  0  0  0  0  0  0  0  0
    1.5952   -0.9775    0.9177 C   0  0  0  0  0  0  0  0  0  0  0  0
    1.3317   -1.9914    1.5488 O   0  0  0  0  0  0  0  0  0  0  0  0
    2.5393   -0.1270    1.4673 N   0  0  0  0  0  0  0  0  0  0  0  0
    2.7377    0.7383    0.9748 H   0  0  0  0  0  0  0  0  0  0  0  0
    3.3525   -0.4717    2.6289 C   0  0  0  0  0  0  0  0  0  0  0  0
    3.9656   -1.3544    2.4184 H   0  0  0  0  0  0  0  0  0  0  0  0
    4.0172    0.3589    2.8854 H   0  0  0  0  0  0  0  0  0  0  0  0
    2.7164   -0.6829    3.4950 H   0  0  0  0  0  0  0  0  0  0  0  0
  1  2  1  0  0  0  0
  2  3  1  0  0  0  0
  2  4  1  0  0  0  0
  2  5  1  0  0  0  0
  5  6  2  0  0  0  0
  5  7  1  0  0  0  0
  7  8  1  0  0  0  0
  7  9  1  0  0  0  0
  9 10  1  0  0  0  0
  9 11  1  0  0  0  0
  9 12  1  0  0  0  0
 12 13  2  0  0  0  0
 12 14  1  0  0  0  0
 14 15  1  0  0  0  0
 14 16  1  0  0  0  0
 16 17  1  0  0  0  0
 16 18  1  0  0  0  0
 16 19  1  0  0  0  0
M  END
$$$$

  -OEChem-01062216083D

 19 18  0     0  0  0  0  0  0999 V2000
   -2.2598   -3.9651    0.1444 H   0  0  0  0  0  0  0  0  0  0  0  0
   -2.2171   -2.8784    0.2609 C   0  0  0  0  0  0  0  0  0  0  0  0
   -2.2916   -2.6379    1.3241 H   0  0  0  0  0  0  0  0  0  0  0  0
   -3.0614   -2.4326   -0.2699 H   0  0  0  0  0  0  0  0  0  0  0  0
   -0.9099   -2.3472   -0.2976 C   0  0  0  0  0  0  0  0  0  0  0  0
   -0.1502   -3.0991   -0.8861 O   0  0  0  0  0  0  0  0  0  0  0  0
   -0.6724   -0.9849   -0.3259 N   0  0  0  0  0  0  0  0  0  0  0  0
   -1.4172   -0.4445    0.1033 H   0  0  0  0  0  0  0  0  0  0  0  0
    0.6841   -0.4185   -0.1751 C   0  0  0  0  0  0  0  0  0  0  0  0
    1.2183   -0.5701   -1.1181 H   0  0  0  0  0  0  0  0  0  0  0  0
    0.5865    0.6603   -0.0311 H   0  0  0  0  0  0  0  0  0  0  0  0
    1.5980   -0.9707    0.9453 C   0  0  0  0  0  0  0  0  0  0  0  0
    1.5544   -2.1248    1.3423 O   0  0  0  0  0  0  0  0  0  0  0  0
    2.3032   -0.0652    1.7198 N   0  0  0  0  0  0  0  0  0  0  0  0
    2.3176    0.9047    1.4204 H   0  0  0  0  0  0  0  0  0  0  0  0
    3.0995   -0.4516    2.8798 C   0  0  0  0  0  0  0  0  0  0  0  0
    3.8683   -1.1771    2.5930 H   0  0  0  0  0  0  0  0  0  0  0  0
    3.5944    0.4252    3.3080 H   0  0  0  0  0  0  0  0  0  0  0  0
    2.4625   -0.8995    3.6497 H   0  0  0  0  0  0  0  0  0  0  0  0
  1  2  1  0  0  0  0
  2  3  1  0  0  0  0
  2  4  1  0  0  0  0
  2  5  1  0  0  0  0
  5  6  2  0  0  0  0
  5  7  1  0  0  0  0
  7  8  1  0  0  0  0
  7  9  1  0  0  0  0
  9 10  1  0  0  0  0
  9 11  1  0  0  0  0
  9 12  1  0  0  0  0
 12 13  2  0  0  0  0
 12 14  1  0  0  0  0
 14 15  1  0  0  0  0
 14 16  1  0  0  0  0
 16 17  1  0  0  0  0
 16 18  1  0  0  0  0
 16 19  1  0  0  0  0
M  END
$$$$

  -OEChem-01062216083D

 19 18  0     0  0  0  0  0  0999 V2000
   -2.0938   -4.0868   -0.0220 H   0  0  0  0  0  0  0  0  0  0  0  0
   -2.1496   -3.0034    0.1178 C   0  0  0  0  0  0  0  0  0  0  0  0
   -2.3174   -2.7962    1.1773 H   0  0  0  0  0  0  0  0  0  0  0  0
   -2.9898   -2.6154   -0.4628 H   0  0  0  0  0  0  0  0  0  0  0  0
   -0.8569   -2.3532   -0.3393 C   0  0  0  0  0  0  0  0  0  0  0  0
   -0.0322   -3.0169   -0.9417 O   0  0  0  0  0  0  0  0  0  0  0  0
   -0.7111   -0.9810   -0.2437 N   0  0  0  0  0  0  0  0  0  0  0  0
   -1.5077   -0.5207    0.1858 H   0  0  0  0  0  0  0  0  0  0  0  0
    0.5924   -0.3105   -0.0559 C   0  0  0  0  0  0  0  0  0  0  0  0
    1.1249   -0.3332   -1.0119 H   0  0  0  0  0  0  0  0  0  0  0  0
    0.4107    0.7404    0.1820 H   0  0  0  0  0  0  0  0  0  0  0  0
    1.5599   -0.8875    1.0015 C   0  0  0  0  0  0  0  0  0  0  0  0
    1.9787   -2.0327    0.9762 O   0  0  0  0  0  0  0  0  0  0  0  0
    1.9540   -0.0781    2.0531 N   0  0  0  0  0  0  0  0  0  0  0  0
    1.6212    0.8806    2.0656 H   0  0  0  0  0  0  0  0  0  0  0  0
    2.8642   -0.5190    3.1046 C   0  0  0  0  0  0  0  0  0  0  0  0
    2.4523   -1.3879    3.6288 H   0  0  0  0  0  0  0  0  0  0  0  0
    3.8364   -0.7922    2.6807 H   0  0  0  0  0  0  0  0  0  0  0  0
    3.0177    0.2825    3.8335 H   0  0  0  0  0  0  0  0  0  0  0  0
  1  2  1  0  0  0  0
  2  3  1  0  0  0  0
  2  4  1  0  0  0  0
  2  5  1  0  0  0  0
  5  6  2  0  0  0  0
  5  7  1  0  0  0  0
  7  8  1  0  0  0  0
  7  9  1  0  0  0  0
  9 10  1  0  0  0  0
  9 11  1  0  0  0  0
  9 12  1  0  0  0  0
 12 13  2  0  0  0  0
 12 14  1  0  0  0  0
 14 15  1  0  0  0  0
 14 16  1  0  0  0  0
 16 17  1  0  0  0  0
 16 18  1  0  0  0  0
 16 19  1  0  0  0  0
M  END
$$$$

  -OEChem-01062216083D

 19 18  0     0  0  0  0  0  0999 V2000
   -2.3316   -4.0830   -0.2218 H   0  0  0  0  0  0  0  0  0  0  0  0
   -2.3548   -2.9906   -0.1701 C   0  0  0  0  0  0  0  0  0  0  0  0
   -2.9185   -2.6940    0.7176 H   0  0  0  0  0  0  0  0  0  0  0  0
   -2.8590   -2.6080   -1.0606 H   0  0  0  0  0  0  0  0  0  0  0  0
   -0.9415   -2.4409   -0.0970 C   0  0  0  0  0  0  0  0  0  0  0  0
   -0.0050   -3.2133   -0.1515 O   0  0  0  0  0  0  0  0  0  0  0  0
   -0.7590   -1.0728    0.0009 N   0  0  0  0  0  0  0  0  0  0  0  0
   -1.6089   -0.5166   -0.0036 H   0  0  0  0  0  0  0  0  0  0  0  0
    0.5280   -0.3540    0.1143 C   0  0  0  0  0  0  0  0  0  0  0  0
    0.9997   -0.3444   -0.8733 H   0  0  0  0  0  0  0  0  0  0  0  0
    0.3286    0.6862    0.3832 H   0  0  0  0  0  0  0  0  0  0  0  0
    1.5754   -0.9040    1.1018 C   0  0  0  0  0  0  0  0  0  0  0  0
    2.4510   -1.6675    0.7240 O   0  0  0  0  0  0  0  0  0  0  0  0
    1.7737   -0.2439    2.3024 N   0  0  0  0  0  0  0  0  0  0  0  0
    1.0600    0.4125    2.6008 H   0  0  0  0  0  0  0  0  0  0  0  0
    2.8485   -0.5818    3.2288 C   0  0  0  0  0  0  0  0  0  0  0  0
    2.7591   -1.6235    3.5546 H   0  0  0  0  0  0  0  0  0  0  0  0
    3.8242   -0.4448    2.7506 H   0  0  0  0  0  0  0  0  0  0  0  0
    2.8044    0.0628    4.1119 H   0  0  0  0  0  0  0  0  0  0  0  0
  1  2  1  0  0  0  0
  2  3  1  0  0  0  0
  2  4  1  0  0  0  0
  2  5  1  0  0  0  0
  5  6  2  0  0  0  0
  5  7  1  0  0  0  0
  7  8  1  0  0  0  0
  7  9  1  0  0  0  0
  9 10  1  0  0  0  0
  9 11  1  0  0  0  0
  9 12  1  0  0  0  0
 12 13  2  0  0  0  0
 12 14  1  0  0  0  0
 14 15  1  0  0  0  0
 14 16  1  0  0  0  0
 16 17  1  0  0  0  0
 16 18  1  0  0  0  0
 16 19  1  0  0  0  0
M  END
$$$$

  -OEChem-01062216083D

 19 18  0     0  0  0  0  0  0999 V2000
   -2.3025   -4.0895   -0.2130 H   0  0  0  0  0  0  0  0  0  0  0  0
   -2.3417   -2.9965   -0.1928 C   0  0  0  0  0  0  0  0  0  0  0  0
   -2.9597   -2.6833    0.6521 H   0  0  0  0  0  0  0  0  0  0  0  0
   -2.7974   -2.6449   -1.1214 H   0  0  0  0  0  0  0  0  0  0  0  0
   -0.9419   -2.4265   -0.0523 C   0  0  0  0  0  0  0  0  0  0  0  0
    0.0060   -3.1871   -0.0133 O   0  0  0  0  0  0  0  0  0  0  0  0
   -0.7771   -1.0551    0.0307 N   0  0  0  0  0  0  0  0  0  0  0  0
   -1.6232   -0.5021   -0.0711 H   0  0  0  0  0  0  0  0  0  0  0  0
    0.5093   -0.3324    0.1166 C   0  0  0  0  0  0  0  0  0  0  0  0
    0.9657   -0.3240   -0.8785 H   0  0  0  0  0  0  0  0  0  0  0  0
    0.3168    0.7077    0.3915 H   0  0  0  0  0  0  0  0  0  0  0  0
    1.5608   -0.8867    1.0943 C   0  0  0  0  0  0  0  0  0  0  0  0
    2.5634   -1.4400    0.6663 O   0  0  0  0  0  0  0  0  0  0  0  0
    1.5690   -0.4371    2.4028 N   0  0  0  0  0  0  0  0  0  0  0  0
    0.7247    0.0093    2.7454 H   0  0  0  0  0  0  0  0  0  0  0  0
    2.5993   -0.8177    3.3622 C   0  0  0  0  0  0  0  0  0  0  0  0
    2.6329   -1.9064    3.4763 H   0  0  0  0  0  0  0  0  0  0  0  0
    3.5820   -0.4684    3.0285 H   0  0  0  0  0  0  0  0  0  0  0  0
    2.3895   -0.3730    4.3396 H   0  0  0  0  0  0  0  0  0  0  0  0
  1  2  1  0  0  0  0
  2  3  1  0  0  0  0
  2  4  1  0  0  0  0
  2  5  1  0  0  0  0
  5  6  2  0  0  0  0
  5  7  1  0  0  0  0
  7  8  1  0  0  0  0
  7  9  1  0  0  0  0
  9 10  1  0  0  0  0
  9 11  1  0  0  0  0
  9 12  1  0  0  0  0
 12 13  2  0  0  0  0
 12 14  1  0  0  0  0
 14 15  1  0  0  0  0
 14 16  1  0  0  0  0
 16 17  1  0  0  0  0
 16 18  1  0  0  0  0
 16 19  1  0  0  0  0
M  END
$$$$

  -OEChem-01062216083D

 19 18  0     0  0  0  0  0  0999 V2000
   -2.2862   -4.0884   -0.2046 H   0  0  0  0  0  0  0  0  0  0  0  0
   -2.3323   -2.9955   -0.1998 C   0  0  0  0  0  0  0  0  0  0  0  0
   -2.9737   -2.6751    0.6247 H   0  0  0  0  0  0  0  0  0  0  0  0
   -2.7663   -2.6587   -1.1443 H   0  0  0  0  0  0  0  0  0  0  0  0
   -0.9399   -2.4149   -0.0320 C   0  0  0  0  0  0  0  0  0  0  0  0
    0.0130   -3.1676    0.0459 O   0  0  0  0  0  0  0  0  0  0  0  0
   -0.7826   -1.0420    0.0371 N   0  0  0  0  0  0  0  0  0  0  0  0
   -1.6254   -0.4919   -0.1026 H   0  0  0  0  0  0  0  0  0  0  0  0
    0.5050   -0.3207    0.1106 C   0  0  0  0  0  0  0  0  0  0  0  0
    0.9581   -0.3198   -0.8859 H   0  0  0  0  0  0  0  0  0  0  0  0
    0.3178    0.7209    0.3841 H   0  0  0  0  0  0  0  0  0  0  0  0
    1.5520   -0.8752    1.0911 C   0  0  0  0  0  0  0  0  0  0  0  0
    2.6513   -1.2149    0.6769 O   0  0  0  0  0  0  0  0  0  0  0  0
    1.3851   -0.6710    2.4487 N   0  0  0  0  0  0  0  0  0  0  0  0
    0.4486   -0.4418    2.7644 H   0  0  0  0  0  0  0  0  0  0  0  0
    2.3672   -1.1067    3.4343 C   0  0  0  0  0  0  0  0  0  0  0  0
    2.5204   -2.1892    3.3684 H   0  0  0  0  0  0  0  0  0  0  0  0
    3.3263   -0.6047    3.2689 H   0  0  0  0  0  0  0  0  0  0  0  0
    2.0223   -0.8657    4.4443 H   0  0  0  0  0  0  0  0  0  0  0  0
  1  2  1  0  0  0  0
  2  3  1  0  0  0  0
  2  4  1  0  0  0  0
  2  5  1  0  0  0  0
  5  6  2  0  0  0  0
  5  7  1  0  0  0  0
  7  8  1  0  0  0  0
  7  9  1  0  0  0  0
  9 10  1  0  0  0  0
  9 11  1  0  0  0  0
  9 12  1  0  0  0  0
 12 13  2  0  0  0  0
 12 14  1  0  0  0  0
 14 15  1  0  0  0  0
 14 16  1  0  0  0  0
 16 17  1  0  0  0  0
 16 18  1  0  0  0  0
 16 19  1  0  0  0  0
M  END
$$$$

  -OEChem-01062216083D

 19 18  0     0  0  0  0  0  0999 V2000
   -2.2953   -4.0815   -0.1683 H   0  0  0  0  0  0  0  0  0  0  0  0
   -2.3335   -2.9893   -0.2161 C   0  0  0  0  0  0  0  0  0  0  0  0
   -3.0001   -2.6274    0.5703 H   0  0  0  0  0  0  0  0  0  0  0  0
   -2.7326   -2.6944   -1.1896 H   0  0  0  0  0  0  0  0  0  0  0  0
   -0.9436   -2.4092   -0.0283 C   0  0  0  0  0  0  0  0  0  0  0  0
    0.0087   -3.1608    0.0712 O   0  0  0  0  0  0  0  0  0  0  0  0
   -0.7842   -1.0361    0.0328 N   0  0  0  0  0  0  0  0  0  0  0  0
   -1.6221   -0.4828   -0.1241 H   0  0  0  0  0  0  0  0  0  0  0  0
    0.5073   -0.3211    0.1102 C   0  0  0  0  0  0  0  0  0  0  0  0
    0.9662   -0.3259   -0.8837 H   0  0  0  0  0  0  0  0  0  0  0  0
    0.3230    0.7217    0.3818 H   0  0  0  0  0  0  0  0  0  0  0  0
    1.5455   -0.8731    1.1006 C   0  0  0  0  0  0  0  0  0  0  0  0
    2.7099   -0.9950    0.7469 O   0  0  0  0  0  0  0  0  0  0  0  0
    1.2371   -0.9414    2.4466 N   0  0  0  0  0  0  0  0  0  0  0  0
    0.2509   -0.9237    2.6843 H   0  0  0  0  0  0  0  0  0  0  0  0
    2.1853   -1.4260    3.4418 C   0  0  0  0  0  0  0  0  0  0  0  0
    2.4775   -2.4579    3.2202 H   0  0  0  0  0  0  0  0  0  0  0  0
    3.0837   -0.7999    3.4531 H   0  0  0  0  0  0  0  0  0  0  0  0
    1.7351   -1.3984    4.4385 H   0  0  0  0  0  0  0  0  0  0  0  0
  1  2  1  0  0  0  0
  2  3  1  0  0  0  0
  2  4  1  0  0  0  0
  2  5  1  0  0  0  0
  5  6  2  0  0  0  0
  5  7  1  0  0  0  0
  7  8  1  0  0  0  0
  7  9  1  0  0  0  0
  9 10  1  0  0  0  0
  9 11  1  0  0  0  0
  9 12  1  0  0  0  0
 12 13  2  0  0  0  0
 12 14  1  0  0  0  0
 14 15  1  0  0  0  0
 14 16  1  0  0  0  0
 16 17  1  0  0  0  0
 16 18  1  0  0  0  0
 16 19  1  0  0  0  0
M  END
$$$$

  -OEChem-01062216083D

 19 18  0     0  0  0  0  0  0999 V2000
   -2.5393   -3.9474    0.0589 H   0  0  0  0  0  0  0  0  0  0  0  0
   -2.4731   -2.8666   -0.0959 C   0  0  0  0  0  0  0  0  0  0  0  0
   -3.1103   -2.3673    0.6379 H   0  0  0  0  0  0  0  0  0  0  0  0
   -2.8328   -2.6334   -1.1010 H   0  0  0  0  0  0  0  0  0  0  0  0
   -1.0363   -2.4037    0.0602 C   0  0  0  0  0  0  0  0  0  0  0  0
   -0.1616   -3.2255    0.2657 O   0  0  0  0  0  0  0  0  0  0  0  0
   -0.7441   -1.0542   -0.0228 N   0  0  0  0  0  0  0  0  0  0  0  0
   -1.5222   -0.4443   -0.2594 H   0  0  0  0  0  0  0  0  0  0  0  0
    0.6111   -0.4620   -0.0081 C   0  0  0  0  0  0  0  0  0  0  0  0
    1.0664   -0.6140   -0.9917 H   0  0  0  0  0  0  0  0  0  0  0  0
    0.5240    0.6158    0.1521 H   0  0  0  0  0  0  0  0  0  0  0  0
    1.6007   -0.9936    1.0417 C   0  0  0  0  0  0  0  0  0  0  0  0
    2.7927   -1.0313    0.7701 O   0  0  0  0  0  0  0  0  0  0  0  0
    1.1945   -1.1796    2.3498 N   0  0  0  0  0  0  0  0  0  0  0  0
    0.1946   -1.2842    2.4876 H   0  0  0  0  0  0  0  0  0  0  0  0
    2.0897   -1.7065    3.3719 C   0  0  0  0  0  0  0  0  0  0  0  0
    2.9432   -1.0359    3.5173 H   0  0  0  0  0  0  0  0  0  0  0  0
    1.5607   -1.8018    4.3249 H   0  0  0  0  0  0  0  0  0  0  0  0
    2.4628   -2.6942    3.0808 H   0  0  0  0  0  0  0  0  0  0  0  0
  1  2  1  0  0  0  0
  2  3  1  0  0  0  0
  2  4  1  0  0  0  0
  2  5  1  0  0  0  0
  5  6  2  0  0  0  0
  5  7  1  0  0  0  0
  7  8  1  0  0  0  0
  7  9  1  0  0  0  0
  9 10  1  0  0  0  0
  9 11  1  0  0  0  0
  9 12  1  0  0  0  0
 12 13  2  0  0  0  0
 12 14  1  0  0  0  0
 14 15  1  0  0  0  0
 14 16  1  0  0  0  0
 16 17  1  0  0  0  0
 16 18  1  0  0  0  0
 16 19  1  0  0  0  0
M  END
$$$$

  -OEChem-01062216083D

 19 18  0     0  0  0  0  0  0999 V2000
   -2.6041   -3.9295   -0.0272 H   0  0  0  0  0  0  0  0  0  0  0  0
   -2.5197   -2.8455   -0.1487 C   0  0  0  0  0  0  0  0  0  0  0  0
   -3.1576   -2.3586    0.5929 H   0  0  0  0  0  0  0  0  0  0  0  0
   -2.8657   -2.5769   -1.1499 H   0  0  0  0  0  0  0  0  0  0  0  0
   -1.0779   -2.4086    0.0358 C   0  0  0  0  0  0  0  0  0  0  0  0
   -0.2209   -3.2449    0.2573 O   0  0  0  0  0  0  0  0  0  0  0  0
   -0.7593   -1.0649   -0.0333 N   0  0  0  0  0  0  0  0  0  0  0  0
   -1.5273   -0.4385   -0.2598 H   0  0  0  0  0  0  0  0  0  0  0  0
    0.6023   -0.4859    0.0034 C   0  0  0  0  0  0  0  0  0  0  0  0
    1.0631   -0.6338   -0.9782 H   0  0  0  0  0  0  0  0  0  0  0  0
    0.5159    0.5914    0.1684 H   0  0  0  0  0  0  0  0  0  0  0  0
    1.5986   -1.0122    1.0521 C   0  0  0  0  0  0  0  0  0  0  0  0
    2.7905   -0.7985    0.8792 O   0  0  0  0  0  0  0  0  0  0  0  0
    1.1657   -1.4951    2.2728 N   0  0  0  0  0  0  0  0  0  0  0  0
    0.2208   -1.8683    2.2678 H   0  0  0  0  0  0  0  0  0  0  0  0
    2.0922   -2.0102    3.2731 C   0  0  0  0  0  0  0  0  0  0  0  0
    2.8134   -1.2388    3.5631 H   0  0  0  0  0  0  0  0  0  0  0  0
    1.5457   -2.3222    4.1680 H   0  0  0  0  0  0  0  0  0  0  0  0
    2.6386   -2.8738    2.8794 H   0  0  0  0  0  0  0  0  0  0  0  0
  1  2  1  0  0  0  0
  2  3  1  0  0  0  0
  2  4  1  0  0  0  0
  2  5  1  0  0  0  0
  5  6  2  0  0  0  0
  5  7  1  0  0  0  0
  7  8  1  0  0  0  0
  7  9  1  0  0  0  0
  9 10  1  0  0  0  0
  9 11  1  0  0  0  0
  9 12  1  0  0  0  0
 12 13  2  0  0  0  0
 12 14  1  0  0  0  0
 14 15  1  0  0  0  0
 14 16  1  0  0  0  0
 16 17  1  0  0  0  0
 16 18  1  0  0  0  0
 16 19  1  0  0  0  0
M  END
$$$$

  -OEChem-01062216083D

 19 18  0     0  0  0  0  0  0999 V2000
   -2.6713   -3.9012   -0.0941 H   0  0  0  0  0  0  0  0  0  0  0  0
   -2.5680   -2.8152   -0.1733 C   0  0  0  0  0  0  0  0  0  0  0  0
   -3.1741   -2.3470    0.6064 H   0  0  0  0  0  0  0  0  0  0  0  0
   -2.9366   -2.4991   -1.1523 H   0  0  0  0  0  0  0  0  0  0  0  0
   -1.1128   -2.4147   -0.0124 C   0  0  0  0  0  0  0  0  0  0  0  0
   -0.2701   -3.2750    0.1725 O   0  0  0  0  0  0  0  0  0  0  0  0
   -0.7658   -1.0776   -0.0597 N   0  0  0  0  0  0  0  0  0  0  0  0
   -1.5301   -0.4301   -0.2337 H   0  0  0  0  0  0  0  0  0  0  0  0
    0.5999   -0.5078    0.0058 C   0  0  0  0  0  0  0  0  0  0  0  0
    1.0713   -0.6465   -0.9719 H   0  0  0  0  0  0  0  0  0  0  0  0
    0.5112    0.5685    0.1771 H   0  0  0  0  0  0  0  0  0  0  0  0
    1.5985   -1.0326    1.0559 C   0  0  0  0  0  0  0  0  0  0  0  0
    2.7422   -0.6004    1.0193 O   0  0  0  0  0  0  0  0  0  0  0  0
    1.2011   -1.7966    2.1365 N   0  0  0  0  0  0  0  0  0  0  0  0
    0.3707   -2.3585    1.9565 H   0  0  0  0  0  0  0  0  0  0  0  0
    2.1535   -2.3038    3.1164 C   0  0  0  0  0  0  0  0  0  0  0  0
    2.6863   -1.4775    3.5986 H   0  0  0  0  0  0  0  0  0  0  0  0
    1.6298   -2.8727    3.8905 H   0  0  0  0  0  0  0  0  0  0  0  0
    2.8845   -2.9615    2.6347 H   0  0  0  0  0  0  0  0  0  0  0  0
  1  2  1  0  0  0  0
  2  3  1  0  0  0  0
  2  4  1  0  0  0  0
  2  5  1  0  0  0  0
  5  6  2  0  0  0  0
  5  7  1  0  0  0  0
  7  8  1  0  0  0  0
  7  9  1  0  0  0  0
  9 10  1  0  0  0  0
  9 11  1  0  0  0  0
  9 12  1  0  0  0  0
 12 13  2  0  0  0  0
 12 14  1  0  0  0  0
 14 15  1  0  0  0  0
 14 16  1  0  0  0  0
 16 17  1  0  0  0  0
 16 18  1  0  0  0  0
 16 19  1  0  0  0  0
M  END
$$$$

  -OEChem-01062216083D

 19 18  0     0  0  0  0  0  0999 V2000
   -2.7036   -3.8824   -0.1131 H   0  0  0  0  0  0  0  0  0  0  0  0
   -2.5907   -2.7949   -0.1465 C   0  0  0  0  0  0  0  0  0  0  0  0
   -3.1237   -2.3602    0.7026 H   0  0  0  0  0  0  0  0  0  0  0  0
   -3.0333   -2.4248   -1.0745 H   0  0  0  0  0  0  0  0  0  0  0  0
   -1.1215   -2.4195   -0.0864 C   0  0  0  0  0  0  0  0  0  0  0  0
   -0.2799   -3.2995   -0.0269 O   0  0  0  0  0  0  0  0  0  0  0  0
   -0.7591   -1.0858   -0.1101 N   0  0  0  0  0  0  0  0  0  0  0  0
   -1.5288   -0.4235   -0.1623 H   0  0  0  0  0  0  0  0  0  0  0  0
    0.6071   -0.5202   -0.0148 C   0  0  0  0  0  0  0  0  0  0  0  0
    1.0910   -0.6528   -0.9869 H   0  0  0  0  0  0  0  0  0  0  0  0
    0.5158    0.5560    0.1586 H   0  0  0  0  0  0  0  0  0  0  0  0
    1.5992   -1.0491    1.0421 C   0  0  0  0  0  0  0  0  0  0  0  0
    2.6573   -0.4492    1.1716 O   0  0  0  0  0  0  0  0  0  0  0  0
    1.2879   -2.0532    1.9384 N   0  0  0  0  0  0  0  0  0  0  0  0
    0.5610   -2.6915    1.6128 H   0  0  0  0  0  0  0  0  0  0  0  0
    2.2510   -2.5646    2.9050 C   0  0  0  0  0  0  0  0  0  0  0  0
    2.5843   -1.7649    3.5746 H   0  0  0  0  0  0  0  0  0  0  0  0
    1.7936   -3.3519    3.5116 H   0  0  0  0  0  0  0  0  0  0  0  0
    3.1237   -2.9826    2.3925 H   0  0  0  0  0  0  0  0  0  0  0  0
  1  2  1  0  0  0  0
  2  3  1  0  0  0  0
  2  4  1  0  0  0  0
  2  5  1  0  0  0  0
  5  6  2  0  0  0  0
  5  7  1  0  0  0  0
  7  8  1  0  0  0  0
  7  9  1  0  0  0  0
  9 10  1  0  0  0  0
  9 11  1  0  0  0  0
  9 12  1  0  0  0  0
 12 13  2  0  0  0  0
 12 14  1  0  0  0  0
 14 15  1  0  0  0  0
 14 16  1  0  0  0  0
 16 17  1  0  0  0  0
 16 18  1  0  0  0  0
 16 19  1  0  0  0  0
M  END
$$$$

  -OEChem-01062216083D

 19 18  0     0  0  0  0  0  0999 V2000
   -2.7183   -3.8696   -0.2113 H   0  0  0  0  0  0  0  0  0  0  0  0
   -2.5970   -2.7863   -0.1196 C   0  0  0  0  0  0  0  0  0  0  0  0
   -3.0474   -2.4608    0.8213 H   0  0  0  0  0  0  0  0  0  0  0  0
   -3.1172   -2.3044   -0.9511 H   0  0  0  0  0  0  0  0  0  0  0  0
   -1.1245   -2.4196   -0.1445 C   0  0  0  0  0  0  0  0  0  0  0  0
   -0.2878   -3.3050   -0.2043 O   0  0  0  0  0  0  0  0  0  0  0  0
   -0.7573   -1.0869   -0.1458 N   0  0  0  0  0  0  0  0  0  0  0  0
   -1.5284   -0.4262   -0.0964 H   0  0  0  0  0  0  0  0  0  0  0  0
    0.6078   -0.5224   -0.0294 C   0  0  0  0  0  0  0  0  0  0  0  0
    1.0997   -0.6454   -0.9987 H   0  0  0  0  0  0  0  0  0  0  0  0
    0.5122    0.5524    0.1507 H   0  0  0  0  0  0  0  0  0  0  0  0
    1.5974   -1.0583    1.0279 C   0  0  0  0  0  0  0  0  0  0  0  0
    2.5412   -0.3403    1.3273 O   0  0  0  0  0  0  0  0  0  0  0  0
    1.4286   -2.2461    1.7118 N   0  0  0  0  0  0  0  0  0  0  0  0
    0.7849   -2.9076    1.2739 H   0  0  0  0  0  0  0  0  0  0  0  0
    2.4132   -2.7675    2.6510 C   0  0  0  0  0  0  0  0  0  0  0  0
    2.5943   -2.0483    3.4564 H   0  0  0  0  0  0  0  0  0  0  0  0
    2.0517   -3.6987    3.0976 H   0  0  0  0  0  0  0  0  0  0  0  0
    3.3598   -2.9705    2.1398 H   0  0  0  0  0  0  0  0  0  0  0  0
  1  2  1  0  0  0  0
  2  3  1  0  0  0  0
  2  4  1  0  0  0  0
  2  5  1  0  0  0  0
  5  6  2  0  0  0  0
  5  7  1  0  0  0  0
  7  8  1  0  0  0  0
  7  9  1  0  0  0  0
  9 10  1  0  0  0  0
  9 11  1  0  0  0  0
  9 12  1  0  0  0  0
 12 13  2  0  0  0  0
 12 14  1  0  0  0  0
 14 15  1  0  0  0  0
 14 16  1  0  0  0  0
 16 17  1  0  0  0  0
 16 18  1  0  0  0  0
 16 19  1  0  0  0  0
M  END
$$$$

  -OEChem-01062216083D

 19 18  0     0  0  0  0  0  0999 V2000
   -2.7650   -3.8346    0.0218 H   0  0  0  0  0  0  0  0  0  0  0  0
   -2.6212   -2.7506    0.0467 C   0  0  0  0  0  0  0  0  0  0  0  0
   -2.9873   -2.3698    1.0032 H   0  0  0  0  0  0  0  0  0  0  0  0
   -3.2016   -2.3015   -0.7630 H   0  0  0  0  0  0  0  0  0  0  0  0
   -1.1509   -2.4129   -0.1188 C   0  0  0  0  0  0  0  0  0  0  0  0
   -0.3441   -3.3136   -0.2813 O   0  0  0  0  0  0  0  0  0  0  0  0
   -0.7615   -1.0871   -0.1635 N   0  0  0  0  0  0  0  0  0  0  0  0
   -1.5137   -0.4161   -0.0300 H   0  0  0  0  0  0  0  0  0  0  0  0
    0.6172   -0.5468   -0.1104 C   0  0  0  0  0  0  0  0  0  0  0  0
    1.0713   -0.7023   -1.0933 H   0  0  0  0  0  0  0  0  0  0  0  0
    0.5488    0.5341    0.0446 H   0  0  0  0  0  0  0  0  0  0  0  0
    1.6316   -1.0820    0.9241 C   0  0  0  0  0  0  0  0  0  0  0  0
    2.4732   -0.3010    1.3456 O   0  0  0  0  0  0  0  0  0  0  0  0
    1.6256   -2.3701    1.4200 N   0  0  0  0  0  0  0  0  0  0  0  0
    1.0136   -3.0313    0.9369 H   0  0  0  0  0  0  0  0  0  0  0  0
    2.6438   -2.8907    2.3226 C   0  0  0  0  0  0  0  0  0  0  0  0
    2.6821   -2.2966    3.2416 H   0  0  0  0  0  0  0  0  0  0  0  0
    2.4143   -3.9262    2.5913 H   0  0  0  0  0  0  0  0  0  0  0  0
    3.6283   -2.8655    1.8443 H   0  0  0  0  0  0  0  0  0  0  0  0
  1  2  1  0  0  0  0
  2  3  1  0  0  0  0
  2  4  1  0  0  0  0
  2  5  1  0  0  0  0
  5  6  2  0  0  0  0
  5  7  1  0  0  0  0
  7  8  1  0  0  0  0
  7  9  1  0  0  0  0
  9 10  1  0  0  0  0
  9 11  1  0  0  0  0
  9 12  1  0  0  0  0
 12 13  2  0  0  0  0
 12 14  1  0  0  0  0
 14 15  1  0  0  0  0
 14 16  1  0  0  0  0
 16 17  1  0  0  0  0
 16 18  1  0  0  0  0
 16 19  1  0  0  0  0
M  END
$$$$

  -OEChem-01062216083D

 19 18  0     0  0  0  0  0  0999 V2000
   -2.4727   -3.9876   -0.4252 H   0  0  0  0  0  0  0  0  0  0  0  0
   -2.4456   -2.9229   -0.1754 C   0  0  0  0  0  0  0  0  0  0  0  0
   -2.8119   -2.7928    0.8460 H   0  0  0  0  0  0  0  0  0  0  0  0
   -3.1027   -2.3845   -0.8628 H   0  0  0  0  0  0  0  0  0  0  0  0
   -1.0275   -2.3939   -0.2893 C   0  0  0  0  0  0  0  0  0  0  0  0
   -0.1310   -3.1498   -0.6268 O   0  0  0  0  0  0  0  0  0  0  0  0
   -0.7875   -1.0463   -0.0945 N   0  0  0  0  0  0  0  0  0  0  0  0
   -1.6047   -0.5039    0.1733 H   0  0  0  0  0  0  0  0  0  0  0  0
    0.5252   -0.3924    0.1118 C   0  0  0  0  0  0  0  0  0  0  0  0
    1.0250   -0.3329   -0.8594 H   0  0  0  0  0  0  0  0  0  0  0  0
    0.3443    0.6349    0.4428 H   0  0  0  0  0  0  0  0  0  0  0  0
    1.5445   -1.0117    1.0925 C   0  0  0  0  0  0  0  0  0  0  0  0
    2.1185   -0.2611    1.8691 O   0  0  0  0  0  0  0  0  0  0  0  0
    1.8426   -2.3581    1.1381 N   0  0  0  0  0  0  0  0  0  0  0  0
    1.3618   -2.9562    0.4616 H   0  0  0  0  0  0  0  0  0  0  0  0
    2.8206   -2.9494    2.0413 C   0  0  0  0  0  0  0  0  0  0  0  0
    3.8223   -2.5622    1.8279 H   0  0  0  0  0  0  0  0  0  0  0  0
    2.5686   -2.7227    3.0825 H   0  0  0  0  0  0  0  0  0  0  0  0
    2.8355   -4.0366    1.9190 H   0  0  0  0  0  0  0  0  0  0  0  0
  1  2  1  0  0  0  0
  2  3  1  0  0  0  0
  2  4  1  0  0  0  0
  2  5  1  0  0  0  0
  5  6  2  0  0  0  0
  5  7  1  0  0  0  0
  7  8  1  0  0  0  0
  7  9  1  0  0  0  0
  9 10  1  0  0  0  0
  9 11  1  0  0  0  0
  9 12  1  0  0  0  0
 12 13  2  0  0  0  0
 12 14  1  0  0  0  0
 14 15  1  0  0  0  0
 14 16  1  0  0  0  0
 16 17  1  0  0  0  0
 16 18  1  0  0  0  0
 16 19  1  0  0  0  0
M  END
$$$$

  -OEChem-01062216083D

 19 18  0     0  0  0  0  0  0999 V2000
   -2.3708   -4.0252   -0.3418 H   0  0  0  0  0  0  0  0  0  0  0  0
   -2.3661   -2.9581   -0.1015 C   0  0  0  0  0  0  0  0  0  0  0  0
   -2.6878   -2.8304    0.9351 H   0  0  0  0  0  0  0  0  0  0  0  0
   -3.0718   -2.4468   -0.7609 H   0  0  0  0  0  0  0  0  0  0  0  0
   -0.9730   -2.3853   -0.2864 C   0  0  0  0  0  0  0  0  0  0  0  0
   -0.0703   -3.1114   -0.6710 O   0  0  0  0  0  0  0  0  0  0  0  0
   -0.7648   -1.0311   -0.1013 N   0  0  0  0  0  0  0  0  0  0  0  0
   -1.5791   -0.5156    0.2225 H   0  0  0  0  0  0  0  0  0  0  0  0
    0.5425   -0.3595    0.0683 C   0  0  0  0  0  0  0  0  0  0  0  0
    1.0213   -0.2932   -0.9131 H   0  0  0  0  0  0  0  0  0  0  0  0
    0.3628    0.6656    0.4062 H   0  0  0  0  0  0  0  0  0  0  0  0
    1.5737   -0.9868    1.0281 C   0  0  0  0  0  0  0  0  0  0  0  0
    1.9749   -0.3147    1.9680 O   0  0  0  0  0  0  0  0  0  0  0  0
    2.0775   -2.2595    0.8549 N   0  0  0  0  0  0  0  0  0  0  0  0
    1.6123   -2.8326    0.1462 H   0  0  0  0  0  0  0  0  0  0  0  0
    2.9941   -2.9003    1.7879 C   0  0  0  0  0  0  0  0  0  0  0  0
    3.9143   -2.3148    1.8839 H   0  0  0  0  0  0  0  0  0  0  0  0
    2.5316   -2.9960    2.7757 H   0  0  0  0  0  0  0  0  0  0  0  0
    3.2576   -3.8999    1.4292 H   0  0  0  0  0  0  0  0  0  0  0  0
  1  2  1  0  0  0  0
  2  3  1  0  0  0  0
  2  4  1  0  0  0  0
  2  5  1  0  0  0  0
  5  6  2  0  0  0  0
  5  7  1  0  0  0  0
  7  8  1  0  0  0  0
  7  9  1  0  0  0  0
  9 10  1  0  0  0  0
  9 11  1  0  0  0  0
  9 12  1  0  0  0  0
 12 13  2  0  0  0  0
 12 14  1  0  0  0  0
 14 15  1  0  0  0  0
 14 16  1  0  0  0  0
 16 17  1  0  0  0  0
 16 18  1  0  0  0  0
 16 19  1  0  0  0  0
M  END
$$$$

  -OEChem-01062216083D

 19 18  0     0  0  0  0  0  0999 V2000
   -2.2629   -4.0531   -0.3158 H   0  0  0  0  0  0  0  0  0  0  0  0
   -2.2877   -2.9874   -0.0704 C   0  0  0  0  0  0  0  0  0  0  0  0
   -2.5948   -2.8740    0.9723 H   0  0  0  0  0  0  0  0  0  0  0  0
   -3.0203   -2.4957   -0.7152 H   0  0  0  0  0  0  0  0  0  0  0  0
   -0.9166   -2.3705   -0.2764 C   0  0  0  0  0  0  0  0  0  0  0  0
    0.0090   -3.0683   -0.6611 O   0  0  0  0  0  0  0  0  0  0  0  0
   -0.7473   -1.0091   -0.1050 N   0  0  0  0  0  0  0  0  0  0  0  0
   -1.5632   -0.5147    0.2465 H   0  0  0  0  0  0  0  0  0  0  0  0
    0.5536   -0.3247    0.0447 C   0  0  0  0  0  0  0  0  0  0  0  0
    1.0267   -0.2550   -0.9390 H   0  0  0  0  0  0  0  0  0  0  0  0
    0.3740    0.6990    0.3867 H   0  0  0  0  0  0  0  0  0  0  0  0
    1.5750   -0.9624    1.0041 C   0  0  0  0  0  0  0  0  0  0  0  0
    1.8047   -0.4080    2.0700 O   0  0  0  0  0  0  0  0  0  0  0  0
    2.2792   -2.0986    0.6615 N   0  0  0  0  0  0  0  0  0  0  0  0
    1.8638   -2.6477   -0.0953 H   0  0  0  0  0  0  0  0  0  0  0  0
    3.1872   -2.7709    1.5812 C   0  0  0  0  0  0  0  0  0  0  0  0
    3.9889   -2.0929    1.8923 H   0  0  0  0  0  0  0  0  0  0  0  0
    2.6481   -3.1120    2.4710 H   0  0  0  0  0  0  0  0  0  0  0  0
    3.6413   -3.6393    1.0946 H   0  0  0  0  0  0  0  0  0  0  0  0
  1  2  1  0  0  0  0
  2  3  1  0  0  0  0
  2  4  1  0  0  0  0
  2  5  1  0  0  0  0
  5  6  2  0  0  0  0
  5  7  1  0  0  0  0
  7  8  1  0  0  0  0
  7  9  1  0  0  0  0
  9 10  1  0  0  0  0
  9 11  1  0  0  0  0
  9 12  1  0  0  0  0
 12 13  2  0  0  0  0
 12 14  1  0  0  0  0
 14 15  1  0  0  0  0
 14 16  1  0  0  0  0
 16 17  1  0  0  0  0
 16 18  1  0  0  0  0
 16 19  1  0  0  0  0
M  END
$$$$

  -OEChem-01062216083D

 19 18  0     0  0  0  0  0  0999 V2000
   -2.1396   -4.0808   -0.2641 H   0  0  0  0  0  0  0  0  0  0  0  0
   -2.2045   -3.0131   -0.0364 C   0  0  0  0  0  0  0  0  0  0  0  0
   -2.4979   -2.8942    1.0095 H   0  0  0  0  0  0  0  0  0  0  0  0
   -2.9676   -2.5630   -0.6761 H   0  0  0  0  0  0  0  0  0  0  0  0
   -0.8638   -2.3444   -0.2773 C   0  0  0  0  0  0  0  0  0  0  0  0
    0.0842   -3.0060   -0.6739 O   0  0  0  0  0  0  0  0  0  0  0  0
   -0.7396   -0.9764   -0.1205 N   0  0  0  0  0  0  0  0  0  0  0  0
   -1.5521   -0.5099    0.2744 H   0  0  0  0  0  0  0  0  0  0  0  0
    0.5564   -0.2855    0.0178 C   0  0  0  0  0  0  0  0  0  0  0  0
    1.0304   -0.2199   -0.9658 H   0  0  0  0  0  0  0  0  0  0  0  0
    0.3817    0.7388    0.3597 H   0  0  0  0  0  0  0  0  0  0  0  0
    1.5574   -0.9376    0.9862 C   0  0  0  0  0  0  0  0  0  0  0  0
    1.6027   -0.5441    2.1438 O   0  0  0  0  0  0  0  0  0  0  0  0
    2.4566   -1.8859    0.5413 N   0  0  0  0  0  0  0  0  0  0  0  0
    2.1609   -2.3787   -0.3028 H   0  0  0  0  0  0  0  0  0  0  0  0
    3.3677   -2.5770    1.4447 C   0  0  0  0  0  0  0  0  0  0  0  0
    4.0028   -1.8586    1.9738 H   0  0  0  0  0  0  0  0  0  0  0  0
    2.8069   -3.1617    2.1813 H   0  0  0  0  0  0  0  0  0  0  0  0
    4.0144   -3.2555    0.8802 H   0  0  0  0  0  0  0  0  0  0  0  0
  1  2  1  0  0  0  0
  2  3  1  0  0  0  0
  2  4  1  0  0  0  0
  2  5  1  0  0  0  0
  5  6  2  0  0  0  0
  5  7  1  0  0  0  0
  7  8  1  0  0  0  0
  7  9  1  0  0  0  0
  9 10  1  0  0  0  0
  9 11  1  0  0  0  0
  9 12  1  0  0  0  0
 12 13  2  0  0  0  0
 12 14  1  0  0  0  0
 14 15  1  0  0  0  0
 14 16  1  0  0  0  0
 16 17  1  0  0  0  0
 16 18  1  0  0  0  0
 16 19  1  0  0  0  0
M  END
$$$$

  -OEChem-01062216083D

 19 18  0     0  0  0  0  0  0999 V2000
   -2.0541   -4.0924   -0.2359 H   0  0  0  0  0  0  0  0  0  0  0  0
   -2.1380   -3.0282    0.0018 C   0  0  0  0  0  0  0  0  0  0  0  0
   -2.3887   -2.9234    1.0604 H   0  0  0  0  0  0  0  0  0  0  0  0
   -2.9397   -2.5949   -0.6012 H   0  0  0  0  0  0  0  0  0  0  0  0
   -0.8272   -2.3218   -0.2909 C   0  0  0  0  0  0  0  0  0  0  0  0
    0.1305   -2.9570   -0.7078 O   0  0  0  0  0  0  0  0  0  0  0  0
   -0.7370   -0.9496   -0.1482 N   0  0  0  0  0  0  0  0  0  0  0  0
   -1.5421   -0.5082    0.2883 H   0  0  0  0  0  0  0  0  0  0  0  0
    0.5545   -0.2516   -0.0165 C   0  0  0  0  0  0  0  0  0  0  0  0
    1.0301   -0.1899   -0.9997 H   0  0  0  0  0  0  0  0  0  0  0  0
    0.3795    0.7731    0.3232 H   0  0  0  0  0  0  0  0  0  0  0  0
    1.5409   -0.9083    0.9627 C   0  0  0  0  0  0  0  0  0  0  0  0
    1.3892   -0.7291    2.1637 O   0  0  0  0  0  0  0  0  0  0  0  0
    2.6273   -1.6228    0.4975 N   0  0  0  0  0  0  0  0  0  0  0  0
    2.5324   -1.9746   -0.4532 H   0  0  0  0  0  0  0  0  0  0  0  0
    3.5256   -2.3362    1.3965 C   0  0  0  0  0  0  0  0  0  0  0  0
    3.9863   -1.6438    2.1089 H   0  0  0  0  0  0  0  0  0  0  0  0
    2.9796   -3.1041    1.9544 H   0  0  0  0  0  0  0  0  0  0  0  0
    4.3228   -2.8216    0.8254 H   0  0  0  0  0  0  0  0  0  0  0  0
  1  2  1  0  0  0  0
  2  3  1  0  0  0  0
  2  4  1  0  0  0  0
  2  5  1  0  0  0  0
  5  6  2  0  0  0  0
  5  7  1  0  0  0  0
  7  8  1  0  0  0  0
  7  9  1  0  0  0  0
  9 10  1  0  0  0  0
  9 11  1  0  0  0  0
  9 12  1  0  0  0  0
 12 13  2  0  0  0  0
 12 14  1  0  0  0  0
 14 15  1  0  0  0  0
 14 16  1  0  0  0  0
 16 17  1  0  0  0  0
 16 18  1  0  0  0  0
 16 19  1  0  0  0  0
M  END
$$$$

  -OEChem-01062216083D

 19 18  0     0  0  0  0  0  0999 V2000
   -2.0014   -4.1011   -0.1944 H   0  0  0  0  0  0  0  0  0  0  0  0
   -2.1000   -3.0369    0.0380 C   0  0  0  0  0  0  0  0  0  0  0  0
   -2.3182   -2.9288    1.1034 H   0  0  0  0  0  0  0  0  0  0  0  0
   -2.9295   -2.6251   -0.5417 H   0  0  0  0  0  0  0  0  0  0  0  0
   -0.8143   -2.3062   -0.3014 C   0  0  0  0  0  0  0  0  0  0  0  0
    0.1423   -2.9246   -0.7446 O   0  0  0  0  0  0  0  0  0  0  0  0
   -0.7447   -0.9318   -0.1671 N   0  0  0  0  0  0  0  0  0  0  0  0
   -1.5402   -0.5101    0.3048 H   0  0  0  0  0  0  0  0  0  0  0  0
    0.5449   -0.2303   -0.0386 C   0  0  0  0  0  0  0  0  0  0  0  0
    1.0198   -0.1780   -1.0223 H   0  0  0  0  0  0  0  0  0  0  0  0
    0.3713    0.7968    0.2941 H   0  0  0  0  0  0  0  0  0  0  0  0
    1.5264   -0.8858    0.9469 C   0  0  0  0  0  0  0  0  0  0  0  0
    1.2250   -0.9431    2.1322 O   0  0  0  0  0  0  0  0  0  0  0  0
    2.7624   -1.3345    0.5229 N   0  0  0  0  0  0  0  0  0  0  0  0
    2.8620   -1.4757   -0.4788 H   0  0  0  0  0  0  0  0  0  0  0  0
    3.6720   -2.0518    1.4073 C   0  0  0  0  0  0  0  0  0  0  0  0
    3.9268   -1.4369    2.2768 H   0  0  0  0  0  0  0  0  0  0  0  0
    3.2121   -2.9825    1.7559 H   0  0  0  0  0  0  0  0  0  0  0  0
    4.5974   -2.2981    0.8781 H   0  0  0  0  0  0  0  0  0  0  0  0
  1  2  1  0  0  0  0
  2  3  1  0  0  0  0
  2  4  1  0  0  0  0
  2  5  1  0  0  0  0
  5  6  2  0  0  0  0
  5  7  1  0  0  0  0
  7  8  1  0  0  0  0
  7  9  1  0  0  0  0
  9 10  1  0  0  0  0
  9 11  1  0  0  0  0
  9 12  1  0  0  0  0
 12 13  2  0  0  0  0
 12 14  1  0  0  0  0
 14 15  1  0  0  0  0
 14 16  1  0  0  0  0
 16 17  1  0  0  0  0
 16 18  1  0  0  0  0
 16 19  1  0  0  0  0
M  END
$$$$

  -OEChem-01062216083D

 19 18  0     0  0  0  0  0  0999 V2000
   -1.9781   -4.1098   -0.1234 H   0  0  0  0  0  0  0  0  0  0  0  0
   -2.0991   -3.0370    0.0517 C   0  0  0  0  0  0  0  0  0  0  0  0
   -2.3344   -2.8779    1.1070 H   0  0  0  0  0  0  0  0  0  0  0  0
   -2.9272   -2.6709   -0.5599 H   0  0  0  0  0  0  0  0  0  0  0  0
   -0.8212   -2.3020   -0.3081 C   0  0  0  0  0  0  0  0  0  0  0  0
    0.1268   -2.9152   -0.7764 O   0  0  0  0  0  0  0  0  0  0  0  0
   -0.7548   -0.9271   -0.1750 N   0  0  0  0  0  0  0  0  0  0  0  0
   -1.5419   -0.5146    0.3181 H   0  0  0  0  0  0  0  0  0  0  0  0
    0.5375   -0.2305   -0.0449 C   0  0  0  0  0  0  0  0  0  0  0  0
    1.0117   -0.1871   -1.0294 H   0  0  0  0  0  0  0  0  0  0  0  0
    0.3678    0.7987    0.2824 H   0  0  0  0  0  0  0  0  0  0  0  0
    1.5197   -0.8848    0.9423 C   0  0  0  0  0  0  0  0  0  0  0  0
    1.1370   -1.1561    2.0737 O   0  0  0  0  0  0  0  0  0  0  0  0
    2.8498   -1.0538    0.6070 N   0  0  0  0  0  0  0  0  0  0  0  0
    3.0850   -0.9683   -0.3775 H   0  0  0  0  0  0  0  0  0  0  0  0
    3.7961   -1.7284    1.4865 C   0  0  0  0  0  0  0  0  0  0  0  0
    3.8636   -1.2096    2.4486 H   0  0  0  0  0  0  0  0  0  0  0  0
    3.4822   -2.7624    1.6646 H   0  0  0  0  0  0  0  0  0  0  0  0
    4.7915   -1.7405    1.0324 H   0  0  0  0  0  0  0  0  0  0  0  0
  1  2  1  0  0  0  0
  2  3  1  0  0  0  0
  2  4  1  0  0  0  0
  2  5  1  0  0  0  0
  5  6  2  0  0  0  0
  5  7  1  0  0  0  0
  7  8  1  0  0  0  0
  7  9  1  0  0  0  0
  9 10  1  0  0  0  0
  9 11  1  0  0  0  0
  9 12  1  0  0  0  0
 12 13  2  0  0  0  0
 12 14  1  0  0  0  0
 14 15  1  0  0  0  0
 14 16  1  0  0  0  0
 16 17  1  0  0  0  0
 16 18  1  0  0  0  0
 16 19  1  0  0  0  0
M  END
$$$$

  -OEChem-01062216083D

 19 18  0     0  0  0  0  0  0999 V2000
   -2.1289   -4.0156    0.1591 H   0  0  0  0  0  0  0  0  0  0  0  0
   -2.1737   -2.9264    0.2465 C   0  0  0  0  0  0  0  0  0  0  0  0
   -2.3425   -2.6653    1.2942 H   0  0  0  0  0  0  0  0  0  0  0  0
   -3.0081   -2.5579   -0.3549 H   0  0  0  0  0  0  0  0  0  0  0  0
   -0.8731   -2.3096   -0.2334 C   0  0  0  0  0  0  0  0  0  0  0  0
    0.0254   -3.0232   -0.6547 O   0  0  0  0  0  0  0  0  0  0  0  0
   -0.7317   -0.9341   -0.2684 N   0  0  0  0  0  0  0  0  0  0  0  0
   -1.4861   -0.4284    0.1874 H   0  0  0  0  0  0  0  0  0  0  0  0
    0.6013   -0.3067   -0.2096 C   0  0  0  0  0  0  0  0  0  0  0  0
    1.0797   -0.4181   -1.1870 H   0  0  0  0  0  0  0  0  0  0  0  0
    0.4928    0.7640   -0.0175 H   0  0  0  0  0  0  0  0  0  0  0  0
    1.5466   -0.8867    0.8590 C   0  0  0  0  0  0  0  0  0  0  0  0
    1.1018   -1.1916    1.9593 O   0  0  0  0  0  0  0  0  0  0  0  0
    2.9141   -0.8812    0.6574 N   0  0  0  0  0  0  0  0  0  0  0  0
    3.2401   -0.7186   -0.2905 H   0  0  0  0  0  0  0  0  0  0  0  0
    3.8542   -1.4185    1.6336 C   0  0  0  0  0  0  0  0  0  0  0  0
    3.6622   -2.4831    1.8040 H   0  0  0  0  0  0  0  0  0  0  0  0
    4.8808   -1.3042    1.2725 H   0  0  0  0  0  0  0  0  0  0  0  0
    3.7639   -0.8869    2.5868 H   0  0  0  0  0  0  0  0  0  0  0  0
  1  2  1  0  0  0  0
  2  3  1  0  0  0  0
  2  4  1  0  0  0  0
  2  5  1  0  0  0  0
  5  6  2  0  0  0  0
  5  7  1  0  0  0  0
  7  8  1  0  0  0  0
  7  9  1  0  0  0  0
  9 10  1  0  0  0  0
  9 11  1  0  0  0  0
  9 12  1  0  0  0  0
 12 13  2  0  0  0  0
 12 14  1  0  0  0  0
 14 15  1  0  0  0  0
 14 16  1  0  0  0  0
 16 17  1  0  0  0  0
 16 18  1  0  0  0  0
 16 19  1  0  0  0  0
M  END
$$$$

  -OEChem-01062216083D

 19 18  0     0  0  0  0  0  0999 V2000
   -2.1806   -4.0069    0.1238 H   0  0  0  0  0  0  0  0  0  0  0  0
   -2.1988   -2.9197    0.2397 C   0  0  0  0  0  0  0  0  0  0  0  0
   -2.3465   -2.6819    1.2961 H   0  0  0  0  0  0  0  0  0  0  0  0
   -3.0332   -2.5172   -0.3394 H   0  0  0  0  0  0  0  0  0  0  0  0
   -0.8910   -2.3213   -0.2442 C   0  0  0  0  0  0  0  0  0  0  0  0
   -0.0114   -3.0457   -0.6863 O   0  0  0  0  0  0  0  0  0  0  0  0
   -0.7291   -0.9479   -0.2798 N   0  0  0  0  0  0  0  0  0  0  0  0
   -1.4777   -0.4345    0.1764 H   0  0  0  0  0  0  0  0  0  0  0  0
    0.6130   -0.3405   -0.2042 C   0  0  0  0  0  0  0  0  0  0  0  0
    1.1003   -0.4654   -1.1755 H   0  0  0  0  0  0  0  0  0  0  0  0
    0.5133    0.7326   -0.0213 H   0  0  0  0  0  0  0  0  0  0  0  0
    1.5525   -0.9176    0.8734 C   0  0  0  0  0  0  0  0  0  0  0  0
    1.0904   -1.4004    1.9006 O   0  0  0  0  0  0  0  0  0  0  0  0
    2.9066   -0.6427    0.8177 N   0  0  0  0  0  0  0  0  0  0  0  0
    3.2733   -0.2739   -0.0544 H   0  0  0  0  0  0  0  0  0  0  0  0
    3.8470   -1.0833    1.8410 C   0  0  0  0  0  0  0  0  0  0  0  0
    3.8419   -2.1755    1.9205 H   0  0  0  0  0  0  0  0  0  0  0  0
    4.8609   -0.7586    1.5883 H   0  0  0  0  0  0  0  0  0  0  0  0
    3.5819   -0.6575    2.8144 H   0  0  0  0  0  0  0  0  0  0  0  0
  1  2  1  0  0  0  0
  2  3  1  0  0  0  0
  2  4  1  0  0  0  0
  2  5  1  0  0  0  0
  5  6  2  0  0  0  0
  5  7  1  0  0  0  0
  7  8  1  0  0  0  0
  7  9  1  0  0  0  0
  9 10  1  0  0  0  0
  9 11  1  0  0  0  0
  9 12  1  0  0  0  0
 12 13  2  0  0  0  0
 12 14  1  0  0  0  0
 14 15  1  0  0  0  0
 14 16  1  0  0  0  0
 16 17  1  0  0  0  0
 16 18  1  0  0  0  0
 16 19  1  0  0  0  0
M  END
$$$$

  -OEChem-01062216083D

 19 18  0     0  0  0  0  0  0999 V2000
   -2.2613   -4.0006    0.1107 H   0  0  0  0  0  0  0  0  0  0  0  0
   -2.2335   -2.9166    0.2528 C   0  0  0  0  0  0  0  0  0  0  0  0
   -2.2893   -2.7027    1.3230 H   0  0  0  0  0  0  0  0  0  0  0  0
   -3.0955   -2.4718   -0.2497 H   0  0  0  0  0  0  0  0  0  0  0  0
   -0.9472   -2.3498   -0.3182 C   0  0  0  0  0  0  0  0  0  0  0  0
   -0.1733   -3.0780   -0.9210 O   0  0  0  0  0  0  0  0  0  0  0  0
   -0.7312   -0.9831   -0.3215 N   0  0  0  0  0  0  0  0  0  0  0  0
   -1.4643   -0.4645    0.1527 H   0  0  0  0  0  0  0  0  0  0  0  0
    0.6238   -0.4020   -0.2101 C   0  0  0  0  0  0  0  0  0  0  0  0
    1.0112   -0.2749   -1.2249 H   0  0  0  0  0  0  0  0  0  0  0  0
    0.5396    0.5921    0.2369 H   0  0  0  0  0  0  0  0  0  0  0  0
    1.6997   -1.1710    0.5894 C   0  0  0  0  0  0  0  0  0  0  0  0
    1.3875   -1.9976    1.4377 O   0  0  0  0  0  0  0  0  0  0  0  0
    2.9657   -0.6201    0.6820 N   0  0  0  0  0  0  0  0  0  0  0  0
    3.2182    0.0915    0.0033 H   0  0  0  0  0  0  0  0  0  0  0  0
    4.0042   -1.1492    1.5591 C   0  0  0  0  0  0  0  0  0  0  0  0
    4.1818   -2.2088    1.3468 H   0  0  0  0  0  0  0  0  0  0  0  0
    4.9411   -0.6048    1.4075 H   0  0  0  0  0  0  0  0  0  0  0  0
    3.7093   -1.0444    2.6085 H   0  0  0  0  0  0  0  0  0  0  0  0
  1  2  1  0  0  0  0
  2  3  1  0  0  0  0
  2  4  1  0  0  0  0
  2  5  1  0  0  0  0
  5  6  2  0  0  0  0
  5  7  1  0  0  0  0
  7  8  1  0  0  0  0
  7  9  1  0  0  0  0
  9 10  1  0  0  0  0
  9 11  1  0  0  0  0
  9 12  1  0  0  0  0
 12 13  2  0  0  0  0
 12 14  1  0  0  0  0
 14 15  1  0  0  0  0
 14 16  1  0  0  0  0
 16 17  1  0  0  0  0
 16 18  1  0  0  0  0
 16 19  1  0  0  0  0
M  END
$$$$

  -OEChem-01062216083D

 19 18  0     0  0  0  0  0  0999 V2000
   -2.2824   -3.9874    0.1393 H   0  0  0  0  0  0  0  0  0  0  0  0
   -2.2373   -2.9026    0.2709 C   0  0  0  0  0  0  0  0  0  0  0  0
   -2.2648   -2.6790    1.3401 H   0  0  0  0  0  0  0  0  0  0  0  0
   -3.1056   -2.4511   -0.2145 H   0  0  0  0  0  0  0  0  0  0  0  0
   -0.9575   -2.3582   -0.3359 C   0  0  0  0  0  0  0  0  0  0  0  0
   -0.2306   -3.0926   -0.9867 O   0  0  0  0  0  0  0  0  0  0  0  0
   -0.7141   -0.9964   -0.3400 N   0  0  0  0  0  0  0  0  0  0  0  0
   -1.4409   -0.4684    0.1332 H   0  0  0  0  0  0  0  0  0  0  0  0
    0.6470   -0.4309   -0.2131 C   0  0  0  0  0  0  0  0  0  0  0  0
    1.0458   -0.3115   -1.2244 H   0  0  0  0  0  0  0  0  0  0  0  0
    0.5578    0.5674    0.2234 H   0  0  0  0  0  0  0  0  0  0  0  0
    1.7257   -1.1876    0.5988 C   0  0  0  0  0  0  0  0  0  0  0  0
    1.4684   -2.1826    1.2626 O   0  0  0  0  0  0  0  0  0  0  0  0
    2.8696   -0.4919    0.9517 N   0  0  0  0  0  0  0  0  0  0  0  0
    3.0706    0.3680    0.4509 H   0  0  0  0  0  0  0  0  0  0  0  0
    3.8693   -1.0106    1.8797 C   0  0  0  0  0  0  0  0  0  0  0  0
    4.2432   -1.9810    1.5362 H   0  0  0  0  0  0  0  0  0  0  0  0
    4.7150   -0.3199    1.9517 H   0  0  0  0  0  0  0  0  0  0  0  0
    3.4378   -1.1331    2.8786 H   0  0  0  0  0  0  0  0  0  0  0  0
  1  2  1  0  0  0  0
  2  3  1  0  0  0  0
  2  4  1  0  0  0  0
  2  5  1  0  0  0  0
  5  6  2  0  0  0  0
  5  7  1  0  0  0  0
  7  8  1  0  0  0  0
  7  9  1  0  0  0  0
  9 10  1  0  0  0  0
  9 11  1  0  0  0  0
  9 12  1  0  0  0  0
 12 13  2  0  0  0  0
 12 14  1  0  0  0  0
 14 15  1  0  0  0  0
 14 16  1  0  0  0  0
 16 17  1  0  0  0  0
 16 18  1  0  0  0  0
 16 19  1  0  0  0  0
M  END
$$$$

  -OEChem-01062216083D

 19 18  0     0  0  0  0  0  0999 V2000
   -2.3080   -3.9770    0.1102 H   0  0  0  0  0  0  0  0  0  0  0  0
   -2.2374   -2.8970    0.2679 C   0  0  0  0  0  0  0  0  0  0  0  0
   -2.2379   -2.6998    1.3426 H   0  0  0  0  0  0  0  0  0  0  0  0
   -3.1059   -2.4158   -0.1879 H   0  0  0  0  0  0  0  0  0  0  0  0
   -0.9596   -2.3641   -0.3533 C   0  0  0  0  0  0  0  0  0  0  0  0
   -0.2779   -3.0923   -1.0562 O   0  0  0  0  0  0  0  0  0  0  0  0
   -0.6997   -1.0059   -0.3414 N   0  0  0  0  0  0  0  0  0  0  0  0
   -1.4286   -0.4788    0.1292 H   0  0  0  0  0  0  0  0  0  0  0  0
    0.6599   -0.4403   -0.1927 C   0  0  0  0  0  0  0  0  0  0  0  0
    1.0693   -0.3118   -1.1988 H   0  0  0  0  0  0  0  0  0  0  0  0
    0.5555    0.5560    0.2449 H   0  0  0  0  0  0  0  0  0  0  0  0
    1.7455   -1.1860    0.6234 C   0  0  0  0  0  0  0  0  0  0  0  0
    1.6256   -2.3358    1.0182 O   0  0  0  0  0  0  0  0  0  0  0  0
    2.7111   -0.4182    1.2527 N   0  0  0  0  0  0  0  0  0  0  0  0
    2.7945    0.5547    0.9755 H   0  0  0  0  0  0  0  0  0  0  0  0
    3.6900   -0.9637    2.1877 C   0  0  0  0  0  0  0  0  0  0  0  0
    4.2629   -1.7697    1.7169 H   0  0  0  0  0  0  0  0  0  0  0  0
    4.3886   -0.1828    2.5026 H   0  0  0  0  0  0  0  0  0  0  0  0
    3.1904   -1.3598    3.0780 H   0  0  0  0  0  0  0  0  0  0  0  0
  1  2  1  0  0  0  0
  2  3  1  0  0  0  0
  2  4  1  0  0  0  0
  2  5  1  0  0  0  0
  5  6  2  0  0  0  0
  5  7  1  0  0  0  0
  7  8  1  0  0  0  0
  7  9  1  0  0  0  0
  9 10  1  0  0  0  0
  9 11  1  0  0  0  0
  9 12  1  0  0  0  0
 12 13  2  0  0  0  0
 12 14  1  0  0  0  0
 14 15  1  0  0  0  0
 14 16  1  0  0  0  0
 16 17  1  0  0  0  0
 16 18  1  0  0  0  0
 16 19  1  0  0  0  0
M  END
$$$$

  -OEChem-01062216083D

 19 18  0     0  0  0  0  0  0999 V2000
   -2.5464   -4.0131   -0.3659 H   0  0  0  0  0  0  0  0  0  0  0  0
   -2.4784   -2.9235   -0.2973 C   0  0  0  0  0  0  0  0  0  0  0  0
   -3.1623   -2.5778    0.4815 H   0  0  0  0  0  0  0  0  0  0  0  0
   -2.7777   -2.4933   -1.2559 H   0  0  0  0  0  0  0  0  0  0  0  0
   -1.0570   -2.5083    0.0375 C   0  0  0  0  0  0  0  0  0  0  0  0
   -0.2411   -3.3789    0.2616 O   0  0  0  0  0  0  0  0  0  0  0  0
   -0.7780   -1.1560    0.1477 N   0  0  0  0  0  0  0  0  0  0  0  0
   -1.5715   -0.5571   -0.0598 H   0  0  0  0  0  0  0  0  0  0  0  0
    0.5365   -0.4772    0.2404 C   0  0  0  0  0  0  0  0  0  0  0  0
    0.8459   -0.2178   -0.7764 H   0  0  0  0  0  0  0  0  0  0  0  0
    0.3795    0.4610    0.7783 H   0  0  0  0  0  0  0  0  0  0  0  0
    1.7592   -1.1643    0.8855 C   0  0  0  0  0  0  0  0  0  0  0  0
    2.3166   -2.0994    0.3319 O   0  0  0  0  0  0  0  0  0  0  0  0
    2.5299   -0.4313    1.7732 N   0  0  0  0  0  0  0  0  0  0  0  0
    2.1076    0.3883    2.1965 H   0  0  0  0  0  0  0  0  0  0  0  0
    3.8329   -0.8750    2.2571 C   0  0  0  0  0  0  0  0  0  0  0  0
    3.7501   -1.8568    2.7355 H   0  0  0  0  0  0  0  0  0  0  0  0
    4.5458   -0.9459    1.4288 H   0  0  0  0  0  0  0  0  0  0  0  0
    4.2258   -0.1647    2.9907 H   0  0  0  0  0  0  0  0  0  0  0  0
  1  2  1  0  0  0  0
  2  3  1  0  0  0  0
  2  4  1  0  0  0  0
  2  5  1  0  0  0  0
  5  6  2  0  0  0  0
  5  7  1  0  0  0  0
  7  8  1  0  0  0  0
  7  9  1  0  0  0  0
  9 10  1  0  0  0  0
  9 11  1  0  0  0  0
  9 12  1  0  0  0  0
 12 13  2  0  0  0  0
 12 14  1  0  0  0  0
 14 15  1  0  0  0  0
 14 16  1  0  0  0  0
 16 17  1  0  0  0  0
 16 18  1  0  0  0  0
 16 19  1  0  0  0  0
M  END
$$$$

  -OEChem-01062216083D

 19 18  0     0  0  0  0  0  0999 V2000
   -2.4626   -4.0390   -0.3392 H   0  0  0  0  0  0  0  0  0  0  0  0
   -2.4315   -2.9459   -0.3074 C   0  0  0  0  0  0  0  0  0  0  0  0
   -3.1578   -2.5952    0.4294 H   0  0  0  0  0  0  0  0  0  0  0  0
   -2.7034   -2.5594   -1.2925 H   0  0  0  0  0  0  0  0  0  0  0  0
   -1.0390   -2.4731    0.0691 C   0  0  0  0  0  0  0  0  0  0  0  0
   -0.1981   -3.3056    0.3463 O   0  0  0  0  0  0  0  0  0  0  0  0
   -0.8051   -1.1115    0.1684 N   0  0  0  0  0  0  0  0  0  0  0  0
   -1.6037   -0.5361   -0.0824 H   0  0  0  0  0  0  0  0  0  0  0  0
    0.5021   -0.4174    0.2313 C   0  0  0  0  0  0  0  0  0  0  0  0
    0.7948   -0.1604   -0.7914 H   0  0  0  0  0  0  0  0  0  0  0  0
    0.3578    0.5226    0.7701 H   0  0  0  0  0  0  0  0  0  0  0  0
    1.7205   -1.1215    0.8604 C   0  0  0  0  0  0  0  0  0  0  0  0
    2.3909   -1.8876    0.1829 O   0  0  0  0  0  0  0  0  0  0  0  0
    2.3343   -0.5496    1.9619 N   0  0  0  0  0  0  0  0  0  0  0  0
    1.7853    0.0997    2.5155 H   0  0  0  0  0  0  0  0  0  0  0  0
    3.5916   -1.0448    2.5114 C   0  0  0  0  0  0  0  0  0  0  0  0
    3.5040   -2.1052    2.7712 H   0  0  0  0  0  0  0  0  0  0  0  0
    4.4013   -0.9262    1.7835 H   0  0  0  0  0  0  0  0  0  0  0  0
    3.8557   -0.4877    3.4153 H   0  0  0  0  0  0  0  0  0  0  0  0
  1  2  1  0  0  0  0
  2  3  1  0  0  0  0
  2  4  1  0  0  0  0
  2  5  1  0  0  0  0
  5  6  2  0  0  0  0
  5  7  1  0  0  0  0
  7  8  1  0  0  0  0
  7  9  1  0  0  0  0
  9 10  1  0  0  0  0
  9 11  1  0  0  0  0
  9 12  1  0  0  0  0
 12 13  2  0  0  0  0
 12 14  1  0  0  0  0
 14 15  1  0  0  0  0
 14 16  1  0  0  0  0
 16 17  1  0  0  0  0
 16 18  1  0  0  0  0
 16 19  1  0  0  0  0
M  END
$$$$

  -OEChem-01062216083D

 19 18  0     0  0  0  0  0  0999 V2000
   -2.4380   -4.0468   -0.2779 H   0  0  0  0  0  0  0  0  0  0  0  0
   -2.4171   -2.9530   -0.2805 C   0  0  0  0  0  0  0  0  0  0  0  0
   -3.1247   -2.5872    0.4674 H   0  0  0  0  0  0  0  0  0  0  0  0
   -2.7231   -2.5995   -1.2681 H   0  0  0  0  0  0  0  0  0  0  0  0
   -1.0183   -2.4563    0.0381 C   0  0  0  0  0  0  0  0  0  0  0  0
   -0.1452   -3.2724    0.2618 O   0  0  0  0  0  0  0  0  0  0  0  0
   -0.7989   -1.0915    0.1244 N   0  0  0  0  0  0  0  0  0  0  0  0
   -1.6075   -0.5201   -0.1027 H   0  0  0  0  0  0  0  0  0  0  0  0
    0.5051   -0.3936    0.1907 C   0  0  0  0  0  0  0  0  0  0  0  0
    0.8080   -0.1473   -0.8317 H   0  0  0  0  0  0  0  0  0  0  0  0
    0.3620    0.5518    0.7201 H   0  0  0  0  0  0  0  0  0  0  0  0
    1.7053   -1.1052    0.8427 C   0  0  0  0  0  0  0  0  0  0  0  0
    2.5030   -1.7057    0.1360 O   0  0  0  0  0  0  0  0  0  0  0  0
    2.1161   -0.7222    2.1075 N   0  0  0  0  0  0  0  0  0  0  0  0
    1.4341   -0.2468    2.6892 H   0  0  0  0  0  0  0  0  0  0  0  0
    3.3215   -1.2492    2.7364 C   0  0  0  0  0  0  0  0  0  0  0  0
    3.2616   -2.3392    2.8240 H   0  0  0  0  0  0  0  0  0  0  0  0
    4.2069   -0.9917    2.1454 H   0  0  0  0  0  0  0  0  0  0  0  0
    3.4414   -0.8262    3.7382 H   0  0  0  0  0  0  0  0  0  0  0  0
  1  2  1  0  0  0  0
  2  3  1  0  0  0  0
  2  4  1  0  0  0  0
  2  5  1  0  0  0  0
  5  6  2  0  0  0  0
  5  7  1  0  0  0  0
  7  8  1  0  0  0  0
  7  9  1  0  0  0  0
  9 10  1  0  0  0  0
  9 11  1  0  0  0  0
  9 12  1  0  0  0  0
 12 13  2  0  0  0  0
 12 14  1  0  0  0  0
 14 15  1  0  0  0  0
 14 16  1  0  0  0  0
 16 17  1  0  0  0  0
 16 18  1  0  0  0  0
 16 19  1  0  0  0  0
M  END
$$$$

  -OEChem-01062216083D

 19 18  0     0  0  0  0  0  0999 V2000
   -2.4158   -4.0494   -0.2361 H   0  0  0  0  0  0  0  0  0  0  0  0
   -2.4016   -2.9559   -0.2631 C   0  0  0  0  0  0  0  0  0  0  0  0
   -3.0998   -2.5772    0.4871 H   0  0  0  0  0  0  0  0  0  0  0  0
   -2.7247   -2.6257   -1.2534 H   0  0  0  0  0  0  0  0  0  0  0  0
   -1.0015   -2.4435    0.0225 C   0  0  0  0  0  0  0  0  0  0  0  0
   -0.1091   -3.2472    0.2167 O   0  0  0  0  0  0  0  0  0  0  0  0
   -0.7933   -1.0764    0.0956 N   0  0  0  0  0  0  0  0  0  0  0  0
   -1.6085   -0.5092   -0.1190 H   0  0  0  0  0  0  0  0  0  0  0  0
    0.5075   -0.3739    0.1630 C   0  0  0  0  0  0  0  0  0  0  0  0
    0.8172   -0.1370   -0.8597 H   0  0  0  0  0  0  0  0  0  0  0  0
    0.3642    0.5753    0.6854 H   0  0  0  0  0  0  0  0  0  0  0  0
    1.6955   -1.0864    0.8336 C   0  0  0  0  0  0  0  0  0  0  0  0
    2.6117   -1.5049    0.1393 O   0  0  0  0  0  0  0  0  0  0  0  0
    1.9076   -0.9295    2.1916 N   0  0  0  0  0  0  0  0  0  0  0  0
    1.1068   -0.6480    2.7476 H   0  0  0  0  0  0  0  0  0  0  0  0
    3.0560   -1.5126    2.8746 C   0  0  0  0  0  0  0  0  0  0  0  0
    3.0544   -2.6020    2.7627 H   0  0  0  0  0  0  0  0  0  0  0  0
    3.9899   -1.1174    2.4613 H   0  0  0  0  0  0  0  0  0  0  0  0
    3.0240   -1.2727    3.9415 H   0  0  0  0  0  0  0  0  0  0  0  0
  1  2  1  0  0  0  0
  2  3  1  0  0  0  0
  2  4  1  0  0  0  0
  2  5  1  0  0  0  0
  5  6  2  0  0  0  0
  5  7  1  0  0  0  0
  7  8  1  0  0  0  0
  7  9  1  0  0  0  0
  9 10  1  0  0  0  0
  9 11  1  0  0  0  0
  9 12  1  0  0  0  0
 12 13  2  0  0  0  0
 12 14  1  0  0  0  0
 14 15  1  0  0  0  0
 14 16  1  0  0  0  0
 16 17  1  0  0  0  0
 16 18  1  0  0  0  0
 16 19  1  0  0  0  0
M  END
$$$$

  -OEChem-01062216083D

 19 18  0     0  0  0  0  0  0999 V2000
   -2.4049   -4.0445   -0.2031 H   0  0  0  0  0  0  0  0  0  0  0  0
   -2.3941   -2.9515   -0.2484 C   0  0  0  0  0  0  0  0  0  0  0  0
   -3.0786   -2.5626    0.5093 H   0  0  0  0  0  0  0  0  0  0  0  0
   -2.7376   -2.6382   -1.2373 H   0  0  0  0  0  0  0  0  0  0  0  0
   -0.9902   -2.4313    0.0014 C   0  0  0  0  0  0  0  0  0  0  0  0
   -0.0861   -3.2295    0.1656 O   0  0  0  0  0  0  0  0  0  0  0  0
   -0.7844   -1.0636    0.0675 N   0  0  0  0  0  0  0  0  0  0  0  0
   -1.6033   -0.4946   -0.1279 H   0  0  0  0  0  0  0  0  0  0  0  0
    0.5161   -0.3613    0.1439 C   0  0  0  0  0  0  0  0  0  0  0  0
    0.8373   -0.1300   -0.8766 H   0  0  0  0  0  0  0  0  0  0  0  0
    0.3707    0.5891    0.6642 H   0  0  0  0  0  0  0  0  0  0  0  0
    1.6907   -1.0759    0.8336 C   0  0  0  0  0  0  0  0  0  0  0  0
    2.7145   -1.2933    0.2000 O   0  0  0  0  0  0  0  0  0  0  0  0
    1.7155   -1.1748    2.2125 N   0  0  0  0  0  0  0  0  0  0  0  0
    0.8201   -1.0929    2.6828 H   0  0  0  0  0  0  0  0  0  0  0  0
    2.8133   -1.8168    2.9247 C   0  0  0  0  0  0  0  0  0  0  0  0
    2.9116   -2.8620    2.6126 H   0  0  0  0  0  0  0  0  0  0  0  0
    3.7569   -1.2988    2.7232 H   0  0  0  0  0  0  0  0  0  0  0  0
    2.6311   -1.7911    4.0032 H   0  0  0  0  0  0  0  0  0  0  0  0
  1  2  1  0  0  0  0
  2  3  1  0  0  0  0
  2  4  1  0  0  0  0
  2  5  1  0  0  0  0
  5  6  2  0  0  0  0
  5  7  1  0  0  0  0
  7  8  1  0  0  0  0
  7  9  1  0  0  0  0
  9 10  1  0  0  0  0
  9 11  1  0  0  0  0
  9 12  1  0  0  0  0
 12 13  2  0  0  0  0
 12 14  1  0  0  0  0
 14 15  1  0  0  0  0
 14 16  1  0  0  0  0
 16 17  1  0  0  0  0
 16 18  1  0  0  0  0
 16 19  1  0  0  0  0
M  END
$$$$

  -OEChem-01062216083D

 19 18  0     0  0  0  0  0  0999 V2000
   -2.5084   -3.9904   -0.1691 H   0  0  0  0  0  0  0  0  0  0  0  0
   -2.4672   -2.8974   -0.1529 C   0  0  0  0  0  0  0  0  0  0  0  0
   -3.0826   -2.5349    0.6741 H   0  0  0  0  0  0  0  0  0  0  0  0
   -2.8727   -2.5184   -1.0942 H   0  0  0  0  0  0  0  0  0  0  0  0
   -1.0331   -2.4306    0.0219 C   0  0  0  0  0  0  0  0  0  0  0  0
   -0.1576   -3.2597    0.1882 O   0  0  0  0  0  0  0  0  0  0  0  0
   -0.7616   -1.0729    0.0086 N   0  0  0  0  0  0  0  0  0  0  0  0
   -1.5588   -0.4730   -0.1854 H   0  0  0  0  0  0  0  0  0  0  0  0
    0.5710   -0.4284    0.0432 C   0  0  0  0  0  0  0  0  0  0  0  0
    0.8970   -0.2692   -0.9897 H   0  0  0  0  0  0  0  0  0  0  0  0
    0.4705    0.5546    0.5107 H   0  0  0  0  0  0  0  0  0  0  0  0
    1.7190   -1.1489    0.7713 C   0  0  0  0  0  0  0  0  0  0  0  0
    2.8095   -1.2217    0.2221 O   0  0  0  0  0  0  0  0  0  0  0  0
    1.5989   -1.4390    2.1190 N   0  0  0  0  0  0  0  0  0  0  0  0
    0.6508   -1.4512    2.4806 H   0  0  0  0  0  0  0  0  0  0  0  0
    2.6369   -2.0939    2.9102 C   0  0  0  0  0  0  0  0  0  0  0  0
    3.5342   -2.3061    2.3197 H   0  0  0  0  0  0  0  0  0  0  0  0
    2.9263   -1.4554    3.7503 H   0  0  0  0  0  0  0  0  0  0  0  0
    2.2618   -3.0446    3.3016 H   0  0  0  0  0  0  0  0  0  0  0  0
  1  2  1  0  0  0  0
  2  3  1  0  0  0  0
  2  4  1  0  0  0  0
  2  5  1  0  0  0  0
  5  6  2  0  0  0  0
  5  7  1  0  0  0  0
  7  8  1  0  0  0  0
  7  9  1  0  0  0  0
  9 10  1  0  0  0  0
  9 11  1  0  0  0  0
  9 12  1  0  0  0  0
 12 13  2  0  0  0  0
 12 14  1  0  0  0  0
 14 15  1  0  0  0  0
 14 16  1  0  0  0  0
 16 17  1  0  0  0  0
 16 18  1  0  0  0  0
 16 19  1  0  0  0  0
M  END
$$$$

  -OEChem-01062216083D

 19 18  0     0  0  0  0  0  0999 V2000
   -2.6631   -3.9059    0.0465 H   0  0  0  0  0  0  0  0  0  0  0  0
   -2.5518   -2.8274   -0.0984 C   0  0  0  0  0  0  0  0  0  0  0  0
   -3.1617   -2.3087    0.6453 H   0  0  0  0  0  0  0  0  0  0  0  0
   -2.9094   -2.5693   -1.0983 H   0  0  0  0  0  0  0  0  0  0  0  0
   -1.0956   -2.4261    0.0511 C   0  0  0  0  0  0  0  0  0  0  0  0
   -0.2618   -3.2868    0.2666 O   0  0  0  0  0  0  0  0  0  0  0  0
   -0.7549   -1.0878   -0.0370 N   0  0  0  0  0  0  0  0  0  0  0  0
   -1.5235   -0.4589   -0.2543 H   0  0  0  0  0  0  0  0  0  0  0  0
    0.6046   -0.4992   -0.0202 C   0  0  0  0  0  0  0  0  0  0  0  0
    0.9458   -0.4107   -1.0564 H   0  0  0  0  0  0  0  0  0  0  0  0
    0.5340    0.5116    0.3903 H   0  0  0  0  0  0  0  0  0  0  0  0
    1.7294   -1.2042    0.7596 C   0  0  0  0  0  0  0  0  0  0  0  0
    2.8750   -1.1164    0.3391 O   0  0  0  0  0  0  0  0  0  0  0  0
    1.5087   -1.6915    2.0342 N   0  0  0  0  0  0  0  0  0  0  0  0
    0.5468   -1.9601    2.2207 H   0  0  0  0  0  0  0  0  0  0  0  0
    2.5548   -2.3684    2.7901 C   0  0  0  0  0  0  0  0  0  0  0  0
    3.4094   -1.7017    2.9459 H   0  0  0  0  0  0  0  0  0  0  0  0
    2.1751   -2.6740    3.7695 H   0  0  0  0  0  0  0  0  0  0  0  0
    2.8966   -3.2607    2.2551 H   0  0  0  0  0  0  0  0  0  0  0  0
  1  2  1  0  0  0  0
  2  3  1  0  0  0  0
  2  4  1  0  0  0  0
  2  5  1  0  0  0  0
  5  6  2  0  0  0  0
  5  7  1  0  0  0  0
  7  8  1  0  0  0  0
  7  9  1  0  0  0  0
  9 10  1  0  0  0  0
  9 11  1  0  0  0  0
  9 12  1  0  0  0  0
 12 13  2  0  0  0  0
 12 14  1  0  0  0  0
 14 15  1  0  0  0  0
 14 16  1  0  0  0  0
 16 17  1  0  0  0  0
 16 18  1  0  0  0  0
 16 19  1  0  0  0  0
M  END
$$$$

  -OEChem-01062216083D

 19 18  0     0  0  0  0  0  0999 V2000
   -2.7486   -3.8691   -0.0345 H   0  0  0  0  0  0  0  0  0  0  0  0
   -2.6148   -2.7870   -0.1217 C   0  0  0  0  0  0  0  0  0  0  0  0
   -3.1859   -2.2978    0.6711 H   0  0  0  0  0  0  0  0  0  0  0  0
   -2.9993   -2.4635   -1.0921 H   0  0  0  0  0  0  0  0  0  0  0  0
   -1.1446   -2.4301   -0.0006 C   0  0  0  0  0  0  0  0  0  0  0  0
   -0.3295   -3.3198    0.1636 O   0  0  0  0  0  0  0  0  0  0  0  0
   -0.7676   -1.1008   -0.0666 N   0  0  0  0  0  0  0  0  0  0  0  0
   -1.5278   -0.4460   -0.2303 H   0  0  0  0  0  0  0  0  0  0  0  0
    0.6001   -0.5294   -0.0189 C   0  0  0  0  0  0  0  0  0  0  0  0
    0.9548   -0.4334   -1.0496 H   0  0  0  0  0  0  0  0  0  0  0  0
    0.5271    0.4787    0.3981 H   0  0  0  0  0  0  0  0  0  0  0  0
    1.7279   -1.2293    0.7653 C   0  0  0  0  0  0  0  0  0  0  0  0
    2.8817   -0.9178    0.5032 O   0  0  0  0  0  0  0  0  0  0  0  0
    1.4742   -1.9923    1.8890 N   0  0  0  0  0  0  0  0  0  0  0  0
    0.5709   -2.4630    1.8641 H   0  0  0  0  0  0  0  0  0  0  0  0
    2.5434   -2.6458    2.6331 C   0  0  0  0  0  0  0  0  0  0  0  0
    3.2691   -1.9088    2.9931 H   0  0  0  0  0  0  0  0  0  0  0  0
    2.1315   -3.1726    3.4990 H   0  0  0  0  0  0  0  0  0  0  0  0
    3.0628   -3.3709    1.9979 H   0  0  0  0  0  0  0  0  0  0  0  0
  1  2  1  0  0  0  0
  2  3  1  0  0  0  0
  2  4  1  0  0  0  0
  2  5  1  0  0  0  0
  5  6  2  0  0  0  0
  5  7  1  0  0  0  0
  7  8  1  0  0  0  0
  7  9  1  0  0  0  0
  9 10  1  0  0  0  0
  9 11  1  0  0  0  0
  9 12  1  0  0  0  0
 12 13  2  0  0  0  0
 12 14  1  0  0  0  0
 14 15  1  0  0  0  0
 14 16  1  0  0  0  0
 16 17  1  0  0  0  0
 16 18  1  0  0  0  0
 16 19  1  0  0  0  0
M  END
$$$$

  -OEChem-01062216083D

 19 18  0     0  0  0  0  0  0999 V2000
   -2.8249   -3.8313   -0.0670 H   0  0  0  0  0  0  0  0  0  0  0  0
   -2.6666   -2.7500   -0.1156 C   0  0  0  0  0  0  0  0  0  0  0  0
   -3.1719   -2.2830    0.7333 H   0  0  0  0  0  0  0  0  0  0  0  0
   -3.1033   -2.3731   -1.0437 H   0  0  0  0  0  0  0  0  0  0  0  0
   -1.1823   -2.4353   -0.0747 C   0  0  0  0  0  0  0  0  0  0  0  0
   -0.3830   -3.3532   -0.0244 O   0  0  0  0  0  0  0  0  0  0  0  0
   -0.7755   -1.1141   -0.1165 N   0  0  0  0  0  0  0  0  0  0  0  0
   -1.5317   -0.4381   -0.1851 H   0  0  0  0  0  0  0  0  0  0  0  0
    0.5967   -0.5561   -0.0331 C   0  0  0  0  0  0  0  0  0  0  0  0
    0.9689   -0.4531   -1.0570 H   0  0  0  0  0  0  0  0  0  0  0  0
    0.5167    0.4501    0.3876 H   0  0  0  0  0  0  0  0  0  0  0  0
    1.7232   -1.2513    0.7613 C   0  0  0  0  0  0  0  0  0  0  0  0
    2.8429   -0.7651    0.6814 O   0  0  0  0  0  0  0  0  0  0  0  0
    1.4998   -2.2536    1.6853 N   0  0  0  0  0  0  0  0  0  0  0  0
    0.6658   -2.8109    1.4965 H   0  0  0  0  0  0  0  0  0  0  0  0
    2.5859   -2.8993    2.4119 C   0  0  0  0  0  0  0  0  0  0  0  0
    3.1248   -2.1696    3.0251 H   0  0  0  0  0  0  0  0  0  0  0  0
    2.1880   -3.6760    3.0718 H   0  0  0  0  0  0  0  0  0  0  0  0
    3.2911   -3.3633    1.7146 H   0  0  0  0  0  0  0  0  0  0  0  0
  1  2  1  0  0  0  0
  2  3  1  0  0  0  0
  2  4  1  0  0  0  0
  2  5  1  0  0  0  0
  5  6  2  0  0  0  0
  5  7  1  0  0  0  0
  7  8  1  0  0  0  0
  7  9  1  0  0  0  0
  9 10  1  0  0  0  0
  9 11  1  0  0  0  0
  9 12  1  0  0  0  0
 12 13  2  0  0  0  0
 12 14  1  0  0  0  0
 14 15  1  0  0  0  0
 14 16  1  0  0  0  0
 16 17  1  0  0  0  0
 16 18  1  0  0  0  0
 16 19  1  0  0  0  0
M  END
$$$$

  -OEChem-01062216083D

 19 18  0     0  0  0  0  0  0999 V2000
   -2.8746   -3.8021   -0.1213 H   0  0  0  0  0  0  0  0  0  0  0  0
   -2.6972   -2.7230   -0.0956 C   0  0  0  0  0  0  0  0  0  0  0  0
   -3.1284   -2.3183    0.8233 H   0  0  0  0  0  0  0  0  0  0  0  0
   -3.1933   -2.2661   -0.9554 H   0  0  0  0  0  0  0  0  0  0  0  0
   -1.2078   -2.4340   -0.1409 C   0  0  0  0  0  0  0  0  0  0  0  0
   -0.4263   -3.3659   -0.2154 O   0  0  0  0  0  0  0  0  0  0  0  0
   -0.7815   -1.1184   -0.1597 N   0  0  0  0  0  0  0  0  0  0  0  0
   -1.5329   -0.4342   -0.1326 H   0  0  0  0  0  0  0  0  0  0  0  0
    0.5940   -0.5721   -0.0495 C   0  0  0  0  0  0  0  0  0  0  0  0
    0.9789   -0.4630   -1.0677 H   0  0  0  0  0  0  0  0  0  0  0  0
    0.5109    0.4322    0.3758 H   0  0  0  0  0  0  0  0  0  0  0  0
    1.7182   -1.2689    0.7492 C   0  0  0  0  0  0  0  0  0  0  0  0
    2.7744   -0.6610    0.8556 O   0  0  0  0  0  0  0  0  0  0  0  0
    1.5742   -2.4568    1.4385 N   0  0  0  0  0  0  0  0  0  0  0  0
    0.7979   -3.0426    1.1268 H   0  0  0  0  0  0  0  0  0  0  0  0
    2.6783   -3.1054    2.1341 C   0  0  0  0  0  0  0  0  0  0  0  0
    3.0938   -2.4414    2.8994 H   0  0  0  0  0  0  0  0  0  0  0  0
    2.3289   -4.0187    2.6248 H   0  0  0  0  0  0  0  0  0  0  0  0
    3.4720   -3.3714    1.4283 H   0  0  0  0  0  0  0  0  0  0  0  0
  1  2  1  0  0  0  0
  2  3  1  0  0  0  0
  2  4  1  0  0  0  0
  2  5  1  0  0  0  0
  5  6  2  0  0  0  0
  5  7  1  0  0  0  0
  7  8  1  0  0  0  0
  7  9  1  0  0  0  0
  9 10  1  0  0  0  0
  9 11  1  0  0  0  0
  9 12  1  0  0  0  0
 12 13  2  0  0  0  0
 12 14  1  0  0  0  0
 14 15  1  0  0  0  0
 14 16  1  0  0  0  0
 16 17  1  0  0  0  0
 16 18  1  0  0  0  0
 16 19  1  0  0  0  0
M  END
$$$$

  -OEChem-01062216083D

 19 18  0     0  0  0  0  0  0999 V2000
   -2.4687   -4.0689    0.2293 H   0  0  0  0  0  0  0  0  0  0  0  0
   -2.3811   -2.9912    0.0639 C   0  0  0  0  0  0  0  0  0  0  0  0
   -2.7537   -2.4700    0.9492 H   0  0  0  0  0  0  0  0  0  0  0  0
   -2.9932   -2.7168   -0.7985 H   0  0  0  0  0  0  0  0  0  0  0  0
   -0.9318   -2.6161   -0.1866 C   0  0  0  0  0  0  0  0  0  0  0  0
   -0.1079   -3.4989   -0.3342 O   0  0  0  0  0  0  0  0  0  0  0  0
   -0.6123   -1.3025   -0.4639 N   0  0  0  0  0  0  0  0  0  0  0  0
   -1.4272   -0.6955   -0.4669 H   0  0  0  0  0  0  0  0  0  0  0  0
    0.6629   -0.6018   -0.1839 C   0  0  0  0  0  0  0  0  0  0  0  0
    1.2858   -0.7146   -1.0758 H   0  0  0  0  0  0  0  0  0  0  0  0
    0.4315    0.4636   -0.0900 H   0  0  0  0  0  0  0  0  0  0  0  0
    1.5851   -0.9543    1.0112 C   0  0  0  0  0  0  0  0  0  0  0  0
    2.1281   -0.0198    1.5772 O   0  0  0  0  0  0  0  0  0  0  0  0
    1.5790   -2.0717    1.8101 N   0  0  0  0  0  0  0  0  0  0  0  0
    1.8857   -1.8113    2.7439 H   0  0  0  0  0  0  0  0  0  0  0  0
    2.2342   -3.2779    1.3172 C   0  0  0  0  0  0  0  0  0  0  0  0
    3.2161   -3.3881    1.7877 H   0  0  0  0  0  0  0  0  0  0  0  0
    1.6331   -4.1607    1.5572 H   0  0  0  0  0  0  0  0  0  0  0  0
    2.3836   -3.2419    0.2327 H   0  0  0  0  0  0  0  0  0  0  0  0
  1  2  1  0  0  0  0
  2  3  1  0  0  0  0
  2  4  1  0  0  0  0
  2  5  1  0  0  0  0
  5  6  2  0  0  0  0
  5  7  1  0  0  0  0
  7  8  1  0  0  0  0
  7  9  1  0  0  0  0
  9 10  1  0  0  0  0
  9 11  1  0  0  0  0
  9 12  1  0  0  0  0
 12 13  2  0  0  0  0
 12 14  1  0  0  0  0
 14 15  1  0  0  0  0
 14 16  1  0  0  0  0
 16 17  1  0  0  0  0
 16 18  1  0  0  0  0
 16 19  1  0  0  0  0
M  END
$$$$

  -OEChem-01062216083D

 19 18  0     0  0  0  0  0  0999 V2000
   -2.3154   -3.0204    1.4357 H   0  0  0  0  0  0  0  0  0  0  0  0
   -2.1893   -3.2306    0.3710 C   0  0  0  0  0  0  0  0  0  0  0  0
   -2.1258   -4.3138    0.2331 H   0  0  0  0  0  0  0  0  0  0  0  0
   -3.0599   -2.8568   -0.1733 H   0  0  0  0  0  0  0  0  0  0  0  0
   -0.9287   -2.5632   -0.1478 C   0  0  0  0  0  0  0  0  0  0  0  0
   -0.1581   -3.2046   -0.8372 O   0  0  0  0  0  0  0  0  0  0  0  0
   -0.7667   -1.2027    0.0205 N   0  0  0  0  0  0  0  0  0  0  0  0
   -1.5384   -0.7556    0.5073 H   0  0  0  0  0  0  0  0  0  0  0  0
    0.4883   -0.4168   -0.0333 C   0  0  0  0  0  0  0  0  0  0  0  0
    0.5952   -0.0848   -1.0703 H   0  0  0  0  0  0  0  0  0  0  0  0
    0.3285    0.4781    0.5749 H   0  0  0  0  0  0  0  0  0  0  0  0
    1.8924   -0.9416    0.3652 C   0  0  0  0  0  0  0  0  0  0  0  0
    2.7743   -0.1039    0.4596 O   0  0  0  0  0  0  0  0  0  0  0  0
    2.4228   -2.2084    0.3136 N   0  0  0  0  0  0  0  0  0  0  0  0
    3.4347   -2.1545    0.2335 H   0  0  0  0  0  0  0  0  0  0  0  0
    1.9548   -3.2477    1.2215 C   0  0  0  0  0  0  0  0  0  0  0  0
    2.7183   -3.4491    1.9792 H   0  0  0  0  0  0  0  0  0  0  0  0
    1.0386   -2.9488    1.7394 H   0  0  0  0  0  0  0  0  0  0  0  0
    1.7625   -4.1737    0.6706 H   0  0  0  0  0  0  0  0  0  0  0  0
  1  2  1  0  0  0  0
  2  3  1  0  0  0  0
  2  4  1  0  0  0  0
  2  5  1  0  0  0  0
  5  6  2  0  0  0  0
  5  7  1  0  0  0  0
  7  8  1  0  0  0  0
  7  9  1  0  0  0  0
  9 10  1  0  0  0  0
  9 11  1  0  0  0  0
  9 12  1  0  0  0  0
 12 13  2  0  0  0  0
 12 14  1  0  0  0  0
 14 15  1  0  0  0  0
 14 16  1  0  0  0  0
 16 17  1  0  0  0  0
 16 18  1  0  0  0  0
 16 19  1  0  0  0  0
M  END
$$$$

  -OEChem-01062216083D

 19 18  0     0  0  0  0  0  0999 V2000
   -2.6763   -3.9106   -0.3772 H   0  0  0  0  0  0  0  0  0  0  0  0
   -2.5756   -2.8465   -0.1443 C   0  0  0  0  0  0  0  0  0  0  0  0
   -2.9069   -2.6805    0.8837 H   0  0  0  0  0  0  0  0  0  0  0  0
   -3.2153   -2.2769   -0.8228 H   0  0  0  0  0  0  0  0  0  0  0  0
   -1.1304   -2.4094   -0.3022 C   0  0  0  0  0  0  0  0  0  0  0  0
   -0.3135   -3.2119   -0.7195 O   0  0  0  0  0  0  0  0  0  0  0  0
   -0.8038   -1.0834   -0.0820 N   0  0  0  0  0  0  0  0  0  0  0  0
   -1.5921   -0.5109    0.2086 H   0  0  0  0  0  0  0  0  0  0  0  0
    0.5323   -0.4681    0.1152 C   0  0  0  0  0  0  0  0  0  0  0  0
    0.8919   -0.1522   -0.8682 H   0  0  0  0  0  0  0  0  0  0  0  0
    0.3901    0.4392    0.7101 H   0  0  0  0  0  0  0  0  0  0  0  0
    1.7053   -1.2366    0.7656 C   0  0  0  0  0  0  0  0  0  0  0  0
    2.3841   -0.6362    1.5875 O   0  0  0  0  0  0  0  0  0  0  0  0
    2.0564   -2.5340    0.4563 N   0  0  0  0  0  0  0  0  0  0  0  0
    1.4204   -3.0413   -0.1636 H   0  0  0  0  0  0  0  0  0  0  0  0
    3.1345   -3.2641    1.1097 C   0  0  0  0  0  0  0  0  0  0  0  0
    4.0892   -2.7475    0.9667 H   0  0  0  0  0  0  0  0  0  0  0  0
    2.9396   -3.3565    2.1831 H   0  0  0  0  0  0  0  0  0  0  0  0
    3.2191   -4.2689    0.6849 H   0  0  0  0  0  0  0  0  0  0  0  0
  1  2  1  0  0  0  0
  2  3  1  0  0  0  0
  2  4  1  0  0  0  0
  2  5  1  0  0  0  0
  5  6  2  0  0  0  0
  5  7  1  0  0  0  0
  7  8  1  0  0  0  0
  7  9  1  0  0  0  0
  9 10  1  0  0  0  0
  9 11  1  0  0  0  0
  9 12  1  0  0  0  0
 12 13  2  0  0  0  0
 12 14  1  0  0  0  0
 14 15  1  0  0  0  0
 14 16  1  0  0  0  0
 16 17  1  0  0  0  0
 16 18  1  0  0  0  0
 16 19  1  0  0  0  0
M  END
$$$$

  -OEChem-01062216083D

 19 18  0     0  0  0  0  0  0999 V2000
   -2.5477   -3.9574   -0.3410 H   0  0  0  0  0  0  0  0  0  0  0  0
   -2.4788   -2.8946   -0.0921 C   0  0  0  0  0  0  0  0  0  0  0  0
   -2.7645   -2.7613    0.9541 H   0  0  0  0  0  0  0  0  0  0  0  0
   -3.1741   -2.3397   -0.7267 H   0  0  0  0  0  0  0  0  0  0  0  0
   -1.0621   -2.3953   -0.3105 C   0  0  0  0  0  0  0  0  0  0  0  0
   -0.2263   -3.1585   -0.7642 O   0  0  0  0  0  0  0  0  0  0  0  0
   -0.7794   -1.0584   -0.0962 N   0  0  0  0  0  0  0  0  0  0  0  0
   -1.5716   -0.5173    0.2402 H   0  0  0  0  0  0  0  0  0  0  0  0
    0.5482   -0.4249    0.0856 C   0  0  0  0  0  0  0  0  0  0  0  0
    0.8999   -0.1038   -0.8988 H   0  0  0  0  0  0  0  0  0  0  0  0
    0.4079    0.4794    0.6857 H   0  0  0  0  0  0  0  0  0  0  0  0
    1.7129   -1.2085    0.7275 C   0  0  0  0  0  0  0  0  0  0  0  0
    2.2503   -0.7278    1.7160 O   0  0  0  0  0  0  0  0  0  0  0  0
    2.2195   -2.3774    0.1977 N   0  0  0  0  0  0  0  0  0  0  0  0
    1.6109   -2.8489   -0.4763 H   0  0  0  0  0  0  0  0  0  0  0  0
    3.2654   -3.1579    0.8448 C   0  0  0  0  0  0  0  0  0  0  0  0
    4.1707   -2.5553    0.9731 H   0  0  0  0  0  0  0  0  0  0  0  0
    2.9311   -3.5067    1.8273 H   0  0  0  0  0  0  0  0  0  0  0  0
    3.5164   -4.0294    0.2326 H   0  0  0  0  0  0  0  0  0  0  0  0
  1  2  1  0  0  0  0
  2  3  1  0  0  0  0
  2  4  1  0  0  0  0
  2  5  1  0  0  0  0
  5  6  2  0  0  0  0
  5  7  1  0  0  0  0
  7  8  1  0  0  0  0
  7  9  1  0  0  0  0
  9 10  1  0  0  0  0
  9 11  1  0  0  0  0
  9 12  1  0  0  0  0
 12 13  2  0  0  0  0
 12 14  1  0  0  0  0
 14 15  1  0  0  0  0
 14 16  1  0  0  0  0
 16 17  1  0  0  0  0
 16 18  1  0  0  0  0
 16 19  1  0  0  0  0
M  END
$$$$

  -OEChem-01062216083D

 19 18  0     0  0  0  0  0  0999 V2000
   -2.4069   -4.0001   -0.3250 H   0  0  0  0  0  0  0  0  0  0  0  0
   -2.3793   -2.9375   -0.0670 C   0  0  0  0  0  0  0  0  0  0  0  0
   -2.6484   -2.8251    0.9862 H   0  0  0  0  0  0  0  0  0  0  0  0
   -3.1102   -2.4074   -0.6826 H   0  0  0  0  0  0  0  0  0  0  0  0
   -0.9904   -2.3760   -0.3091 C   0  0  0  0  0  0  0  0  0  0  0  0
   -0.1240   -3.0992   -0.7733 O   0  0  0  0  0  0  0  0  0  0  0  0
   -0.7597   -1.0271   -0.1094 N   0  0  0  0  0  0  0  0  0  0  0  0
   -1.5568   -0.5161    0.2608 H   0  0  0  0  0  0  0  0  0  0  0  0
    0.5592   -0.3785    0.0632 C   0  0  0  0  0  0  0  0  0  0  0  0
    0.9142   -0.0617   -0.9215 H   0  0  0  0  0  0  0  0  0  0  0  0
    0.4213    0.5276    0.6610 H   0  0  0  0  0  0  0  0  0  0  0  0
    1.7024   -1.1812    0.7143 C   0  0  0  0  0  0  0  0  0  0  0  0
    2.0857   -0.8504    1.8282 O   0  0  0  0  0  0  0  0  0  0  0  0
    2.3737   -2.1740    0.0296 N   0  0  0  0  0  0  0  0  0  0  0  0
    1.8274   -2.6013   -0.7216 H   0  0  0  0  0  0  0  0  0  0  0  0
    3.4120   -2.9846    0.6521 C   0  0  0  0  0  0  0  0  0  0  0  0
    4.2229   -2.3504    1.0256 H   0  0  0  0  0  0  0  0  0  0  0  0
    2.9992   -3.5591    1.4878 H   0  0  0  0  0  0  0  0  0  0  0  0
    3.8314   -3.6832   -0.0781 H   0  0  0  0  0  0  0  0  0  0  0  0
  1  2  1  0  0  0  0
  2  3  1  0  0  0  0
  2  4  1  0  0  0  0
  2  5  1  0  0  0  0
  5  6  2  0  0  0  0
  5  7  1  0  0  0  0
  7  8  1  0  0  0  0
  7  9  1  0  0  0  0
  9 10  1  0  0  0  0
  9 11  1  0  0  0  0
  9 12  1  0  0  0  0
 12 13  2  0  0  0  0
 12 14  1  0  0  0  0
 14 15  1  0  0  0  0
 14 16  1  0  0  0  0
 16 17  1  0  0  0  0
 16 18  1  0  0  0  0
 16 19  1  0  0  0  0
M  END
$$$$

  -OEChem-01062216083D

 19 18  0     0  0  0  0  0  0999 V2000
   -2.2546   -4.0444   -0.2740 H   0  0  0  0  0  0  0  0  0  0  0  0
   -2.2803   -2.9761   -0.0409 C   0  0  0  0  0  0  0  0  0  0  0  0
   -2.5390   -2.8539    1.0138 H   0  0  0  0  0  0  0  0  0  0  0  0
   -3.0479   -2.5000   -0.6560 H   0  0  0  0  0  0  0  0  0  0  0  0
   -0.9272   -2.3479   -0.3195 C   0  0  0  0  0  0  0  0  0  0  0  0
   -0.0360   -3.0261   -0.8064 O   0  0  0  0  0  0  0  0  0  0  0  0
   -0.7495   -0.9896   -0.1278 N   0  0  0  0  0  0  0  0  0  0  0  0
   -1.5476   -0.5138    0.2845 H   0  0  0  0  0  0  0  0  0  0  0  0
    0.5614   -0.3283    0.0420 C   0  0  0  0  0  0  0  0  0  0  0  0
    0.9204   -0.0085   -0.9404 H   0  0  0  0  0  0  0  0  0  0  0  0
    0.4236    0.5747    0.6442 H   0  0  0  0  0  0  0  0  0  0  0  0
    1.6825   -1.1514    0.7014 C   0  0  0  0  0  0  0  0  0  0  0  0
    1.8806   -1.0185    1.9014 O   0  0  0  0  0  0  0  0  0  0  0  0
    2.5354   -1.9266   -0.0592 N   0  0  0  0  0  0  0  0  0  0  0  0
    2.1288   -2.2465   -0.9379 H   0  0  0  0  0  0  0  0  0  0  0  0
    3.5573   -2.7685    0.5492 C   0  0  0  0  0  0  0  0  0  0  0  0
    4.2567   -2.1624    1.1347 H   0  0  0  0  0  0  0  0  0  0  0  0
    3.0973   -3.5123    1.2082 H   0  0  0  0  0  0  0  0  0  0  0  0
    4.1235   -3.2934   -0.2262 H   0  0  0  0  0  0  0  0  0  0  0  0
  1  2  1  0  0  0  0
  2  3  1  0  0  0  0
  2  4  1  0  0  0  0
  2  5  1  0  0  0  0
  5  6  2  0  0  0  0
  5  7  1  0  0  0  0
  7  8  1  0  0  0  0
  7  9  1  0  0  0  0
  9 10  1  0  0  0  0
  9 11  1  0  0  0  0
  9 12  1  0  0  0  0
 12 13  2  0  0  0  0
 12 14  1  0  0  0  0
 14 15  1  0  0  0  0
 14 16  1  0  0  0  0
 16 17  1  0  0  0  0
 16 18  1  0  0  0  0
 16 19  1  0  0  0  0
M  END
$$$$

  -OEChem-01062216083D

 19 18  0     0  0  0  0  0  0999 V2000
   -2.1758   -4.0601   -0.2864 H   0  0  0  0  0  0  0  0  0  0  0  0
   -2.2127   -3.0012   -0.0149 C   0  0  0  0  0  0  0  0  0  0  0  0
   -2.4199   -2.9206    1.0551 H   0  0  0  0  0  0  0  0  0  0  0  0
   -3.0204   -2.5231   -0.5742 H   0  0  0  0  0  0  0  0  0  0  0  0
   -0.8890   -2.3317   -0.3362 C   0  0  0  0  0  0  0  0  0  0  0  0
    0.0137   -2.9829   -0.8393 O   0  0  0  0  0  0  0  0  0  0  0  0
   -0.7491   -0.9667   -0.1592 N   0  0  0  0  0  0  0  0  0  0  0  0
   -1.5450   -0.5176    0.2857 H   0  0  0  0  0  0  0  0  0  0  0  0
    0.5549   -0.2942    0.0098 C   0  0  0  0  0  0  0  0  0  0  0  0
    0.9177    0.0199   -0.9729 H   0  0  0  0  0  0  0  0  0  0  0  0
    0.4140    0.6112    0.6072 H   0  0  0  0  0  0  0  0  0  0  0  0
    1.6627   -1.1213    0.6853 C   0  0  0  0  0  0  0  0  0  0  0  0
    1.6713   -1.2056    1.9063 O   0  0  0  0  0  0  0  0  0  0  0  0
    2.6990   -1.6567   -0.0550 N   0  0  0  0  0  0  0  0  0  0  0  0
    2.4952   -1.7934   -1.0420 H   0  0  0  0  0  0  0  0  0  0  0  0
    3.7128   -2.5120    0.5488 C   0  0  0  0  0  0  0  0  0  0  0  0
    4.2656   -1.9662    1.3206 H   0  0  0  0  0  0  0  0  0  0  0  0
    3.2484   -3.3931    1.0040 H   0  0  0  0  0  0  0  0  0  0  0  0
    4.4242   -2.8485   -0.2114 H   0  0  0  0  0  0  0  0  0  0  0  0
  1  2  1  0  0  0  0
  2  3  1  0  0  0  0
  2  4  1  0  0  0  0
  2  5  1  0  0  0  0
  5  6  2  0  0  0  0
  5  7  1  0  0  0  0
  7  8  1  0  0  0  0
  7  9  1  0  0  0  0
  9 10  1  0  0  0  0
  9 11  1  0  0  0  0
  9 12  1  0  0  0  0
 12 13  2  0  0  0  0
 12 14  1  0  0  0  0
 14 15  1  0  0  0  0
 14 16  1  0  0  0  0
 16 17  1  0  0  0  0
 16 18  1  0  0  0  0
 16 19  1  0  0  0  0
M  END
$$$$

  -OEChem-01062216083D

 19 18  0     0  0  0  0  0  0999 V2000
   -2.1248   -4.0782   -0.2266 H   0  0  0  0  0  0  0  0  0  0  0  0
   -2.1846   -3.0122    0.0102 C   0  0  0  0  0  0  0  0  0  0  0  0
   -2.3886   -2.9009    1.0780 H   0  0  0  0  0  0  0  0  0  0  0  0
   -3.0050   -2.5704   -0.5602 H   0  0  0  0  0  0  0  0  0  0  0  0
   -0.8773   -2.3255   -0.3392 C   0  0  0  0  0  0  0  0  0  0  0  0
    0.0247   -2.9659   -0.8576 O   0  0  0  0  0  0  0  0  0  0  0  0
   -0.7541   -0.9569   -0.1766 N   0  0  0  0  0  0  0  0  0  0  0  0
   -1.5457   -0.5195    0.2868 H   0  0  0  0  0  0  0  0  0  0  0  0
    0.5484   -0.2812   -0.0125 C   0  0  0  0  0  0  0  0  0  0  0  0
    0.9100    0.0194   -0.9996 H   0  0  0  0  0  0  0  0  0  0  0  0
    0.4088    0.6308    0.5746 H   0  0  0  0  0  0  0  0  0  0  0  0
    1.6534   -1.1037    0.6739 C   0  0  0  0  0  0  0  0  0  0  0  0
    1.5202   -1.3992    1.8546 O   0  0  0  0  0  0  0  0  0  0  0  0
    2.8373   -1.3855    0.0188 N   0  0  0  0  0  0  0  0  0  0  0  0
    2.8138   -1.3076   -0.9938 H   0  0  0  0  0  0  0  0  0  0  0  0
    3.8700   -2.2236    0.6149 C   0  0  0  0  0  0  0  0  0  0  0  0
    4.2022   -1.8046    1.5707 H   0  0  0  0  0  0  0  0  0  0  0  0
    3.4877   -3.2353    0.7869 H   0  0  0  0  0  0  0  0  0  0  0  0
    4.7362   -2.2864   -0.0508 H   0  0  0  0  0  0  0  0  0  0  0  0
  1  2  1  0  0  0  0
  2  3  1  0  0  0  0
  2  4  1  0  0  0  0
  2  5  1  0  0  0  0
  5  6  2  0  0  0  0
  5  7  1  0  0  0  0
  7  8  1  0  0  0  0
  7  9  1  0  0  0  0
  9 10  1  0  0  0  0
  9 11  1  0  0  0  0
  9 12  1  0  0  0  0
 12 13  2  0  0  0  0
 12 14  1  0  0  0  0
 14 15  1  0  0  0  0
 14 16  1  0  0  0  0
 16 17  1  0  0  0  0
 16 18  1  0  0  0  0
 16 19  1  0  0  0  0
M  END
$$$$

  -OEChem-01062216083D

 19 18  0     0  0  0  0  0  0999 V2000
   -2.1115   -4.0733   -0.2558 H   0  0  0  0  0  0  0  0  0  0  0  0
   -2.1545   -3.0211    0.0394 C   0  0  0  0  0  0  0  0  0  0  0  0
   -2.2776   -2.9654    1.1238 H   0  0  0  0  0  0  0  0  0  0  0  0
   -3.0154   -2.5542   -0.4445 H   0  0  0  0  0  0  0  0  0  0  0  0
   -0.8771   -2.3116   -0.3696 C   0  0  0  0  0  0  0  0  0  0  0  0
    0.0076   -2.9314   -0.9405 O   0  0  0  0  0  0  0  0  0  0  0  0
   -0.7641   -0.9426   -0.2012 N   0  0  0  0  0  0  0  0  0  0  0  0
   -1.5441   -0.5251    0.2983 H   0  0  0  0  0  0  0  0  0  0  0  0
    0.5410   -0.2736   -0.0285 C   0  0  0  0  0  0  0  0  0  0  0  0
    0.9066    0.0234   -1.0153 H   0  0  0  0  0  0  0  0  0  0  0  0
    0.4041    0.6388    0.5582 H   0  0  0  0  0  0  0  0  0  0  0  0
    1.6404   -1.1038    0.6600 C   0  0  0  0  0  0  0  0  0  0  0  0
    1.4107   -1.5988    1.7566 O   0  0  0  0  0  0  0  0  0  0  0  0
    2.9258   -1.1322    0.1524 N   0  0  0  0  0  0  0  0  0  0  0  0
    3.0425   -0.8303   -0.8100 H   0  0  0  0  0  0  0  0  0  0  0  0
    3.9845   -1.9292    0.7594 C   0  0  0  0  0  0  0  0  0  0  0  0
    4.1793   -1.5923    1.7830 H   0  0  0  0  0  0  0  0  0  0  0  0
    3.7004   -2.9867    0.7842 H   0  0  0  0  0  0  0  0  0  0  0  0
    4.9091   -1.8315    0.1828 H   0  0  0  0  0  0  0  0  0  0  0  0
  1  2  1  0  0  0  0
  2  3  1  0  0  0  0
  2  4  1  0  0  0  0
  2  5  1  0  0  0  0
  5  6  2  0  0  0  0
  5  7  1  0  0  0  0
  7  8  1  0  0  0  0
  7  9  1  0  0  0  0
  9 10  1  0  0  0  0
  9 11  1  0  0  0  0
  9 12  1  0  0  0  0
 12 13  2  0  0  0  0
 12 14  1  0  0  0  0
 14 15  1  0  0  0  0
 14 16  1  0  0  0  0
 16 17  1  0  0  0  0
 16 18  1  0  0  0  0
 16 19  1  0  0  0  0
M  END
$$$$

  -OEChem-01062216083D

 19 18  0     0  0  0  0  0  0999 V2000
   -2.1881   -4.0236    0.1405 H   0  0  0  0  0  0  0  0  0  0  0  0
   -2.2135   -2.9347    0.2399 C   0  0  0  0  0  0  0  0  0  0  0  0
   -2.3421   -2.6829    1.2954 H   0  0  0  0  0  0  0  0  0  0  0  0
   -3.0626   -2.5478   -0.3285 H   0  0  0  0  0  0  0  0  0  0  0  0
   -0.9206   -2.3336   -0.2792 C   0  0  0  0  0  0  0  0  0  0  0  0
   -0.0831   -3.0508   -0.8056 O   0  0  0  0  0  0  0  0  0  0  0  0
   -0.7496   -0.9604   -0.2826 N   0  0  0  0  0  0  0  0  0  0  0  0
   -1.5008   -0.4572    0.1803 H   0  0  0  0  0  0  0  0  0  0  0  0
    0.5858   -0.3345   -0.1983 C   0  0  0  0  0  0  0  0  0  0  0  0
    0.9528   -0.1847   -1.2174 H   0  0  0  0  0  0  0  0  0  0  0  0
    0.4912    0.6508    0.2659 H   0  0  0  0  0  0  0  0  0  0  0  0
    1.6667   -1.1080    0.5822 C   0  0  0  0  0  0  0  0  0  0  0  0
    1.3818   -1.6205    1.6580 O   0  0  0  0  0  0  0  0  0  0  0  0
    2.9983   -0.9842    0.2304 N   0  0  0  0  0  0  0  0  0  0  0  0
    3.2007   -0.6128   -0.6926 H   0  0  0  0  0  0  0  0  0  0  0  0
    4.0696   -1.6466    0.9646 C   0  0  0  0  0  0  0  0  0  0  0  0
    3.9251   -2.7322    0.9552 H   0  0  0  0  0  0  0  0  0  0  0  0
    5.0377   -1.4213    0.5072 H   0  0  0  0  0  0  0  0  0  0  0  0
    4.0915   -1.3032    2.0043 H   0  0  0  0  0  0  0  0  0  0  0  0
  1  2  1  0  0  0  0
  2  3  1  0  0  0  0
  2  4  1  0  0  0  0
  2  5  1  0  0  0  0
  5  6  2  0  0  0  0
  5  7  1  0  0  0  0
  7  8  1  0  0  0  0
  7  9  1  0  0  0  0
  9 10  1  0  0  0  0
  9 11  1  0  0  0  0
  9 12  1  0  0  0  0
 12 13  2  0  0  0  0
 12 14  1  0  0  0  0
 14 15  1  0  0  0  0
 14 16  1  0  0  0  0
 16 17  1  0  0  0  0
 16 18  1  0  0  0  0
 16 19  1  0  0  0  0
M  END
$$$$

  -OEChem-01062216083D

 19 18  0     0  0  0  0  0  0999 V2000
   -2.2533   -4.0087    0.0893 H   0  0  0  0  0  0  0  0  0  0  0  0
   -2.2311   -2.9268    0.2471 C   0  0  0  0  0  0  0  0  0  0  0  0
   -2.3087   -2.7269    1.3186 H   0  0  0  0  0  0  0  0  0  0  0  0
   -3.0851   -2.4780   -0.2655 H   0  0  0  0  0  0  0  0  0  0  0  0
   -0.9352   -2.3483   -0.2902 C   0  0  0  0  0  0  0  0  0  0  0  0
   -0.1223   -3.0768   -0.8390 O   0  0  0  0  0  0  0  0  0  0  0  0
   -0.7423   -0.9781   -0.3040 N   0  0  0  0  0  0  0  0  0  0  0  0
   -1.4860   -0.4633    0.1580 H   0  0  0  0  0  0  0  0  0  0  0  0
    0.6025   -0.3728   -0.2097 C   0  0  0  0  0  0  0  0  0  0  0  0
    0.9801   -0.2444   -1.2281 H   0  0  0  0  0  0  0  0  0  0  0  0
    0.5131    0.6213    0.2360 H   0  0  0  0  0  0  0  0  0  0  0  0
    1.6798   -1.1381    0.5874 C   0  0  0  0  0  0  0  0  0  0  0  0
    1.3652   -1.8023    1.5677 O   0  0  0  0  0  0  0  0  0  0  0  0
    3.0084   -0.7823    0.4404 N   0  0  0  0  0  0  0  0  0  0  0  0
    3.2570   -0.2319   -0.3756 H   0  0  0  0  0  0  0  0  0  0  0  0
    4.0785   -1.3631    1.2430 C   0  0  0  0  0  0  0  0  0  0  0  0
    4.1060   -2.4504    1.1149 H   0  0  0  0  0  0  0  0  0  0  0  0
    5.0459   -0.9538    0.9369 H   0  0  0  0  0  0  0  0  0  0  0  0
    3.9291   -1.1365    2.3040 H   0  0  0  0  0  0  0  0  0  0  0  0
  1  2  1  0  0  0  0
  2  3  1  0  0  0  0
  2  4  1  0  0  0  0
  2  5  1  0  0  0  0
  5  6  2  0  0  0  0
  5  7  1  0  0  0  0
  7  8  1  0  0  0  0
  7  9  1  0  0  0  0
  9 10  1  0  0  0  0
  9 11  1  0  0  0  0
  9 12  1  0  0  0  0
 12 13  2  0  0  0  0
 12 14  1  0  0  0  0
 14 15  1  0  0  0  0
 14 16  1  0  0  0  0
 16 17  1  0  0  0  0
 16 18  1  0  0  0  0
 16 19  1  0  0  0  0
M  END
$$$$

  -OEChem-01062216083D

 19 18  0     0  0  0  0  0  0999 V2000
   -2.3183   -3.9942    0.1911 H   0  0  0  0  0  0  0  0  0  0  0  0
   -2.2677   -2.9073    0.3019 C   0  0  0  0  0  0  0  0  0  0  0  0
   -2.2582   -2.6651    1.3673 H   0  0  0  0  0  0  0  0  0  0  0  0
   -3.1519   -2.4632   -0.1613 H   0  0  0  0  0  0  0  0  0  0  0  0
   -1.0092   -2.3764   -0.3595 C   0  0  0  0  0  0  0  0  0  0  0  0
   -0.3467   -3.1093   -1.0766 O   0  0  0  0  0  0  0  0  0  0  0  0
   -0.7468   -1.0182   -0.3601 N   0  0  0  0  0  0  0  0  0  0  0  0
   -1.4628   -0.4862    0.1250 H   0  0  0  0  0  0  0  0  0  0  0  0
    0.6157   -0.4485   -0.2530 C   0  0  0  0  0  0  0  0  0  0  0  0
    0.8847   -0.0718   -1.2436 H   0  0  0  0  0  0  0  0  0  0  0  0
    0.5715    0.4089    0.4235 H   0  0  0  0  0  0  0  0  0  0  0  0
    1.8013   -1.3206    0.2211 C   0  0  0  0  0  0  0  0  0  0  0  0
    1.6289   -2.3037    0.9293 O   0  0  0  0  0  0  0  0  0  0  0  0
    3.0489   -0.7248    0.2914 N   0  0  0  0  0  0  0  0  0  0  0  0
    3.1923    0.1285   -0.2394 H   0  0  0  0  0  0  0  0  0  0  0  0
    4.2011   -1.3511    0.9311 C   0  0  0  0  0  0  0  0  0  0  0  0
    4.4025   -2.3302    0.4837 H   0  0  0  0  0  0  0  0  0  0  0  0
    5.0897   -0.7249    0.8068 H   0  0  0  0  0  0  0  0  0  0  0  0
    4.0195   -1.4840    2.0028 H   0  0  0  0  0  0  0  0  0  0  0  0
  1  2  1  0  0  0  0
  2  3  1  0  0  0  0
  2  4  1  0  0  0  0
  2  5  1  0  0  0  0
  5  6  2  0  0  0  0
  5  7  1  0  0  0  0
  7  8  1  0  0  0  0
  7  9  1  0  0  0  0
  9 10  1  0  0  0  0
  9 11  1  0  0  0  0
  9 12  1  0  0  0  0
 12 13  2  0  0  0  0
 12 14  1  0  0  0  0
 14 15  1  0  0  0  0
 14 16  1  0  0  0  0
 16 17  1  0  0  0  0
 16 18  1  0  0  0  0
 16 19  1  0  0  0  0
M  END
$$$$

  -OEChem-01062216083D

 19 18  0     0  0  0  0  0  0999 V2000
   -2.3702   -3.9676    0.1500 H   0  0  0  0  0  0  0  0  0  0  0  0
   -2.2514   -2.8944    0.3243 C   0  0  0  0  0  0  0  0  0  0  0  0
   -2.1495   -2.7245    1.3987 H   0  0  0  0  0  0  0  0  0  0  0  0
   -3.1416   -2.3764   -0.0398 H   0  0  0  0  0  0  0  0  0  0  0  0
   -1.0173   -2.3842   -0.3965 C   0  0  0  0  0  0  0  0  0  0  0  0
   -0.4251   -3.1152   -1.1734 O   0  0  0  0  0  0  0  0  0  0  0  0
   -0.7290   -1.0318   -0.3964 N   0  0  0  0  0  0  0  0  0  0  0  0
   -1.4402   -0.4951    0.0902 H   0  0  0  0  0  0  0  0  0  0  0  0
    0.6373   -0.4738   -0.2661 C   0  0  0  0  0  0  0  0  0  0  0  0
    0.9238   -0.1038   -1.2546 H   0  0  0  0  0  0  0  0  0  0  0  0
    0.5758    0.3897    0.4013 H   0  0  0  0  0  0  0  0  0  0  0  0
    1.8287   -1.3293    0.2316 C   0  0  0  0  0  0  0  0  0  0  0  0
    1.7003   -2.4611    0.6739 O   0  0  0  0  0  0  0  0  0  0  0  0
    2.9765   -0.6551    0.6138 N   0  0  0  0  0  0  0  0  0  0  0  0
    3.0747    0.3116    0.3202 H   0  0  0  0  0  0  0  0  0  0  0  0
    4.0974   -1.2939    1.2968 C   0  0  0  0  0  0  0  0  0  0  0  0
    4.4797   -2.1328    0.7057 H   0  0  0  0  0  0  0  0  0  0  0  0
    4.9104   -0.5763    1.4421 H   0  0  0  0  0  0  0  0  0  0  0  0
    3.7869   -1.6672    2.2784 H   0  0  0  0  0  0  0  0  0  0  0  0
  1  2  1  0  0  0  0
  2  3  1  0  0  0  0
  2  4  1  0  0  0  0
  2  5  1  0  0  0  0
  5  6  2  0  0  0  0
  5  7  1  0  0  0  0
  7  8  1  0  0  0  0
  7  9  1  0  0  0  0
  9 10  1  0  0  0  0
  9 11  1  0  0  0  0
  9 12  1  0  0  0  0
 12 13  2  0  0  0  0
 12 14  1  0  0  0  0
 14 15  1  0  0  0  0
 14 16  1  0  0  0  0
 16 17  1  0  0  0  0
 16 18  1  0  0  0  0
 16 19  1  0  0  0  0
M  END
$$$$

  -OEChem-01062216083D

 19 18  0     0  0  0  0  0  0999 V2000
   -2.3802   -4.0088   -0.4005 H   0  0  0  0  0  0  0  0  0  0  0  0
   -2.3411   -2.9157   -0.4031 C   0  0  0  0  0  0  0  0  0  0  0  0
   -3.2266   -2.5296    0.1072 H   0  0  0  0  0  0  0  0  0  0  0  0
   -2.3432   -2.5694   -1.4392 H   0  0  0  0  0  0  0  0  0  0  0  0
   -1.0842   -2.4385    0.3013 C   0  0  0  0  0  0  0  0  0  0  0  0
   -0.4501   -3.2298    0.9764 O   0  0  0  0  0  0  0  0  0  0  0  0
   -0.8310   -1.0805    0.3863 N   0  0  0  0  0  0  0  0  0  0  0  0
   -1.5620   -0.5257   -0.0485 H   0  0  0  0  0  0  0  0  0  0  0  0
    0.5091   -0.4488    0.3561 C   0  0  0  0  0  0  0  0  0  0  0  0
    0.6261    0.0493   -0.6105 H   0  0  0  0  0  0  0  0  0  0  0  0
    0.5154    0.3265    1.1265 H   0  0  0  0  0  0  0  0  0  0  0  0
    1.7889   -1.2864    0.5569 C   0  0  0  0  0  0  0  0  0  0  0  0
    2.0103   -2.2390   -0.1779 O   0  0  0  0  0  0  0  0  0  0  0  0
    2.8906   -0.6842    1.1407 N   0  0  0  0  0  0  0  0  0  0  0  0
    2.7238    0.1320    1.7202 H   0  0  0  0  0  0  0  0  0  0  0  0
    4.2101   -1.3058    1.1777 C   0  0  0  0  0  0  0  0  0  0  0  0
    4.1585   -2.2843    1.6670 H   0  0  0  0  0  0  0  0  0  0  0  0
    4.6000   -1.4394    0.1631 H   0  0  0  0  0  0  0  0  0  0  0  0
    4.9099   -0.6763    1.7356 H   0  0  0  0  0  0  0  0  0  0  0  0
  1  2  1  0  0  0  0
  2  3  1  0  0  0  0
  2  4  1  0  0  0  0
  2  5  1  0  0  0  0
  5  6  2  0  0  0  0
  5  7  1  0  0  0  0
  7  8  1  0  0  0  0
  7  9  1  0  0  0  0
  9 10  1  0  0  0  0
  9 11  1  0  0  0  0
  9 12  1  0  0  0  0
 12 13  2  0  0  0  0
 12 14  1  0  0  0  0
 14 15  1  0  0  0  0
 14 16  1  0  0  0  0
 16 17  1  0  0  0  0
 16 18  1  0  0  0  0
 16 19  1  0  0  0  0
M  END
$$$$

  -OEChem-01062216083D

 19 18  0     0  0  0  0  0  0999 V2000
   -2.4139   -4.0188   -0.3116 H   0  0  0  0  0  0  0  0  0  0  0  0
   -2.3634   -2.9274   -0.3662 C   0  0  0  0  0  0  0  0  0  0  0  0
   -3.2192   -2.5078    0.1677 H   0  0  0  0  0  0  0  0  0  0  0  0
   -2.4117   -2.6277   -1.4158 H   0  0  0  0  0  0  0  0  0  0  0  0
   -1.0685   -2.4339    0.2534 C   0  0  0  0  0  0  0  0  0  0  0  0
   -0.3571   -3.2281    0.8426 O   0  0  0  0  0  0  0  0  0  0  0  0
   -0.8299   -1.0716    0.3210 N   0  0  0  0  0  0  0  0  0  0  0  0
   -1.5791   -0.5204   -0.0871 H   0  0  0  0  0  0  0  0  0  0  0  0
    0.5008   -0.4208    0.2991 C   0  0  0  0  0  0  0  0  0  0  0  0
    0.6284    0.0592   -0.6754 H   0  0  0  0  0  0  0  0  0  0  0  0
    0.4913    0.3709    1.0526 H   0  0  0  0  0  0  0  0  0  0  0  0
    1.7758   -1.2550    0.5333 C   0  0  0  0  0  0  0  0  0  0  0  0
    2.1120   -2.0726   -0.3131 O   0  0  0  0  0  0  0  0  0  0  0  0
    2.7544   -0.7783    1.3883 N   0  0  0  0  0  0  0  0  0  0  0  0
    2.4666   -0.1055    2.0913 H   0  0  0  0  0  0  0  0  0  0  0  0
    4.0523   -1.4269    1.5384 C   0  0  0  0  0  0  0  0  0  0  0  0
    3.9255   -2.4643    1.8664 H   0  0  0  0  0  0  0  0  0  0  0  0
    4.5965   -1.4221    0.5880 H   0  0  0  0  0  0  0  0  0  0  0  0
    4.6558   -0.8983    2.2823 H   0  0  0  0  0  0  0  0  0  0  0  0
  1  2  1  0  0  0  0
  2  3  1  0  0  0  0
  2  4  1  0  0  0  0
  2  5  1  0  0  0  0
  5  6  2  0  0  0  0
  5  7  1  0  0  0  0
  7  8  1  0  0  0  0
  7  9  1  0  0  0  0
  9 10  1  0  0  0  0
  9 11  1  0  0  0  0
  9 12  1  0  0  0  0
 12 13  2  0  0  0  0
 12 14  1  0  0  0  0
 14 15  1  0  0  0  0
 14 16  1  0  0  0  0
 16 17  1  0  0  0  0
 16 18  1  0  0  0  0
 16 19  1  0  0  0  0
M  END
$$$$

  -OEChem-01062216083D

 19 18  0     0  0  0  0  0  0999 V2000
   -2.4572   -4.0190   -0.2277 H   0  0  0  0  0  0  0  0  0  0  0  0
   -2.3940   -2.9311   -0.3227 C   0  0  0  0  0  0  0  0  0  0  0  0
   -3.2061   -2.4802    0.2525 H   0  0  0  0  0  0  0  0  0  0  0  0
   -2.5087   -2.6647   -1.3761 H   0  0  0  0  0  0  0  0  0  0  0  0
   -1.0535   -2.4389    0.1923 C   0  0  0  0  0  0  0  0  0  0  0  0
   -0.2758   -3.2443    0.6714 O   0  0  0  0  0  0  0  0  0  0  0  0
   -0.8184   -1.0750    0.2501 N   0  0  0  0  0  0  0  0  0  0  0  0
   -1.5859   -0.5182   -0.1141 H   0  0  0  0  0  0  0  0  0  0  0  0
    0.5042   -0.4086    0.2465 C   0  0  0  0  0  0  0  0  0  0  0  0
    0.6456    0.0589   -0.7324 H   0  0  0  0  0  0  0  0  0  0  0  0
    0.4772    0.3945    0.9873 H   0  0  0  0  0  0  0  0  0  0  0  0
    1.7755   -1.2355    0.5154 C   0  0  0  0  0  0  0  0  0  0  0  0
    2.2516   -1.8962   -0.3983 O   0  0  0  0  0  0  0  0  0  0  0  0
    2.5848   -0.9261    1.5942 N   0  0  0  0  0  0  0  0  0  0  0  0
    2.1540   -0.4183    2.3600 H   0  0  0  0  0  0  0  0  0  0  0  0
    3.8551   -1.5996    1.8370 C   0  0  0  0  0  0  0  0  0  0  0  0
    3.7004   -2.6781    1.9486 H   0  0  0  0  0  0  0  0  0  0  0  0
    4.5466   -1.4275    1.0054 H   0  0  0  0  0  0  0  0  0  0  0  0
    4.3173   -1.2180    2.7524 H   0  0  0  0  0  0  0  0  0  0  0  0
  1  2  1  0  0  0  0
  2  3  1  0  0  0  0
  2  4  1  0  0  0  0
  2  5  1  0  0  0  0
  5  6  2  0  0  0  0
  5  7  1  0  0  0  0
  7  8  1  0  0  0  0
  7  9  1  0  0  0  0
  9 10  1  0  0  0  0
  9 11  1  0  0  0  0
  9 12  1  0  0  0  0
 12 13  2  0  0  0  0
 12 14  1  0  0  0  0
 14 15  1  0  0  0  0
 14 16  1  0  0  0  0
 16 17  1  0  0  0  0
 16 18  1  0  0  0  0
 16 19  1  0  0  0  0
M  END
$$$$

  -OEChem-01062216083D

 19 18  0     0  0  0  0  0  0999 V2000
   -2.4534   -4.0209   -0.2587 H   0  0  0  0  0  0  0  0  0  0  0  0
   -2.4162   -2.9280   -0.2874 C   0  0  0  0  0  0  0  0  0  0  0  0
   -3.1711   -2.5327    0.3966 H   0  0  0  0  0  0  0  0  0  0  0  0
   -2.6438   -2.5969   -1.3035 H   0  0  0  0  0  0  0  0  0  0  0  0
   -1.0374   -2.4408    0.1208 C   0  0  0  0  0  0  0  0  0  0  0  0
   -0.2110   -3.2573    0.4856 O   0  0  0  0  0  0  0  0  0  0  0  0
   -0.8014   -1.0769    0.1781 N   0  0  0  0  0  0  0  0  0  0  0  0
   -1.5869   -0.5092   -0.1270 H   0  0  0  0  0  0  0  0  0  0  0  0
    0.5156   -0.3994    0.2015 C   0  0  0  0  0  0  0  0  0  0  0  0
    0.6751    0.0625   -0.7775 H   0  0  0  0  0  0  0  0  0  0  0  0
    0.4704    0.4090    0.9357 H   0  0  0  0  0  0  0  0  0  0  0  0
    1.7825   -1.2198    0.5050 C   0  0  0  0  0  0  0  0  0  0  0  0
    2.4112   -1.7014   -0.4279 O   0  0  0  0  0  0  0  0  0  0  0  0
    2.3915   -1.1204    1.7429 N   0  0  0  0  0  0  0  0  0  0  0  0
    1.8086   -0.8006    2.5096 H   0  0  0  0  0  0  0  0  0  0  0  0
    3.6232   -1.8323    2.0626 C   0  0  0  0  0  0  0  0  0  0  0  0
    3.4714   -2.9139    1.9800 H   0  0  0  0  0  0  0  0  0  0  0  0
    4.4271   -1.5366    1.3801 H   0  0  0  0  0  0  0  0  0  0  0  0
    3.9389   -1.6018    3.0846 H   0  0  0  0  0  0  0  0  0  0  0  0
  1  2  1  0  0  0  0
  2  3  1  0  0  0  0
  2  4  1  0  0  0  0
  2  5  1  0  0  0  0
  5  6  2  0  0  0  0
  5  7  1  0  0  0  0
  7  8  1  0  0  0  0
  7  9  1  0  0  0  0
  9 10  1  0  0  0  0
  9 11  1  0  0  0  0
  9 12  1  0  0  0  0
 12 13  2  0  0  0  0
 12 14  1  0  0  0  0
 14 15  1  0  0  0  0
 14 16  1  0  0  0  0
 16 17  1  0  0  0  0
 16 18  1  0  0  0  0
 16 19  1  0  0  0  0
M  END
$$$$

  -OEChem-01062216083D

 19 18  0     0  0  0  0  0  0999 V2000
   -2.4525   -4.0127   -0.2693 H   0  0  0  0  0  0  0  0  0  0  0  0
   -2.4242   -2.9192   -0.2648 C   0  0  0  0  0  0  0  0  0  0  0  0
   -3.1469   -2.5517    0.4676 H   0  0  0  0  0  0  0  0  0  0  0  0
   -2.7041   -2.5586   -1.2575 H   0  0  0  0  0  0  0  0  0  0  0  0
   -1.0304   -2.4334    0.0901 C   0  0  0  0  0  0  0  0  0  0  0  0
   -0.1860   -3.2525    0.4043 O   0  0  0  0  0  0  0  0  0  0  0  0
   -0.7894   -1.0698    0.1340 N   0  0  0  0  0  0  0  0  0  0  0  0
   -1.5797   -0.4969   -0.1485 H   0  0  0  0  0  0  0  0  0  0  0  0
    0.5272   -0.3922    0.1692 C   0  0  0  0  0  0  0  0  0  0  0  0
    0.7002    0.0597   -0.8124 H   0  0  0  0  0  0  0  0  0  0  0  0
    0.4757    0.4232    0.8955 H   0  0  0  0  0  0  0  0  0  0  0  0
    1.7849   -1.2132    0.5037 C   0  0  0  0  0  0  0  0  0  0  0  0
    2.5558   -1.5103   -0.3992 O   0  0  0  0  0  0  0  0  0  0  0  0
    2.1937   -1.3467    1.8177 N   0  0  0  0  0  0  0  0  0  0  0  0
    1.4718   -1.2252    2.5208 H   0  0  0  0  0  0  0  0  0  0  0  0
    3.3811   -2.1098    2.1812 C   0  0  0  0  0  0  0  0  0  0  0  0
    3.2755   -3.1529    1.8649 H   0  0  0  0  0  0  0  0  0  0  0  0
    4.2717   -1.6856    1.7055 H   0  0  0  0  0  0  0  0  0  0  0  0
    3.5276   -2.0878    3.2650 H   0  0  0  0  0  0  0  0  0  0  0  0
  1  2  1  0  0  0  0
  2  3  1  0  0  0  0
  2  4  1  0  0  0  0
  2  5  1  0  0  0  0
  5  6  2  0  0  0  0
  5  7  1  0  0  0  0
  7  8  1  0  0  0  0
  7  9  1  0  0  0  0
  9 10  1  0  0  0  0
  9 11  1  0  0  0  0
  9 12  1  0  0  0  0
 12 13  2  0  0  0  0
 12 14  1  0  0  0  0
 14 15  1  0  0  0  0
 14 16  1  0  0  0  0
 16 17  1  0  0  0  0
 16 18  1  0  0  0  0
 16 19  1  0  0  0  0
M  END
$$$$

  -OEChem-01062216083D

 19 18  0     0  0  0  0  0  0999 V2000
   -2.6211   -3.9346    0.1127 H   0  0  0  0  0  0  0  0  0  0  0  0
   -2.5205   -2.8582   -0.0547 C   0  0  0  0  0  0  0  0  0  0  0  0
   -3.1811   -2.3316    0.6383 H   0  0  0  0  0  0  0  0  0  0  0  0
   -2.8237   -2.6337   -1.0802 H   0  0  0  0  0  0  0  0  0  0  0  0
   -1.0823   -2.4264    0.1668 C   0  0  0  0  0  0  0  0  0  0  0  0
   -0.2660   -3.2589    0.5177 O   0  0  0  0  0  0  0  0  0  0  0  0
   -0.7598   -1.0860    0.0323 N   0  0  0  0  0  0  0  0  0  0  0  0
   -1.5291   -0.4965   -0.2737 H   0  0  0  0  0  0  0  0  0  0  0  0
    0.5917   -0.4815   -0.0264 C   0  0  0  0  0  0  0  0  0  0  0  0
    0.7753   -0.1689   -1.0591 H   0  0  0  0  0  0  0  0  0  0  0  0
    0.5925    0.4204    0.5915 H   0  0  0  0  0  0  0  0  0  0  0  0
    1.8113   -1.3141    0.4065 C   0  0  0  0  0  0  0  0  0  0  0  0
    2.6902   -1.5472   -0.4125 O   0  0  0  0  0  0  0  0  0  0  0  0
    2.0479   -1.5484    1.7481 N   0  0  0  0  0  0  0  0  0  0  0  0
    1.2249   -1.5217    2.3424 H   0  0  0  0  0  0  0  0  0  0  0  0
    3.1840   -2.3421    2.1996 C   0  0  0  0  0  0  0  0  0  0  0  0
    4.1258   -1.8827    1.8812 H   0  0  0  0  0  0  0  0  0  0  0  0
    3.1871   -2.4099    3.2915 H   0  0  0  0  0  0  0  0  0  0  0  0
    3.1292   -3.3556    1.7880 H   0  0  0  0  0  0  0  0  0  0  0  0
  1  2  1  0  0  0  0
  2  3  1  0  0  0  0
  2  4  1  0  0  0  0
  2  5  1  0  0  0  0
  5  6  2  0  0  0  0
  5  7  1  0  0  0  0
  7  8  1  0  0  0  0
  7  9  1  0  0  0  0
  9 10  1  0  0  0  0
  9 11  1  0  0  0  0
  9 12  1  0  0  0  0
 12 13  2  0  0  0  0
 12 14  1  0  0  0  0
 14 15  1  0  0  0  0
 14 16  1  0  0  0  0
 16 17  1  0  0  0  0
 16 18  1  0  0  0  0
 16 19  1  0  0  0  0
M  END
$$$$

  -OEChem-01062216083D

 19 18  0     0  0  0  0  0  0999 V2000
   -2.6931   -3.9010    0.0896 H   0  0  0  0  0  0  0  0  0  0  0  0
   -2.5711   -2.8244   -0.0611 C   0  0  0  0  0  0  0  0  0  0  0  0
   -3.2024   -2.2956    0.6570 H   0  0  0  0  0  0  0  0  0  0  0  0
   -2.8942   -2.5741   -1.0745 H   0  0  0  0  0  0  0  0  0  0  0  0
   -1.1182   -2.4295    0.1321 C   0  0  0  0  0  0  0  0  0  0  0  0
   -0.3111   -3.2871    0.4407 O   0  0  0  0  0  0  0  0  0  0  0  0
   -0.7652   -1.0969    0.0032 N   0  0  0  0  0  0  0  0  0  0  0  0
   -1.5287   -0.4822   -0.2663 H   0  0  0  0  0  0  0  0  0  0  0  0
    0.5943   -0.5068   -0.0371 C   0  0  0  0  0  0  0  0  0  0  0  0
    0.7890   -0.1910   -1.0667 H   0  0  0  0  0  0  0  0  0  0  0  0
    0.5913    0.3919    0.5854 H   0  0  0  0  0  0  0  0  0  0  0  0
    1.8157   -1.3326    0.4082 C   0  0  0  0  0  0  0  0  0  0  0  0
    2.8106   -1.3373   -0.3044 O   0  0  0  0  0  0  0  0  0  0  0  0
    1.8961   -1.8304    1.6949 N   0  0  0  0  0  0  0  0  0  0  0  0
    0.9942   -2.0401    2.1151 H   0  0  0  0  0  0  0  0  0  0  0  0
    3.0385   -2.6188    2.1397 C   0  0  0  0  0  0  0  0  0  0  0  0
    3.9630   -2.0376    2.0570 H   0  0  0  0  0  0  0  0  0  0  0  0
    2.9101   -2.9119    3.1859 H   0  0  0  0  0  0  0  0  0  0  0  0
    3.1358   -3.5255    1.5334 H   0  0  0  0  0  0  0  0  0  0  0  0
  1  2  1  0  0  0  0
  2  3  1  0  0  0  0
  2  4  1  0  0  0  0
  2  5  1  0  0  0  0
  5  6  2  0  0  0  0
  5  7  1  0  0  0  0
  7  8  1  0  0  0  0
  7  9  1  0  0  0  0
  9 10  1  0  0  0  0
  9 11  1  0  0  0  0
  9 12  1  0  0  0  0
 12 13  2  0  0  0  0
 12 14  1  0  0  0  0
 14 15  1  0  0  0  0
 14 16  1  0  0  0  0
 16 17  1  0  0  0  0
 16 18  1  0  0  0  0
 16 19  1  0  0  0  0
M  END
$$$$

  -OEChem-01062216083D

 19 18  0     0  0  0  0  0  0999 V2000
   -2.8072   -3.8473    0.0665 H   0  0  0  0  0  0  0  0  0  0  0  0
   -2.6491   -2.7731   -0.0653 C   0  0  0  0  0  0  0  0  0  0  0  0
   -3.2263   -2.2379    0.6926 H   0  0  0  0  0  0  0  0  0  0  0  0
   -3.0068   -2.4855   -1.0571 H   0  0  0  0  0  0  0  0  0  0  0  0
   -1.1746   -2.4393    0.0711 C   0  0  0  0  0  0  0  0  0  0  0  0
   -0.3863   -3.3395    0.2957 O   0  0  0  0  0  0  0  0  0  0  0  0
   -0.7780   -1.1177   -0.0379 N   0  0  0  0  0  0  0  0  0  0  0  0
   -1.5337   -0.4667   -0.2352 H   0  0  0  0  0  0  0  0  0  0  0  0
    0.5914   -0.5460   -0.0461 C   0  0  0  0  0  0  0  0  0  0  0  0
    0.8030   -0.2246   -1.0707 H   0  0  0  0  0  0  0  0  0  0  0  0
    0.5800    0.3488    0.5822 H   0  0  0  0  0  0  0  0  0  0  0  0
    1.8180   -1.3613    0.4104 C   0  0  0  0  0  0  0  0  0  0  0  0
    2.8892   -1.1373   -0.1370 O   0  0  0  0  0  0  0  0  0  0  0  0
    1.7964   -2.1258    1.5610 N   0  0  0  0  0  0  0  0  0  0  0  0
    0.8822   -2.5312    1.7587 H   0  0  0  0  0  0  0  0  0  0  0  0
    2.9634   -2.8770    2.0064 C   0  0  0  0  0  0  0  0  0  0  0  0
    3.8006   -2.2012    2.2100 H   0  0  0  0  0  0  0  0  0  0  0  0
    2.7317   -3.4229    2.9258 H   0  0  0  0  0  0  0  0  0  0  0  0
    3.2696   -3.5980    1.2412 H   0  0  0  0  0  0  0  0  0  0  0  0
  1  2  1  0  0  0  0
  2  3  1  0  0  0  0
  2  4  1  0  0  0  0
  2  5  1  0  0  0  0
  5  6  2  0  0  0  0
  5  7  1  0  0  0  0
  7  8  1  0  0  0  0
  7  9  1  0  0  0  0
  9 10  1  0  0  0  0
  9 11  1  0  0  0  0
  9 12  1  0  0  0  0
 12 13  2  0  0  0  0
 12 14  1  0  0  0  0
 14 15  1  0  0  0  0
 14 16  1  0  0  0  0
 16 17  1  0  0  0  0
 16 18  1  0  0  0  0
 16 19  1  0  0  0  0
M  END
$$$$

  -OEChem-01062216083D

 19 18  0     0  0  0  0  0  0999 V2000
   -2.9037   -3.7995    0.0386 H   0  0  0  0  0  0  0  0  0  0  0  0
   -2.7160   -2.7258   -0.0547 C   0  0  0  0  0  0  0  0  0  0  0  0
   -3.2158   -2.2101    0.7690 H   0  0  0  0  0  0  0  0  0  0  0  0
   -3.1353   -2.3784   -1.0023 H   0  0  0  0  0  0  0  0  0  0  0  0
   -1.2242   -2.4482   -0.0137 C   0  0  0  0  0  0  0  0  0  0  0  0
   -0.4570   -3.3883    0.0841 O   0  0  0  0  0  0  0  0  0  0  0  0
   -0.7898   -1.1368   -0.0983 N   0  0  0  0  0  0  0  0  0  0  0  0
   -1.5382   -0.4567   -0.2025 H   0  0  0  0  0  0  0  0  0  0  0  0
    0.5861   -0.5790   -0.0642 C   0  0  0  0  0  0  0  0  0  0  0  0
    0.8219   -0.2486   -1.0804 H   0  0  0  0  0  0  0  0  0  0  0  0
    0.5577    0.3112    0.5701 H   0  0  0  0  0  0  0  0  0  0  0  0
    1.8172   -1.3793    0.4135 C   0  0  0  0  0  0  0  0  0  0  0  0
    2.9174   -0.9739    0.0638 O   0  0  0  0  0  0  0  0  0  0  0  0
    1.7510   -2.3790    1.3640 N   0  0  0  0  0  0  0  0  0  0  0  0
    0.8569   -2.8717    1.3815 H   0  0  0  0  0  0  0  0  0  0  0  0
    2.9291   -3.1199    1.7970 C   0  0  0  0  0  0  0  0  0  0  0  0
    3.6655   -2.4441    2.2442 H   0  0  0  0  0  0  0  0  0  0  0  0
    2.6492   -3.8668    2.5459 H   0  0  0  0  0  0  0  0  0  0  0  0
    3.3916   -3.6343    0.9481 H   0  0  0  0  0  0  0  0  0  0  0  0
  1  2  1  0  0  0  0
  2  3  1  0  0  0  0
  2  4  1  0  0  0  0
  2  5  1  0  0  0  0
  5  6  2  0  0  0  0
  5  7  1  0  0  0  0
  7  8  1  0  0  0  0
  7  9  1  0  0  0  0
  9 10  1  0  0  0  0
  9 11  1  0  0  0  0
  9 12  1  0  0  0  0
 12 13  2  0  0  0  0
 12 14  1  0  0  0  0
 14 15  1  0  0  0  0
 14 16  1  0  0  0  0
 16 17  1  0  0  0  0
 16 18  1  0  0  0  0
 16 19  1  0  0  0  0
M  END
$$$$

  -OEChem-01062216083D

 19 18  0     0  0  0  0  0  0999 V2000
   -2.9983   -3.7486   -0.0075 H   0  0  0  0  0  0  0  0  0  0  0  0
   -2.7785   -2.6774   -0.0377 C   0  0  0  0  0  0  0  0  0  0  0  0
   -3.2079   -2.2065    0.8500 H   0  0  0  0  0  0  0  0  0  0  0  0
   -3.2424   -2.2498   -0.9299 H   0  0  0  0  0  0  0  0  0  0  0  0
   -1.2780   -2.4495   -0.0729 C   0  0  0  0  0  0  0  0  0  0  0  0
   -0.5405   -3.4177   -0.0871 O   0  0  0  0  0  0  0  0  0  0  0  0
   -0.8085   -1.1493   -0.1384 N   0  0  0  0  0  0  0  0  0  0  0  0
   -1.5454   -0.4494   -0.1661 H   0  0  0  0  0  0  0  0  0  0  0  0
    0.5754   -0.6105   -0.0802 C   0  0  0  0  0  0  0  0  0  0  0  0
    0.8248   -0.2764   -1.0918 H   0  0  0  0  0  0  0  0  0  0  0  0
    0.5423    0.2776    0.5567 H   0  0  0  0  0  0  0  0  0  0  0  0
    1.8112   -1.4030    0.4034 C   0  0  0  0  0  0  0  0  0  0  0  0
    2.8994   -0.8659    0.2480 O   0  0  0  0  0  0  0  0  0  0  0  0
    1.7650   -2.5874    1.1106 N   0  0  0  0  0  0  0  0  0  0  0  0
    0.8973   -3.1162    1.0076 H   0  0  0  0  0  0  0  0  0  0  0  0
    2.9617   -3.3169    1.5105 C   0  0  0  0  0  0  0  0  0  0  0  0
    3.5859   -2.7005    2.1659 H   0  0  0  0  0  0  0  0  0  0  0  0
    2.6842   -4.2248    2.0543 H   0  0  0  0  0  0  0  0  0  0  0  0
    3.5484   -3.6035    0.6314 H   0  0  0  0  0  0  0  0  0  0  0  0
  1  2  1  0  0  0  0
  2  3  1  0  0  0  0
  2  4  1  0  0  0  0
  2  5  1  0  0  0  0
  5  6  2  0  0  0  0
  5  7  1  0  0  0  0
  7  8  1  0  0  0  0
  7  9  1  0  0  0  0
  9 10  1  0  0  0  0
  9 11  1  0  0  0  0
  9 12  1  0  0  0  0
 12 13  2  0  0  0  0
 12 14  1  0  0  0  0
 14 15  1  0  0  0  0
 14 16  1  0  0  0  0
 16 17  1  0  0  0  0
 16 18  1  0  0  0  0
 16 19  1  0  0  0  0
M  END
$$$$

  -OEChem-01062216083D

 19 18  0     0  0  0  0  0  0999 V2000
   -2.5512   -4.1672    0.1221 H   0  0  0  0  0  0  0  0  0  0  0  0
   -2.4639   -3.0967   -0.0850 C   0  0  0  0  0  0  0  0  0  0  0  0
   -2.9210   -2.5429    0.7386 H   0  0  0  0  0  0  0  0  0  0  0  0
   -3.0012   -2.8728   -1.0099 H   0  0  0  0  0  0  0  0  0  0  0  0
   -1.0030   -2.7075   -0.2237 C   0  0  0  0  0  0  0  0  0  0  0  0
   -0.1640   -3.5862   -0.2369 O   0  0  0  0  0  0  0  0  0  0  0  0
   -0.6910   -1.3972   -0.5310 N   0  0  0  0  0  0  0  0  0  0  0  0
   -1.5177   -0.8167   -0.6398 H   0  0  0  0  0  0  0  0  0  0  0  0
    0.5531   -0.6335   -0.2648 C   0  0  0  0  0  0  0  0  0  0  0  0
    1.0553   -0.5206   -1.2296 H   0  0  0  0  0  0  0  0  0  0  0  0
    0.2413    0.3653    0.0550 H   0  0  0  0  0  0  0  0  0  0  0  0
    1.6750   -1.0471    0.7210 C   0  0  0  0  0  0  0  0  0  0  0  0
    2.3857   -0.1485    1.1414 O   0  0  0  0  0  0  0  0  0  0  0  0
    1.7574   -2.1581    1.5230 N   0  0  0  0  0  0  0  0  0  0  0  0
    2.1508   -1.8836    2.4190 H   0  0  0  0  0  0  0  0  0  0  0  0
    2.4327   -3.3279    0.9714 C   0  0  0  0  0  0  0  0  0  0  0  0
    3.4799   -3.3408    1.2896 H   0  0  0  0  0  0  0  0  0  0  0  0
    1.9490   -4.2437    1.3257 H   0  0  0  0  0  0  0  0  0  0  0  0
    2.4112   -3.3271   -0.1241 H   0  0  0  0  0  0  0  0  0  0  0  0
  1  2  1  0  0  0  0
  2  3  1  0  0  0  0
  2  4  1  0  0  0  0
  2  5  1  0  0  0  0
  5  6  2  0  0  0  0
  5  7  1  0  0  0  0
  7  8  1  0  0  0  0
  7  9  1  0  0  0  0
  9 10  1  0  0  0  0
  9 11  1  0  0  0  0
  9 12  1  0  0  0  0
 12 13  2  0  0  0  0
 12 14  1  0  0  0  0
 14 15  1  0  0  0  0
 14 16  1  0  0  0  0
 16 17  1  0  0  0  0
 16 18  1  0  0  0  0
 16 19  1  0  0  0  0
M  END
$$$$

  -OEChem-01062216083D

 19 18  0     0  0  0  0  0  0999 V2000
   -2.2276   -4.3609    0.1111 H   0  0  0  0  0  0  0  0  0  0  0  0
   -2.2652   -3.2784    0.2647 C   0  0  0  0  0  0  0  0  0  0  0  0
   -2.3921   -3.0809    1.3318 H   0  0  0  0  0  0  0  0  0  0  0  0
   -3.1230   -2.8747   -0.2787 H   0  0  0  0  0  0  0  0  0  0  0  0
   -0.9852   -2.6348   -0.2368 C   0  0  0  0  0  0  0  0  0  0  0  0
   -0.2384   -3.2884   -0.9392 O   0  0  0  0  0  0  0  0  0  0  0  0
   -0.7985   -1.2798   -0.0432 N   0  0  0  0  0  0  0  0  0  0  0  0
   -1.5811   -0.8330    0.4261 H   0  0  0  0  0  0  0  0  0  0  0  0
    0.4527   -0.4814   -0.0584 C   0  0  0  0  0  0  0  0  0  0  0  0
    0.4281    0.0920   -0.9899 H   0  0  0  0  0  0  0  0  0  0  0  0
    0.3733    0.2350    0.7640 H   0  0  0  0  0  0  0  0  0  0  0  0
    1.9036   -1.0236    0.0283 C   0  0  0  0  0  0  0  0  0  0  0  0
    2.7939   -0.1924   -0.0423 O   0  0  0  0  0  0  0  0  0  0  0  0
    2.4024   -2.2936   -0.1290 N   0  0  0  0  0  0  0  0  0  0  0  0
    3.3842   -2.2540   -0.3891 H   0  0  0  0  0  0  0  0  0  0  0  0
    2.0786   -3.3340    0.8392 C   0  0  0  0  0  0  0  0  0  0  0  0
    2.9194   -3.4807    1.5244 H   0  0  0  0  0  0  0  0  0  0  0  0
    1.1996   -3.0702    1.4352 H   0  0  0  0  0  0  0  0  0  0  0  0
    1.8810   -4.2798    0.3248 H   0  0  0  0  0  0  0  0  0  0  0  0
  1  2  1  0  0  0  0
  2  3  1  0  0  0  0
  2  4  1  0  0  0  0
  2  5  1  0  0  0  0
  5  6  2  0  0  0  0
  5  7  1  0  0  0  0
  7  8  1  0  0  0  0
  7  9  1  0  0  0  0
  9 10  1  0  0  0  0
  9 11  1  0  0  0  0
  9 12  1  0  0  0  0
 12 13  2  0  0  0  0
 12 14  1  0  0  0  0
 14 15  1  0  0  0  0
 14 16  1  0  0  0  0
 16 17  1  0  0  0  0
 16 18  1  0  0  0  0
 16 19  1  0  0  0  0
M  END
$$$$

  -OEChem-01062216083D

 19 18  0     0  0  0  0  0  0999 V2000
   -2.9050   -3.8607   -0.4690 H   0  0  0  0  0  0  0  0  0  0  0  0
   -2.7422   -2.8049   -0.2333 C   0  0  0  0  0  0  0  0  0  0  0  0
   -3.1345   -2.6055    0.7670 H   0  0  0  0  0  0  0  0  0  0  0  0
   -3.2864   -2.1958   -0.9594 H   0  0  0  0  0  0  0  0  0  0  0  0
   -1.2606   -2.4766   -0.2856 C   0  0  0  0  0  0  0  0  0  0  0  0
   -0.4845   -3.3498   -0.6260 O   0  0  0  0  0  0  0  0  0  0  0  0
   -0.8669   -1.1754   -0.0244 N   0  0  0  0  0  0  0  0  0  0  0  0
   -1.6455   -0.5583    0.1909 H   0  0  0  0  0  0  0  0  0  0  0  0
    0.4773   -0.5764    0.1886 C   0  0  0  0  0  0  0  0  0  0  0  0
    0.7057    0.0050   -0.7092 H   0  0  0  0  0  0  0  0  0  0  0  0
    0.3746    0.1334    1.0153 H   0  0  0  0  0  0  0  0  0  0  0  0
    1.7707   -1.3708    0.4885 C   0  0  0  0  0  0  0  0  0  0  0  0
    2.6341   -0.7883    1.1306 O   0  0  0  0  0  0  0  0  0  0  0  0
    2.0473   -2.6509    0.0575 N   0  0  0  0  0  0  0  0  0  0  0  0
    1.2831   -3.1527   -0.3992 H   0  0  0  0  0  0  0  0  0  0  0  0
    3.2586   -3.3829    0.4029 C   0  0  0  0  0  0  0  0  0  0  0  0
    4.1460   -2.8376    0.0655 H   0  0  0  0  0  0  0  0  0  0  0  0
    3.3225   -3.5272    1.4862 H   0  0  0  0  0  0  0  0  0  0  0  0
    3.2541   -4.3653   -0.0787 H   0  0  0  0  0  0  0  0  0  0  0  0
  1  2  1  0  0  0  0
  2  3  1  0  0  0  0
  2  4  1  0  0  0  0
  2  5  1  0  0  0  0
  5  6  2  0  0  0  0
  5  7  1  0  0  0  0
  7  8  1  0  0  0  0
  7  9  1  0  0  0  0
  9 10  1  0  0  0  0
  9 11  1  0  0  0  0
  9 12  1  0  0  0  0
 12 13  2  0  0  0  0
 12 14  1  0  0  0  0
 14 15  1  0  0  0  0
 14 16  1  0  0  0  0
 16 17  1  0  0  0  0
 16 18  1  0  0  0  0
 16 19  1  0  0  0  0
M  END
$$$$

  -OEChem-01062216083D

 19 18  0     0  0  0  0  0  0999 V2000
   -2.8605   -3.8359   -0.2751 H   0  0  0  0  0  0  0  0  0  0  0  0
   -2.6924   -2.7725   -0.0811 C   0  0  0  0  0  0  0  0  0  0  0  0
   -3.0294   -2.5447    0.9332 H   0  0  0  0  0  0  0  0  0  0  0  0
   -3.2803   -2.1888   -0.7937 H   0  0  0  0  0  0  0  0  0  0  0  0
   -1.2185   -2.4382   -0.2262 C   0  0  0  0  0  0  0  0  0  0  0  0
   -0.4553   -3.3148   -0.5882 O   0  0  0  0  0  0  0  0  0  0  0  0
   -0.8155   -1.1298   -0.0225 N   0  0  0  0  0  0  0  0  0  0  0  0
   -1.5782   -0.5064    0.2289 H   0  0  0  0  0  0  0  0  0  0  0  0
    0.5431   -0.5442    0.1124 C   0  0  0  0  0  0  0  0  0  0  0  0
    0.7455    0.0055   -0.8111 H   0  0  0  0  0  0  0  0  0  0  0  0
    0.4924    0.1913    0.9212 H   0  0  0  0  0  0  0  0  0  0  0  0
    1.8178   -1.3771    0.3789 C   0  0  0  0  0  0  0  0  0  0  0  0
    2.6393   -0.9094    1.1559 O   0  0  0  0  0  0  0  0  0  0  0  0
    2.1324   -2.5497   -0.2761 N   0  0  0  0  0  0  0  0  0  0  0  0
    1.3509   -3.0091   -0.7491 H   0  0  0  0  0  0  0  0  0  0  0  0
    3.3107   -3.3476    0.0363 C   0  0  0  0  0  0  0  0  0  0  0  0
    4.2230   -2.7637   -0.1245 H   0  0  0  0  0  0  0  0  0  0  0  0
    3.2827   -3.6805    1.0789 H   0  0  0  0  0  0  0  0  0  0  0  0
    3.3487   -4.2300   -0.6096 H   0  0  0  0  0  0  0  0  0  0  0  0
  1  2  1  0  0  0  0
  2  3  1  0  0  0  0
  2  4  1  0  0  0  0
  2  5  1  0  0  0  0
  5  6  2  0  0  0  0
  5  7  1  0  0  0  0
  7  8  1  0  0  0  0
  7  9  1  0  0  0  0
  9 10  1  0  0  0  0
  9 11  1  0  0  0  0
  9 12  1  0  0  0  0
 12 13  2  0  0  0  0
 12 14  1  0  0  0  0
 14 15  1  0  0  0  0
 14 16  1  0  0  0  0
 16 17  1  0  0  0  0
 16 18  1  0  0  0  0
 16 19  1  0  0  0  0
M  END
$$$$

  -OEChem-01062216083D

 19 18  0     0  0  0  0  0  0999 V2000
   -2.7077   -3.8953   -0.2758 H   0  0  0  0  0  0  0  0  0  0  0  0
   -2.5847   -2.8311   -0.0552 C   0  0  0  0  0  0  0  0  0  0  0  0
   -2.8870   -2.6510    0.9794 H   0  0  0  0  0  0  0  0  0  0  0  0
   -3.2318   -2.2570   -0.7228 H   0  0  0  0  0  0  0  0  0  0  0  0
   -1.1371   -2.4189   -0.2518 C   0  0  0  0  0  0  0  0  0  0  0  0
   -0.3420   -3.2439   -0.6653 O   0  0  0  0  0  0  0  0  0  0  0  0
   -0.7878   -1.0949   -0.0506 N   0  0  0  0  0  0  0  0  0  0  0  0
   -1.5609   -0.5070    0.2496 H   0  0  0  0  0  0  0  0  0  0  0  0
    0.5609   -0.4919    0.0892 C   0  0  0  0  0  0  0  0  0  0  0  0
    0.7717    0.0570   -0.8327 H   0  0  0  0  0  0  0  0  0  0  0  0
    0.5080    0.2446    0.8972 H   0  0  0  0  0  0  0  0  0  0  0  0
    1.8136   -1.3503    0.3656 C   0  0  0  0  0  0  0  0  0  0  0  0
    2.5247   -1.0381    1.3113 O   0  0  0  0  0  0  0  0  0  0  0  0
    2.2385   -2.3457   -0.4909 N   0  0  0  0  0  0  0  0  0  0  0  0
    1.4905   -2.7553   -1.0547 H   0  0  0  0  0  0  0  0  0  0  0  0
    3.3959   -3.1825   -0.2019 C   0  0  0  0  0  0  0  0  0  0  0  0
    4.2973   -2.5697   -0.0969 H   0  0  0  0  0  0  0  0  0  0  0  0
    3.2406   -3.7438    0.7252 H   0  0  0  0  0  0  0  0  0  0  0  0
    3.5576   -3.8944   -1.0168 H   0  0  0  0  0  0  0  0  0  0  0  0
  1  2  1  0  0  0  0
  2  3  1  0  0  0  0
  2  4  1  0  0  0  0
  2  5  1  0  0  0  0
  5  6  2  0  0  0  0
  5  7  1  0  0  0  0
  7  8  1  0  0  0  0
  7  9  1  0  0  0  0
  9 10  1  0  0  0  0
  9 11  1  0  0  0  0
  9 12  1  0  0  0  0
 12 13  2  0  0  0  0
 12 14  1  0  0  0  0
 14 15  1  0  0  0  0
 14 16  1  0  0  0  0
 16 17  1  0  0  0  0
 16 18  1  0  0  0  0
 16 19  1  0  0  0  0
M  END
$$$$

  -OEChem-01062216083D

 19 18  0     0  0  0  0  0  0999 V2000
   -2.5473   -3.9497   -0.2802 H   0  0  0  0  0  0  0  0  0  0  0  0
   -2.4727   -2.8849   -0.0410 C   0  0  0  0  0  0  0  0  0  0  0  0
   -2.7336   -2.7437    1.0108 H   0  0  0  0  0  0  0  0  0  0  0  0
   -3.1822   -2.3341   -0.6634 H   0  0  0  0  0  0  0  0  0  0  0  0
   -1.0612   -2.3884   -0.2962 C   0  0  0  0  0  0  0  0  0  0  0  0
   -0.2397   -3.1524   -0.7738 O   0  0  0  0  0  0  0  0  0  0  0  0
   -0.7698   -1.0509   -0.0937 N   0  0  0  0  0  0  0  0  0  0  0  0
   -1.5484   -0.5065    0.2678 H   0  0  0  0  0  0  0  0  0  0  0  0
    0.5694   -0.4384    0.0670 C   0  0  0  0  0  0  0  0  0  0  0  0
    0.8019    0.1109   -0.8495 H   0  0  0  0  0  0  0  0  0  0  0  0
    0.5091    0.2958    0.8761 H   0  0  0  0  0  0  0  0  0  0  0  0
    1.7903   -1.3295    0.3672 C   0  0  0  0  0  0  0  0  0  0  0  0
    2.3500   -1.2053    1.4484 O   0  0  0  0  0  0  0  0  0  0  0  0
    2.3667   -2.1106   -0.6149 N   0  0  0  0  0  0  0  0  0  0  0  0
    1.7031   -2.4303   -1.3212 H   0  0  0  0  0  0  0  0  0  0  0  0
    3.5109   -2.9708   -0.3413 C   0  0  0  0  0  0  0  0  0  0  0  0
    4.3638   -2.3780    0.0058 H   0  0  0  0  0  0  0  0  0  0  0  0
    3.2595   -3.7106    0.4260 H   0  0  0  0  0  0  0  0  0  0  0  0
    3.8087   -3.5006   -1.2511 H   0  0  0  0  0  0  0  0  0  0  0  0
  1  2  1  0  0  0  0
  2  3  1  0  0  0  0
  2  4  1  0  0  0  0
  2  5  1  0  0  0  0
  5  6  2  0  0  0  0
  5  7  1  0  0  0  0
  7  8  1  0  0  0  0
  7  9  1  0  0  0  0
  9 10  1  0  0  0  0
  9 11  1  0  0  0  0
  9 12  1  0  0  0  0
 12 13  2  0  0  0  0
 12 14  1  0  0  0  0
 14 15  1  0  0  0  0
 14 16  1  0  0  0  0
 16 17  1  0  0  0  0
 16 18  1  0  0  0  0
 16 19  1  0  0  0  0
M  END
$$$$

  -OEChem-01062216083D

 19 18  0     0  0  0  0  0  0999 V2000
   -2.4087   -3.9964   -0.2719 H   0  0  0  0  0  0  0  0  0  0  0  0
   -2.3751   -2.9325   -0.0203 C   0  0  0  0  0  0  0  0  0  0  0  0
   -2.6062   -2.8165    1.0414 H   0  0  0  0  0  0  0  0  0  0  0  0
   -3.1296   -2.4076   -0.6110 H   0  0  0  0  0  0  0  0  0  0  0  0
   -0.9971   -2.3686   -0.3148 C   0  0  0  0  0  0  0  0  0  0  0  0
   -0.1541   -3.0874   -0.8258 O   0  0  0  0  0  0  0  0  0  0  0  0
   -0.7605   -1.0187   -0.1205 N   0  0  0  0  0  0  0  0  0  0  0  0
   -1.5443   -0.5122    0.2824 H   0  0  0  0  0  0  0  0  0  0  0  0
    0.5676   -0.3865    0.0426 C   0  0  0  0  0  0  0  0  0  0  0  0
    0.8023    0.1641   -0.8725 H   0  0  0  0  0  0  0  0  0  0  0  0
    0.5033    0.3466    0.8524 H   0  0  0  0  0  0  0  0  0  0  0  0
    1.7744   -1.2903    0.3542 C   0  0  0  0  0  0  0  0  0  0  0  0
    2.1501   -1.3875    1.5149 O   0  0  0  0  0  0  0  0  0  0  0  0
    2.5309   -1.8351   -0.6655 N   0  0  0  0  0  0  0  0  0  0  0  0
    2.0207   -1.9742   -1.5349 H   0  0  0  0  0  0  0  0  0  0  0  0
    3.6430   -2.7372   -0.3947 C   0  0  0  0  0  0  0  0  0  0  0  0
    4.3936   -2.2461    0.2335 H   0  0  0  0  0  0  0  0  0  0  0  0
    3.2882   -3.6375    0.1180 H   0  0  0  0  0  0  0  0  0  0  0  0
    4.1228   -3.0360   -1.3315 H   0  0  0  0  0  0  0  0  0  0  0  0
  1  2  1  0  0  0  0
  2  3  1  0  0  0  0
  2  4  1  0  0  0  0
  2  5  1  0  0  0  0
  5  6  2  0  0  0  0
  5  7  1  0  0  0  0
  7  8  1  0  0  0  0
  7  9  1  0  0  0  0
  9 10  1  0  0  0  0
  9 11  1  0  0  0  0
  9 12  1  0  0  0  0
 12 13  2  0  0  0  0
 12 14  1  0  0  0  0
 14 15  1  0  0  0  0
 14 16  1  0  0  0  0
 16 17  1  0  0  0  0
 16 18  1  0  0  0  0
 16 19  1  0  0  0  0
M  END
$$$$

  -OEChem-01062216083D

 19 18  0     0  0  0  0  0  0999 V2000
   -2.3318   -4.0177   -0.2811 H   0  0  0  0  0  0  0  0  0  0  0  0
   -2.3119   -2.9607   -0.0006 C   0  0  0  0  0  0  0  0  0  0  0  0
   -2.4937   -2.8797    1.0738 H   0  0  0  0  0  0  0  0  0  0  0  0
   -3.1061   -2.4386   -0.5396 H   0  0  0  0  0  0  0  0  0  0  0  0
   -0.9633   -2.3544   -0.3427 C   0  0  0  0  0  0  0  0  0  0  0  0
   -0.1161   -3.0446   -0.8863 O   0  0  0  0  0  0  0  0  0  0  0  0
   -0.7614   -0.9972   -0.1586 N   0  0  0  0  0  0  0  0  0  0  0  0
   -1.5450   -0.5185    0.2768 H   0  0  0  0  0  0  0  0  0  0  0  0
    0.5595   -0.3542    0.0125 C   0  0  0  0  0  0  0  0  0  0  0  0
    0.7995    0.1912   -0.9040 H   0  0  0  0  0  0  0  0  0  0  0  0
    0.4875    0.3826    0.8179 H   0  0  0  0  0  0  0  0  0  0  0  0
    1.7575   -1.2617    0.3442 C   0  0  0  0  0  0  0  0  0  0  0  0
    1.9454   -1.5815    1.5107 O   0  0  0  0  0  0  0  0  0  0  0  0
    2.7012   -1.5674   -0.6182 N   0  0  0  0  0  0  0  0  0  0  0  0
    2.3866   -1.4792   -1.5803 H   0  0  0  0  0  0  0  0  0  0  0  0
    3.8048   -2.4803   -0.3488 C   0  0  0  0  0  0  0  0  0  0  0  0
    4.4196   -2.1083    0.4775 H   0  0  0  0  0  0  0  0  0  0  0  0
    3.4235   -3.4727   -0.0860 H   0  0  0  0  0  0  0  0  0  0  0  0
    4.4409   -2.5746   -1.2339 H   0  0  0  0  0  0  0  0  0  0  0  0
  1  2  1  0  0  0  0
  2  3  1  0  0  0  0
  2  4  1  0  0  0  0
  2  5  1  0  0  0  0
  5  6  2  0  0  0  0
  5  7  1  0  0  0  0
  7  8  1  0  0  0  0
  7  9  1  0  0  0  0
  9 10  1  0  0  0  0
  9 11  1  0  0  0  0
  9 12  1  0  0  0  0
 12 13  2  0  0  0  0
 12 14  1  0  0  0  0
 14 15  1  0  0  0  0
 14 16  1  0  0  0  0
 16 17  1  0  0  0  0
 16 18  1  0  0  0  0
 16 19  1  0  0  0  0
M  END
$$$$

  -OEChem-01062216083D

 19 18  0     0  0  0  0  0  0999 V2000
   -2.2817   -4.0367   -0.2683 H   0  0  0  0  0  0  0  0  0  0  0  0
   -2.2727   -2.9814    0.0192 C   0  0  0  0  0  0  0  0  0  0  0  0
   -2.4142   -2.9120    1.1004 H   0  0  0  0  0  0  0  0  0  0  0  0
   -3.0974   -2.4722   -0.4847 H   0  0  0  0  0  0  0  0  0  0  0  0
   -0.9511   -2.3452   -0.3702 C   0  0  0  0  0  0  0  0  0  0  0  0
   -0.1156   -3.0096   -0.9624 O   0  0  0  0  0  0  0  0  0  0  0  0
   -0.7682   -0.9849   -0.1886 N   0  0  0  0  0  0  0  0  0  0  0  0
   -1.5462   -0.5271    0.2774 H   0  0  0  0  0  0  0  0  0  0  0  0
    0.5507   -0.3403   -0.0103 C   0  0  0  0  0  0  0  0  0  0  0  0
    0.7938    0.2012   -0.9282 H   0  0  0  0  0  0  0  0  0  0  0  0
    0.4758    0.3982    0.7930 H   0  0  0  0  0  0  0  0  0  0  0  0
    1.7440   -1.2506    0.3319 C   0  0  0  0  0  0  0  0  0  0  0  0
    1.7885   -1.7648    1.4422 O   0  0  0  0  0  0  0  0  0  0  0  0
    2.8447   -1.3191   -0.5018 N   0  0  0  0  0  0  0  0  0  0  0  0
    2.6985   -1.0221   -1.4618 H   0  0  0  0  0  0  0  0  0  0  0  0
    3.9705   -2.2019   -0.2224 C   0  0  0  0  0  0  0  0  0  0  0  0
    4.4180   -1.9596    0.7472 H   0  0  0  0  0  0  0  0  0  0  0  0
    3.6418   -3.2465   -0.2077 H   0  0  0  0  0  0  0  0  0  0  0  0
    4.7391   -2.0893   -0.9928 H   0  0  0  0  0  0  0  0  0  0  0  0
  1  2  1  0  0  0  0
  2  3  1  0  0  0  0
  2  4  1  0  0  0  0
  2  5  1  0  0  0  0
  5  6  2  0  0  0  0
  5  7  1  0  0  0  0
  7  8  1  0  0  0  0
  7  9  1  0  0  0  0
  9 10  1  0  0  0  0
  9 11  1  0  0  0  0
  9 12  1  0  0  0  0
 12 13  2  0  0  0  0
 12 14  1  0  0  0  0
 14 15  1  0  0  0  0
 14 16  1  0  0  0  0
 16 17  1  0  0  0  0
 16 18  1  0  0  0  0
 16 19  1  0  0  0  0
M  END
$$$$

  -OEChem-01062216083D

 19 18  0     0  0  0  0  0  0999 V2000
   -2.2629   -4.0246    0.1568 H   0  0  0  0  0  0  0  0  0  0  0  0
   -2.2621   -2.9355    0.2566 C   0  0  0  0  0  0  0  0  0  0  0  0
   -2.3721   -2.6812    1.3135 H   0  0  0  0  0  0  0  0  0  0  0  0
   -3.1090   -2.5298   -0.3014 H   0  0  0  0  0  0  0  0  0  0  0  0
   -0.9627   -2.3638   -0.2793 C   0  0  0  0  0  0  0  0  0  0  0  0
   -0.1643   -3.1016   -0.8351 O   0  0  0  0  0  0  0  0  0  0  0  0
   -0.7704   -0.9927   -0.2925 N   0  0  0  0  0  0  0  0  0  0  0  0
   -1.5281   -0.4747    0.1427 H   0  0  0  0  0  0  0  0  0  0  0  0
    0.5598   -0.3504   -0.2179 C   0  0  0  0  0  0  0  0  0  0  0  0
    0.7978    0.0466   -1.2083 H   0  0  0  0  0  0  0  0  0  0  0  0
    0.5046    0.4980    0.4698 H   0  0  0  0  0  0  0  0  0  0  0  0
    1.7486   -1.2176    0.2386 C   0  0  0  0  0  0  0  0  0  0  0  0
    1.7027   -1.7491    1.3410 O   0  0  0  0  0  0  0  0  0  0  0  0
    2.9537   -1.1697   -0.4381 N   0  0  0  0  0  0  0  0  0  0  0  0
    2.9309   -0.8101   -1.3871 H   0  0  0  0  0  0  0  0  0  0  0  0
    4.1081   -1.9596   -0.0267 C   0  0  0  0  0  0  0  0  0  0  0  0
    3.8721   -3.0284   -0.0644 H   0  0  0  0  0  0  0  0  0  0  0  0
    4.9552   -1.7667   -0.6918 H   0  0  0  0  0  0  0  0  0  0  0  0
    4.4072   -1.7007    0.9945 H   0  0  0  0  0  0  0  0  0  0  0  0
  1  2  1  0  0  0  0
  2  3  1  0  0  0  0
  2  4  1  0  0  0  0
  2  5  1  0  0  0  0
  5  6  2  0  0  0  0
  5  7  1  0  0  0  0
  7  8  1  0  0  0  0
  7  9  1  0  0  0  0
  9 10  1  0  0  0  0
  9 11  1  0  0  0  0
  9 12  1  0  0  0  0
 12 13  2  0  0  0  0
 12 14  1  0  0  0  0
 14 15  1  0  0  0  0
 14 16  1  0  0  0  0
 16 17  1  0  0  0  0
 16 18  1  0  0  0  0
 16 19  1  0  0  0  0
M  END
$$$$

  -OEChem-01062216083D

 19 18  0     0  0  0  0  0  0999 V2000
   -2.2906   -4.0184    0.1420 H   0  0  0  0  0  0  0  0  0  0  0  0
   -2.2710   -2.9316    0.2626 C   0  0  0  0  0  0  0  0  0  0  0  0
   -2.3434   -2.6963    1.3272 H   0  0  0  0  0  0  0  0  0  0  0  0
   -3.1292   -2.5028   -0.2601 H   0  0  0  0  0  0  0  0  0  0  0  0
   -0.9809   -2.3680   -0.3038 C   0  0  0  0  0  0  0  0  0  0  0  0
   -0.2180   -3.1003   -0.9142 O   0  0  0  0  0  0  0  0  0  0  0  0
   -0.7697   -1.0001   -0.3015 N   0  0  0  0  0  0  0  0  0  0  0  0
   -1.5120   -0.4838    0.1612 H   0  0  0  0  0  0  0  0  0  0  0  0
    0.5715   -0.3819   -0.2158 C   0  0  0  0  0  0  0  0  0  0  0  0
    0.8156    0.0160   -1.2045 H   0  0  0  0  0  0  0  0  0  0  0  0
    0.5245    0.4633    0.4760 H   0  0  0  0  0  0  0  0  0  0  0  0
    1.7568   -1.2594    0.2341 C   0  0  0  0  0  0  0  0  0  0  0  0
    1.6442   -1.9486    1.2406 O   0  0  0  0  0  0  0  0  0  0  0  0
    3.0286   -0.9871   -0.2368 N   0  0  0  0  0  0  0  0  0  0  0  0
    3.1008   -0.4394   -1.0885 H   0  0  0  0  0  0  0  0  0  0  0  0
    4.2121   -1.6942    0.2381 C   0  0  0  0  0  0  0  0  0  0  0  0
    4.1117   -2.7704    0.0615 H   0  0  0  0  0  0  0  0  0  0  0  0
    5.1023   -1.3377   -0.2888 H   0  0  0  0  0  0  0  0  0  0  0  0
    4.3557   -1.5249    1.3105 H   0  0  0  0  0  0  0  0  0  0  0  0
  1  2  1  0  0  0  0
  2  3  1  0  0  0  0
  2  4  1  0  0  0  0
  2  5  1  0  0  0  0
  5  6  2  0  0  0  0
  5  7  1  0  0  0  0
  7  8  1  0  0  0  0
  7  9  1  0  0  0  0
  9 10  1  0  0  0  0
  9 11  1  0  0  0  0
  9 12  1  0  0  0  0
 12 13  2  0  0  0  0
 12 14  1  0  0  0  0
 14 15  1  0  0  0  0
 14 16  1  0  0  0  0
 16 17  1  0  0  0  0
 16 18  1  0  0  0  0
 16 19  1  0  0  0  0
M  END
$$$$

  -OEChem-01062216083D

 19 18  0     0  0  0  0  0  0999 V2000
   -2.3363   -3.9984    0.1339 H   0  0  0  0  0  0  0  0  0  0  0  0
   -2.2800   -2.9161    0.2815 C   0  0  0  0  0  0  0  0  0  0  0  0
   -2.2986   -2.7082    1.3540 H   0  0  0  0  0  0  0  0  0  0  0  0
   -3.1474   -2.4497   -0.1913 H   0  0  0  0  0  0  0  0  0  0  0  0
   -0.9995   -2.3736   -0.3260 C   0  0  0  0  0  0  0  0  0  0  0  0
   -0.2819   -3.1105   -0.9839 O   0  0  0  0  0  0  0  0  0  0  0  0
   -0.7602   -1.0107   -0.3257 N   0  0  0  0  0  0  0  0  0  0  0  0
   -1.4883   -0.4838    0.1470 H   0  0  0  0  0  0  0  0  0  0  0  0
    0.5934   -0.4193   -0.2333 C   0  0  0  0  0  0  0  0  0  0  0  0
    0.8477   -0.0336   -1.2242 H   0  0  0  0  0  0  0  0  0  0  0  0
    0.5524    0.4324    0.4509 H   0  0  0  0  0  0  0  0  0  0  0  0
    1.7779   -1.2972    0.2251 C   0  0  0  0  0  0  0  0  0  0  0  0
    1.6209   -2.1342    1.1053 O   0  0  0  0  0  0  0  0  0  0  0  0
    3.0656   -0.8404    0.0053 N   0  0  0  0  0  0  0  0  0  0  0  0
    3.1940   -0.1260   -0.7043 H   0  0  0  0  0  0  0  0  0  0  0  0
    4.2466   -1.4870    0.5663 C   0  0  0  0  0  0  0  0  0  0  0  0
    4.2951   -2.5348    0.2515 H   0  0  0  0  0  0  0  0  0  0  0  0
    5.1539   -0.9800    0.2243 H   0  0  0  0  0  0  0  0  0  0  0  0
    4.2216   -1.4480    1.6604 H   0  0  0  0  0  0  0  0  0  0  0  0
  1  2  1  0  0  0  0
  2  3  1  0  0  0  0
  2  4  1  0  0  0  0
  2  5  1  0  0  0  0
  5  6  2  0  0  0  0
  5  7  1  0  0  0  0
  7  8  1  0  0  0  0
  7  9  1  0  0  0  0
  9 10  1  0  0  0  0
  9 11  1  0  0  0  0
  9 12  1  0  0  0  0
 12 13  2  0  0  0  0
 12 14  1  0  0  0  0
 14 15  1  0  0  0  0
 14 16  1  0  0  0  0
 16 17  1  0  0  0  0
 16 18  1  0  0  0  0
 16 19  1  0  0  0  0
M  END
$$$$

  -OEChem-01062216083D

 19 18  0     0  0  0  0  0  0999 V2000
   -2.8886   -3.8596   -0.0001 H   0  0  0  0  0  0  0  0  0  0  0  0
   -2.6589   -2.7900   -0.0001 C   0  0  0  0  0  0  0  0  0  0  0  0
   -3.1010   -2.3375    0.8907 H   0  0  0  0  0  0  0  0  0  0  0  0
   -3.1010   -2.3374   -0.8909 H   0  0  0  0  0  0  0  0  0  0  0  0
   -1.1552   -2.5761   -0.0001 C   0  0  0  0  0  0  0  0  0  0  0  0
   -0.4510   -3.5628   -0.0004 O   0  0  0  0  0  0  0  0  0  0  0  0
   -0.6994   -1.2660    0.0001 N   0  0  0  0  0  0  0  0  0  0  0  0
   -1.4561   -0.5891    0.0004 H   0  0  0  0  0  0  0  0  0  0  0  0
    0.6668   -0.6792    0.0002 C   0  0  0  0  0  0  0  0  0  0  0  0
    0.7155   -0.0347   -0.8815 H   0  0  0  0  0  0  0  0  0  0  0  0
    0.7156   -0.0351    0.8823 H   0  0  0  0  0  0  0  0  0  0  0  0
    2.0123   -1.4483   -0.0001 C   0  0  0  0  0  0  0  0  0  0  0  0
    2.1430   -2.6572   -0.0003 O   0  0  0  0  0  0  0  0  0  0  0  0
    3.1660   -0.6783   -0.0000 N   0  0  0  0  0  0  0  0  0  0  0  0
    3.0481    0.3295    0.0001 H   0  0  0  0  0  0  0  0  0  0  0  0
    4.5303   -1.2065   -0.0000 C   0  0  0  0  0  0  0  0  0  0  0  0
    4.5545   -2.3013   -0.0000 H   0  0  0  0  0  0  0  0  0  0  0  0
    5.0644   -0.8597   -0.8899 H   0  0  0  0  0  0  0  0  0  0  0  0
    5.0644   -0.8597    0.8898 H   0  0  0  0  0  0  0  0  0  0  0  0
  1  2  1  0  0  0  0
  2  3  1  0  0  0  0
  2  4  1  0  0  0  0
  2  5  1  0  0  0  0
  5  6  2  0  0  0  0
  5  7  1  0  0  0  0
  7  8  1  0  0  0  0
  7  9  1  0  0  0  0
  9 10  1  0  0  0  0
  9 11  1  0  0  0  0
  9 12  1  0  0  0  0
 12 13  2  0  0  0  0
 12 14  1  0  0  0  0
 14 15  1  0  0  0  0
 14 16  1  0  0  0  0
 16 17  1  0  0  0  0
 16 18  1  0  0  0  0
 16 19  1  0  0  0  0
M  END
$$$$

  -OEChem-01062216083D

 19 18  0     0  0  0  0  0  0999 V2000
   -2.3461   -3.9986   -0.2747 H   0  0  0  0  0  0  0  0  0  0  0  0
   -2.2861   -2.9098   -0.3596 C   0  0  0  0  0  0  0  0  0  0  0  0
   -3.1886   -2.4709    0.0722 H   0  0  0  0  0  0  0  0  0  0  0  0
   -2.2273   -2.6449   -1.4179 H   0  0  0  0  0  0  0  0  0  0  0  0
   -1.0564   -2.3991    0.3683 C   0  0  0  0  0  0  0  0  0  0  0  0
   -0.4465   -3.1466    1.1149 O   0  0  0  0  0  0  0  0  0  0  0  0
   -0.7914   -1.0416    0.3975 N   0  0  0  0  0  0  0  0  0  0  0  0
   -1.5063   -0.5023   -0.0813 H   0  0  0  0  0  0  0  0  0  0  0  0
    0.5654   -0.4525    0.3157 C   0  0  0  0  0  0  0  0  0  0  0  0
    0.5873    0.2312   -0.5373 H   0  0  0  0  0  0  0  0  0  0  0  0
    0.7086    0.1453    1.2197 H   0  0  0  0  0  0  0  0  0  0  0  0
    1.8141   -1.3509    0.1772 C   0  0  0  0  0  0  0  0  0  0  0  0
    1.7956   -2.3303   -0.5563 O   0  0  0  0  0  0  0  0  0  0  0  0
    3.0546   -0.7891    0.4267 N   0  0  0  0  0  0  0  0  0  0  0  0
    3.0815    0.0568    0.9871 H   0  0  0  0  0  0  0  0  0  0  0  0
    4.3124   -1.4591    0.1134 C   0  0  0  0  0  0  0  0  0  0  0  0
    4.3690   -2.4259    0.6248 H   0  0  0  0  0  0  0  0  0  0  0  0
    4.4003   -1.6255   -0.9654 H   0  0  0  0  0  0  0  0  0  0  0  0
    5.1590   -0.8465    0.4372 H   0  0  0  0  0  0  0  0  0  0  0  0
  1  2  1  0  0  0  0
  2  3  1  0  0  0  0
  2  4  1  0  0  0  0
  2  5  1  0  0  0  0
  5  6  2  0  0  0  0
  5  7  1  0  0  0  0
  7  8  1  0  0  0  0
  7  9  1  0  0  0  0
  9 10  1  0  0  0  0
  9 11  1  0  0  0  0
  9 12  1  0  0  0  0
 12 13  2  0  0  0  0
 12 14  1  0  0  0  0
 14 15  1  0  0  0  0
 14 16  1  0  0  0  0
 16 17  1  0  0  0  0
 16 18  1  0  0  0  0
 16 19  1  0  0  0  0
M  END
$$$$

  -OEChem-01062216083D

 19 18  0     0  0  0  0  0  0999 V2000
   -2.3746   -4.0043   -0.1990 H   0  0  0  0  0  0  0  0  0  0  0  0
   -2.3094   -2.9202   -0.3277 C   0  0  0  0  0  0  0  0  0  0  0  0
   -3.1878   -2.4573    0.1280 H   0  0  0  0  0  0  0  0  0  0  0  0
   -2.2973   -2.6955   -1.3969 H   0  0  0  0  0  0  0  0  0  0  0  0
   -1.0443   -2.3939    0.3248 C   0  0  0  0  0  0  0  0  0  0  0  0
   -0.3671   -3.1428    1.0096 O   0  0  0  0  0  0  0  0  0  0  0  0
   -0.7989   -1.0318    0.3390 N   0  0  0  0  0  0  0  0  0  0  0  0
   -1.5263   -0.4996   -0.1289 H   0  0  0  0  0  0  0  0  0  0  0  0
    0.5490   -0.4225    0.2696 C   0  0  0  0  0  0  0  0  0  0  0  0
    0.5804    0.2450   -0.5959 H   0  0  0  0  0  0  0  0  0  0  0  0
    0.6739    0.1937    1.1638 H   0  0  0  0  0  0  0  0  0  0  0  0
    1.7950   -1.3256    0.1641 C   0  0  0  0  0  0  0  0  0  0  0  0
    1.8492   -2.1708   -0.7203 O   0  0  0  0  0  0  0  0  0  0  0  0
    2.9910   -0.8924    0.7094 N   0  0  0  0  0  0  0  0  0  0  0  0
    2.9428   -0.1850    1.4356 H   0  0  0  0  0  0  0  0  0  0  0  0
    4.2566   -1.5845    0.4937 C   0  0  0  0  0  0  0  0  0  0  0  0
    4.1830   -2.6277    0.8191 H   0  0  0  0  0  0  0  0  0  0  0  0
    4.5283   -1.5646   -0.5670 H   0  0  0  0  0  0  0  0  0  0  0  0
    5.0552   -1.0996    1.0628 H   0  0  0  0  0  0  0  0  0  0  0  0
  1  2  1  0  0  0  0
  2  3  1  0  0  0  0
  2  4  1  0  0  0  0
  2  5  1  0  0  0  0
  5  6  2  0  0  0  0
  5  7  1  0  0  0  0
  7  8  1  0  0  0  0
  7  9  1  0  0  0  0
  9 10  1  0  0  0  0
  9 11  1  0  0  0  0
  9 12  1  0  0  0  0
 12 13  2  0  0  0  0
 12 14  1  0  0  0  0
 14 15  1  0  0  0  0
 14 16  1  0  0  0  0
 16 17  1  0  0  0  0
 16 18  1  0  0  0  0
 16 19  1  0  0  0  0
M  END
$$$$

  -OEChem-01062216083D

 19 18  0     0  0  0  0  0  0999 V2000
   -2.3764   -4.0158   -0.1621 H   0  0  0  0  0  0  0  0  0  0  0  0
   -2.3222   -2.9319   -0.2986 C   0  0  0  0  0  0  0  0  0  0  0  0
   -3.1803   -2.4711    0.1964 H   0  0  0  0  0  0  0  0  0  0  0  0
   -2.3627   -2.7120   -1.3682 H   0  0  0  0  0  0  0  0  0  0  0  0
   -1.0297   -2.3961    0.2896 C   0  0  0  0  0  0  0  0  0  0  0  0
   -0.2960   -3.1514    0.9054 O   0  0  0  0  0  0  0  0  0  0  0  0
   -0.8010   -1.0305    0.2982 N   0  0  0  0  0  0  0  0  0  0  0  0
   -1.5463   -0.5005   -0.1438 H   0  0  0  0  0  0  0  0  0  0  0  0
    0.5357   -0.3972    0.2356 C   0  0  0  0  0  0  0  0  0  0  0  0
    0.5662    0.2603   -0.6376 H   0  0  0  0  0  0  0  0  0  0  0  0
    0.6472    0.2326    1.1221 H   0  0  0  0  0  0  0  0  0  0  0  0
    1.7855   -1.2935    0.1458 C   0  0  0  0  0  0  0  0  0  0  0  0
    1.9348   -1.9968   -0.8454 O   0  0  0  0  0  0  0  0  0  0  0  0
    2.8868   -1.0282    0.9399 N   0  0  0  0  0  0  0  0  0  0  0  0
    2.7269   -0.4875    1.7839 H   0  0  0  0  0  0  0  0  0  0  0  0
    4.1374   -1.7673    0.8162 C   0  0  0  0  0  0  0  0  0  0  0  0
    3.9671   -2.8371    0.9776 H   0  0  0  0  0  0  0  0  0  0  0  0
    4.5700   -1.6254   -0.1799 H   0  0  0  0  0  0  0  0  0  0  0  0
    4.8598   -1.4146    1.5584 H   0  0  0  0  0  0  0  0  0  0  0  0
  1  2  1  0  0  0  0
  2  3  1  0  0  0  0
  2  4  1  0  0  0  0
  2  5  1  0  0  0  0
  5  6  2  0  0  0  0
  5  7  1  0  0  0  0
  7  8  1  0  0  0  0
  7  9  1  0  0  0  0
  9 10  1  0  0  0  0
  9 11  1  0  0  0  0
  9 12  1  0  0  0  0
 12 13  2  0  0  0  0
 12 14  1  0  0  0  0
 14 15  1  0  0  0  0
 14 16  1  0  0  0  0
 16 17  1  0  0  0  0
 16 18  1  0  0  0  0
 16 19  1  0  0  0  0
M  END
$$$$

  -OEChem-01062216083D

 19 18  0     0  0  0  0  0  0999 V2000
   -2.3360   -4.0207   -0.2629 H   0  0  0  0  0  0  0  0  0  0  0  0
   -2.3392   -2.9270   -0.2759 C   0  0  0  0  0  0  0  0  0  0  0  0
   -3.1611   -2.5688    0.3485 H   0  0  0  0  0  0  0  0  0  0  0  0
   -2.4958   -2.5911   -1.3038 H   0  0  0  0  0  0  0  0  0  0  0  0
   -1.0175   -2.3954    0.2479 C   0  0  0  0  0  0  0  0  0  0  0  0
   -0.2411   -3.1637    0.7904 O   0  0  0  0  0  0  0  0  0  0  0  0
   -0.7944   -1.0285    0.2576 N   0  0  0  0  0  0  0  0  0  0  0  0
   -1.5560   -0.4921   -0.1478 H   0  0  0  0  0  0  0  0  0  0  0  0
    0.5344   -0.3778    0.2078 C   0  0  0  0  0  0  0  0  0  0  0  0
    0.5653    0.2765   -0.6682 H   0  0  0  0  0  0  0  0  0  0  0  0
    0.6327    0.2580    1.0914 H   0  0  0  0  0  0  0  0  0  0  0  0
    1.7907   -1.2650    0.1321 C   0  0  0  0  0  0  0  0  0  0  0  0
    2.0559   -1.8152   -0.9289 O   0  0  0  0  0  0  0  0  0  0  0  0
    2.7542   -1.2052    1.1225 N   0  0  0  0  0  0  0  0  0  0  0  0
    2.4584   -0.8375    2.0211 H   0  0  0  0  0  0  0  0  0  0  0  0
    3.9655   -2.0153    1.0749 C   0  0  0  0  0  0  0  0  0  0  0  0
    3.7115   -3.0805    1.0608 H   0  0  0  0  0  0  0  0  0  0  0  0
    4.5503   -1.7807    0.1793 H   0  0  0  0  0  0  0  0  0  0  0  0
    4.5877   -1.8175    1.9528 H   0  0  0  0  0  0  0  0  0  0  0  0
  1  2  1  0  0  0  0
  2  3  1  0  0  0  0
  2  4  1  0  0  0  0
  2  5  1  0  0  0  0
  5  6  2  0  0  0  0
  5  7  1  0  0  0  0
  7  8  1  0  0  0  0
  7  9  1  0  0  0  0
  9 10  1  0  0  0  0
  9 11  1  0  0  0  0
  9 12  1  0  0  0  0
 12 13  2  0  0  0  0
 12 14  1  0  0  0  0
 14 15  1  0  0  0  0
 14 16  1  0  0  0  0
 16 17  1  0  0  0  0
 16 18  1  0  0  0  0
 16 19  1  0  0  0  0
M  END
$$$$

  -OEChem-01062216083D

 19 18  0     0  0  0  0  0  0999 V2000
   -2.4672   -3.9905    0.1685 H   0  0  0  0  0  0  0  0  0  0  0  0
   -2.4186   -2.9152   -0.0260 C   0  0  0  0  0  0  0  0  0  0  0  0
   -3.1701   -2.4119    0.5871 H   0  0  0  0  0  0  0  0  0  0  0  0
   -2.6405   -2.7408   -1.0816 H   0  0  0  0  0  0  0  0  0  0  0  0
   -1.0354   -2.3862    0.3073 C   0  0  0  0  0  0  0  0  0  0  0  0
   -0.2323   -3.1283    0.8465 O   0  0  0  0  0  0  0  0  0  0  0  0
   -0.7686   -1.0391    0.1259 N   0  0  0  0  0  0  0  0  0  0  0  0
   -1.5370   -0.5198   -0.2893 H   0  0  0  0  0  0  0  0  0  0  0  0
    0.5711   -0.4246   -0.0147 C   0  0  0  0  0  0  0  0  0  0  0  0
    0.6085    0.0991   -0.9746 H   0  0  0  0  0  0  0  0  0  0  0  0
    0.6867    0.3285    0.7691 H   0  0  0  0  0  0  0  0  0  0  0  0
    1.8116   -1.3341    0.0343 C   0  0  0  0  0  0  0  0  0  0  0  0
    2.2062   -1.8457   -1.0053 O   0  0  0  0  0  0  0  0  0  0  0  0
    2.6131   -1.3661    1.1604 N   0  0  0  0  0  0  0  0  0  0  0  0
    2.1721   -1.0745    2.0273 H   0  0  0  0  0  0  0  0  0  0  0  0
    3.7843   -2.2295    1.2467 C   0  0  0  0  0  0  0  0  0  0  0  0
    4.5025   -1.9842    0.4571 H   0  0  0  0  0  0  0  0  0  0  0  0
    4.2794   -2.0991    2.2136 H   0  0  0  0  0  0  0  0  0  0  0  0
    3.4922   -3.2800    1.1438 H   0  0  0  0  0  0  0  0  0  0  0  0
  1  2  1  0  0  0  0
  2  3  1  0  0  0  0
  2  4  1  0  0  0  0
  2  5  1  0  0  0  0
  5  6  2  0  0  0  0
  5  7  1  0  0  0  0
  7  8  1  0  0  0  0
  7  9  1  0  0  0  0
  9 10  1  0  0  0  0
  9 11  1  0  0  0  0
  9 12  1  0  0  0  0
 12 13  2  0  0  0  0
 12 14  1  0  0  0  0
 14 15  1  0  0  0  0
 14 16  1  0  0  0  0
 16 17  1  0  0  0  0
 16 18  1  0  0  0  0
 16 19  1  0  0  0  0
M  END
$$$$

  -OEChem-01062216083D

 19 18  0     0  0  0  0  0  0999 V2000
   -2.5334   -3.9600    0.2197 H   0  0  0  0  0  0  0  0  0  0  0  0
   -2.4533   -2.8961   -0.0215 C   0  0  0  0  0  0  0  0  0  0  0  0
   -3.1794   -2.3439    0.5800 H   0  0  0  0  0  0  0  0  0  0  0  0
   -2.6859   -2.7589   -1.0803 H   0  0  0  0  0  0  0  0  0  0  0  0
   -1.0496   -2.3973    0.2696 C   0  0  0  0  0  0  0  0  0  0  0  0
   -0.2366   -3.1670    0.7514 O   0  0  0  0  0  0  0  0  0  0  0  0
   -0.7657   -1.0528    0.0964 N   0  0  0  0  0  0  0  0  0  0  0  0
   -1.5384   -0.5105   -0.2798 H   0  0  0  0  0  0  0  0  0  0  0  0
    0.5760   -0.4384   -0.0291 C   0  0  0  0  0  0  0  0  0  0  0  0
    0.6186    0.0920   -0.9854 H   0  0  0  0  0  0  0  0  0  0  0  0
    0.6861    0.3100    0.7603 H   0  0  0  0  0  0  0  0  0  0  0  0
    1.8204   -1.3423    0.0278 C   0  0  0  0  0  0  0  0  0  0  0  0
    2.3811   -1.6384   -1.0190 O   0  0  0  0  0  0  0  0  0  0  0  0
    2.4310   -1.6161    1.2372 N   0  0  0  0  0  0  0  0  0  0  0  0
    1.8242   -1.5523    2.0495 H   0  0  0  0  0  0  0  0  0  0  0  0
    3.5891   -2.4961    1.3279 C   0  0  0  0  0  0  0  0  0  0  0  0
    4.4172   -2.1058    0.7270 H   0  0  0  0  0  0  0  0  0  0  0  0
    3.9250   -2.5724    2.3663 H   0  0  0  0  0  0  0  0  0  0  0  0
    3.3352   -3.4993    0.9692 H   0  0  0  0  0  0  0  0  0  0  0  0
  1  2  1  0  0  0  0
  2  3  1  0  0  0  0
  2  4  1  0  0  0  0
  2  5  1  0  0  0  0
  5  6  2  0  0  0  0
  5  7  1  0  0  0  0
  7  8  1  0  0  0  0
  7  9  1  0  0  0  0
  9 10  1  0  0  0  0
  9 11  1  0  0  0  0
  9 12  1  0  0  0  0
 12 13  2  0  0  0  0
 12 14  1  0  0  0  0
 14 15  1  0  0  0  0
 14 16  1  0  0  0  0
 16 17  1  0  0  0  0
 16 18  1  0  0  0  0
 16 19  1  0  0  0  0
M  END
$$$$

  -OEChem-01062216083D

 19 18  0     0  0  0  0  0  0999 V2000
   -2.6205   -3.9253    0.2144 H   0  0  0  0  0  0  0  0  0  0  0  0
   -2.5163   -2.8600   -0.0108 C   0  0  0  0  0  0  0  0  0  0  0  0
   -3.2021   -2.2978    0.6275 H   0  0  0  0  0  0  0  0  0  0  0  0
   -2.7843   -2.6961   -1.0574 H   0  0  0  0  0  0  0  0  0  0  0  0
   -1.0877   -2.4096    0.2350 C   0  0  0  0  0  0  0  0  0  0  0  0
   -0.2802   -3.2158    0.6619 O   0  0  0  0  0  0  0  0  0  0  0  0
   -0.7674   -1.0737    0.0613 N   0  0  0  0  0  0  0  0  0  0  0  0
   -1.5376   -0.5007   -0.2727 H   0  0  0  0  0  0  0  0  0  0  0  0
    0.5819   -0.4707   -0.0500 C   0  0  0  0  0  0  0  0  0  0  0  0
    0.6334    0.0607   -1.0054 H   0  0  0  0  0  0  0  0  0  0  0  0
    0.6865    0.2760    0.7418 H   0  0  0  0  0  0  0  0  0  0  0  0
    1.8332   -1.3653    0.0227 C   0  0  0  0  0  0  0  0  0  0  0  0
    2.5612   -1.4367   -0.9586 O   0  0  0  0  0  0  0  0  0  0  0  0
    2.2566   -1.8853    1.2308 N   0  0  0  0  0  0  0  0  0  0  0  0
    1.5057   -2.0455    1.8983 H   0  0  0  0  0  0  0  0  0  0  0  0
    3.4222   -2.7553    1.3198 C   0  0  0  0  0  0  0  0  0  0  0  0
    4.3194   -2.2339    0.9700 H   0  0  0  0  0  0  0  0  0  0  0  0
    3.5853   -3.0617    2.3574 H   0  0  0  0  0  0  0  0  0  0  0  0
    3.2759   -3.6532    0.7103 H   0  0  0  0  0  0  0  0  0  0  0  0
  1  2  1  0  0  0  0
  2  3  1  0  0  0  0
  2  4  1  0  0  0  0
  2  5  1  0  0  0  0
  5  6  2  0  0  0  0
  5  7  1  0  0  0  0
  7  8  1  0  0  0  0
  7  9  1  0  0  0  0
  9 10  1  0  0  0  0
  9 11  1  0  0  0  0
  9 12  1  0  0  0  0
 12 13  2  0  0  0  0
 12 14  1  0  0  0  0
 14 15  1  0  0  0  0
 14 16  1  0  0  0  0
 16 17  1  0  0  0  0
 16 18  1  0  0  0  0
 16 19  1  0  0  0  0
M  END
$$$$

  -OEChem-01062216083D

 19 18  0     0  0  0  0  0  0999 V2000
   -2.7565   -3.8727    0.1899 H   0  0  0  0  0  0  0  0  0  0  0  0
   -2.6144   -2.8048    0.0005 C   0  0  0  0  0  0  0  0  0  0  0  0
   -3.2373   -2.2392    0.6977 H   0  0  0  0  0  0  0  0  0  0  0  0
   -2.9309   -2.5853   -1.0222 H   0  0  0  0  0  0  0  0  0  0  0  0
   -1.1549   -2.4296    0.1838 C   0  0  0  0  0  0  0  0  0  0  0  0
   -0.3669   -3.2897    0.5333 O   0  0  0  0  0  0  0  0  0  0  0  0
   -0.7822   -1.1063    0.0218 N   0  0  0  0  0  0  0  0  0  0  0  0
   -1.5449   -0.4905   -0.2477 H   0  0  0  0  0  0  0  0  0  0  0  0
    0.5786   -0.5214   -0.0660 C   0  0  0  0  0  0  0  0  0  0  0  0
    0.6417    0.0180   -1.0162 H   0  0  0  0  0  0  0  0  0  0  0  0
    0.6733    0.2178    0.7342 H   0  0  0  0  0  0  0  0  0  0  0  0
    1.8442   -1.3983    0.0189 C   0  0  0  0  0  0  0  0  0  0  0  0
    2.7165   -1.2359   -0.8241 O   0  0  0  0  0  0  0  0  0  0  0  0
    2.1144   -2.1704    1.1318 N   0  0  0  0  0  0  0  0  0  0  0  0
    1.2746   -2.5254    1.5897 H   0  0  0  0  0  0  0  0  0  0  0  0
    3.3153   -2.9911    1.2235 C   0  0  0  0  0  0  0  0  0  0  0  0
    4.2127   -2.3658    1.1725 H   0  0  0  0  0  0  0  0  0  0  0  0
    3.3286   -3.5345    2.1730 H   0  0  0  0  0  0  0  0  0  0  0  0
    3.3452   -3.7188    0.4058 H   0  0  0  0  0  0  0  0  0  0  0  0
  1  2  1  0  0  0  0
  2  3  1  0  0  0  0
  2  4  1  0  0  0  0
  2  5  1  0  0  0  0
  5  6  2  0  0  0  0
  5  7  1  0  0  0  0
  7  8  1  0  0  0  0
  7  9  1  0  0  0  0
  9 10  1  0  0  0  0
  9 11  1  0  0  0  0
  9 12  1  0  0  0  0
 12 13  2  0  0  0  0
 12 14  1  0  0  0  0
 14 15  1  0  0  0  0
 14 16  1  0  0  0  0
 16 17  1  0  0  0  0
 16 18  1  0  0  0  0
 16 19  1  0  0  0  0
M  END
$$$$

  -OEChem-01062216083D

 19 18  0     0  0  0  0  0  0999 V2000
   -2.8940   -3.8144    0.1599 H   0  0  0  0  0  0  0  0  0  0  0  0
   -2.7090   -2.7474    0.0048 C   0  0  0  0  0  0  0  0  0  0  0  0
   -3.2615   -2.1830    0.7600 H   0  0  0  0  0  0  0  0  0  0  0  0
   -3.0729   -2.4699   -0.9876 H   0  0  0  0  0  0  0  0  0  0  0  0
   -1.2243   -2.4497    0.1151 C   0  0  0  0  0  0  0  0  0  0  0  0
   -0.4638   -3.3672    0.3619 O   0  0  0  0  0  0  0  0  0  0  0  0
   -0.8004   -1.1398   -0.0322 N   0  0  0  0  0  0  0  0  0  0  0  0
   -1.5532   -0.4850   -0.2267 H   0  0  0  0  0  0  0  0  0  0  0  0
    0.5698   -0.5678   -0.0838 C   0  0  0  0  0  0  0  0  0  0  0  0
    0.6525   -0.0251   -1.0307 H   0  0  0  0  0  0  0  0  0  0  0  0
    0.6410    0.1690    0.7209 H   0  0  0  0  0  0  0  0  0  0  0  0
    1.8550   -1.4163    0.0278 C   0  0  0  0  0  0  0  0  0  0  0  0
    2.8219   -1.0653   -0.6351 O   0  0  0  0  0  0  0  0  0  0  0  0
    2.0215   -2.4131    0.9681 N   0  0  0  0  0  0  0  0  0  0  0  0
    1.1482   -2.8556    1.2603 H   0  0  0  0  0  0  0  0  0  0  0  0
    3.2352   -3.2158    1.0453 C   0  0  0  0  0  0  0  0  0  0  0  0
    4.1006   -2.5822    1.2656 H   0  0  0  0  0  0  0  0  0  0  0  0
    3.1428   -3.9610    1.8411 H   0  0  0  0  0  0  0  0  0  0  0  0
    3.4107   -3.7378    0.0990 H   0  0  0  0  0  0  0  0  0  0  0  0
  1  2  1  0  0  0  0
  2  3  1  0  0  0  0
  2  4  1  0  0  0  0
  2  5  1  0  0  0  0
  5  6  2  0  0  0  0
  5  7  1  0  0  0  0
  7  8  1  0  0  0  0
  7  9  1  0  0  0  0
  9 10  1  0  0  0  0
  9 11  1  0  0  0  0
  9 12  1  0  0  0  0
 12 13  2  0  0  0  0
 12 14  1  0  0  0  0
 14 15  1  0  0  0  0
 14 16  1  0  0  0  0
 16 17  1  0  0  0  0
 16 18  1  0  0  0  0
 16 19  1  0  0  0  0
M  END
$$$$

  -OEChem-01062216083D

 19 18  0     0  0  0  0  0  0999 V2000
   -3.0263   -3.7469    0.1532 H   0  0  0  0  0  0  0  0  0  0  0  0
   -2.7992   -2.6833    0.0342 C   0  0  0  0  0  0  0  0  0  0  0  0
   -3.2730   -2.1308    0.8494 H   0  0  0  0  0  0  0  0  0  0  0  0
   -3.2129   -2.3418   -0.9181 H   0  0  0  0  0  0  0  0  0  0  0  0
   -1.2976   -2.4593    0.0586 C   0  0  0  0  0  0  0  0  0  0  0  0
   -0.5706   -3.4247    0.1973 O   0  0  0  0  0  0  0  0  0  0  0  0
   -0.8261   -1.1642   -0.0737 N   0  0  0  0  0  0  0  0  0  0  0  0
   -1.5653   -0.4758   -0.1886 H   0  0  0  0  0  0  0  0  0  0  0  0
    0.5546   -0.6130   -0.1048 C   0  0  0  0  0  0  0  0  0  0  0  0
    0.6486   -0.0664   -1.0484 H   0  0  0  0  0  0  0  0  0  0  0  0
    0.6174    0.1206    0.7036 H   0  0  0  0  0  0  0  0  0  0  0  0
    1.8524   -1.4444    0.0149 C   0  0  0  0  0  0  0  0  0  0  0  0
    2.8693   -0.9462   -0.4486 O   0  0  0  0  0  0  0  0  0  0  0  0
    1.9707   -2.6253    0.7184 N   0  0  0  0  0  0  0  0  0  0  0  0
    1.0918   -3.1177    0.8893 H   0  0  0  0  0  0  0  0  0  0  0  0
    3.2062   -3.3958    0.7740 C   0  0  0  0  0  0  0  0  0  0  0  0
    4.0062   -2.8049    1.2318 H   0  0  0  0  0  0  0  0  0  0  0  0
    3.0595   -4.2991    1.3737 H   0  0  0  0  0  0  0  0  0  0  0  0
    3.5185   -3.6934   -0.2324 H   0  0  0  0  0  0  0  0  0  0  0  0
  1  2  1  0  0  0  0
  2  3  1  0  0  0  0
  2  4  1  0  0  0  0
  2  5  1  0  0  0  0
  5  6  2  0  0  0  0
  5  7  1  0  0  0  0
  7  8  1  0  0  0  0
  7  9  1  0  0  0  0
  9 10  1  0  0  0  0
  9 11  1  0  0  0  0
  9 12  1  0  0  0  0
 12 13  2  0  0  0  0
 12 14  1  0  0  0  0
 14 15  1  0  0  0  0
 14 16  1  0  0  0  0
 16 17  1  0  0  0  0
 16 18  1  0  0  0  0
 16 19  1  0  0  0  0
M  END
$$$$

  -OEChem-01062216083D

 19 18  0     0  0  0  0  0  0999 V2000
   -2.6138   -4.2158    0.0617 H   0  0  0  0  0  0  0  0  0  0  0  0
   -2.4942   -3.1774   -0.2611 C   0  0  0  0  0  0  0  0  0  0  0  0
   -3.2664   -2.5706    0.2180 H   0  0  0  0  0  0  0  0  0  0  0  0
   -2.6232   -3.1316   -1.3452 H   0  0  0  0  0  0  0  0  0  0  0  0
   -1.1173   -2.6633    0.1213 C   0  0  0  0  0  0  0  0  0  0  0  0
   -0.3938   -3.3964    0.7615 O   0  0  0  0  0  0  0  0  0  0  0  0
   -0.7948   -1.3612   -0.2172 N   0  0  0  0  0  0  0  0  0  0  0  0
   -1.5563   -0.8782   -0.6855 H   0  0  0  0  0  0  0  0  0  0  0  0
    0.4735   -0.5888   -0.1522 C   0  0  0  0  0  0  0  0  0  0  0  0
    0.6564   -0.2282   -1.1682 H   0  0  0  0  0  0  0  0  0  0  0  0
    0.2532    0.2850    0.4680 H   0  0  0  0  0  0  0  0  0  0  0  0
    1.8652   -1.0634    0.3395 C   0  0  0  0  0  0  0  0  0  0  0  0
    2.7330   -0.2069    0.3936 O   0  0  0  0  0  0  0  0  0  0  0  0
    2.2233   -2.1694    1.0667 N   0  0  0  0  0  0  0  0  0  0  0  0
    2.9984   -1.9305    1.6786 H   0  0  0  0  0  0  0  0  0  0  0  0
    2.4480   -3.4123    0.3376 C   0  0  0  0  0  0  0  0  0  0  0  0
    3.5010   -3.4940    0.0501 H   0  0  0  0  0  0  0  0  0  0  0  0
    2.1901   -4.2689    0.9685 H   0  0  0  0  0  0  0  0  0  0  0  0
    1.8416   -3.4596   -0.5732 H   0  0  0  0  0  0  0  0  0  0  0  0
  1  2  1  0  0  0  0
  2  3  1  0  0  0  0
  2  4  1  0  0  0  0
  2  5  1  0  0  0  0
  5  6  2  0  0  0  0
  5  7  1  0  0  0  0
  7  8  1  0  0  0  0
  7  9  1  0  0  0  0
  9 10  1  0  0  0  0
  9 11  1  0  0  0  0
  9 12  1  0  0  0  0
 12 13  2  0  0  0  0
 12 14  1  0  0  0  0
 14 15  1  0  0  0  0
 14 16  1  0  0  0  0
 16 17  1  0  0  0  0
 16 18  1  0  0  0  0
 16 19  1  0  0  0  0
M  END
$$$$

  -OEChem-01062216083D

 19 18  0     0  0  0  0  0  0999 V2000
   -2.4883   -4.2782   -0.0045 H   0  0  0  0  0  0  0  0  0  0  0  0
   -2.4074   -3.2138   -0.2435 C   0  0  0  0  0  0  0  0  0  0  0  0
   -3.2201   -2.6803    0.2554 H   0  0  0  0  0  0  0  0  0  0  0  0
   -2.5068   -3.0894   -1.3243 H   0  0  0  0  0  0  0  0  0  0  0  0
   -1.0674   -2.6719    0.2217 C   0  0  0  0  0  0  0  0  0  0  0  0
   -0.3423   -3.4052    0.8625 O   0  0  0  0  0  0  0  0  0  0  0  0
   -0.8018   -1.3284    0.0294 N   0  0  0  0  0  0  0  0  0  0  0  0
   -1.5774   -0.8341   -0.4026 H   0  0  0  0  0  0  0  0  0  0  0  0
    0.4640   -0.5514    0.0847 C   0  0  0  0  0  0  0  0  0  0  0  0
    0.5559   -0.0526   -0.8836 H   0  0  0  0  0  0  0  0  0  0  0  0
    0.2968    0.2266    0.8360 H   0  0  0  0  0  0  0  0  0  0  0  0
    1.8937   -1.0750    0.3820 C   0  0  0  0  0  0  0  0  0  0  0  0
    2.7288   -0.2338    0.6718 O   0  0  0  0  0  0  0  0  0  0  0  0
    2.3514   -2.3397    0.6551 N   0  0  0  0  0  0  0  0  0  0  0  0
    3.2433   -2.2952    1.1401 H   0  0  0  0  0  0  0  0  0  0  0  0
    2.2701   -3.3741   -0.3689 C   0  0  0  0  0  0  0  0  0  0  0  0
    3.2167   -3.4367   -0.9147 H   0  0  0  0  0  0  0  0  0  0  0  0
    2.0695   -4.3457    0.0938 H   0  0  0  0  0  0  0  0  0  0  0  0
    1.4746   -3.1634   -1.0906 H   0  0  0  0  0  0  0  0  0  0  0  0
  1  2  1  0  0  0  0
  2  3  1  0  0  0  0
  2  4  1  0  0  0  0
  2  5  1  0  0  0  0
  5  6  2  0  0  0  0
  5  7  1  0  0  0  0
  7  8  1  0  0  0  0
  7  9  1  0  0  0  0
  9 10  1  0  0  0  0
  9 11  1  0  0  0  0
  9 12  1  0  0  0  0
 12 13  2  0  0  0  0
 12 14  1  0  0  0  0
 14 15  1  0  0  0  0
 14 16  1  0  0  0  0
 16 17  1  0  0  0  0
 16 18  1  0  0  0  0
 16 19  1  0  0  0  0
M  END
$$$$

  -OEChem-01062216083D

 19 18  0     0  0  0  0  0  0999 V2000
   -2.6318   -4.2117   -0.0498 H   0  0  0  0  0  0  0  0  0  0  0  0
   -2.5174   -3.1632    0.2413 C   0  0  0  0  0  0  0  0  0  0  0  0
   -2.6991   -3.0767    1.3153 H   0  0  0  0  0  0  0  0  0  0  0  0
   -3.2584   -2.5673   -0.2972 H   0  0  0  0  0  0  0  0  0  0  0  0
   -1.1186   -2.6746   -0.0913 C   0  0  0  0  0  0  0  0  0  0  0  0
   -0.3787   -3.4290   -0.6861 O   0  0  0  0  0  0  0  0  0  0  0  0
   -0.7907   -1.3752    0.2525 N   0  0  0  0  0  0  0  0  0  0  0  0
   -1.5608   -0.8800    0.6933 H   0  0  0  0  0  0  0  0  0  0  0  0
    0.4757   -0.6007    0.1778 C   0  0  0  0  0  0  0  0  0  0  0  0
    0.2467    0.2778   -0.4325 H   0  0  0  0  0  0  0  0  0  0  0  0
    0.6711   -0.2481    1.1944 H   0  0  0  0  0  0  0  0  0  0  0  0
    1.8611   -1.0698   -0.3361 C   0  0  0  0  0  0  0  0  0  0  0  0
    2.7262   -0.2113   -0.3994 O   0  0  0  0  0  0  0  0  0  0  0  0
    2.2079   -2.1700   -1.0775 N   0  0  0  0  0  0  0  0  0  0  0  0
    2.9612   -1.9201   -1.7120 H   0  0  0  0  0  0  0  0  0  0  0  0
    2.4766   -3.4077   -0.3544 C   0  0  0  0  0  0  0  0  0  0  0  0
    3.5390   -3.4703   -0.0992 H   0  0  0  0  0  0  0  0  0  0  0  0
    1.8992   -3.4635    0.5745 H   0  0  0  0  0  0  0  0  0  0  0  0
    2.2146   -4.2700   -0.9758 H   0  0  0  0  0  0  0  0  0  0  0  0
  1  2  1  0  0  0  0
  2  3  1  0  0  0  0
  2  4  1  0  0  0  0
  2  5  1  0  0  0  0
  5  6  2  0  0  0  0
  5  7  1  0  0  0  0
  7  8  1  0  0  0  0
  7  9  1  0  0  0  0
  9 10  1  0  0  0  0
  9 11  1  0  0  0  0
  9 12  1  0  0  0  0
 12 13  2  0  0  0  0
 12 14  1  0  0  0  0
 14 15  1  0  0  0  0
 14 16  1  0  0  0  0
 16 17  1  0  0  0  0
 16 18  1  0  0  0  0
 16 19  1  0  0  0  0
M  END
$$$$

  -OEChem-01062216083D

 19 18  0     0  0  0  0  0  0999 V2000
   -3.0174   -3.7519   -0.1415 H   0  0  0  0  0  0  0  0  0  0  0  0
   -2.7947   -2.6865   -0.0312 C   0  0  0  0  0  0  0  0  0  0  0  0
   -3.2115   -2.3384    0.9172 H   0  0  0  0  0  0  0  0  0  0  0  0
   -3.2691   -2.1433   -0.8521 H   0  0  0  0  0  0  0  0  0  0  0  0
   -1.2937   -2.4584   -0.0543 C   0  0  0  0  0  0  0  0  0  0  0  0
   -0.5645   -3.4229   -0.1865 O   0  0  0  0  0  0  0  0  0  0  0  0
   -0.8244   -1.1622    0.0752 N   0  0  0  0  0  0  0  0  0  0  0  0
   -1.5646   -0.4749    0.1892 H   0  0  0  0  0  0  0  0  0  0  0  0
    0.5555   -0.6085    0.1010 C   0  0  0  0  0  0  0  0  0  0  0  0
    0.6141    0.1244   -0.7084 H   0  0  0  0  0  0  0  0  0  0  0  0
    0.6524   -0.0605    1.0434 H   0  0  0  0  0  0  0  0  0  0  0  0
    1.8539   -1.4386   -0.0229 C   0  0  0  0  0  0  0  0  0  0  0  0
    2.8712   -0.9419    0.4414 O   0  0  0  0  0  0  0  0  0  0  0  0
    1.9696   -2.6199   -0.7264 N   0  0  0  0  0  0  0  0  0  0  0  0
    1.0888   -3.1090   -0.8958 H   0  0  0  0  0  0  0  0  0  0  0  0
    3.1995   -3.4003   -0.7720 C   0  0  0  0  0  0  0  0  0  0  0  0
    4.0177   -2.8045   -1.1900 H   0  0  0  0  0  0  0  0  0  0  0  0
    3.4806   -3.7315    0.2332 H   0  0  0  0  0  0  0  0  0  0  0  0
    3.0609   -4.2834   -1.4031 H   0  0  0  0  0  0  0  0  0  0  0  0
  1  2  1  0  0  0  0
  2  3  1  0  0  0  0
  2  4  1  0  0  0  0
  2  5  1  0  0  0  0
  5  6  2  0  0  0  0
  5  7  1  0  0  0  0
  7  8  1  0  0  0  0
  7  9  1  0  0  0  0
  9 10  1  0  0  0  0
  9 11  1  0  0  0  0
  9 12  1  0  0  0  0
 12 13  2  0  0  0  0
 12 14  1  0  0  0  0
 14 15  1  0  0  0  0
 14 16  1  0  0  0  0
 16 17  1  0  0  0  0
 16 18  1  0  0  0  0
 16 19  1  0  0  0  0
M  END
$$$$

  -OEChem-01062216083D

 19 18  0     0  0  0  0  0  0999 V2000
   -2.9000   -3.8106   -0.1662 H   0  0  0  0  0  0  0  0  0  0  0  0
   -2.7125   -2.7448   -0.0068 C   0  0  0  0  0  0  0  0  0  0  0  0
   -3.0768   -2.4702    0.9863 H   0  0  0  0  0  0  0  0  0  0  0  0
   -3.2629   -2.1758   -0.7601 H   0  0  0  0  0  0  0  0  0  0  0  0
   -1.2268   -2.4504   -0.1144 C   0  0  0  0  0  0  0  0  0  0  0  0
   -0.4663   -3.3694   -0.3564 O   0  0  0  0  0  0  0  0  0  0  0  0
   -0.8015   -1.1411    0.0325 N   0  0  0  0  0  0  0  0  0  0  0  0
   -1.5540   -0.4840    0.2209 H   0  0  0  0  0  0  0  0  0  0  0  0
    0.5690   -0.5706    0.0853 C   0  0  0  0  0  0  0  0  0  0  0  0
    0.6416    0.1669   -0.7184 H   0  0  0  0  0  0  0  0  0  0  0  0
    0.6503   -0.0289    1.0327 H   0  0  0  0  0  0  0  0  0  0  0  0
    1.8542   -1.4197   -0.0246 C   0  0  0  0  0  0  0  0  0  0  0  0
    2.8221   -1.0652    0.6351 O   0  0  0  0  0  0  0  0  0  0  0  0
    2.0221   -2.4173   -0.9640 N   0  0  0  0  0  0  0  0  0  0  0  0
    1.1498   -2.8626   -1.2550 H   0  0  0  0  0  0  0  0  0  0  0  0
    3.2399   -3.2137   -1.0467 C   0  0  0  0  0  0  0  0  0  0  0  0
    4.1013   -2.5759   -1.2714 H   0  0  0  0  0  0  0  0  0  0  0  0
    3.4230   -3.7343   -0.1008 H   0  0  0  0  0  0  0  0  0  0  0  0
    3.1476   -3.9597   -1.8418 H   0  0  0  0  0  0  0  0  0  0  0  0
  1  2  1  0  0  0  0
  2  3  1  0  0  0  0
  2  4  1  0  0  0  0
  2  5  1  0  0  0  0
  5  6  2  0  0  0  0
  5  7  1  0  0  0  0
  7  8  1  0  0  0  0
  7  9  1  0  0  0  0
  9 10  1  0  0  0  0
  9 11  1  0  0  0  0
  9 12  1  0  0  0  0
 12 13  2  0  0  0  0
 12 14  1  0  0  0  0
 14 15  1  0  0  0  0
 14 16  1  0  0  0  0
 16 17  1  0  0  0  0
 16 18  1  0  0  0  0
 16 19  1  0  0  0  0
M  END
$$$$

  -OEChem-01062216083D

 19 18  0     0  0  0  0  0  0999 V2000
   -2.7618   -3.8713   -0.1717 H   0  0  0  0  0  0  0  0  0  0  0  0
   -2.6181   -2.8014    0.0046 C   0  0  0  0  0  0  0  0  0  0  0  0
   -2.9316   -2.5700    1.0255 H   0  0  0  0  0  0  0  0  0  0  0  0
   -3.2425   -2.2432   -0.6972 H   0  0  0  0  0  0  0  0  0  0  0  0
   -1.1587   -2.4292   -0.1860 C   0  0  0  0  0  0  0  0  0  0  0  0
   -0.3726   -3.2909   -0.5359 O   0  0  0  0  0  0  0  0  0  0  0  0
   -0.7832   -1.1065   -0.0257 N   0  0  0  0  0  0  0  0  0  0  0  0
   -1.5447   -0.4885    0.2418 H   0  0  0  0  0  0  0  0  0  0  0  0
    0.5787   -0.5242    0.0631 C   0  0  0  0  0  0  0  0  0  0  0  0
    0.6757    0.2143   -0.7372 H   0  0  0  0  0  0  0  0  0  0  0  0
    0.6412    0.0159    1.0130 H   0  0  0  0  0  0  0  0  0  0  0  0
    1.8434   -1.4027   -0.0181 C   0  0  0  0  0  0  0  0  0  0  0  0
    2.7173   -1.2346    0.8221 O   0  0  0  0  0  0  0  0  0  0  0  0
    2.1142   -2.1769   -1.1293 N   0  0  0  0  0  0  0  0  0  0  0  0
    1.2746   -2.5383   -1.5827 H   0  0  0  0  0  0  0  0  0  0  0  0
    3.3202   -2.9896   -1.2252 C   0  0  0  0  0  0  0  0  0  0  0  0
    4.2139   -2.3606   -1.1558 H   0  0  0  0  0  0  0  0  0  0  0  0
    3.3472   -3.7316   -0.4204 H   0  0  0  0  0  0  0  0  0  0  0  0
    3.3439   -3.5147   -2.1848 H   0  0  0  0  0  0  0  0  0  0  0  0
  1  2  1  0  0  0  0
  2  3  1  0  0  0  0
  2  4  1  0  0  0  0
  2  5  1  0  0  0  0
  5  6  2  0  0  0  0
  5  7  1  0  0  0  0
  7  8  1  0  0  0  0
  7  9  1  0  0  0  0
  9 10  1  0  0  0  0
  9 11  1  0  0  0  0
  9 12  1  0  0  0  0
 12 13  2  0  0  0  0
 12 14  1  0  0  0  0
 14 15  1  0  0  0  0
 14 16  1  0  0  0  0
 16 17  1  0  0  0  0
 16 18  1  0  0  0  0
 16 19  1  0  0  0  0
M  END
$$$$

  -OEChem-01062216083D

 19 18  0     0  0  0  0  0  0999 V2000
   -2.6109   -3.9303   -0.2002 H   0  0  0  0  0  0  0  0  0  0  0  0
   -2.5111   -2.8626    0.0159 C   0  0  0  0  0  0  0  0  0  0  0  0
   -2.7746   -2.6914    1.0626 H   0  0  0  0  0  0  0  0  0  0  0  0
   -3.2029   -2.3086   -0.6234 H   0  0  0  0  0  0  0  0  0  0  0  0
   -1.0859   -2.4074   -0.2410 C   0  0  0  0  0  0  0  0  0  0  0  0
   -0.2805   -3.2096   -0.6798 O   0  0  0  0  0  0  0  0  0  0  0  0
   -0.7677   -1.0710   -0.0658 N   0  0  0  0  0  0  0  0  0  0  0  0
   -1.5373   -0.5010    0.2749 H   0  0  0  0  0  0  0  0  0  0  0  0
    0.5814   -0.4680    0.0481 C   0  0  0  0  0  0  0  0  0  0  0  0
    0.6871    0.2790   -0.7434 H   0  0  0  0  0  0  0  0  0  0  0  0
    0.6321    0.0629    1.0038 H   0  0  0  0  0  0  0  0  0  0  0  0
    1.8322   -1.3632   -0.0234 C   0  0  0  0  0  0  0  0  0  0  0  0
    2.5575   -1.4378    0.9596 O   0  0  0  0  0  0  0  0  0  0  0  0
    2.2567   -1.8822   -1.2315 N   0  0  0  0  0  0  0  0  0  0  0  0
    1.5059   -2.0390   -1.9002 H   0  0  0  0  0  0  0  0  0  0  0  0
    3.4181   -2.7580   -1.3187 C   0  0  0  0  0  0  0  0  0  0  0  0
    4.3146   -2.2467   -0.9527 H   0  0  0  0  0  0  0  0  0  0  0  0
    3.2595   -3.6628   -0.7223 H   0  0  0  0  0  0  0  0  0  0  0  0
    3.5910   -3.0518   -2.3583 H   0  0  0  0  0  0  0  0  0  0  0  0
  1  2  1  0  0  0  0
  2  3  1  0  0  0  0
  2  4  1  0  0  0  0
  2  5  1  0  0  0  0
  5  6  2  0  0  0  0
  5  7  1  0  0  0  0
  7  8  1  0  0  0  0
  7  9  1  0  0  0  0
  9 10  1  0  0  0  0
  9 11  1  0  0  0  0
  9 12  1  0  0  0  0
 12 13  2  0  0  0  0
 12 14  1  0  0  0  0
 14 15  1  0  0  0  0
 14 16  1  0  0  0  0
 16 17  1  0  0  0  0
 16 18  1  0  0  0  0
 16 19  1  0  0  0  0
M  END
$$$$

  -OEChem-01062216083D

 19 18  0     0  0  0  0  0  0999 V2000
   -2.5298   -3.9556   -0.2389 H   0  0  0  0  0  0  0  0  0  0  0  0
   -2.4427   -2.8988    0.0293 C   0  0  0  0  0  0  0  0  0  0  0  0
   -2.6373   -2.7922    1.0992 H   0  0  0  0  0  0  0  0  0  0  0  0
   -3.1905   -2.3313   -0.5298 H   0  0  0  0  0  0  0  0  0  0  0  0
   -1.0503   -2.3891   -0.2950 C   0  0  0  0  0  0  0  0  0  0  0  0
   -0.2423   -3.1510   -0.7976 O   0  0  0  0  0  0  0  0  0  0  0  0
   -0.7695   -1.0444   -0.1185 N   0  0  0  0  0  0  0  0  0  0  0  0
   -1.5408   -0.5088    0.2700 H   0  0  0  0  0  0  0  0  0  0  0  0
    0.5721   -0.4326    0.0189 C   0  0  0  0  0  0  0  0  0  0  0  0
    0.6909    0.3154   -0.7694 H   0  0  0  0  0  0  0  0  0  0  0  0
    0.6086    0.0971    0.9756 H   0  0  0  0  0  0  0  0  0  0  0  0
    1.8139   -1.3401   -0.0280 C   0  0  0  0  0  0  0  0  0  0  0  0
    2.3601   -1.6454    1.0239 O   0  0  0  0  0  0  0  0  0  0  0  0
    2.4341   -1.6149   -1.2320 N   0  0  0  0  0  0  0  0  0  0  0  0
    1.8366   -1.5433   -2.0507 H   0  0  0  0  0  0  0  0  0  0  0  0
    3.5860   -2.5037   -1.3132 C   0  0  0  0  0  0  0  0  0  0  0  0
    4.4171   -2.1115   -0.7178 H   0  0  0  0  0  0  0  0  0  0  0  0
    3.3261   -3.5008   -0.9422 H   0  0  0  0  0  0  0  0  0  0  0  0
    3.9197   -2.5946   -2.3510 H   0  0  0  0  0  0  0  0  0  0  0  0
  1  2  1  0  0  0  0
  2  3  1  0  0  0  0
  2  4  1  0  0  0  0
  2  5  1  0  0  0  0
  5  6  2  0  0  0  0
  5  7  1  0  0  0  0
  7  8  1  0  0  0  0
  7  9  1  0  0  0  0
  9 10  1  0  0  0  0
  9 11  1  0  0  0  0
  9 12  1  0  0  0  0
 12 13  2  0  0  0  0
 12 14  1  0  0  0  0
 14 15  1  0  0  0  0
 14 16  1  0  0  0  0
 16 17  1  0  0  0  0
 16 18  1  0  0  0  0
 16 19  1  0  0  0  0
M  END
$$$$

  -OEChem-01062216083D

 19 18  0     0  0  0  0  0  0999 V2000
   -2.4613   -3.9920   -0.1667 H   0  0  0  0  0  0  0  0  0  0  0  0
   -2.4135   -2.9171    0.0300 C   0  0  0  0  0  0  0  0  0  0  0  0
   -2.6266   -2.7457    1.0879 H   0  0  0  0  0  0  0  0  0  0  0  0
   -3.1714   -2.4142   -0.5753 H   0  0  0  0  0  0  0  0  0  0  0  0
   -1.0348   -2.3836   -0.3139 C   0  0  0  0  0  0  0  0  0  0  0  0
   -0.2331   -3.1226   -0.8595 O   0  0  0  0  0  0  0  0  0  0  0  0
   -0.7701   -1.0360   -0.1324 N   0  0  0  0  0  0  0  0  0  0  0  0
   -1.5381   -0.5195    0.2870 H   0  0  0  0  0  0  0  0  0  0  0  0
    0.5693   -0.4217    0.0110 C   0  0  0  0  0  0  0  0  0  0  0  0
    0.6867    0.3313   -0.7728 H   0  0  0  0  0  0  0  0  0  0  0  0
    0.6042    0.1019    0.9709 H   0  0  0  0  0  0  0  0  0  0  0  0
    1.8100   -1.3313   -0.0349 C   0  0  0  0  0  0  0  0  0  0  0  0
    2.1992   -1.8459    1.0053 O   0  0  0  0  0  0  0  0  0  0  0  0
    2.6148   -1.3644   -1.1586 N   0  0  0  0  0  0  0  0  0  0  0  0
    2.1790   -1.0666   -2.0259 H   0  0  0  0  0  0  0  0  0  0  0  0
    3.7814   -2.2338   -1.2438 C   0  0  0  0  0  0  0  0  0  0  0  0
    4.4970   -1.9968   -0.4494 H   0  0  0  0  0  0  0  0  0  0  0  0
    3.4828   -3.2832   -1.1477 H   0  0  0  0  0  0  0  0  0  0  0  0
    4.2822   -2.1010   -2.2074 H   0  0  0  0  0  0  0  0  0  0  0  0
  1  2  1  0  0  0  0
  2  3  1  0  0  0  0
  2  4  1  0  0  0  0
  2  5  1  0  0  0  0
  5  6  2  0  0  0  0
  5  7  1  0  0  0  0
  7  8  1  0  0  0  0
  7  9  1  0  0  0  0
  9 10  1  0  0  0  0
  9 11  1  0  0  0  0
  9 12  1  0  0  0  0
 12 13  2  0  0  0  0
 12 14  1  0  0  0  0
 14 15  1  0  0  0  0
 14 16  1  0  0  0  0
 16 17  1  0  0  0  0
 16 18  1  0  0  0  0
 16 19  1  0  0  0  0
M  END
$$$$

  -OEChem-01062216083D

 19 18  0     0  0  0  0  0  0999 V2000
   -2.3682   -4.0180    0.1834 H   0  0  0  0  0  0  0  0  0  0  0  0
   -2.3373   -2.9288    0.2791 C   0  0  0  0  0  0  0  0  0  0  0  0
   -2.4425   -2.6681    1.3350 H   0  0  0  0  0  0  0  0  0  0  0  0
   -3.1723   -2.5022   -0.2816 H   0  0  0  0  0  0  0  0  0  0  0  0
   -1.0213   -2.3945   -0.2569 C   0  0  0  0  0  0  0  0  0  0  0  0
   -0.2477   -3.1610   -0.8058 O   0  0  0  0  0  0  0  0  0  0  0  0
   -0.7979   -1.0276   -0.2666 N   0  0  0  0  0  0  0  0  0  0  0  0
   -1.5576   -0.4924    0.1437 H   0  0  0  0  0  0  0  0  0  0  0  0
    0.5319   -0.3788   -0.2139 C   0  0  0  0  0  0  0  0  0  0  0  0
    0.6336    0.2565   -1.0976 H   0  0  0  0  0  0  0  0  0  0  0  0
    0.5616    0.2760    0.6618 H   0  0  0  0  0  0  0  0  0  0  0  0
    1.7864   -1.2682   -0.1348 C   0  0  0  0  0  0  0  0  0  0  0  0
    2.0484   -1.8179    0.9273 O   0  0  0  0  0  0  0  0  0  0  0  0
    2.7523   -1.2105   -1.1229 N   0  0  0  0  0  0  0  0  0  0  0  0
    2.4607   -0.8429   -2.0230 H   0  0  0  0  0  0  0  0  0  0  0  0
    3.9694   -2.0108   -1.0664 C   0  0  0  0  0  0  0  0  0  0  0  0
    3.7238   -3.0768   -1.0126 H   0  0  0  0  0  0  0  0  0  0  0  0
    4.5770   -1.8395   -1.9600 H   0  0  0  0  0  0  0  0  0  0  0  0
    4.5654   -1.7416   -0.1880 H   0  0  0  0  0  0  0  0  0  0  0  0
  1  2  1  0  0  0  0
  2  3  1  0  0  0  0
  2  4  1  0  0  0  0
  2  5  1  0  0  0  0
  5  6  2  0  0  0  0
  5  7  1  0  0  0  0
  7  8  1  0  0  0  0
  7  9  1  0  0  0  0
  9 10  1  0  0  0  0
  9 11  1  0  0  0  0
  9 12  1  0  0  0  0
 12 13  2  0  0  0  0
 12 14  1  0  0  0  0
 14 15  1  0  0  0  0
 14 16  1  0  0  0  0
 16 17  1  0  0  0  0
 16 18  1  0  0  0  0
 16 19  1  0  0  0  0
M  END
$$$$

  -OEChem-01062216083D

 19 18  0     0  0  0  0  0  0999 V2000
   -2.3916   -4.0111    0.1504 H   0  0  0  0  0  0  0  0  0  0  0  0
   -2.3279   -2.9294    0.2988 C   0  0  0  0  0  0  0  0  0  0  0  0
   -2.3631   -2.7204    1.3707 H   0  0  0  0  0  0  0  0  0  0  0  0
   -3.1837   -2.4560   -0.1882 H   0  0  0  0  0  0  0  0  0  0  0  0
   -1.0328   -2.3979   -0.2876 C   0  0  0  0  0  0  0  0  0  0  0  0
   -0.2988   -3.1564   -0.8991 O   0  0  0  0  0  0  0  0  0  0  0  0
   -0.8014   -1.0328   -0.2983 N   0  0  0  0  0  0  0  0  0  0  0  0
   -1.5456   -0.5008    0.1431 H   0  0  0  0  0  0  0  0  0  0  0  0
    0.5363   -0.4013   -0.2377 C   0  0  0  0  0  0  0  0  0  0  0  0
    0.6477    0.2261   -1.1257 H   0  0  0  0  0  0  0  0  0  0  0  0
    0.5680    0.2588    0.6336 H   0  0  0  0  0  0  0  0  0  0  0  0
    1.7862   -1.2979   -0.1474 C   0  0  0  0  0  0  0  0  0  0  0  0
    1.9367   -1.9996    0.8447 O   0  0  0  0  0  0  0  0  0  0  0  0
    2.8866   -1.0332   -0.9431 N   0  0  0  0  0  0  0  0  0  0  0  0
    2.7265   -0.4920   -1.7867 H   0  0  0  0  0  0  0  0  0  0  0  0
    4.1425   -1.7631   -0.8145 C   0  0  0  0  0  0  0  0  0  0  0  0
    3.9835   -2.8325   -0.9888 H   0  0  0  0  0  0  0  0  0  0  0  0
    4.8696   -1.3964   -1.5452 H   0  0  0  0  0  0  0  0  0  0  0  0
    4.5641   -1.6282    0.1872 H   0  0  0  0  0  0  0  0  0  0  0  0
  1  2  1  0  0  0  0
  2  3  1  0  0  0  0
  2  4  1  0  0  0  0
  2  5  1  0  0  0  0
  5  6  2  0  0  0  0
  5  7  1  0  0  0  0
  7  8  1  0  0  0  0
  7  9  1  0  0  0  0
  9 10  1  0  0  0  0
  9 11  1  0  0  0  0
  9 12  1  0  0  0  0
 12 13  2  0  0  0  0
 12 14  1  0  0  0  0
 14 15  1  0  0  0  0
 14 16  1  0  0  0  0
 16 17  1  0  0  0  0
 16 18  1  0  0  0  0
 16 19  1  0  0  0  0
M  END
$$$$

  -OEChem-01062216083D

 19 18  0     0  0  0  0  0  0999 V2000
   -2.3773   -4.0055    0.1964 H   0  0  0  0  0  0  0  0  0  0  0  0
   -2.3076   -2.9223    0.3315 C   0  0  0  0  0  0  0  0  0  0  0  0
   -2.2958   -2.7035    1.4020 H   0  0  0  0  0  0  0  0  0  0  0  0
   -3.1836   -2.4538   -0.1229 H   0  0  0  0  0  0  0  0  0  0  0  0
   -1.0394   -2.3971   -0.3162 C   0  0  0  0  0  0  0  0  0  0  0  0
   -0.3559   -3.1504   -0.9897 O   0  0  0  0  0  0  0  0  0  0  0  0
   -0.7985   -1.0343   -0.3426 N   0  0  0  0  0  0  0  0  0  0  0  0
   -1.5293   -0.5001    0.1178 H   0  0  0  0  0  0  0  0  0  0  0  0
    0.5471   -0.4191   -0.2759 C   0  0  0  0  0  0  0  0  0  0  0  0
    0.6722    0.1896   -1.1751 H   0  0  0  0  0  0  0  0  0  0  0  0
    0.5741    0.2567    0.5832 H   0  0  0  0  0  0  0  0  0  0  0  0
    1.7958   -1.3171   -0.1591 C   0  0  0  0  0  0  0  0  0  0  0  0
    1.8500   -2.1542    0.7328 O   0  0  0  0  0  0  0  0  0  0  0  0
    2.9923   -0.8863   -0.7055 N   0  0  0  0  0  0  0  0  0  0  0  0
    2.9426   -0.1910   -1.4433 H   0  0  0  0  0  0  0  0  0  0  0  0
    4.2544   -1.5866   -0.4948 C   0  0  0  0  0  0  0  0  0  0  0  0
    4.1829   -2.6196   -0.8516 H   0  0  0  0  0  0  0  0  0  0  0  0
    5.0604   -1.0864   -1.0400 H   0  0  0  0  0  0  0  0  0  0  0  0
    4.5143   -1.5983    0.5691 H   0  0  0  0  0  0  0  0  0  0  0  0
  1  2  1  0  0  0  0
  2  3  1  0  0  0  0
  2  4  1  0  0  0  0
  2  5  1  0  0  0  0
  5  6  2  0  0  0  0
  5  7  1  0  0  0  0
  7  8  1  0  0  0  0
  7  9  1  0  0  0  0
  9 10  1  0  0  0  0
  9 11  1  0  0  0  0
  9 12  1  0  0  0  0
 12 13  2  0  0  0  0
 12 14  1  0  0  0  0
 14 15  1  0  0  0  0
 14 16  1  0  0  0  0
 16 17  1  0  0  0  0
 16 18  1  0  0  0  0
 16 19  1  0  0  0  0
M  END
$$$$

  -OEChem-01062216083D

 19 18  0     0  0  0  0  0  0999 V2000
   -2.3703   -3.9951    0.2429 H   0  0  0  0  0  0  0  0  0  0  0  0
   -2.2934   -2.9098    0.3548 C   0  0  0  0  0  0  0  0  0  0  0  0
   -2.2316   -2.6722    1.4194 H   0  0  0  0  0  0  0  0  0  0  0  0
   -3.1889   -2.4472   -0.0665 H   0  0  0  0  0  0  0  0  0  0  0  0
   -1.0559   -2.3997   -0.3606 C   0  0  0  0  0  0  0  0  0  0  0  0
   -0.4423   -3.1478   -1.1036 O   0  0  0  0  0  0  0  0  0  0  0  0
   -0.7897   -1.0423   -0.3899 N   0  0  0  0  0  0  0  0  0  0  0  0
   -1.5044   -0.5016    0.0874 H   0  0  0  0  0  0  0  0  0  0  0  0
    0.5672   -0.4529   -0.3110 C   0  0  0  0  0  0  0  0  0  0  0  0
    0.7087    0.1445   -1.2157 H   0  0  0  0  0  0  0  0  0  0  0  0
    0.5899    0.2307    0.5418 H   0  0  0  0  0  0  0  0  0  0  0  0
    1.8167   -1.3508   -0.1754 C   0  0  0  0  0  0  0  0  0  0  0  0
    1.8002   -2.3281    0.5610 O   0  0  0  0  0  0  0  0  0  0  0  0
    3.0566   -0.7887   -0.4277 N   0  0  0  0  0  0  0  0  0  0  0  0
    3.0827    0.0514   -0.9968 H   0  0  0  0  0  0  0  0  0  0  0  0
    4.3154   -1.4579   -0.1162 C   0  0  0  0  0  0  0  0  0  0  0  0
    4.3759   -2.4209   -0.6343 H   0  0  0  0  0  0  0  0  0  0  0  0
    5.1609   -0.8402   -0.4336 H   0  0  0  0  0  0  0  0  0  0  0  0
    4.4015   -1.6317    0.9617 H   0  0  0  0  0  0  0  0  0  0  0  0
  1  2  1  0  0  0  0
  2  3  1  0  0  0  0
  2  4  1  0  0  0  0
  2  5  1  0  0  0  0
  5  6  2  0  0  0  0
  5  7  1  0  0  0  0
  7  8  1  0  0  0  0
  7  9  1  0  0  0  0
  9 10  1  0  0  0  0
  9 11  1  0  0  0  0
  9 12  1  0  0  0  0
 12 13  2  0  0  0  0
 12 14  1  0  0  0  0
 14 15  1  0  0  0  0
 14 16  1  0  0  0  0
 16 17  1  0  0  0  0
 16 18  1  0  0  0  0
 16 19  1  0  0  0  0
M  END
$$$$

  -OEChem-01062216083D

 19 18  0     0  0  0  0  0  0999 V2000
   -2.3316   -3.9888   -0.1687 H   0  0  0  0  0  0  0  0  0  0  0  0
   -2.2620   -2.9062   -0.3074 C   0  0  0  0  0  0  0  0  0  0  0  0
   -3.1480   -2.4366    0.1261 H   0  0  0  0  0  0  0  0  0  0  0  0
   -2.2276   -2.6926   -1.3784 H   0  0  0  0  0  0  0  0  0  0  0  0
   -1.0083   -2.3761    0.3632 C   0  0  0  0  0  0  0  0  0  0  0  0
   -0.3472   -3.1105    1.0802 O   0  0  0  0  0  0  0  0  0  0  0  0
   -0.7475   -1.0175    0.3675 N   0  0  0  0  0  0  0  0  0  0  0  0
   -1.4656   -0.4853   -0.1142 H   0  0  0  0  0  0  0  0  0  0  0  0
    0.6141   -0.4459    0.2567 C   0  0  0  0  0  0  0  0  0  0  0  0
    0.5662    0.4139   -0.4167 H   0  0  0  0  0  0  0  0  0  0  0  0
    0.8863   -0.0725    1.2478 H   0  0  0  0  0  0  0  0  0  0  0  0
    1.7985   -1.3157   -0.2256 C   0  0  0  0  0  0  0  0  0  0  0  0
    1.6228   -2.2994   -0.9320 O   0  0  0  0  0  0  0  0  0  0  0  0
    3.0464   -0.7209   -0.3001 N   0  0  0  0  0  0  0  0  0  0  0  0
    3.1945    0.1264    0.2390 H   0  0  0  0  0  0  0  0  0  0  0  0
    4.1987   -1.3556   -0.9314 C   0  0  0  0  0  0  0  0  0  0  0  0
    4.4166   -2.3158   -0.4521 H   0  0  0  0  0  0  0  0  0  0  0  0
    4.0075   -1.5284   -1.9958 H   0  0  0  0  0  0  0  0  0  0  0  0
    5.0805   -0.7146   -0.8398 H   0  0  0  0  0  0  0  0  0  0  0  0
  1  2  1  0  0  0  0
  2  3  1  0  0  0  0
  2  4  1  0  0  0  0
  2  5  1  0  0  0  0
  5  6  2  0  0  0  0
  5  7  1  0  0  0  0
  7  8  1  0  0  0  0
  7  9  1  0  0  0  0
  9 10  1  0  0  0  0
  9 11  1  0  0  0  0
  9 12  1  0  0  0  0
 12 13  2  0  0  0  0
 12 14  1  0  0  0  0
 14 15  1  0  0  0  0
 14 16  1  0  0  0  0
 16 17  1  0  0  0  0
 16 18  1  0  0  0  0
 16 19  1  0  0  0  0
M  END
$$$$

  -OEChem-01062216083D

 19 18  0     0  0  0  0  0  0999 V2000
   -2.3106   -4.0038   -0.1547 H   0  0  0  0  0  0  0  0  0  0  0  0
   -2.2697   -2.9184   -0.2823 C   0  0  0  0  0  0  0  0  0  0  0  0
   -3.1423   -2.4728    0.2009 H   0  0  0  0  0  0  0  0  0  0  0  0
   -2.2937   -2.6908   -1.3507 H   0  0  0  0  0  0  0  0  0  0  0  0
   -0.9952   -2.3699    0.3320 C   0  0  0  0  0  0  0  0  0  0  0  0
   -0.2756   -3.1034    0.9917 O   0  0  0  0  0  0  0  0  0  0  0  0
   -0.7609   -1.0060    0.3325 N   0  0  0  0  0  0  0  0  0  0  0  0
   -1.4916   -0.4820   -0.1395 H   0  0  0  0  0  0  0  0  0  0  0  0
    0.5910   -0.4118    0.2342 C   0  0  0  0  0  0  0  0  0  0  0  0
    0.5458    0.4414   -0.4479 H   0  0  0  0  0  0  0  0  0  0  0  0
    0.8501   -0.0280    1.2248 H   0  0  0  0  0  0  0  0  0  0  0  0
    1.7734   -1.2886   -0.2315 C   0  0  0  0  0  0  0  0  0  0  0  0
    1.6114   -2.1249   -1.1115 O   0  0  0  0  0  0  0  0  0  0  0  0
    3.0624   -0.8327   -0.0185 N   0  0  0  0  0  0  0  0  0  0  0  0
    3.1944   -0.1235    0.6957 H   0  0  0  0  0  0  0  0  0  0  0  0
    4.2399   -1.4968   -0.5664 C   0  0  0  0  0  0  0  0  0  0  0  0
    4.2727   -2.5434   -0.2453 H   0  0  0  0  0  0  0  0  0  0  0  0
    4.2246   -1.4643   -1.6609 H   0  0  0  0  0  0  0  0  0  0  0  0
    5.1507   -0.9995   -0.2196 H   0  0  0  0  0  0  0  0  0  0  0  0
  1  2  1  0  0  0  0
  2  3  1  0  0  0  0
  2  4  1  0  0  0  0
  2  5  1  0  0  0  0
  5  6  2  0  0  0  0
  5  7  1  0  0  0  0
  7  8  1  0  0  0  0
  7  9  1  0  0  0  0
  9 10  1  0  0  0  0
  9 11  1  0  0  0  0
  9 12  1  0  0  0  0
 12 13  2  0  0  0  0
 12 14  1  0  0  0  0
 14 15  1  0  0  0  0
 14 16  1  0  0  0  0
 16 17  1  0  0  0  0
 16 18  1  0  0  0  0
 16 19  1  0  0  0  0
M  END
$$$$

  -OEChem-01062216083D

 19 18  0     0  0  0  0  0  0999 V2000
   -2.2824   -4.0190   -0.1499 H   0  0  0  0  0  0  0  0  0  0  0  0
   -2.2687   -2.9313   -0.2626 C   0  0  0  0  0  0  0  0  0  0  0  0
   -3.1287   -2.5107    0.2635 H   0  0  0  0  0  0  0  0  0  0  0  0
   -2.3425   -2.6889   -1.3255 H   0  0  0  0  0  0  0  0  0  0  0  0
   -0.9813   -2.3654    0.3073 C   0  0  0  0  0  0  0  0  0  0  0  0
   -0.2192   -3.0962    0.9206 O   0  0  0  0  0  0  0  0  0  0  0  0
   -0.7700   -0.9976    0.3018 N   0  0  0  0  0  0  0  0  0  0  0  0
   -1.5129   -0.4819   -0.1603 H   0  0  0  0  0  0  0  0  0  0  0  0
    0.5714   -0.3804    0.2130 C   0  0  0  0  0  0  0  0  0  0  0  0
    0.5242    0.4633   -0.4807 H   0  0  0  0  0  0  0  0  0  0  0  0
    0.8175    0.0196    1.2002 H   0  0  0  0  0  0  0  0  0  0  0  0
    1.7560   -1.2593   -0.2365 C   0  0  0  0  0  0  0  0  0  0  0  0
    1.6421   -1.9538   -1.2391 O   0  0  0  0  0  0  0  0  0  0  0  0
    3.0280   -0.9854    0.2329 N   0  0  0  0  0  0  0  0  0  0  0  0
    3.1000   -0.4330    1.0815 H   0  0  0  0  0  0  0  0  0  0  0  0
    4.2107   -1.6978   -0.2355 C   0  0  0  0  0  0  0  0  0  0  0  0
    4.1110   -2.7718   -0.0455 H   0  0  0  0  0  0  0  0  0  0  0  0
    4.3523   -1.5415   -1.3101 H   0  0  0  0  0  0  0  0  0  0  0  0
    5.1017   -1.3347    0.2854 H   0  0  0  0  0  0  0  0  0  0  0  0
  1  2  1  0  0  0  0
  2  3  1  0  0  0  0
  2  4  1  0  0  0  0
  2  5  1  0  0  0  0
  5  6  2  0  0  0  0
  5  7  1  0  0  0  0
  7  8  1  0  0  0  0
  7  9  1  0  0  0  0
  9 10  1  0  0  0  0
  9 11  1  0  0  0  0
  9 12  1  0  0  0  0
 12 13  2  0  0  0  0
 12 14  1  0  0  0  0
 14 15  1  0  0  0  0
 14 16  1  0  0  0  0
 16 17  1  0  0  0  0
 16 18  1  0  0  0  0
 16 19  1  0  0  0  0
M  END
$$$$

  -OEChem-01062216083D

 19 18  0     0  0  0  0  0  0999 V2000
   -2.2578   -4.0267   -0.1792 H   0  0  0  0  0  0  0  0  0  0  0  0
   -2.2694   -2.9356   -0.2541 C   0  0  0  0  0  0  0  0  0  0  0  0
   -3.1133   -2.5510    0.3235 H   0  0  0  0  0  0  0  0  0  0  0  0
   -2.3960   -2.6588   -1.3036 H   0  0  0  0  0  0  0  0  0  0  0  0
   -0.9688   -2.3632    0.2787 C   0  0  0  0  0  0  0  0  0  0  0  0
   -0.1740   -3.0982    0.8435 O   0  0  0  0  0  0  0  0  0  0  0  0
   -0.7718   -0.9927    0.2787 N   0  0  0  0  0  0  0  0  0  0  0  0
   -1.5272   -0.4760   -0.1625 H   0  0  0  0  0  0  0  0  0  0  0  0
    0.5606   -0.3547    0.2034 C   0  0  0  0  0  0  0  0  0  0  0  0
    0.5101    0.4867   -0.4931 H   0  0  0  0  0  0  0  0  0  0  0  0
    0.7950    0.0516    1.1910 H   0  0  0  0  0  0  0  0  0  0  0  0
    1.7509   -1.2277   -0.2386 C   0  0  0  0  0  0  0  0  0  0  0  0
    1.7114   -1.7675   -1.3373 O   0  0  0  0  0  0  0  0  0  0  0  0
    2.9524   -1.1735    0.4440 N   0  0  0  0  0  0  0  0  0  0  0  0
    2.9275   -0.7984    1.3871 H   0  0  0  0  0  0  0  0  0  0  0  0
    4.1156   -1.9541    0.0400 C   0  0  0  0  0  0  0  0  0  0  0  0
    3.8840   -3.0243    0.0618 H   0  0  0  0  0  0  0  0  0  0  0  0
    4.4274   -1.6815   -0.9738 H   0  0  0  0  0  0  0  0  0  0  0  0
    4.9525   -1.7659    0.7193 H   0  0  0  0  0  0  0  0  0  0  0  0
  1  2  1  0  0  0  0
  2  3  1  0  0  0  0
  2  4  1  0  0  0  0
  2  5  1  0  0  0  0
  5  6  2  0  0  0  0
  5  7  1  0  0  0  0
  7  8  1  0  0  0  0
  7  9  1  0  0  0  0
  9 10  1  0  0  0  0
  9 11  1  0  0  0  0
  9 12  1  0  0  0  0
 12 13  2  0  0  0  0
 12 14  1  0  0  0  0
 14 15  1  0  0  0  0
 14 16  1  0  0  0  0
 16 17  1  0  0  0  0
 16 18  1  0  0  0  0
 16 19  1  0  0  0  0
M  END
$$$$

  -OEChem-01062216083D

 19 18  0     0  0  0  0  0  0999 V2000
   -2.2954   -4.0289    0.2852 H   0  0  0  0  0  0  0  0  0  0  0  0
   -2.2774   -2.9785   -0.0199 C   0  0  0  0  0  0  0  0  0  0  0  0
   -3.1047   -2.4565    0.4670 H   0  0  0  0  0  0  0  0  0  0  0  0
   -2.4069   -2.9258   -1.1038 H   0  0  0  0  0  0  0  0  0  0  0  0
   -0.9557   -2.3439    0.3722 C   0  0  0  0  0  0  0  0  0  0  0  0
   -0.1225   -3.0086    0.9673 O   0  0  0  0  0  0  0  0  0  0  0  0
   -0.7694   -0.9846    0.1875 N   0  0  0  0  0  0  0  0  0  0  0  0
   -1.5454   -0.5265   -0.2815 H   0  0  0  0  0  0  0  0  0  0  0  0
    0.5515   -0.3443    0.0086 C   0  0  0  0  0  0  0  0  0  0  0  0
    0.4790    0.3926   -0.7962 H   0  0  0  0  0  0  0  0  0  0  0  0
    0.7951    0.1985    0.9257 H   0  0  0  0  0  0  0  0  0  0  0  0
    1.7440   -1.2569   -0.3306 C   0  0  0  0  0  0  0  0  0  0  0  0
    1.7919   -1.7701   -1.4412 O   0  0  0  0  0  0  0  0  0  0  0  0
    2.8435   -1.3245    0.5047 N   0  0  0  0  0  0  0  0  0  0  0  0
    2.6958   -1.0290    1.4649 H   0  0  0  0  0  0  0  0  0  0  0  0
    3.9756   -2.1985    0.2233 C   0  0  0  0  0  0  0  0  0  0  0  0
    4.4393   -1.9314   -0.7322 H   0  0  0  0  0  0  0  0  0  0  0  0
    4.7306   -2.1040    1.0096 H   0  0  0  0  0  0  0  0  0  0  0  0
    3.6496   -3.2431    0.1774 H   0  0  0  0  0  0  0  0  0  0  0  0
  1  2  1  0  0  0  0
  2  3  1  0  0  0  0
  2  4  1  0  0  0  0
  2  5  1  0  0  0  0
  5  6  2  0  0  0  0
  5  7  1  0  0  0  0
  7  8  1  0  0  0  0
  7  9  1  0  0  0  0
  9 10  1  0  0  0  0
  9 11  1  0  0  0  0
  9 12  1  0  0  0  0
 12 13  2  0  0  0  0
 12 14  1  0  0  0  0
 14 15  1  0  0  0  0
 14 16  1  0  0  0  0
 16 17  1  0  0  0  0
 16 18  1  0  0  0  0
 16 19  1  0  0  0  0
M  END
$$$$

  -OEChem-01062216083D

 19 18  0     0  0  0  0  0  0999 V2000
   -2.3227   -4.0212    0.2688 H   0  0  0  0  0  0  0  0  0  0  0  0
   -2.3060   -2.9628   -0.0070 C   0  0  0  0  0  0  0  0  0  0  0  0
   -3.1076   -2.4471    0.5271 H   0  0  0  0  0  0  0  0  0  0  0  0
   -2.4792   -2.8785   -1.0827 H   0  0  0  0  0  0  0  0  0  0  0  0
   -0.9637   -2.3509    0.3493 C   0  0  0  0  0  0  0  0  0  0  0  0
   -0.1197   -3.0362    0.9040 O   0  0  0  0  0  0  0  0  0  0  0  0
   -0.7627   -0.9939    0.1628 N   0  0  0  0  0  0  0  0  0  0  0  0
   -1.5446   -0.5182   -0.2787 H   0  0  0  0  0  0  0  0  0  0  0  0
    0.5586   -0.3525   -0.0104 C   0  0  0  0  0  0  0  0  0  0  0  0
    0.4873    0.3824   -0.8176 H   0  0  0  0  0  0  0  0  0  0  0  0
    0.7997    0.1949    0.9048 H   0  0  0  0  0  0  0  0  0  0  0  0
    1.7550   -1.2621   -0.3414 C   0  0  0  0  0  0  0  0  0  0  0  0
    1.9402   -1.5860   -1.5072 O   0  0  0  0  0  0  0  0  0  0  0  0
    2.6992   -1.5676    0.6205 N   0  0  0  0  0  0  0  0  0  0  0  0
    2.3844   -1.4800    1.5826 H   0  0  0  0  0  0  0  0  0  0  0  0
    3.8023   -2.4807    0.3494 C   0  0  0  0  0  0  0  0  0  0  0  0
    4.4101   -2.1135   -0.4844 H   0  0  0  0  0  0  0  0  0  0  0  0
    4.4454   -2.5678    1.2302 H   0  0  0  0  0  0  0  0  0  0  0  0
    3.4207   -3.4755    0.0962 H   0  0  0  0  0  0  0  0  0  0  0  0
  1  2  1  0  0  0  0
  2  3  1  0  0  0  0
  2  4  1  0  0  0  0
  2  5  1  0  0  0  0
  5  6  2  0  0  0  0
  5  7  1  0  0  0  0
  7  8  1  0  0  0  0
  7  9  1  0  0  0  0
  9 10  1  0  0  0  0
  9 11  1  0  0  0  0
  9 12  1  0  0  0  0
 12 13  2  0  0  0  0
 12 14  1  0  0  0  0
 14 15  1  0  0  0  0
 14 16  1  0  0  0  0
 16 17  1  0  0  0  0
 16 18  1  0  0  0  0
 16 19  1  0  0  0  0
M  END
$$$$

  -OEChem-01062216083D

 19 18  0     0  0  0  0  0  0999 V2000
   -2.4123   -3.9951    0.2777 H   0  0  0  0  0  0  0  0  0  0  0  0
   -2.3766   -2.9322    0.0218 C   0  0  0  0  0  0  0  0  0  0  0  0
   -3.1269   -2.4028    0.6139 H   0  0  0  0  0  0  0  0  0  0  0  0
   -2.6118   -2.8195   -1.0394 H   0  0  0  0  0  0  0  0  0  0  0  0
   -0.9958   -2.3713    0.3085 C   0  0  0  0  0  0  0  0  0  0  0  0
   -0.1506   -3.0939    0.8102 O   0  0  0  0  0  0  0  0  0  0  0  0
   -0.7589   -1.0211    0.1172 N   0  0  0  0  0  0  0  0  0  0  0  0
   -1.5446   -0.5116   -0.2778 H   0  0  0  0  0  0  0  0  0  0  0  0
    0.5685   -0.3863   -0.0428 C   0  0  0  0  0  0  0  0  0  0  0  0
    0.5048    0.3482   -0.8514 H   0  0  0  0  0  0  0  0  0  0  0  0
    0.8007    0.1632    0.8734 H   0  0  0  0  0  0  0  0  0  0  0  0
    1.7768   -1.2878   -0.3542 C   0  0  0  0  0  0  0  0  0  0  0  0
    2.1514   -1.3874   -1.5150 O   0  0  0  0  0  0  0  0  0  0  0  0
    2.5322   -1.8329    0.6662 N   0  0  0  0  0  0  0  0  0  0  0  0
    2.0228   -1.9683    1.5366 H   0  0  0  0  0  0  0  0  0  0  0  0
    3.6421   -2.7378    0.3957 C   0  0  0  0  0  0  0  0  0  0  0  0
    4.3978   -2.2451   -0.2251 H   0  0  0  0  0  0  0  0  0  0  0  0
    4.1151   -3.0445    1.3334 H   0  0  0  0  0  0  0  0  0  0  0  0
    3.2865   -3.6333   -0.1249 H   0  0  0  0  0  0  0  0  0  0  0  0
  1  2  1  0  0  0  0
  2  3  1  0  0  0  0
  2  4  1  0  0  0  0
  2  5  1  0  0  0  0
  5  6  2  0  0  0  0
  5  7  1  0  0  0  0
  7  8  1  0  0  0  0
  7  9  1  0  0  0  0
  9 10  1  0  0  0  0
  9 11  1  0  0  0  0
  9 12  1  0  0  0  0
 12 13  2  0  0  0  0
 12 14  1  0  0  0  0
 14 15  1  0  0  0  0
 14 16  1  0  0  0  0
 16 17  1  0  0  0  0
 16 18  1  0  0  0  0
 16 19  1  0  0  0  0
M  END
$$$$

  -OEChem-01062216083D

 19 18  0     0  0  0  0  0  0999 V2000
   -2.5450   -3.9524    0.2688 H   0  0  0  0  0  0  0  0  0  0  0  0
   -2.4735   -2.8850    0.0409 C   0  0  0  0  0  0  0  0  0  0  0  0
   -3.1812   -2.3429    0.6729 H   0  0  0  0  0  0  0  0  0  0  0  0
   -2.7399   -2.7323   -1.0079 H   0  0  0  0  0  0  0  0  0  0  0  0
   -1.0614   -2.3888    0.2938 C   0  0  0  0  0  0  0  0  0  0  0  0
   -0.2387   -3.1534    0.7682 O   0  0  0  0  0  0  0  0  0  0  0  0
   -0.7701   -1.0512    0.0921 N   0  0  0  0  0  0  0  0  0  0  0  0
   -1.5497   -0.5057   -0.2658 H   0  0  0  0  0  0  0  0  0  0  0  0
    0.5694   -0.4382   -0.0669 C   0  0  0  0  0  0  0  0  0  0  0  0
    0.5101    0.2961   -0.8762 H   0  0  0  0  0  0  0  0  0  0  0  0
    0.7999    0.1110    0.8504 H   0  0  0  0  0  0  0  0  0  0  0  0
    1.7917   -1.3284   -0.3658 C   0  0  0  0  0  0  0  0  0  0  0  0
    2.3508   -1.2055   -1.4475 O   0  0  0  0  0  0  0  0  0  0  0  0
    2.3683   -2.1097    0.6162 N   0  0  0  0  0  0  0  0  0  0  0  0
    1.7056   -2.4275    1.3242 H   0  0  0  0  0  0  0  0  0  0  0  0
    3.5110   -2.9715    0.3415 C   0  0  0  0  0  0  0  0  0  0  0  0
    4.3611   -2.3815   -0.0170 H   0  0  0  0  0  0  0  0  0  0  0  0
    3.8160   -3.4935    1.2534 H   0  0  0  0  0  0  0  0  0  0  0  0
    3.2540   -3.7174   -0.4178 H   0  0  0  0  0  0  0  0  0  0  0  0
  1  2  1  0  0  0  0
  2  3  1  0  0  0  0
  2  4  1  0  0  0  0
  2  5  1  0  0  0  0
  5  6  2  0  0  0  0
  5  7  1  0  0  0  0
  7  8  1  0  0  0  0
  7  9  1  0  0  0  0
  9 10  1  0  0  0  0
  9 11  1  0  0  0  0
  9 12  1  0  0  0  0
 12 13  2  0  0  0  0
 12 14  1  0  0  0  0
 14 15  1  0  0  0  0
 14 16  1  0  0  0  0
 16 17  1  0  0  0  0
 16 18  1  0  0  0  0
 16 19  1  0  0  0  0
M  END
$$$$

  -OEChem-01062216083D

 19 18  0     0  0  0  0  0  0999 V2000
   -2.7118   -3.8965    0.2646 H   0  0  0  0  0  0  0  0  0  0  0  0
   -2.5891   -2.8291    0.0590 C   0  0  0  0  0  0  0  0  0  0  0  0
   -3.2314   -2.2645    0.7394 H   0  0  0  0  0  0  0  0  0  0  0  0
   -2.8984   -2.6335   -0.9708 H   0  0  0  0  0  0  0  0  0  0  0  0
   -1.1399   -2.4206    0.2519 C   0  0  0  0  0  0  0  0  0  0  0  0
   -0.3444   -3.2485    0.6589 O   0  0  0  0  0  0  0  0  0  0  0  0
   -0.7888   -1.0969    0.0526 N   0  0  0  0  0  0  0  0  0  0  0  0
   -1.5624   -0.5061   -0.2406 H   0  0  0  0  0  0  0  0  0  0  0  0
    0.5602   -0.4953   -0.0888 C   0  0  0  0  0  0  0  0  0  0  0  0
    0.5055    0.2423   -0.8956 H   0  0  0  0  0  0  0  0  0  0  0  0
    0.7735    0.0520    0.8337 H   0  0  0  0  0  0  0  0  0  0  0  0
    1.8123   -1.3532   -0.3696 C   0  0  0  0  0  0  0  0  0  0  0  0
    2.5259   -1.0339   -1.3109 O   0  0  0  0  0  0  0  0  0  0  0  0
    2.2381   -2.3503    0.4844 N   0  0  0  0  0  0  0  0  0  0  0  0
    1.4905   -2.7639    1.0459 H   0  0  0  0  0  0  0  0  0  0  0  0
    3.4019   -3.1794    0.1993 C   0  0  0  0  0  0  0  0  0  0  0  0
    4.2985   -2.5599    0.0926 H   0  0  0  0  0  0  0  0  0  0  0  0
    3.5686   -3.8863    1.0175 H   0  0  0  0  0  0  0  0  0  0  0  0
    3.2516   -3.7456   -0.7256 H   0  0  0  0  0  0  0  0  0  0  0  0
  1  2  1  0  0  0  0
  2  3  1  0  0  0  0
  2  4  1  0  0  0  0
  2  5  1  0  0  0  0
  5  6  2  0  0  0  0
  5  7  1  0  0  0  0
  7  8  1  0  0  0  0
  7  9  1  0  0  0  0
  9 10  1  0  0  0  0
  9 11  1  0  0  0  0
  9 12  1  0  0  0  0
 12 13  2  0  0  0  0
 12 14  1  0  0  0  0
 14 15  1  0  0  0  0
 14 16  1  0  0  0  0
 16 17  1  0  0  0  0
 16 18  1  0  0  0  0
 16 19  1  0  0  0  0
M  END
$$$$

  -OEChem-01062216083D

 19 18  0     0  0  0  0  0  0999 V2000
   -2.8550   -3.8391    0.2679 H   0  0  0  0  0  0  0  0  0  0  0  0
   -2.6894   -2.7744    0.0790 C   0  0  0  0  0  0  0  0  0  0  0  0
   -3.2788   -2.1953    0.7940 H   0  0  0  0  0  0  0  0  0  0  0  0
   -3.0266   -2.5426   -0.9343 H   0  0  0  0  0  0  0  0  0  0  0  0
   -1.2165   -2.4377    0.2266 C   0  0  0  0  0  0  0  0  0  0  0  0
   -0.4533   -3.3130    0.5914 O   0  0  0  0  0  0  0  0  0  0  0  0
   -0.8145   -1.1289    0.0230 N   0  0  0  0  0  0  0  0  0  0  0  0
   -1.5776   -0.5065   -0.2291 H   0  0  0  0  0  0  0  0  0  0  0  0
    0.5440   -0.5420   -0.1114 C   0  0  0  0  0  0  0  0  0  0  0  0
    0.4933    0.1939   -0.9200 H   0  0  0  0  0  0  0  0  0  0  0  0
    0.7460    0.0075    0.8121 H   0  0  0  0  0  0  0  0  0  0  0  0
    1.8191   -1.3743   -0.3774 C   0  0  0  0  0  0  0  0  0  0  0  0
    2.6404   -0.9079   -1.1555 O   0  0  0  0  0  0  0  0  0  0  0  0
    2.1325   -2.5465    0.2787 N   0  0  0  0  0  0  0  0  0  0  0  0
    1.3500   -3.0033    0.7527 H   0  0  0  0  0  0  0  0  0  0  0  0
    3.3061   -3.3497   -0.0370 C   0  0  0  0  0  0  0  0  0  0  0  0
    4.2218   -2.7710    0.1215 H   0  0  0  0  0  0  0  0  0  0  0  0
    3.3407   -4.2322    0.6087 H   0  0  0  0  0  0  0  0  0  0  0  0
    3.2742   -3.6827   -1.0794 H   0  0  0  0  0  0  0  0  0  0  0  0
  1  2  1  0  0  0  0
  2  3  1  0  0  0  0
  2  4  1  0  0  0  0
  2  5  1  0  0  0  0
  5  6  2  0  0  0  0
  5  7  1  0  0  0  0
  7  8  1  0  0  0  0
  7  9  1  0  0  0  0
  9 10  1  0  0  0  0
  9 11  1  0  0  0  0
  9 12  1  0  0  0  0
 12 13  2  0  0  0  0
 12 14  1  0  0  0  0
 14 15  1  0  0  0  0
 14 16  1  0  0  0  0
 16 17  1  0  0  0  0
 16 18  1  0  0  0  0
 16 19  1  0  0  0  0
M  END
$$$$

  -OEChem-01062216083D

 19 18  0     0  0  0  0  0  0999 V2000
   -2.9051   -3.8560    0.4670 H   0  0  0  0  0  0  0  0  0  0  0  0
   -2.7424   -2.8004    0.2303 C   0  0  0  0  0  0  0  0  0  0  0  0
   -3.2894   -2.1907    0.9536 H   0  0  0  0  0  0  0  0  0  0  0  0
   -3.1315   -2.6029   -0.7717 H   0  0  0  0  0  0  0  0  0  0  0  0
   -1.2615   -2.4712    0.2870 C   0  0  0  0  0  0  0  0  0  0  0  0
   -0.4870   -3.3436    0.6331 O   0  0  0  0  0  0  0  0  0  0  0  0
   -0.8662   -1.1710    0.0229 N   0  0  0  0  0  0  0  0  0  0  0  0
   -1.6436   -0.5534   -0.1956 H   0  0  0  0  0  0  0  0  0  0  0  0
    0.4793   -0.5761   -0.1931 C   0  0  0  0  0  0  0  0  0  0  0  0
    0.3772    0.1338   -1.0200 H   0  0  0  0  0  0  0  0  0  0  0  0
    0.7106    0.0046    0.7044 H   0  0  0  0  0  0  0  0  0  0  0  0
    1.7702   -1.3749   -0.4932 C   0  0  0  0  0  0  0  0  0  0  0  0
    2.6337   -0.7964   -1.1387 O   0  0  0  0  0  0  0  0  0  0  0  0
    2.0439   -2.6551   -0.0600 N   0  0  0  0  0  0  0  0  0  0  0  0
    1.2805   -3.1527    0.4026 H   0  0  0  0  0  0  0  0  0  0  0  0
    3.2576   -3.3881   -0.3953 C   0  0  0  0  0  0  0  0  0  0  0  0
    4.1439   -2.8316   -0.0730 H   0  0  0  0  0  0  0  0  0  0  0  0
    3.2603   -4.3601    0.1071 H   0  0  0  0  0  0  0  0  0  0  0  0
    3.3180   -3.5549   -1.4757 H   0  0  0  0  0  0  0  0  0  0  0  0
  1  2  1  0  0  0  0
  2  3  1  0  0  0  0
  2  4  1  0  0  0  0
  2  5  1  0  0  0  0
  5  6  2  0  0  0  0
  5  7  1  0  0  0  0
  7  8  1  0  0  0  0
  7  9  1  0  0  0  0
  9 10  1  0  0  0  0
  9 11  1  0  0  0  0
  9 12  1  0  0  0  0
 12 13  2  0  0  0  0
 12 14  1  0  0  0  0
 14 15  1  0  0  0  0
 14 16  1  0  0  0  0
 16 17  1  0  0  0  0
 16 18  1  0  0  0  0
 16 19  1  0  0  0  0
M  END
$$$$

  -OEChem-01062216083D

 19 18  0     0  0  0  0  0  0999 V2000
   -2.2436   -4.3567   -0.0518 H   0  0  0  0  0  0  0  0  0  0  0  0
   -2.2584   -3.2824   -0.2571 C   0  0  0  0  0  0  0  0  0  0  0  0
   -3.1239   -2.8407    0.2430 H   0  0  0  0  0  0  0  0  0  0  0  0
   -2.3525   -3.1338   -1.3355 H   0  0  0  0  0  0  0  0  0  0  0  0
   -0.9817   -2.6355    0.2484 C   0  0  0  0  0  0  0  0  0  0  0  0
   -0.2319   -3.2879    0.9487 O   0  0  0  0  0  0  0  0  0  0  0  0
   -0.7986   -1.2798    0.0558 N   0  0  0  0  0  0  0  0  0  0  0  0
   -1.5845   -0.8338   -0.4085 H   0  0  0  0  0  0  0  0  0  0  0  0
    0.4516   -0.4800    0.0633 C   0  0  0  0  0  0  0  0  0  0  0  0
    0.3657    0.2368   -0.7581 H   0  0  0  0  0  0  0  0  0  0  0  0
    0.4333    0.0929    0.9952 H   0  0  0  0  0  0  0  0  0  0  0  0
    1.9018   -1.0215   -0.0352 C   0  0  0  0  0  0  0  0  0  0  0  0
    2.7926   -0.1902    0.0285 O   0  0  0  0  0  0  0  0  0  0  0  0
    2.4020   -2.2917    0.1163 N   0  0  0  0  0  0  0  0  0  0  0  0
    3.3858   -2.2514    0.3680 H   0  0  0  0  0  0  0  0  0  0  0  0
    2.0719   -3.3322   -0.8497 C   0  0  0  0  0  0  0  0  0  0  0  0
    2.9091   -3.4789   -1.5391 H   0  0  0  0  0  0  0  0  0  0  0  0
    1.8772   -4.2780   -0.3342 H   0  0  0  0  0  0  0  0  0  0  0  0
    1.1897   -3.0687   -1.4410 H   0  0  0  0  0  0  0  0  0  0  0  0
  1  2  1  0  0  0  0
  2  3  1  0  0  0  0
  2  4  1  0  0  0  0
  2  5  1  0  0  0  0
  5  6  2  0  0  0  0
  5  7  1  0  0  0  0
  7  8  1  0  0  0  0
  7  9  1  0  0  0  0
  9 10  1  0  0  0  0
  9 11  1  0  0  0  0
  9 12  1  0  0  0  0
 12 13  2  0  0  0  0
 12 14  1  0  0  0  0
 14 15  1  0  0  0  0
 14 16  1  0  0  0  0
 16 17  1  0  0  0  0
 16 18  1  0  0  0  0
 16 19  1  0  0  0  0
M  END
$$$$

  -OEChem-01062216083D

 19 18  0     0  0  0  0  0  0999 V2000
   -2.5486   -4.1636   -0.1335 H   0  0  0  0  0  0  0  0  0  0  0  0
   -2.4629   -3.0962    0.0892 C   0  0  0  0  0  0  0  0  0  0  0  0
   -2.9948   -2.8876    1.0206 H   0  0  0  0  0  0  0  0  0  0  0  0
   -2.9266   -2.5315   -0.7231 H   0  0  0  0  0  0  0  0  0  0  0  0
   -1.0023   -2.7058    0.2252 C   0  0  0  0  0  0  0  0  0  0  0  0
   -0.1632   -3.5843    0.2414 O   0  0  0  0  0  0  0  0  0  0  0  0
   -0.6910   -1.3944    0.5284 N   0  0  0  0  0  0  0  0  0  0  0  0
   -1.5179   -0.8142    0.6374 H   0  0  0  0  0  0  0  0  0  0  0  0
    0.5528   -0.6310    0.2597 C   0  0  0  0  0  0  0  0  0  0  0  0
    0.2402    0.3663   -0.0640 H   0  0  0  0  0  0  0  0  0  0  0  0
    1.0548   -0.5138    1.2242 H   0  0  0  0  0  0  0  0  0  0  0  0
    1.6745   -1.0480   -0.7252 C   0  0  0  0  0  0  0  0  0  0  0  0
    2.3858   -0.1511   -1.1482 O   0  0  0  0  0  0  0  0  0  0  0  0
    1.7575   -2.1615   -1.5239 N   0  0  0  0  0  0  0  0  0  0  0  0
    2.1523   -1.8891   -2.4199 H   0  0  0  0  0  0  0  0  0  0  0  0
    2.4316   -3.3301   -0.9689 C   0  0  0  0  0  0  0  0  0  0  0  0
    3.4803   -3.3405   -1.2816 H   0  0  0  0  0  0  0  0  0  0  0  0
    2.4043   -3.3297    0.1263 H   0  0  0  0  0  0  0  0  0  0  0  0
    1.9517   -4.2468   -1.3260 H   0  0  0  0  0  0  0  0  0  0  0  0
  1  2  1  0  0  0  0
  2  3  1  0  0  0  0
  2  4  1  0  0  0  0
  2  5  1  0  0  0  0
  5  6  2  0  0  0  0
  5  7  1  0  0  0  0
  7  8  1  0  0  0  0
  7  9  1  0  0  0  0
  9 10  1  0  0  0  0
  9 11  1  0  0  0  0
  9 12  1  0  0  0  0
 12 13  2  0  0  0  0
 12 14  1  0  0  0  0
 14 15  1  0  0  0  0
 14 16  1  0  0  0  0
 16 17  1  0  0  0  0
 16 18  1  0  0  0  0
 16 19  1  0  0  0  0
M  END
$$$$

  -OEChem-01062216083D

 19 18  0     0  0  0  0  0  0999 V2000
   -2.9916   -3.7523   -0.0109 H   0  0  0  0  0  0  0  0  0  0  0  0
   -2.7742   -2.6810    0.0292 C   0  0  0  0  0  0  0  0  0  0  0  0
   -3.2466   -2.2612    0.9206 H   0  0  0  0  0  0  0  0  0  0  0  0
   -3.1972   -2.2044   -0.8585 H   0  0  0  0  0  0  0  0  0  0  0  0
   -1.2746   -2.4504    0.0780 C   0  0  0  0  0  0  0  0  0  0  0  0
   -0.5356   -3.4173    0.1055 O   0  0  0  0  0  0  0  0  0  0  0  0
   -0.8079   -1.1493    0.1435 N   0  0  0  0  0  0  0  0  0  0  0  0
   -1.5461   -0.4504    0.1580 H   0  0  0  0  0  0  0  0  0  0  0  0
    0.5753   -0.6089    0.0859 C   0  0  0  0  0  0  0  0  0  0  0  0
    0.5422    0.2797   -0.5506 H   0  0  0  0  0  0  0  0  0  0  0  0
    0.8235   -0.2756    1.0981 H   0  0  0  0  0  0  0  0  0  0  0  0
    1.8113   -1.4017   -0.3970 C   0  0  0  0  0  0  0  0  0  0  0  0
    2.8998   -0.8641   -0.2453 O   0  0  0  0  0  0  0  0  0  0  0  0
    1.7630   -2.5864   -1.1036 N   0  0  0  0  0  0  0  0  0  0  0  0
    0.8961   -3.1158   -0.9973 H   0  0  0  0  0  0  0  0  0  0  0  0
    2.9570   -3.3147   -1.5136 C   0  0  0  0  0  0  0  0  0  0  0  0
    3.5663   -2.7039   -2.1878 H   0  0  0  0  0  0  0  0  0  0  0  0
    3.5601   -3.5863   -0.6412 H   0  0  0  0  0  0  0  0  0  0  0  0
    2.6752   -4.2317   -2.0399 H   0  0  0  0  0  0  0  0  0  0  0  0
  1  2  1  0  0  0  0
  2  3  1  0  0  0  0
  2  4  1  0  0  0  0
  2  5  1  0  0  0  0
  5  6  2  0  0  0  0
  5  7  1  0  0  0  0
  7  8  1  0  0  0  0
  7  9  1  0  0  0  0
  9 10  1  0  0  0  0
  9 11  1  0  0  0  0
  9 12  1  0  0  0  0
 12 13  2  0  0  0  0
 12 14  1  0  0  0  0
 14 15  1  0  0  0  0
 14 16  1  0  0  0  0
 16 17  1  0  0  0  0
 16 18  1  0  0  0  0
 16 19  1  0  0  0  0
M  END
$$$$

  -OEChem-01062216083D

 19 18  0     0  0  0  0  0  0999 V2000
   -2.9080   -3.7995   -0.0207 H   0  0  0  0  0  0  0  0  0  0  0  0
   -2.7193   -2.7251    0.0608 C   0  0  0  0  0  0  0  0  0  0  0  0
   -3.1298   -2.3688    1.0089 H   0  0  0  0  0  0  0  0  0  0  0  0
   -3.2264   -2.2167   -0.7628 H   0  0  0  0  0  0  0  0  0  0  0  0
   -1.2277   -2.4483    0.0037 C   0  0  0  0  0  0  0  0  0  0  0  0
   -0.4619   -3.3880   -0.1081 O   0  0  0  0  0  0  0  0  0  0  0  0
   -0.7917   -1.1375    0.0915 N   0  0  0  0  0  0  0  0  0  0  0  0
   -1.5388   -0.4580    0.2075 H   0  0  0  0  0  0  0  0  0  0  0  0
    0.5849   -0.5802    0.0609 C   0  0  0  0  0  0  0  0  0  0  0  0
    0.5582    0.3116   -0.5714 H   0  0  0  0  0  0  0  0  0  0  0  0
    0.8192   -0.2526    1.0786 H   0  0  0  0  0  0  0  0  0  0  0  0
    1.8178   -1.3785   -0.4157 C   0  0  0  0  0  0  0  0  0  0  0  0
    2.9166   -0.9758   -0.0580 O   0  0  0  0  0  0  0  0  0  0  0  0
    1.7555   -2.3762   -1.3683 N   0  0  0  0  0  0  0  0  0  0  0  0
    0.8593   -2.8646   -1.3953 H   0  0  0  0  0  0  0  0  0  0  0  0
    2.9341   -3.1207   -1.7935 C   0  0  0  0  0  0  0  0  0  0  0  0
    3.6784   -2.4459   -2.2292 H   0  0  0  0  0  0  0  0  0  0  0  0
    3.3854   -3.6426   -0.9431 H   0  0  0  0  0  0  0  0  0  0  0  0
    2.6578   -3.8616   -2.5497 H   0  0  0  0  0  0  0  0  0  0  0  0
  1  2  1  0  0  0  0
  2  3  1  0  0  0  0
  2  4  1  0  0  0  0
  2  5  1  0  0  0  0
  5  6  2  0  0  0  0
  5  7  1  0  0  0  0
  7  8  1  0  0  0  0
  7  9  1  0  0  0  0
  9 10  1  0  0  0  0
  9 11  1  0  0  0  0
  9 12  1  0  0  0  0
 12 13  2  0  0  0  0
 12 14  1  0  0  0  0
 14 15  1  0  0  0  0
 14 16  1  0  0  0  0
 16 17  1  0  0  0  0
 16 18  1  0  0  0  0
 16 19  1  0  0  0  0
M  END
$$$$

  -OEChem-01062216083D

 19 18  0     0  0  0  0  0  0999 V2000
   -2.8083   -3.8482   -0.0591 H   0  0  0  0  0  0  0  0  0  0  0  0
   -2.6498   -2.7737    0.0713 C   0  0  0  0  0  0  0  0  0  0  0  0
   -2.9993   -2.4868    1.0661 H   0  0  0  0  0  0  0  0  0  0  0  0
   -3.2336   -2.2386   -0.6817 H   0  0  0  0  0  0  0  0  0  0  0  0
   -1.1769   -2.4387   -0.0782 C   0  0  0  0  0  0  0  0  0  0  0  0
   -0.3910   -3.3376   -0.3156 O   0  0  0  0  0  0  0  0  0  0  0  0
   -0.7801   -1.1172    0.0324 N   0  0  0  0  0  0  0  0  0  0  0  0
   -1.5342   -0.4682    0.2413 H   0  0  0  0  0  0  0  0  0  0  0  0
    0.5894   -0.5461    0.0426 C   0  0  0  0  0  0  0  0  0  0  0  0
    0.5784    0.3486   -0.5860 H   0  0  0  0  0  0  0  0  0  0  0  0
    0.8002   -0.2236    1.0669 H   0  0  0  0  0  0  0  0  0  0  0  0
    1.8171   -1.3606   -0.4130 C   0  0  0  0  0  0  0  0  0  0  0  0
    2.8868   -1.1373    0.1378 O   0  0  0  0  0  0  0  0  0  0  0  0
    1.7991   -2.1246   -1.5639 N   0  0  0  0  0  0  0  0  0  0  0  0
    0.8850   -2.5278   -1.7667 H   0  0  0  0  0  0  0  0  0  0  0  0
    2.9671   -2.8776   -2.0034 C   0  0  0  0  0  0  0  0  0  0  0  0
    3.8131   -2.2058   -2.1825 H   0  0  0  0  0  0  0  0  0  0  0  0
    3.2547   -3.6137   -1.2453 H   0  0  0  0  0  0  0  0  0  0  0  0
    2.7458   -3.4059   -2.9355 H   0  0  0  0  0  0  0  0  0  0  0  0
  1  2  1  0  0  0  0
  2  3  1  0  0  0  0
  2  4  1  0  0  0  0
  2  5  1  0  0  0  0
  5  6  2  0  0  0  0
  5  7  1  0  0  0  0
  7  8  1  0  0  0  0
  7  9  1  0  0  0  0
  9 10  1  0  0  0  0
  9 11  1  0  0  0  0
  9 12  1  0  0  0  0
 12 13  2  0  0  0  0
 12 14  1  0  0  0  0
 14 15  1  0  0  0  0
 14 16  1  0  0  0  0
 16 17  1  0  0  0  0
 16 18  1  0  0  0  0
 16 19  1  0  0  0  0
M  END
$$$$

  -OEChem-01062216083D

 19 18  0     0  0  0  0  0  0999 V2000
   -2.7011   -3.8930   -0.1359 H   0  0  0  0  0  0  0  0  0  0  0  0
   -2.5707   -2.8250    0.0612 C   0  0  0  0  0  0  0  0  0  0  0  0
   -2.8799   -2.6178    1.0886 H   0  0  0  0  0  0  0  0  0  0  0  0
   -3.2075   -2.2618   -0.6251 H   0  0  0  0  0  0  0  0  0  0  0  0
   -1.1177   -2.4296   -0.1319 C   0  0  0  0  0  0  0  0  0  0  0  0
   -0.3095   -3.2879   -0.4355 O   0  0  0  0  0  0  0  0  0  0  0  0
   -0.7662   -1.0962   -0.0062 N   0  0  0  0  0  0  0  0  0  0  0  0
   -1.5312   -0.4809    0.2570 H   0  0  0  0  0  0  0  0  0  0  0  0
    0.5927   -0.5045    0.0333 C   0  0  0  0  0  0  0  0  0  0  0  0
    0.5890    0.3937   -0.5903 H   0  0  0  0  0  0  0  0  0  0  0  0
    0.7865   -0.1876    1.0628 H   0  0  0  0  0  0  0  0  0  0  0  0
    1.8147   -1.3306   -0.4091 C   0  0  0  0  0  0  0  0  0  0  0  0
    2.8094   -1.3320    0.3038 O   0  0  0  0  0  0  0  0  0  0  0  0
    1.8965   -1.8321   -1.6944 N   0  0  0  0  0  0  0  0  0  0  0  0
    0.9954   -2.0437   -2.1150 H   0  0  0  0  0  0  0  0  0  0  0  0
    3.0400   -2.6207   -2.1353 C   0  0  0  0  0  0  0  0  0  0  0  0
    3.9607   -2.0313   -2.0732 H   0  0  0  0  0  0  0  0  0  0  0  0
    3.1505   -3.5148   -1.5125 H   0  0  0  0  0  0  0  0  0  0  0  0
    2.9031   -2.9352   -3.1743 H   0  0  0  0  0  0  0  0  0  0  0  0
  1  2  1  0  0  0  0
  2  3  1  0  0  0  0
  2  4  1  0  0  0  0
  2  5  1  0  0  0  0
  5  6  2  0  0  0  0
  5  7  1  0  0  0  0
  7  8  1  0  0  0  0
  7  9  1  0  0  0  0
  9 10  1  0  0  0  0
  9 11  1  0  0  0  0
  9 12  1  0  0  0  0
 12 13  2  0  0  0  0
 12 14  1  0  0  0  0
 14 15  1  0  0  0  0
 14 16  1  0  0  0  0
 16 17  1  0  0  0  0
 16 18  1  0  0  0  0
 16 19  1  0  0  0  0
M  END
$$$$

  -OEChem-01062216083D

 19 18  0     0  0  0  0  0  0999 V2000
   -2.6199   -3.9377   -0.1001 H   0  0  0  0  0  0  0  0  0  0  0  0
   -2.5214   -2.8592    0.0547 C   0  0  0  0  0  0  0  0  0  0  0  0
   -2.8331   -2.6223    1.0750 H   0  0  0  0  0  0  0  0  0  0  0  0
   -3.1773   -2.3421   -0.6498 H   0  0  0  0  0  0  0  0  0  0  0  0
   -1.0819   -2.4280   -0.1617 C   0  0  0  0  0  0  0  0  0  0  0  0
   -0.2633   -3.2620   -0.5038 O   0  0  0  0  0  0  0  0  0  0  0  0
   -0.7599   -1.0872   -0.0311 N   0  0  0  0  0  0  0  0  0  0  0  0
   -1.5306   -0.4956    0.2670 H   0  0  0  0  0  0  0  0  0  0  0  0
    0.5910   -0.4814    0.0250 C   0  0  0  0  0  0  0  0  0  0  0  0
    0.5896    0.4184   -0.5961 H   0  0  0  0  0  0  0  0  0  0  0  0
    0.7753   -0.1650    1.0563 H   0  0  0  0  0  0  0  0  0  0  0  0
    1.8118   -1.3130   -0.4066 C   0  0  0  0  0  0  0  0  0  0  0  0
    2.6905   -1.5454    0.4130 O   0  0  0  0  0  0  0  0  0  0  0  0
    2.0478   -1.5498   -1.7479 N   0  0  0  0  0  0  0  0  0  0  0  0
    1.2249   -1.5237   -2.3423 H   0  0  0  0  0  0  0  0  0  0  0  0
    3.1853   -2.3410   -2.1998 C   0  0  0  0  0  0  0  0  0  0  0  0
    4.1257   -1.8924   -1.8624 H   0  0  0  0  0  0  0  0  0  0  0  0
    3.1202   -3.3612   -1.8067 H   0  0  0  0  0  0  0  0  0  0  0  0
    3.2014   -2.3888   -3.2928 H   0  0  0  0  0  0  0  0  0  0  0  0
  1  2  1  0  0  0  0
  2  3  1  0  0  0  0
  2  4  1  0  0  0  0
  2  5  1  0  0  0  0
  5  6  2  0  0  0  0
  5  7  1  0  0  0  0
  7  8  1  0  0  0  0
  7  9  1  0  0  0  0
  9 10  1  0  0  0  0
  9 11  1  0  0  0  0
  9 12  1  0  0  0  0
 12 13  2  0  0  0  0
 12 14  1  0  0  0  0
 14 15  1  0  0  0  0
 14 16  1  0  0  0  0
 16 17  1  0  0  0  0
 16 18  1  0  0  0  0
 16 19  1  0  0  0  0
M  END
$$$$

  -OEChem-01062216083D

 19 18  0     0  0  0  0  0  0999 V2000
   -2.4714   -4.0106    0.2200 H   0  0  0  0  0  0  0  0  0  0  0  0
   -2.4258   -2.9191    0.2740 C   0  0  0  0  0  0  0  0  0  0  0  0
   -2.6690   -2.6088    1.2931 H   0  0  0  0  0  0  0  0  0  0  0  0
   -3.1652   -2.5025   -0.4142 H   0  0  0  0  0  0  0  0  0  0  0  0
   -1.0358   -2.4342   -0.0973 C   0  0  0  0  0  0  0  0  0  0  0  0
   -0.1938   -3.2529   -0.4192 O   0  0  0  0  0  0  0  0  0  0  0  0
   -0.7946   -1.0708   -0.1430 N   0  0  0  0  0  0  0  0  0  0  0  0
   -1.5843   -0.4974    0.1402 H   0  0  0  0  0  0  0  0  0  0  0  0
    0.5227   -0.3944   -0.1762 C   0  0  0  0  0  0  0  0  0  0  0  0
    0.4732    0.4199   -0.9038 H   0  0  0  0  0  0  0  0  0  0  0  0
    0.6939    0.0584    0.8055 H   0  0  0  0  0  0  0  0  0  0  0  0
    1.7819   -1.2156   -0.5059 C   0  0  0  0  0  0  0  0  0  0  0  0
    2.5498   -1.5108    0.4001 O   0  0  0  0  0  0  0  0  0  0  0  0
    2.1957   -1.3517   -1.8182 N   0  0  0  0  0  0  0  0  0  0  0  0
    1.4786   -1.2272   -2.5258 H   0  0  0  0  0  0  0  0  0  0  0  0
    3.3896   -2.1070   -2.1772 C   0  0  0  0  0  0  0  0  0  0  0  0
    3.2944   -3.1489   -1.8533 H   0  0  0  0  0  0  0  0  0  0  0  0
    3.5355   -2.0912   -3.2614 H   0  0  0  0  0  0  0  0  0  0  0  0
    4.2763   -1.6709   -1.7052 H   0  0  0  0  0  0  0  0  0  0  0  0
  1  2  1  0  0  0  0
  2  3  1  0  0  0  0
  2  4  1  0  0  0  0
  2  5  1  0  0  0  0
  5  6  2  0  0  0  0
  5  7  1  0  0  0  0
  7  8  1  0  0  0  0
  7  9  1  0  0  0  0
  9 10  1  0  0  0  0
  9 11  1  0  0  0  0
  9 12  1  0  0  0  0
 12 13  2  0  0  0  0
 12 14  1  0  0  0  0
 14 15  1  0  0  0  0
 14 16  1  0  0  0  0
 16 17  1  0  0  0  0
 16 18  1  0  0  0  0
 16 19  1  0  0  0  0
M  END
$$$$

  -OEChem-01062216083D

 19 18  0     0  0  0  0  0  0999 V2000
   -2.4684   -4.0167    0.2331 H   0  0  0  0  0  0  0  0  0  0  0  0
   -2.4197   -2.9251    0.2866 C   0  0  0  0  0  0  0  0  0  0  0  0
   -2.6297   -2.6157    1.3133 H   0  0  0  0  0  0  0  0  0  0  0  0
   -3.1801   -2.5067   -0.3774 H   0  0  0  0  0  0  0  0  0  0  0  0
   -1.0419   -2.4412   -0.1290 C   0  0  0  0  0  0  0  0  0  0  0  0
   -0.2226   -3.2577   -0.5097 O   0  0  0  0  0  0  0  0  0  0  0  0
   -0.7995   -1.0777   -0.1731 N   0  0  0  0  0  0  0  0  0  0  0  0
   -1.5804   -0.5100    0.1434 H   0  0  0  0  0  0  0  0  0  0  0  0
    0.5206   -0.4067   -0.1916 C   0  0  0  0  0  0  0  0  0  0  0  0
    0.4789    0.4091   -0.9180 H   0  0  0  0  0  0  0  0  0  0  0  0
    0.6840    0.0450    0.7914 H   0  0  0  0  0  0  0  0  0  0  0  0
    1.7826   -1.2305   -0.5049 C   0  0  0  0  0  0  0  0  0  0  0  0
    2.4111   -1.7236    0.4223 O   0  0  0  0  0  0  0  0  0  0  0  0
    2.3892   -1.1209   -1.7430 N   0  0  0  0  0  0  0  0  0  0  0  0
    1.8054   -0.7945   -2.5064 H   0  0  0  0  0  0  0  0  0  0  0  0
    3.6238   -1.8241   -2.0691 C   0  0  0  0  0  0  0  0  0  0  0  0
    3.4843   -2.9061   -1.9721 H   0  0  0  0  0  0  0  0  0  0  0  0
    3.9246   -1.6027   -3.0974 H   0  0  0  0  0  0  0  0  0  0  0  0
    4.4321   -1.5116   -1.3996 H   0  0  0  0  0  0  0  0  0  0  0  0
  1  2  1  0  0  0  0
  2  3  1  0  0  0  0
  2  4  1  0  0  0  0
  2  5  1  0  0  0  0
  5  6  2  0  0  0  0
  5  7  1  0  0  0  0
  7  8  1  0  0  0  0
  7  9  1  0  0  0  0
  9 10  1  0  0  0  0
  9 11  1  0  0  0  0
  9 12  1  0  0  0  0
 12 13  2  0  0  0  0
 12 14  1  0  0  0  0
 14 15  1  0  0  0  0
 14 16  1  0  0  0  0
 16 17  1  0  0  0  0
 16 18  1  0  0  0  0
 16 19  1  0  0  0  0
M  END
$$$$

  -OEChem-01062216083D

 19 18  0     0  0  0  0  0  0999 V2000
   -2.4636   -4.0176    0.2331 H   0  0  0  0  0  0  0  0  0  0  0  0
   -2.3998   -2.9291    0.3211 C   0  0  0  0  0  0  0  0  0  0  0  0
   -2.5279   -2.6548    1.3711 H   0  0  0  0  0  0  0  0  0  0  0  0
   -3.2033   -2.4812   -0.2684 H   0  0  0  0  0  0  0  0  0  0  0  0
   -1.0522   -2.4424   -0.1804 C   0  0  0  0  0  0  0  0  0  0  0  0
   -0.2703   -3.2522   -0.6452 O   0  0  0  0  0  0  0  0  0  0  0  0
   -0.8152   -1.0791   -0.2422 N   0  0  0  0  0  0  0  0  0  0  0  0
   -1.5846   -0.5188    0.1128 H   0  0  0  0  0  0  0  0  0  0  0  0
    0.5072   -0.4123   -0.2440 C   0  0  0  0  0  0  0  0  0  0  0  0
    0.4773    0.3902   -0.9854 H   0  0  0  0  0  0  0  0  0  0  0  0
    0.6514    0.0560    0.7340 H   0  0  0  0  0  0  0  0  0  0  0  0
    1.7792   -1.2375   -0.5146 C   0  0  0  0  0  0  0  0  0  0  0  0
    2.2608   -1.8938    0.3993 O   0  0  0  0  0  0  0  0  0  0  0  0
    2.5833   -0.9269   -1.5970 N   0  0  0  0  0  0  0  0  0  0  0  0
    2.1462   -0.4251   -2.3633 H   0  0  0  0  0  0  0  0  0  0  0  0
    3.8557   -1.5953   -1.8436 C   0  0  0  0  0  0  0  0  0  0  0  0
    3.7017   -2.6705   -1.9828 H   0  0  0  0  0  0  0  0  0  0  0  0
    4.3272   -1.1919   -2.7446 H   0  0  0  0  0  0  0  0  0  0  0  0
    4.5395   -1.4435   -1.0017 H   0  0  0  0  0  0  0  0  0  0  0  0
  1  2  1  0  0  0  0
  2  3  1  0  0  0  0
  2  4  1  0  0  0  0
  2  5  1  0  0  0  0
  5  6  2  0  0  0  0
  5  7  1  0  0  0  0
  7  8  1  0  0  0  0
  7  9  1  0  0  0  0
  9 10  1  0  0  0  0
  9 11  1  0  0  0  0
  9 12  1  0  0  0  0
 12 13  2  0  0  0  0
 12 14  1  0  0  0  0
 14 15  1  0  0  0  0
 14 16  1  0  0  0  0
 16 17  1  0  0  0  0
 16 18  1  0  0  0  0
 16 19  1  0  0  0  0
M  END
$$$$

  -OEChem-01062216083D

 19 18  0     0  0  0  0  0  0999 V2000
   -2.4241   -4.0167    0.2978 H   0  0  0  0  0  0  0  0  0  0  0  0
   -2.3634   -2.9268    0.3678 C   0  0  0  0  0  0  0  0  0  0  0  0
   -2.4042   -2.6416    1.4217 H   0  0  0  0  0  0  0  0  0  0  0  0
   -3.2176   -2.4921   -0.1565 H   0  0  0  0  0  0  0  0  0  0  0  0
   -1.0675   -2.4356   -0.2510 C   0  0  0  0  0  0  0  0  0  0  0  0
   -0.3560   -3.2311   -0.8381 O   0  0  0  0  0  0  0  0  0  0  0  0
   -0.8299   -1.0733   -0.3213 N   0  0  0  0  0  0  0  0  0  0  0  0
   -1.5791   -0.5218    0.0862 H   0  0  0  0  0  0  0  0  0  0  0  0
    0.5004   -0.4221   -0.3014 C   0  0  0  0  0  0  0  0  0  0  0  0
    0.4903    0.3685   -1.0560 H   0  0  0  0  0  0  0  0  0  0  0  0
    0.6284    0.0593    0.6723 H   0  0  0  0  0  0  0  0  0  0  0  0
    1.7750   -1.2564   -0.5347 C   0  0  0  0  0  0  0  0  0  0  0  0
    2.1128   -2.0704    0.3144 O   0  0  0  0  0  0  0  0  0  0  0  0
    2.7524   -0.7804   -1.3914 N   0  0  0  0  0  0  0  0  0  0  0  0
    2.4628   -0.1114   -2.0974 H   0  0  0  0  0  0  0  0  0  0  0  0
    4.0530   -1.4244   -1.5374 C   0  0  0  0  0  0  0  0  0  0  0  0
    3.9322   -2.4549   -1.8882 H   0  0  0  0  0  0  0  0  0  0  0  0
    4.6658   -0.8797   -2.2617 H   0  0  0  0  0  0  0  0  0  0  0  0
    4.5849   -1.4382   -0.5803 H   0  0  0  0  0  0  0  0  0  0  0  0
  1  2  1  0  0  0  0
  2  3  1  0  0  0  0
  2  4  1  0  0  0  0
  2  5  1  0  0  0  0
  5  6  2  0  0  0  0
  5  7  1  0  0  0  0
  7  8  1  0  0  0  0
  7  9  1  0  0  0  0
  9 10  1  0  0  0  0
  9 11  1  0  0  0  0
  9 12  1  0  0  0  0
 12 13  2  0  0  0  0
 12 14  1  0  0  0  0
 14 15  1  0  0  0  0
 14 16  1  0  0  0  0
 16 17  1  0  0  0  0
 16 18  1  0  0  0  0
 16 19  1  0  0  0  0
M  END
$$$$

  -OEChem-01062216083D

 19 18  0     0  0  0  0  0  0999 V2000
   -2.3774   -4.0080    0.4018 H   0  0  0  0  0  0  0  0  0  0  0  0
   -2.3361   -2.9149    0.4086 C   0  0  0  0  0  0  0  0  0  0  0  0
   -2.3255   -2.5727    1.4462 H   0  0  0  0  0  0  0  0  0  0  0  0
   -3.2262   -2.5246   -0.0907 H   0  0  0  0  0  0  0  0  0  0  0  0
   -1.0861   -2.4373   -0.3075 C   0  0  0  0  0  0  0  0  0  0  0  0
   -0.4569   -3.2283   -0.9876 O   0  0  0  0  0  0  0  0  0  0  0  0
   -0.8339   -1.0793   -0.3953 N   0  0  0  0  0  0  0  0  0  0  0  0
   -1.5637   -0.5244    0.0414 H   0  0  0  0  0  0  0  0  0  0  0  0
    0.5066   -0.4493   -0.3636 C   0  0  0  0  0  0  0  0  0  0  0  0
    0.5155    0.3242   -1.1356 H   0  0  0  0  0  0  0  0  0  0  0  0
    0.6215    0.0508    0.6021 H   0  0  0  0  0  0  0  0  0  0  0  0
    1.7861   -1.2885   -0.5596 C   0  0  0  0  0  0  0  0  0  0  0  0
    2.0045   -2.2419    0.1751 O   0  0  0  0  0  0  0  0  0  0  0  0
    2.8892   -0.6878   -1.1423 N   0  0  0  0  0  0  0  0  0  0  0  0
    2.7259    0.1338   -1.7150 H   0  0  0  0  0  0  0  0  0  0  0  0
    4.2103   -1.3065   -1.1718 C   0  0  0  0  0  0  0  0  0  0  0  0
    4.1636   -2.2872   -1.6571 H   0  0  0  0  0  0  0  0  0  0  0  0
    4.9104   -0.6774   -1.7297 H   0  0  0  0  0  0  0  0  0  0  0  0
    4.5966   -1.4349   -0.1551 H   0  0  0  0  0  0  0  0  0  0  0  0
  1  2  1  0  0  0  0
  2  3  1  0  0  0  0
  2  4  1  0  0  0  0
  2  5  1  0  0  0  0
  5  6  2  0  0  0  0
  5  7  1  0  0  0  0
  7  8  1  0  0  0  0
  7  9  1  0  0  0  0
  9 10  1  0  0  0  0
  9 11  1  0  0  0  0
  9 12  1  0  0  0  0
 12 13  2  0  0  0  0
 12 14  1  0  0  0  0
 14 15  1  0  0  0  0
 14 16  1  0  0  0  0
 16 17  1  0  0  0  0
 16 18  1  0  0  0  0
 16 19  1  0  0  0  0
M  END
$$$$

  -OEChem-01062216083D

 19 18  0     0  0  0  0  0  0999 V2000
   -2.3692   -3.9751   -0.1534 H   0  0  0  0  0  0  0  0  0  0  0  0
   -2.2721   -2.8961   -0.3032 C   0  0  0  0  0  0  0  0  0  0  0  0
   -3.1541   -2.4011    0.1099 H   0  0  0  0  0  0  0  0  0  0  0  0
   -2.2153   -2.6961   -1.3758 H   0  0  0  0  0  0  0  0  0  0  0  0
   -1.0181   -2.3869    0.3833 C   0  0  0  0  0  0  0  0  0  0  0  0
   -0.4155   -3.1158    1.1539 O   0  0  0  0  0  0  0  0  0  0  0  0
   -0.7282   -1.0347    0.3708 N   0  0  0  0  0  0  0  0  0  0  0  0
   -1.4409   -0.4986   -0.1144 H   0  0  0  0  0  0  0  0  0  0  0  0
    0.6374   -0.4744    0.2438 C   0  0  0  0  0  0  0  0  0  0  0  0
    0.5773    0.3810   -0.4341 H   0  0  0  0  0  0  0  0  0  0  0  0
    0.9165   -0.0923    1.2297 H   0  0  0  0  0  0  0  0  0  0  0  0
    1.8357   -1.3294   -0.2371 C   0  0  0  0  0  0  0  0  0  0  0  0
    1.7157   -2.4644   -0.6732 O   0  0  0  0  0  0  0  0  0  0  0  0
    2.9823   -0.6518   -0.6172 N   0  0  0  0  0  0  0  0  0  0  0  0
    3.0768    0.3150   -0.3230 H   0  0  0  0  0  0  0  0  0  0  0  0
    4.1120   -1.2913   -1.2843 C   0  0  0  0  0  0  0  0  0  0  0  0
    4.4777   -2.1377   -0.6933 H   0  0  0  0  0  0  0  0  0  0  0  0
    3.8171   -1.6541   -2.2745 H   0  0  0  0  0  0  0  0  0  0  0  0
    4.9320   -0.5774   -1.4080 H   0  0  0  0  0  0  0  0  0  0  0  0
  1  2  1  0  0  0  0
  2  3  1  0  0  0  0
  2  4  1  0  0  0  0
  2  5  1  0  0  0  0
  5  6  2  0  0  0  0
  5  7  1  0  0  0  0
  7  8  1  0  0  0  0
  7  9  1  0  0  0  0
  9 10  1  0  0  0  0
  9 11  1  0  0  0  0
  9 12  1  0  0  0  0
 12 13  2  0  0  0  0
 12 14  1  0  0  0  0
 14 15  1  0  0  0  0
 14 16  1  0  0  0  0
 16 17  1  0  0  0  0
 16 18  1  0  0  0  0
 16 19  1  0  0  0  0
M  END
$$$$

  -OEChem-01062216083D

 19 18  0     0  0  0  0  0  0999 V2000
   -2.2818   -3.9918   -0.0924 H   0  0  0  0  0  0  0  0  0  0  0  0
   -2.2327   -2.9124   -0.2607 C   0  0  0  0  0  0  0  0  0  0  0  0
   -3.0964   -2.4412    0.2139 H   0  0  0  0  0  0  0  0  0  0  0  0
   -2.2648   -2.7237   -1.3366 H   0  0  0  0  0  0  0  0  0  0  0  0
   -0.9476   -2.3523    0.3198 C   0  0  0  0  0  0  0  0  0  0  0  0
   -0.1757   -3.0859    0.9184 O   0  0  0  0  0  0  0  0  0  0  0  0
   -0.7291   -0.9861    0.3299 N   0  0  0  0  0  0  0  0  0  0  0  0
   -1.4628   -0.4645   -0.1402 H   0  0  0  0  0  0  0  0  0  0  0  0
    0.6257   -0.4049    0.2178 C   0  0  0  0  0  0  0  0  0  0  0  0
    0.5394    0.5914   -0.2237 H   0  0  0  0  0  0  0  0  0  0  0  0
    1.0167   -0.2825    1.2319 H   0  0  0  0  0  0  0  0  0  0  0  0
    1.6988   -1.1701   -0.5891 C   0  0  0  0  0  0  0  0  0  0  0  0
    1.3850   -1.9975   -1.4359 O   0  0  0  0  0  0  0  0  0  0  0  0
    2.9648   -0.6196   -0.6830 N   0  0  0  0  0  0  0  0  0  0  0  0
    3.2185    0.0910   -0.0037 H   0  0  0  0  0  0  0  0  0  0  0  0
    4.0024   -1.1490   -1.5610 C   0  0  0  0  0  0  0  0  0  0  0  0
    4.2171   -2.1939   -1.3128 H   0  0  0  0  0  0  0  0  0  0  0  0
    3.6851   -1.0933   -2.6077 H   0  0  0  0  0  0  0  0  0  0  0  0
    4.9239   -0.5698   -1.4496 H   0  0  0  0  0  0  0  0  0  0  0  0
  1  2  1  0  0  0  0
  2  3  1  0  0  0  0
  2  4  1  0  0  0  0
  2  5  1  0  0  0  0
  5  6  2  0  0  0  0
  5  7  1  0  0  0  0
  7  8  1  0  0  0  0
  7  9  1  0  0  0  0
  9 10  1  0  0  0  0
  9 11  1  0  0  0  0
  9 12  1  0  0  0  0
 12 13  2  0  0  0  0
 12 14  1  0  0  0  0
 14 15  1  0  0  0  0
 14 16  1  0  0  0  0
 16 17  1  0  0  0  0
 16 18  1  0  0  0  0
 16 19  1  0  0  0  0
M  END
$$$$

  -OEChem-01062216083D

 19 18  0     0  0  0  0  0  0999 V2000
   -2.2417   -4.0104   -0.0887 H   0  0  0  0  0  0  0  0  0  0  0  0
   -2.2208   -2.9291   -0.2517 C   0  0  0  0  0  0  0  0  0  0  0  0
   -3.0806   -2.4799    0.2505 H   0  0  0  0  0  0  0  0  0  0  0  0
   -2.2882   -2.7352   -1.3250 H   0  0  0  0  0  0  0  0  0  0  0  0
   -0.9321   -2.3445    0.2957 C   0  0  0  0  0  0  0  0  0  0  0  0
   -0.1196   -3.0697    0.8496 O   0  0  0  0  0  0  0  0  0  0  0  0
   -0.7436   -0.9736    0.3099 N   0  0  0  0  0  0  0  0  0  0  0  0
   -1.4874   -0.4614   -0.1549 H   0  0  0  0  0  0  0  0  0  0  0  0
    0.6009   -0.3676    0.2136 C   0  0  0  0  0  0  0  0  0  0  0  0
    0.5111    0.6265   -0.2321 H   0  0  0  0  0  0  0  0  0  0  0  0
    0.9807   -0.2394    1.2311 H   0  0  0  0  0  0  0  0  0  0  0  0
    1.6758   -1.1336   -0.5860 C   0  0  0  0  0  0  0  0  0  0  0  0
    1.3576   -1.7962   -1.5664 O   0  0  0  0  0  0  0  0  0  0  0  0
    3.0054   -0.7797   -0.4429 N   0  0  0  0  0  0  0  0  0  0  0  0
    3.2582   -0.2379    0.3776 H   0  0  0  0  0  0  0  0  0  0  0  0
    4.0711   -1.3680   -1.2460 C   0  0  0  0  0  0  0  0  0  0  0  0
    4.0898   -2.4557   -1.1196 H   0  0  0  0  0  0  0  0  0  0  0  0
    3.9233   -1.1390   -2.3066 H   0  0  0  0  0  0  0  0  0  0  0  0
    5.0416   -0.9667   -0.9392 H   0  0  0  0  0  0  0  0  0  0  0  0
  1  2  1  0  0  0  0
  2  3  1  0  0  0  0
  2  4  1  0  0  0  0
  2  5  1  0  0  0  0
  5  6  2  0  0  0  0
  5  7  1  0  0  0  0
  7  8  1  0  0  0  0
  7  9  1  0  0  0  0
  9 10  1  0  0  0  0
  9 11  1  0  0  0  0
  9 12  1  0  0  0  0
 12 13  2  0  0  0  0
 12 14  1  0  0  0  0
 14 15  1  0  0  0  0
 14 16  1  0  0  0  0
 16 17  1  0  0  0  0
 16 18  1  0  0  0  0
 16 19  1  0  0  0  0
M  END
$$$$

  -OEChem-01062216083D

 19 18  0     0  0  0  0  0  0999 V2000
   -2.2036   -4.0222   -0.1330 H   0  0  0  0  0  0  0  0  0  0  0  0
   -2.2248   -2.9334   -0.2347 C   0  0  0  0  0  0  0  0  0  0  0  0
   -3.0672   -2.5416    0.3402 H   0  0  0  0  0  0  0  0  0  0  0  0
   -2.3612   -2.6829   -1.2896 H   0  0  0  0  0  0  0  0  0  0  0  0
   -0.9248   -2.3371    0.2723 C   0  0  0  0  0  0  0  0  0  0  0  0
   -0.0866   -3.0575    0.7930 O   0  0  0  0  0  0  0  0  0  0  0  0
   -0.7495   -0.9644    0.2742 N   0  0  0  0  0  0  0  0  0  0  0  0
   -1.5012   -0.4575   -0.1838 H   0  0  0  0  0  0  0  0  0  0  0  0
    0.5868   -0.3402    0.1931 C   0  0  0  0  0  0  0  0  0  0  0  0
    0.4942    0.6445   -0.2725 H   0  0  0  0  0  0  0  0  0  0  0  0
    0.9501   -0.1889    1.2132 H   0  0  0  0  0  0  0  0  0  0  0  0
    1.6709   -1.1143   -0.5826 C   0  0  0  0  0  0  0  0  0  0  0  0
    1.3911   -1.6262   -1.6600 O   0  0  0  0  0  0  0  0  0  0  0  0
    3.0008   -0.9892   -0.2252 N   0  0  0  0  0  0  0  0  0  0  0  0
    3.1992   -0.6210    0.6999 H   0  0  0  0  0  0  0  0  0  0  0  0
    4.0787   -1.6379   -0.9622 C   0  0  0  0  0  0  0  0  0  0  0  0
    3.9443   -2.7246   -0.9601 H   0  0  0  0  0  0  0  0  0  0  0  0
    4.0994   -1.2874   -1.9995 H   0  0  0  0  0  0  0  0  0  0  0  0
    5.0441   -1.4066   -0.5022 H   0  0  0  0  0  0  0  0  0  0  0  0
  1  2  1  0  0  0  0
  2  3  1  0  0  0  0
  2  4  1  0  0  0  0
  2  5  1  0  0  0  0
  5  6  2  0  0  0  0
  5  7  1  0  0  0  0
  7  8  1  0  0  0  0
  7  9  1  0  0  0  0
  9 10  1  0  0  0  0
  9 11  1  0  0  0  0
  9 12  1  0  0  0  0
 12 13  2  0  0  0  0
 12 14  1  0  0  0  0
 14 15  1  0  0  0  0
 14 16  1  0  0  0  0
 16 17  1  0  0  0  0
 16 18  1  0  0  0  0
 16 19  1  0  0  0  0
M  END
$$$$

  -OEChem-01062216083D

 19 18  0     0  0  0  0  0  0999 V2000
   -2.1357   -4.0729    0.2661 H   0  0  0  0  0  0  0  0  0  0  0  0
   -2.1739   -3.0199   -0.0272 C   0  0  0  0  0  0  0  0  0  0  0  0
   -3.0203   -2.5455    0.4748 H   0  0  0  0  0  0  0  0  0  0  0  0
   -2.3189   -2.9613   -1.1088 H   0  0  0  0  0  0  0  0  0  0  0  0
   -0.8819   -2.3233    0.3574 C   0  0  0  0  0  0  0  0  0  0  0  0
    0.0061   -2.9522    0.9128 O   0  0  0  0  0  0  0  0  0  0  0  0
   -0.7625   -0.9545    0.1929 N   0  0  0  0  0  0  0  0  0  0  0  0
   -1.5452   -0.5288   -0.2952 H   0  0  0  0  0  0  0  0  0  0  0  0
    0.5427   -0.2848    0.0244 C   0  0  0  0  0  0  0  0  0  0  0  0
    0.4049    0.6288   -0.5600 H   0  0  0  0  0  0  0  0  0  0  0  0
    0.9056    0.0105    1.0126 H   0  0  0  0  0  0  0  0  0  0  0  0
    1.6472   -1.1081   -0.6639 C   0  0  0  0  0  0  0  0  0  0  0  0
    1.4254   -1.5967   -1.7650 O   0  0  0  0  0  0  0  0  0  0  0  0
    2.9307   -1.1324   -0.1510 N   0  0  0  0  0  0  0  0  0  0  0  0
    3.0433   -0.8310    0.8121 H   0  0  0  0  0  0  0  0  0  0  0  0
    3.9992   -1.9145   -0.7602 C   0  0  0  0  0  0  0  0  0  0  0  0
    4.1865   -1.5755   -1.7846 H   0  0  0  0  0  0  0  0  0  0  0  0
    4.9242   -1.8028   -0.1864 H   0  0  0  0  0  0  0  0  0  0  0  0
    3.7305   -2.9760   -0.7835 H   0  0  0  0  0  0  0  0  0  0  0  0
  1  2  1  0  0  0  0
  2  3  1  0  0  0  0
  2  4  1  0  0  0  0
  2  5  1  0  0  0  0
  5  6  2  0  0  0  0
  5  7  1  0  0  0  0
  7  8  1  0  0  0  0
  7  9  1  0  0  0  0
  9 10  1  0  0  0  0
  9 11  1  0  0  0  0
  9 12  1  0  0  0  0
 12 13  2  0  0  0  0
 12 14  1  0  0  0  0
 14 15  1  0  0  0  0
 14 16  1  0  0  0  0
 16 17  1  0  0  0  0
 16 18  1  0  0  0  0
 16 19  1  0  0  0  0
M  END
$$$$

  -OEChem-01062216083D

 19 18  0     0  0  0  0  0  0999 V2000
   -2.1205   -4.0797    0.2233 H   0  0  0  0  0  0  0  0  0  0  0  0
   -2.1803   -3.0136   -0.0138 C   0  0  0  0  0  0  0  0  0  0  0  0
   -3.0046   -2.5726    0.5515 H   0  0  0  0  0  0  0  0  0  0  0  0
   -2.3784   -2.9027   -1.0827 H   0  0  0  0  0  0  0  0  0  0  0  0
   -0.8761   -2.3248    0.3432 C   0  0  0  0  0  0  0  0  0  0  0  0
    0.0251   -2.9629    0.8658 O   0  0  0  0  0  0  0  0  0  0  0  0
   -0.7547   -0.9564    0.1795 N   0  0  0  0  0  0  0  0  0  0  0  0
   -1.5458   -0.5219   -0.2873 H   0  0  0  0  0  0  0  0  0  0  0  0
    0.5471   -0.2798    0.0137 C   0  0  0  0  0  0  0  0  0  0  0  0
    0.4063    0.6312   -0.5746 H   0  0  0  0  0  0  0  0  0  0  0  0
    0.9090    0.0227    1.0001 H   0  0  0  0  0  0  0  0  0  0  0  0
    1.6519   -1.1024   -0.6730 C   0  0  0  0  0  0  0  0  0  0  0  0
    1.5159   -1.4026   -1.8522 O   0  0  0  0  0  0  0  0  0  0  0  0
    2.8368   -1.3833   -0.0195 N   0  0  0  0  0  0  0  0  0  0  0  0
    2.8162   -1.2997    0.9927 H   0  0  0  0  0  0  0  0  0  0  0  0
    3.8675   -2.2249   -0.6144 C   0  0  0  0  0  0  0  0  0  0  0  0
    4.1994   -1.8089   -1.5714 H   0  0  0  0  0  0  0  0  0  0  0  0
    4.7339   -2.2879    0.0508 H   0  0  0  0  0  0  0  0  0  0  0  0
    3.4838   -3.2364   -0.7841 H   0  0  0  0  0  0  0  0  0  0  0  0
  1  2  1  0  0  0  0
  2  3  1  0  0  0  0
  2  4  1  0  0  0  0
  2  5  1  0  0  0  0
  5  6  2  0  0  0  0
  5  7  1  0  0  0  0
  7  8  1  0  0  0  0
  7  9  1  0  0  0  0
  9 10  1  0  0  0  0
  9 11  1  0  0  0  0
  9 12  1  0  0  0  0
 12 13  2  0  0  0  0
 12 14  1  0  0  0  0
 14 15  1  0  0  0  0
 14 16  1  0  0  0  0
 16 17  1  0  0  0  0
 16 18  1  0  0  0  0
 16 19  1  0  0  0  0
M  END
$$$$

  -OEChem-01062216083D

 19 18  0     0  0  0  0  0  0999 V2000
   -2.1866   -4.0584    0.2830 H   0  0  0  0  0  0  0  0  0  0  0  0
   -2.2220   -2.9986    0.0153 C   0  0  0  0  0  0  0  0  0  0  0  0
   -3.0203   -2.5181    0.5859 H   0  0  0  0  0  0  0  0  0  0  0  0
   -2.4421   -2.9135   -1.0517 H   0  0  0  0  0  0  0  0  0  0  0  0
   -0.8913   -2.3373    0.3228 C   0  0  0  0  0  0  0  0  0  0  0  0
    0.0128   -2.9951    0.8146 O   0  0  0  0  0  0  0  0  0  0  0  0
   -0.7483   -0.9720    0.1515 N   0  0  0  0  0  0  0  0  0  0  0  0
   -1.5453   -0.5170   -0.2852 H   0  0  0  0  0  0  0  0  0  0  0  0
    0.5557   -0.2981   -0.0103 C   0  0  0  0  0  0  0  0  0  0  0  0
    0.4159    0.6095   -0.6047 H   0  0  0  0  0  0  0  0  0  0  0  0
    0.9139    0.0122    0.9752 H   0  0  0  0  0  0  0  0  0  0  0  0
    1.6679   -1.1199   -0.6849 C   0  0  0  0  0  0  0  0  0  0  0  0
    1.6808   -1.2006   -1.9061 O   0  0  0  0  0  0  0  0  0  0  0  0
    2.7022   -1.6559    0.0579 N   0  0  0  0  0  0  0  0  0  0  0  0
    2.4948   -1.7944    1.0439 H   0  0  0  0  0  0  0  0  0  0  0  0
    3.7191   -2.5093   -0.5434 C   0  0  0  0  0  0  0  0  0  0  0  0
    4.2522   -1.9722   -1.3349 H   0  0  0  0  0  0  0  0  0  0  0  0
    4.4474   -2.8186    0.2122 H   0  0  0  0  0  0  0  0  0  0  0  0
    3.2606   -3.4064   -0.9726 H   0  0  0  0  0  0  0  0  0  0  0  0
  1  2  1  0  0  0  0
  2  3  1  0  0  0  0
  2  4  1  0  0  0  0
  2  5  1  0  0  0  0
  5  6  2  0  0  0  0
  5  7  1  0  0  0  0
  7  8  1  0  0  0  0
  7  9  1  0  0  0  0
  9 10  1  0  0  0  0
  9 11  1  0  0  0  0
  9 12  1  0  0  0  0
 12 13  2  0  0  0  0
 12 14  1  0  0  0  0
 14 15  1  0  0  0  0
 14 16  1  0  0  0  0
 16 17  1  0  0  0  0
 16 18  1  0  0  0  0
 16 19  1  0  0  0  0
M  END
$$$$

  -OEChem-01062216083D

 19 18  0     0  0  0  0  0  0999 V2000
   -2.2754   -4.0341    0.3057 H   0  0  0  0  0  0  0  0  0  0  0  0
   -2.2862   -2.9732    0.0395 C   0  0  0  0  0  0  0  0  0  0  0  0
   -3.0583   -2.4712    0.6276 H   0  0  0  0  0  0  0  0  0  0  0  0
   -2.5273   -2.8808   -1.0224 H   0  0  0  0  0  0  0  0  0  0  0  0
   -0.9306   -2.3502    0.3192 C   0  0  0  0  0  0  0  0  0  0  0  0
   -0.0398   -3.0328    0.8008 O   0  0  0  0  0  0  0  0  0  0  0  0
   -0.7498   -0.9916    0.1333 N   0  0  0  0  0  0  0  0  0  0  0  0
   -1.5475   -0.5118   -0.2752 H   0  0  0  0  0  0  0  0  0  0  0  0
    0.5621   -0.3322   -0.0351 C   0  0  0  0  0  0  0  0  0  0  0  0
    0.4264    0.5740   -0.6330 H   0  0  0  0  0  0  0  0  0  0  0  0
    0.9223   -0.0176    0.9483 H   0  0  0  0  0  0  0  0  0  0  0  0
    1.6816   -1.1537   -0.6992 C   0  0  0  0  0  0  0  0  0  0  0  0
    1.8814   -1.0117   -1.8981 O   0  0  0  0  0  0  0  0  0  0  0  0
    2.5343   -1.9336    0.0569 N   0  0  0  0  0  0  0  0  0  0  0  0
    2.1263   -2.2629    0.9315 H   0  0  0  0  0  0  0  0  0  0  0  0
    3.5635   -2.7643   -0.5548 C   0  0  0  0  0  0  0  0  0  0  0  0
    4.2397   -2.1544   -1.1630 H   0  0  0  0  0  0  0  0  0  0  0  0
    4.1542   -3.2626    0.2197 H   0  0  0  0  0  0  0  0  0  0  0  0
    3.1087   -3.5290   -1.1929 H   0  0  0  0  0  0  0  0  0  0  0  0
  1  2  1  0  0  0  0
  2  3  1  0  0  0  0
  2  4  1  0  0  0  0
  2  5  1  0  0  0  0
  5  6  2  0  0  0  0
  5  7  1  0  0  0  0
  7  8  1  0  0  0  0
  7  9  1  0  0  0  0
  9 10  1  0  0  0  0
  9 11  1  0  0  0  0
  9 12  1  0  0  0  0
 12 13  2  0  0  0  0
 12 14  1  0  0  0  0
 14 15  1  0  0  0  0
 14 16  1  0  0  0  0
 16 17  1  0  0  0  0
 16 18  1  0  0  0  0
 16 19  1  0  0  0  0
M  END
$$$$

  -OEChem-01062216083D

 19 18  0     0  0  0  0  0  0999 V2000
   -2.4055   -4.0014    0.3178 H   0  0  0  0  0  0  0  0  0  0  0  0
   -2.3787   -2.9380    0.0628 C   0  0  0  0  0  0  0  0  0  0  0  0
   -3.1114   -2.4106    0.6784 H   0  0  0  0  0  0  0  0  0  0  0  0
   -2.6468   -2.8236   -0.9904 H   0  0  0  0  0  0  0  0  0  0  0  0
   -0.9906   -2.3754    0.3086 C   0  0  0  0  0  0  0  0  0  0  0  0
   -0.1247   -3.0985    0.7739 O   0  0  0  0  0  0  0  0  0  0  0  0
   -0.7597   -1.0262    0.1102 N   0  0  0  0  0  0  0  0  0  0  0  0
   -1.5564   -0.5143   -0.2594 H   0  0  0  0  0  0  0  0  0  0  0  0
    0.5597   -0.3776   -0.0605 C   0  0  0  0  0  0  0  0  0  0  0  0
    0.4225    0.5283   -0.6590 H   0  0  0  0  0  0  0  0  0  0  0  0
    0.9136   -0.0601    0.9245 H   0  0  0  0  0  0  0  0  0  0  0  0
    1.7037   -1.1799   -0.7110 C   0  0  0  0  0  0  0  0  0  0  0  0
    2.0854   -0.8501   -1.8257 O   0  0  0  0  0  0  0  0  0  0  0  0
    2.3750   -2.1734   -0.0274 N   0  0  0  0  0  0  0  0  0  0  0  0
    1.8303   -2.5993    0.7257 H   0  0  0  0  0  0  0  0  0  0  0  0
    3.4105   -2.9861   -0.6522 C   0  0  0  0  0  0  0  0  0  0  0  0
    4.2184   -2.3531   -1.0342 H   0  0  0  0  0  0  0  0  0  0  0  0
    3.8352   -3.6808    0.0787 H   0  0  0  0  0  0  0  0  0  0  0  0
    2.9932   -3.5654   -1.4824 H   0  0  0  0  0  0  0  0  0  0  0  0
  1  2  1  0  0  0  0
  2  3  1  0  0  0  0
  2  4  1  0  0  0  0
  2  5  1  0  0  0  0
  5  6  2  0  0  0  0
  5  7  1  0  0  0  0
  7  8  1  0  0  0  0
  7  9  1  0  0  0  0
  9 10  1  0  0  0  0
  9 11  1  0  0  0  0
  9 12  1  0  0  0  0
 12 13  2  0  0  0  0
 12 14  1  0  0  0  0
 14 15  1  0  0  0  0
 14 16  1  0  0  0  0
 16 17  1  0  0  0  0
 16 18  1  0  0  0  0
 16 19  1  0  0  0  0
M  END
$$$$

  -OEChem-01062216083D

 19 18  0     0  0  0  0  0  0999 V2000
   -2.5439   -3.9610    0.3287 H   0  0  0  0  0  0  0  0  0  0  0  0
   -2.4786   -2.8955    0.0902 C   0  0  0  0  0  0  0  0  0  0  0  0
   -3.1702   -2.3482    0.7353 H   0  0  0  0  0  0  0  0  0  0  0  0
   -2.7712   -2.7513   -0.9527 H   0  0  0  0  0  0  0  0  0  0  0  0
   -1.0614   -2.3967    0.3050 C   0  0  0  0  0  0  0  0  0  0  0  0
   -0.2249   -3.1605    0.7558 O   0  0  0  0  0  0  0  0  0  0  0  0
   -0.7790   -1.0595    0.0928 N   0  0  0  0  0  0  0  0  0  0  0  0
   -1.5715   -0.5184   -0.2430 H   0  0  0  0  0  0  0  0  0  0  0  0
    0.5483   -0.4238   -0.0837 C   0  0  0  0  0  0  0  0  0  0  0  0
    0.4084    0.4810   -0.6831 H   0  0  0  0  0  0  0  0  0  0  0  0
    0.8958   -0.1033    0.9025 H   0  0  0  0  0  0  0  0  0  0  0  0
    1.7168   -1.2050   -0.7221 C   0  0  0  0  0  0  0  0  0  0  0  0
    2.2556   -0.7231   -1.7091 O   0  0  0  0  0  0  0  0  0  0  0  0
    2.2239   -2.3737   -0.1920 N   0  0  0  0  0  0  0  0  0  0  0  0
    1.6132   -2.8452    0.4799 H   0  0  0  0  0  0  0  0  0  0  0  0
    3.2627   -3.1592   -0.8450 C   0  0  0  0  0  0  0  0  0  0  0  0
    4.1621   -2.5544   -1.0014 H   0  0  0  0  0  0  0  0  0  0  0  0
    3.5311   -4.0182   -0.2226 H   0  0  0  0  0  0  0  0  0  0  0  0
    2.9116   -3.5274   -1.8144 H   0  0  0  0  0  0  0  0  0  0  0  0
  1  2  1  0  0  0  0
  2  3  1  0  0  0  0
  2  4  1  0  0  0  0
  2  5  1  0  0  0  0
  5  6  2  0  0  0  0
  5  7  1  0  0  0  0
  7  8  1  0  0  0  0
  7  9  1  0  0  0  0
  9 10  1  0  0  0  0
  9 11  1  0  0  0  0
  9 12  1  0  0  0  0
 12 13  2  0  0  0  0
 12 14  1  0  0  0  0
 14 15  1  0  0  0  0
 14 16  1  0  0  0  0
 16 17  1  0  0  0  0
 16 18  1  0  0  0  0
 16 19  1  0  0  0  0
M  END
$$$$

  -OEChem-01062216083D

 19 18  0     0  0  0  0  0  0999 V2000
   -2.6798   -3.9079    0.3897 H   0  0  0  0  0  0  0  0  0  0  0  0
   -2.5769   -2.8462    0.1472 C   0  0  0  0  0  0  0  0  0  0  0  0
   -3.2156   -2.2691    0.8204 H   0  0  0  0  0  0  0  0  0  0  0  0
   -2.9069   -2.6887   -0.8826 H   0  0  0  0  0  0  0  0  0  0  0  0
   -1.1310   -2.4109    0.3015 C   0  0  0  0  0  0  0  0  0  0  0  0
   -0.3136   -3.2152    0.7140 O   0  0  0  0  0  0  0  0  0  0  0  0
   -0.8042   -1.0850    0.0814 N   0  0  0  0  0  0  0  0  0  0  0  0
   -1.5932   -0.5100   -0.2027 H   0  0  0  0  0  0  0  0  0  0  0  0
    0.5315   -0.4696   -0.1164 C   0  0  0  0  0  0  0  0  0  0  0  0
    0.3882    0.4378   -0.7112 H   0  0  0  0  0  0  0  0  0  0  0  0
    0.8913   -0.1539    0.8669 H   0  0  0  0  0  0  0  0  0  0  0  0
    1.7048   -1.2371   -0.7675 C   0  0  0  0  0  0  0  0  0  0  0  0
    2.3841   -0.6351   -1.5877 O   0  0  0  0  0  0  0  0  0  0  0  0
    2.0566   -2.5344   -0.4587 N   0  0  0  0  0  0  0  0  0  0  0  0
    1.4188   -3.0431    0.1581 H   0  0  0  0  0  0  0  0  0  0  0  0
    3.1372   -3.2624   -1.1099 C   0  0  0  0  0  0  0  0  0  0  0  0
    4.0933   -2.7539   -0.9486 H   0  0  0  0  0  0  0  0  0  0  0  0
    3.2105   -4.2737   -0.6988 H   0  0  0  0  0  0  0  0  0  0  0  0
    2.9539   -3.3380   -2.1866 H   0  0  0  0  0  0  0  0  0  0  0  0
  1  2  1  0  0  0  0
  2  3  1  0  0  0  0
  2  4  1  0  0  0  0
  2  5  1  0  0  0  0
  5  6  2  0  0  0  0
  5  7  1  0  0  0  0
  7  8  1  0  0  0  0
  7  9  1  0  0  0  0
  9 10  1  0  0  0  0
  9 11  1  0  0  0  0
  9 12  1  0  0  0  0
 12 13  2  0  0  0  0
 12 14  1  0  0  0  0
 14 15  1  0  0  0  0
 14 16  1  0  0  0  0
 16 17  1  0  0  0  0
 16 18  1  0  0  0  0
 16 19  1  0  0  0  0
M  END
$$$$

  -OEChem-01062216083D

 19 18  0     0  0  0  0  0  0999 V2000
   -2.2494   -3.0987   -1.4673 H   0  0  0  0  0  0  0  0  0  0  0  0
   -2.1835   -3.2329   -0.3849 C   0  0  0  0  0  0  0  0  0  0  0  0
   -3.0671   -2.7942    0.0853 H   0  0  0  0  0  0  0  0  0  0  0  0
   -2.1635   -4.3042   -0.1648 H   0  0  0  0  0  0  0  0  0  0  0  0
   -0.9278   -2.5662    0.1467 C   0  0  0  0  0  0  0  0  0  0  0  0
   -0.1583   -3.2111    0.8345 O   0  0  0  0  0  0  0  0  0  0  0  0
   -0.7676   -1.2040   -0.0104 N   0  0  0  0  0  0  0  0  0  0  0  0
   -1.5378   -0.7548   -0.4978 H   0  0  0  0  0  0  0  0  0  0  0  0
    0.4877   -0.4189    0.0491 C   0  0  0  0  0  0  0  0  0  0  0  0
    0.3273    0.4815   -0.5507 H   0  0  0  0  0  0  0  0  0  0  0  0
    0.5959   -0.0962    1.0888 H   0  0  0  0  0  0  0  0  0  0  0  0
    1.8910   -0.9412   -0.3552 C   0  0  0  0  0  0  0  0  0  0  0  0
    2.7743   -0.1038   -0.4381 O   0  0  0  0  0  0  0  0  0  0  0  0
    2.4212   -2.2087   -0.3153 N   0  0  0  0  0  0  0  0  0  0  0  0
    3.4333   -2.1559   -0.2371 H   0  0  0  0  0  0  0  0  0  0  0  0
    1.9500   -3.2416   -1.2291 C   0  0  0  0  0  0  0  0  0  0  0  0
    2.7099   -3.4363   -1.9922 H   0  0  0  0  0  0  0  0  0  0  0  0
    1.7612   -4.1721   -0.6842 H   0  0  0  0  0  0  0  0  0  0  0  0
    1.0310   -2.9398   -1.7404 H   0  0  0  0  0  0  0  0  0  0  0  0
  1  2  1  0  0  0  0
  2  3  1  0  0  0  0
  2  4  1  0  0  0  0
  2  5  1  0  0  0  0
  5  6  2  0  0  0  0
  5  7  1  0  0  0  0
  7  8  1  0  0  0  0
  7  9  1  0  0  0  0
  9 10  1  0  0  0  0
  9 11  1  0  0  0  0
  9 12  1  0  0  0  0
 12 13  2  0  0  0  0
 12 14  1  0  0  0  0
 14 15  1  0  0  0  0
 14 16  1  0  0  0  0
 16 17  1  0  0  0  0
 16 18  1  0  0  0  0
 16 19  1  0  0  0  0
M  END
$$$$

  -OEChem-01062216083D

 19 18  0     0  0  0  0  0  0999 V2000
   -2.4680   -4.0698   -0.2295 H   0  0  0  0  0  0  0  0  0  0  0  0
   -2.3817   -2.9919   -0.0652 C   0  0  0  0  0  0  0  0  0  0  0  0
   -2.9948   -2.7172    0.7965 H   0  0  0  0  0  0  0  0  0  0  0  0
   -2.7540   -2.4720   -0.9512 H   0  0  0  0  0  0  0  0  0  0  0  0
   -0.9327   -2.6157    0.1855 C   0  0  0  0  0  0  0  0  0  0  0  0
   -0.1078   -3.4974    0.3334 O   0  0  0  0  0  0  0  0  0  0  0  0
   -0.6138   -1.3024    0.4650 N   0  0  0  0  0  0  0  0  0  0  0  0
   -1.4285   -0.6951    0.4642 H   0  0  0  0  0  0  0  0  0  0  0  0
    0.6623   -0.6024    0.1867 C   0  0  0  0  0  0  0  0  0  0  0  0
    0.4318    0.4631    0.0935 H   0  0  0  0  0  0  0  0  0  0  0  0
    1.2841   -0.7163    1.0791 H   0  0  0  0  0  0  0  0  0  0  0  0
    1.5856   -0.9538   -1.0079 C   0  0  0  0  0  0  0  0  0  0  0  0
    2.1320   -0.0191   -1.5701 O   0  0  0  0  0  0  0  0  0  0  0  0
    1.5812   -2.0694   -1.8095 N   0  0  0  0  0  0  0  0  0  0  0  0
    1.8916   -1.8059   -2.7412 H   0  0  0  0  0  0  0  0  0  0  0  0
    2.2336   -3.2784   -1.3198 C   0  0  0  0  0  0  0  0  0  0  0  0
    3.2119   -3.3934   -1.7966 H   0  0  0  0  0  0  0  0  0  0  0  0
    2.3895   -3.2429   -0.2361 H   0  0  0  0  0  0  0  0  0  0  0  0
    1.6269   -4.1583   -1.5564 H   0  0  0  0  0  0  0  0  0  0  0  0
  1  2  1  0  0  0  0
  2  3  1  0  0  0  0
  2  4  1  0  0  0  0
  2  5  1  0  0  0  0
  5  6  2  0  0  0  0
  5  7  1  0  0  0  0
  7  8  1  0  0  0  0
  7  9  1  0  0  0  0
  9 10  1  0  0  0  0
  9 11  1  0  0  0  0
  9 12  1  0  0  0  0
 12 13  2  0  0  0  0
 12 14  1  0  0  0  0
 14 15  1  0  0  0  0
 14 16  1  0  0  0  0
 16 17  1  0  0  0  0
 16 18  1  0  0  0  0
 16 19  1  0  0  0  0
M  END
$$$$

  -OEChem-01062216083D

 19 18  0     0  0  0  0  0  0999 V2000
   -2.8740   -3.8031    0.1204 H   0  0  0  0  0  0  0  0  0  0  0  0
   -2.6967   -2.7242    0.0903 C   0  0  0  0  0  0  0  0  0  0  0  0
   -3.1964   -2.2635    0.9458 H   0  0  0  0  0  0  0  0  0  0  0  0
   -3.1243   -2.3239   -0.8322 H   0  0  0  0  0  0  0  0  0  0  0  0
   -1.2077   -2.4349    0.1404 C   0  0  0  0  0  0  0  0  0  0  0  0
   -0.4258   -3.3661    0.2184 O   0  0  0  0  0  0  0  0  0  0  0  0
   -0.7821   -1.1193    0.1601 N   0  0  0  0  0  0  0  0  0  0  0  0
   -1.5336   -0.4353    0.1326 H   0  0  0  0  0  0  0  0  0  0  0  0
    0.5933   -0.5724    0.0521 C   0  0  0  0  0  0  0  0  0  0  0  0
    0.5105    0.4325   -0.3717 H   0  0  0  0  0  0  0  0  0  0  0  0
    0.9760   -0.4644    1.0711 H   0  0  0  0  0  0  0  0  0  0  0  0
    1.7189   -1.2692   -0.7453 C   0  0  0  0  0  0  0  0  0  0  0  0
    2.7740   -0.6599   -0.8543 O   0  0  0  0  0  0  0  0  0  0  0  0
    1.5753   -2.4570   -1.4343 N   0  0  0  0  0  0  0  0  0  0  0  0
    0.7998   -3.0435   -1.1217 H   0  0  0  0  0  0  0  0  0  0  0  0
    2.6784   -3.1034   -2.1339 C   0  0  0  0  0  0  0  0  0  0  0  0
    3.0748   -2.4468   -2.9152 H   0  0  0  0  0  0  0  0  0  0  0  0
    3.4852   -3.3480   -1.4353 H   0  0  0  0  0  0  0  0  0  0  0  0
    2.3338   -4.0288   -2.6049 H   0  0  0  0  0  0  0  0  0  0  0  0
  1  2  1  0  0  0  0
  2  3  1  0  0  0  0
  2  4  1  0  0  0  0
  2  5  1  0  0  0  0
  5  6  2  0  0  0  0
  5  7  1  0  0  0  0
  7  8  1  0  0  0  0
  7  9  1  0  0  0  0
  9 10  1  0  0  0  0
  9 11  1  0  0  0  0
  9 12  1  0  0  0  0
 12 13  2  0  0  0  0
 12 14  1  0  0  0  0
 14 15  1  0  0  0  0
 14 16  1  0  0  0  0
 16 17  1  0  0  0  0
 16 18  1  0  0  0  0
 16 19  1  0  0  0  0
M  END
$$$$

  -OEChem-01062216083D

 19 18  0     0  0  0  0  0  0999 V2000
   -2.8259   -3.8286    0.0706 H   0  0  0  0  0  0  0  0  0  0  0  0
   -2.6663   -2.7474    0.1163 C   0  0  0  0  0  0  0  0  0  0  0  0
   -3.1012   -2.3679    1.0441 H   0  0  0  0  0  0  0  0  0  0  0  0
   -3.1722   -2.2821   -0.7331 H   0  0  0  0  0  0  0  0  0  0  0  0
   -1.1819   -2.4345    0.0729 C   0  0  0  0  0  0  0  0  0  0  0  0
   -0.3843   -3.3537    0.0187 O   0  0  0  0  0  0  0  0  0  0  0  0
   -0.7726   -1.1142    0.1197 N   0  0  0  0  0  0  0  0  0  0  0  0
   -1.5275   -0.4368    0.1900 H   0  0  0  0  0  0  0  0  0  0  0  0
    0.6007   -0.5587    0.0372 C   0  0  0  0  0  0  0  0  0  0  0  0
    0.5227    0.4501   -0.3776 H   0  0  0  0  0  0  0  0  0  0  0  0
    0.9747   -0.4627    1.0610 H   0  0  0  0  0  0  0  0  0  0  0  0
    1.7247   -1.2530   -0.7613 C   0  0  0  0  0  0  0  0  0  0  0  0
    2.8461   -0.7708   -0.6800 O   0  0  0  0  0  0  0  0  0  0  0  0
    1.4973   -2.2509   -1.6889 N   0  0  0  0  0  0  0  0  0  0  0  0
    0.6603   -2.8046   -1.5033 H   0  0  0  0  0  0  0  0  0  0  0  0
    2.5815   -2.8994   -2.4154 C   0  0  0  0  0  0  0  0  0  0  0  0
    3.1154   -2.1725   -3.0364 H   0  0  0  0  0  0  0  0  0  0  0  0
    3.2911   -3.3570   -1.7182 H   0  0  0  0  0  0  0  0  0  0  0  0
    2.1818   -3.6816   -3.0677 H   0  0  0  0  0  0  0  0  0  0  0  0
  1  2  1  0  0  0  0
  2  3  1  0  0  0  0
  2  4  1  0  0  0  0
  2  5  1  0  0  0  0
  5  6  2  0  0  0  0
  5  7  1  0  0  0  0
  7  8  1  0  0  0  0
  7  9  1  0  0  0  0
  9 10  1  0  0  0  0
  9 11  1  0  0  0  0
  9 12  1  0  0  0  0
 12 13  2  0  0  0  0
 12 14  1  0  0  0  0
 14 15  1  0  0  0  0
 14 16  1  0  0  0  0
 16 17  1  0  0  0  0
 16 18  1  0  0  0  0
 16 19  1  0  0  0  0
M  END
$$$$

  -OEChem-01062216083D

 19 18  0     0  0  0  0  0  0999 V2000
   -2.7631   -3.8611    0.0440 H   0  0  0  0  0  0  0  0  0  0  0  0
   -2.6227   -2.7796    0.1299 C   0  0  0  0  0  0  0  0  0  0  0  0
   -2.9915   -2.4553    1.1062 H   0  0  0  0  0  0  0  0  0  0  0  0
   -3.2028   -2.2867   -0.6541 H   0  0  0  0  0  0  0  0  0  0  0  0
   -1.1527   -2.4286   -0.0117 C   0  0  0  0  0  0  0  0  0  0  0  0
   -0.3445   -3.3207   -0.1954 O   0  0  0  0  0  0  0  0  0  0  0  0
   -0.7689   -1.1015    0.0615 N   0  0  0  0  0  0  0  0  0  0  0  0
   -1.5247   -0.4453    0.2396 H   0  0  0  0  0  0  0  0  0  0  0  0
    0.6013   -0.5360    0.0191 C   0  0  0  0  0  0  0  0  0  0  0  0
    0.5330    0.4746   -0.3924 H   0  0  0  0  0  0  0  0  0  0  0  0
    0.9538   -0.4469    1.0512 H   0  0  0  0  0  0  0  0  0  0  0  0
    1.7293   -1.2351   -0.7656 C   0  0  0  0  0  0  0  0  0  0  0  0
    2.8829   -0.9287   -0.4969 O   0  0  0  0  0  0  0  0  0  0  0  0
    1.4798   -1.9920   -1.8942 N   0  0  0  0  0  0  0  0  0  0  0  0
    0.5744   -2.4590   -1.8782 H   0  0  0  0  0  0  0  0  0  0  0  0
    2.5517   -2.6455   -2.6346 C   0  0  0  0  0  0  0  0  0  0  0  0
    3.2560   -1.9040   -3.0259 H   0  0  0  0  0  0  0  0  0  0  0  0
    3.0955   -3.3414   -1.9871 H   0  0  0  0  0  0  0  0  0  0  0  0
    2.1388   -3.2060   -3.4785 H   0  0  0  0  0  0  0  0  0  0  0  0
  1  2  1  0  0  0  0
  2  3  1  0  0  0  0
  2  4  1  0  0  0  0
  2  5  1  0  0  0  0
  5  6  2  0  0  0  0
  5  7  1  0  0  0  0
  7  8  1  0  0  0  0
  7  9  1  0  0  0  0
  9 10  1  0  0  0  0
  9 11  1  0  0  0  0
  9 12  1  0  0  0  0
 12 13  2  0  0  0  0
 12 14  1  0  0  0  0
 14 15  1  0  0  0  0
 14 16  1  0  0  0  0
 16 17  1  0  0  0  0
 16 18  1  0  0  0  0
 16 19  1  0  0  0  0
M  END
$$$$

  -OEChem-01062216083D

 19 18  0     0  0  0  0  0  0999 V2000
   -2.6687   -3.9054   -0.0293 H   0  0  0  0  0  0  0  0  0  0  0  0
   -2.5556   -2.8259    0.1075 C   0  0  0  0  0  0  0  0  0  0  0  0
   -2.9025   -2.5613    1.1094 H   0  0  0  0  0  0  0  0  0  0  0  0
   -3.1733   -2.3116   -0.6327 H   0  0  0  0  0  0  0  0  0  0  0  0
   -1.1010   -2.4254   -0.0594 C   0  0  0  0  0  0  0  0  0  0  0  0
   -0.2696   -3.2861   -0.2834 O   0  0  0  0  0  0  0  0  0  0  0  0
   -0.7588   -1.0875    0.0282 N   0  0  0  0  0  0  0  0  0  0  0  0
   -1.5261   -0.4590    0.2511 H   0  0  0  0  0  0  0  0  0  0  0  0
    0.6013   -0.5000    0.0144 C   0  0  0  0  0  0  0  0  0  0  0  0
    0.5316    0.5103   -0.3972 H   0  0  0  0  0  0  0  0  0  0  0  0
    0.9396   -0.4104    1.0515 H   0  0  0  0  0  0  0  0  0  0  0  0
    1.7293   -1.2049   -0.7611 C   0  0  0  0  0  0  0  0  0  0  0  0
    2.8732   -1.1158   -0.3363 O   0  0  0  0  0  0  0  0  0  0  0  0
    1.5139   -1.6932   -2.0361 N   0  0  0  0  0  0  0  0  0  0  0  0
    0.5531   -1.9649   -2.2240 H   0  0  0  0  0  0  0  0  0  0  0  0
    2.5632   -2.3688   -2.7887 C   0  0  0  0  0  0  0  0  0  0  0  0
    3.4299   -1.7118   -2.9169 H   0  0  0  0  0  0  0  0  0  0  0  0
    2.8831   -3.2765   -2.2663 H   0  0  0  0  0  0  0  0  0  0  0  0
    2.1957   -2.6482   -3.7805 H   0  0  0  0  0  0  0  0  0  0  0  0
  1  2  1  0  0  0  0
  2  3  1  0  0  0  0
  2  4  1  0  0  0  0
  2  5  1  0  0  0  0
  5  6  2  0  0  0  0
  5  7  1  0  0  0  0
  7  8  1  0  0  0  0
  7  9  1  0  0  0  0
  9 10  1  0  0  0  0
  9 11  1  0  0  0  0
  9 12  1  0  0  0  0
 12 13  2  0  0  0  0
 12 14  1  0  0  0  0
 14 15  1  0  0  0  0
 14 16  1  0  0  0  0
 16 17  1  0  0  0  0
 16 18  1  0  0  0  0
 16 19  1  0  0  0  0
M  END
$$$$

  -OEChem-01062216083D

 19 18  0     0  0  0  0  0  0999 V2000
   -2.5113   -3.9894    0.1688 H   0  0  0  0  0  0  0  0  0  0  0  0
   -2.4680   -2.8964    0.1560 C   0  0  0  0  0  0  0  0  0  0  0  0
   -2.8643   -2.5200    1.1021 H   0  0  0  0  0  0  0  0  0  0  0  0
   -3.0894   -2.5297   -0.6644 H   0  0  0  0  0  0  0  0  0  0  0  0
   -1.0351   -2.4309   -0.0287 C   0  0  0  0  0  0  0  0  0  0  0  0
   -0.1613   -3.2604   -0.2024 O   0  0  0  0  0  0  0  0  0  0  0  0
   -0.7634   -1.0734   -0.0132 N   0  0  0  0  0  0  0  0  0  0  0  0
   -1.5596   -0.4745    0.1878 H   0  0  0  0  0  0  0  0  0  0  0  0
    0.5694   -0.4295   -0.0446 C   0  0  0  0  0  0  0  0  0  0  0  0
    0.4698    0.5539   -0.5116 H   0  0  0  0  0  0  0  0  0  0  0  0
    0.8931   -0.2710    0.9890 H   0  0  0  0  0  0  0  0  0  0  0  0
    1.7190   -1.1490   -0.7713 C   0  0  0  0  0  0  0  0  0  0  0  0
    2.8084   -1.2230   -0.2201 O   0  0  0  0  0  0  0  0  0  0  0  0
    1.6013   -1.4373   -2.1197 N   0  0  0  0  0  0  0  0  0  0  0  0
    0.6533   -1.4501   -2.4818 H   0  0  0  0  0  0  0  0  0  0  0  0
    2.6399   -2.0937   -2.9091 C   0  0  0  0  0  0  0  0  0  0  0  0
    3.5379   -2.3027   -2.3185 H   0  0  0  0  0  0  0  0  0  0  0  0
    2.2659   -3.0463   -3.2970 H   0  0  0  0  0  0  0  0  0  0  0  0
    2.9281   -1.4577   -3.7516 H   0  0  0  0  0  0  0  0  0  0  0  0
  1  2  1  0  0  0  0
  2  3  1  0  0  0  0
  2  4  1  0  0  0  0
  2  5  1  0  0  0  0
  5  6  2  0  0  0  0
  5  7  1  0  0  0  0
  7  8  1  0  0  0  0
  7  9  1  0  0  0  0
  9 10  1  0  0  0  0
  9 11  1  0  0  0  0
  9 12  1  0  0  0  0
 12 13  2  0  0  0  0
 12 14  1  0  0  0  0
 14 15  1  0  0  0  0
 14 16  1  0  0  0  0
 16 17  1  0  0  0  0
 16 18  1  0  0  0  0
 16 19  1  0  0  0  0
M  END
$$$$

  -OEChem-01062216083D

 19 18  0     0  0  0  0  0  0999 V2000
   -2.4076   -4.0435    0.2223 H   0  0  0  0  0  0  0  0  0  0  0  0
   -2.3974   -2.9501    0.2523 C   0  0  0  0  0  0  0  0  0  0  0  0
   -2.7369   -2.6237    1.2382 H   0  0  0  0  0  0  0  0  0  0  0  0
   -3.0855   -2.5723   -0.5075 H   0  0  0  0  0  0  0  0  0  0  0  0
   -0.9948   -2.4321   -0.0103 C   0  0  0  0  0  0  0  0  0  0  0  0
   -0.0948   -3.2318   -0.1883 O   0  0  0  0  0  0  0  0  0  0  0  0
   -0.7859   -1.0644   -0.0701 N   0  0  0  0  0  0  0  0  0  0  0  0
   -1.6013   -0.4950    0.1394 H   0  0  0  0  0  0  0  0  0  0  0  0
    0.5169   -0.3654   -0.1424 C   0  0  0  0  0  0  0  0  0  0  0  0
    0.3745    0.5875   -0.6588 H   0  0  0  0  0  0  0  0  0  0  0  0
    0.8377   -0.1381    0.8791 H   0  0  0  0  0  0  0  0  0  0  0  0
    1.6911   -1.0793   -0.8342 C   0  0  0  0  0  0  0  0  0  0  0  0
    2.7134   -1.3019   -0.1999 O   0  0  0  0  0  0  0  0  0  0  0  0
    1.7187   -1.1725   -2.2136 N   0  0  0  0  0  0  0  0  0  0  0  0
    0.8244   -1.0864   -2.6854 H   0  0  0  0  0  0  0  0  0  0  0  0
    2.8167   -1.8133   -2.9266 C   0  0  0  0  0  0  0  0  0  0  0  0
    2.9191   -2.8573   -2.6116 H   0  0  0  0  0  0  0  0  0  0  0  0
    2.6312   -1.7919   -4.0046 H   0  0  0  0  0  0  0  0  0  0  0  0
    3.7594   -1.2920   -2.7294 H   0  0  0  0  0  0  0  0  0  0  0  0
  1  2  1  0  0  0  0
  2  3  1  0  0  0  0
  2  4  1  0  0  0  0
  2  5  1  0  0  0  0
  5  6  2  0  0  0  0
  5  7  1  0  0  0  0
  7  8  1  0  0  0  0
  7  9  1  0  0  0  0
  9 10  1  0  0  0  0
  9 11  1  0  0  0  0
  9 12  1  0  0  0  0
 12 13  2  0  0  0  0
 12 14  1  0  0  0  0
 14 15  1  0  0  0  0
 14 16  1  0  0  0  0
 16 17  1  0  0  0  0
 16 18  1  0  0  0  0
 16 19  1  0  0  0  0
M  END
$$$$

  -OEChem-01062216083D

 19 18  0     0  0  0  0  0  0999 V2000
   -2.4105   -4.0489    0.2647 H   0  0  0  0  0  0  0  0  0  0  0  0
   -2.4030   -2.9550    0.2610 C   0  0  0  0  0  0  0  0  0  0  0  0
   -2.7414   -2.5990    1.2371 H   0  0  0  0  0  0  0  0  0  0  0  0
   -3.0931   -2.6019   -0.5090 H   0  0  0  0  0  0  0  0  0  0  0  0
   -1.0020   -2.4426   -0.0207 C   0  0  0  0  0  0  0  0  0  0  0  0
   -0.1082   -3.2466   -0.2074 O   0  0  0  0  0  0  0  0  0  0  0  0
   -0.7944   -1.0755   -0.0980 N   0  0  0  0  0  0  0  0  0  0  0  0
   -1.6110   -0.5077    0.1100 H   0  0  0  0  0  0  0  0  0  0  0  0
    0.5062   -0.3727   -0.1659 C   0  0  0  0  0  0  0  0  0  0  0  0
    0.3634    0.5752   -0.6912 H   0  0  0  0  0  0  0  0  0  0  0  0
    0.8147   -0.1333    0.8566 H   0  0  0  0  0  0  0  0  0  0  0  0
    1.6957   -1.0862   -0.8322 C   0  0  0  0  0  0  0  0  0  0  0  0
    2.6129   -1.4992   -0.1360 O   0  0  0  0  0  0  0  0  0  0  0  0
    1.9084   -0.9326   -2.1902 N   0  0  0  0  0  0  0  0  0  0  0  0
    1.1074   -0.6540   -2.7474 H   0  0  0  0  0  0  0  0  0  0  0  0
    3.0585   -1.5150   -2.8708 C   0  0  0  0  0  0  0  0  0  0  0  0
    3.0694   -2.6025   -2.7411 H   0  0  0  0  0  0  0  0  0  0  0  0
    3.0170   -1.2928   -3.9414 H   0  0  0  0  0  0  0  0  0  0  0  0
    3.9905   -1.1034   -2.4694 H   0  0  0  0  0  0  0  0  0  0  0  0
  1  2  1  0  0  0  0
  2  3  1  0  0  0  0
  2  4  1  0  0  0  0
  2  5  1  0  0  0  0
  5  6  2  0  0  0  0
  5  7  1  0  0  0  0
  7  8  1  0  0  0  0
  7  9  1  0  0  0  0
  9 10  1  0  0  0  0
  9 11  1  0  0  0  0
  9 12  1  0  0  0  0
 12 13  2  0  0  0  0
 12 14  1  0  0  0  0
 14 15  1  0  0  0  0
 14 16  1  0  0  0  0
 16 17  1  0  0  0  0
 16 18  1  0  0  0  0
 16 19  1  0  0  0  0
M  END
$$$$

  -OEChem-01062216083D

 19 18  0     0  0  0  0  0  0999 V2000
   -2.4353   -4.0467    0.2832 H   0  0  0  0  0  0  0  0  0  0  0  0
   -2.4149   -2.9529    0.2869 C   0  0  0  0  0  0  0  0  0  0  0  0
   -2.7096   -2.6004    1.2783 H   0  0  0  0  0  0  0  0  0  0  0  0
   -3.1307   -2.5858   -0.4525 H   0  0  0  0  0  0  0  0  0  0  0  0
   -1.0200   -2.4554   -0.0465 C   0  0  0  0  0  0  0  0  0  0  0  0
   -0.1479   -3.2704   -0.2794 O   0  0  0  0  0  0  0  0  0  0  0  0
   -0.8044   -1.0904   -0.1366 N   0  0  0  0  0  0  0  0  0  0  0  0
   -1.6125   -0.5212    0.0982 H   0  0  0  0  0  0  0  0  0  0  0  0
    0.4984   -0.3902   -0.1994 C   0  0  0  0  0  0  0  0  0  0  0  0
    0.3560    0.5536   -0.7321 H   0  0  0  0  0  0  0  0  0  0  0  0
    0.7959   -0.1406    0.8238 H   0  0  0  0  0  0  0  0  0  0  0  0
    1.7032   -1.1016   -0.8433 C   0  0  0  0  0  0  0  0  0  0  0  0
    2.4984   -1.6975   -0.1299 O   0  0  0  0  0  0  0  0  0  0  0  0
    2.1193   -0.7227   -2.1076 N   0  0  0  0  0  0  0  0  0  0  0  0
    1.4355   -0.2592   -2.6970 H   0  0  0  0  0  0  0  0  0  0  0  0
    3.3280   -1.2524   -2.7287 C   0  0  0  0  0  0  0  0  0  0  0  0
    3.2704   -2.3433   -2.8082 H   0  0  0  0  0  0  0  0  0  0  0  0
    3.4510   -0.8370   -3.7335 H   0  0  0  0  0  0  0  0  0  0  0  0
    4.2110   -0.9883   -2.1371 H   0  0  0  0  0  0  0  0  0  0  0  0
  1  2  1  0  0  0  0
  2  3  1  0  0  0  0
  2  4  1  0  0  0  0
  2  5  1  0  0  0  0
  5  6  2  0  0  0  0
  5  7  1  0  0  0  0
  7  8  1  0  0  0  0
  7  9  1  0  0  0  0
  9 10  1  0  0  0  0
  9 11  1  0  0  0  0
  9 12  1  0  0  0  0
 12 13  2  0  0  0  0
 12 14  1  0  0  0  0
 14 15  1  0  0  0  0
 14 16  1  0  0  0  0
 16 17  1  0  0  0  0
 16 18  1  0  0  0  0
 16 19  1  0  0  0  0
M  END
$$$$

  -OEChem-01062216083D

 19 18  0     0  0  0  0  0  0999 V2000
   -2.4768   -4.0336    0.3446 H   0  0  0  0  0  0  0  0  0  0  0  0
   -2.4399   -2.9410    0.3089 C   0  0  0  0  0  0  0  0  0  0  0  0
   -2.7144   -2.5497    1.2914 H   0  0  0  0  0  0  0  0  0  0  0  0
   -3.1612   -2.5896   -0.4326 H   0  0  0  0  0  0  0  0  0  0  0  0
   -1.0431   -2.4766   -0.0629 C   0  0  0  0  0  0  0  0  0  0  0  0
   -0.2035   -3.3132   -0.3315 O   0  0  0  0  0  0  0  0  0  0  0  0
   -0.8026   -1.1164   -0.1621 N   0  0  0  0  0  0  0  0  0  0  0  0
   -1.5997   -0.5367    0.0837 H   0  0  0  0  0  0  0  0  0  0  0  0
    0.5068   -0.4273   -0.2308 C   0  0  0  0  0  0  0  0  0  0  0  0
    0.3623    0.5141   -0.7668 H   0  0  0  0  0  0  0  0  0  0  0  0
    0.8049   -0.1729    0.7910 H   0  0  0  0  0  0  0  0  0  0  0  0
    1.7212   -1.1330   -0.8664 C   0  0  0  0  0  0  0  0  0  0  0  0
    2.3953   -1.8992   -0.1927 O   0  0  0  0  0  0  0  0  0  0  0  0
    2.3296   -0.5582   -1.9694 N   0  0  0  0  0  0  0  0  0  0  0  0
    1.7778    0.0916   -2.5196 H   0  0  0  0  0  0  0  0  0  0  0  0
    3.5965   -1.0335   -2.5141 C   0  0  0  0  0  0  0  0  0  0  0  0
    3.5235   -2.0921   -2.7851 H   0  0  0  0  0  0  0  0  0  0  0  0
    3.8606   -0.4639   -3.4099 H   0  0  0  0  0  0  0  0  0  0  0  0
    4.3997   -0.9127   -1.7795 H   0  0  0  0  0  0  0  0  0  0  0  0
  1  2  1  0  0  0  0
  2  3  1  0  0  0  0
  2  4  1  0  0  0  0
  2  5  1  0  0  0  0
  5  6  2  0  0  0  0
  5  7  1  0  0  0  0
  7  8  1  0  0  0  0
  7  9  1  0  0  0  0
  9 10  1  0  0  0  0
  9 11  1  0  0  0  0
  9 12  1  0  0  0  0
 12 13  2  0  0  0  0
 12 14  1  0  0  0  0
 14 15  1  0  0  0  0
 14 16  1  0  0  0  0
 16 17  1  0  0  0  0
 16 18  1  0  0  0  0
 16 19  1  0  0  0  0
M  END
$$$$

  -OEChem-01062216083D

 19 18  0     0  0  0  0  0  0999 V2000
   -2.5460   -4.0128    0.3812 H   0  0  0  0  0  0  0  0  0  0  0  0
   -2.4818   -2.9255    0.2797 C   0  0  0  0  0  0  0  0  0  0  0  0
   -2.8208   -2.4670    1.2116 H   0  0  0  0  0  0  0  0  0  0  0  0
   -3.1368   -2.6101   -0.5359 H   0  0  0  0  0  0  0  0  0  0  0  0
   -1.0510   -2.5113   -0.0142 C   0  0  0  0  0  0  0  0  0  0  0  0
   -0.2271   -3.3836   -0.1976 O   0  0  0  0  0  0  0  0  0  0  0  0
   -0.7692   -1.1592   -0.1224 N   0  0  0  0  0  0  0  0  0  0  0  0
   -1.5676   -0.5585    0.0597 H   0  0  0  0  0  0  0  0  0  0  0  0
    0.5447   -0.4790   -0.2227 C   0  0  0  0  0  0  0  0  0  0  0  0
    0.3833    0.4619   -0.7547 H   0  0  0  0  0  0  0  0  0  0  0  0
    0.8608   -0.2240    0.7931 H   0  0  0  0  0  0  0  0  0  0  0  0
    1.7642   -1.1619   -0.8793 C   0  0  0  0  0  0  0  0  0  0  0  0
    2.3236   -2.1045   -0.3410 O   0  0  0  0  0  0  0  0  0  0  0  0
    2.5283   -0.4251   -1.7698 N   0  0  0  0  0  0  0  0  0  0  0  0
    2.1075    0.4031   -2.1773 H   0  0  0  0  0  0  0  0  0  0  0  0
    3.8223   -0.8720   -2.2752 C   0  0  0  0  0  0  0  0  0  0  0  0
    3.7284   -1.8520   -2.7552 H   0  0  0  0  0  0  0  0  0  0  0  0
    4.2070   -0.1615   -3.0130 H   0  0  0  0  0  0  0  0  0  0  0  0
    4.5476   -0.9480   -1.4581 H   0  0  0  0  0  0  0  0  0  0  0  0
  1  2  1  0  0  0  0
  2  3  1  0  0  0  0
  2  4  1  0  0  0  0
  2  5  1  0  0  0  0
  5  6  2  0  0  0  0
  5  7  1  0  0  0  0
  7  8  1  0  0  0  0
  7  9  1  0  0  0  0
  9 10  1  0  0  0  0
  9 11  1  0  0  0  0
  9 12  1  0  0  0  0
 12 13  2  0  0  0  0
 12 14  1  0  0  0  0
 14 15  1  0  0  0  0
 14 16  1  0  0  0  0
 16 17  1  0  0  0  0
 16 18  1  0  0  0  0
 16 19  1  0  0  0  0
M  END
$$$$

  -OEChem-01062216083D

 19 18  0     0  0  0  0  0  0999 V2000
   -2.3103   -3.9729   -0.1091 H   0  0  0  0  0  0  0  0  0  0  0  0
   -2.2296   -2.8953   -0.2778 C   0  0  0  0  0  0  0  0  0  0  0  0
   -3.1028   -2.4035    0.1568 H   0  0  0  0  0  0  0  0  0  0  0  0
   -2.2102   -2.7106   -1.3545 H   0  0  0  0  0  0  0  0  0  0  0  0
   -0.9588   -2.3632    0.3586 C   0  0  0  0  0  0  0  0  0  0  0  0
   -0.2809   -3.0938    1.0627 O   0  0  0  0  0  0  0  0  0  0  0  0
   -0.6979   -1.0051    0.3515 N   0  0  0  0  0  0  0  0  0  0  0  0
   -1.4262   -0.4759   -0.1179 H   0  0  0  0  0  0  0  0  0  0  0  0
    0.6621   -0.4407    0.2022 C   0  0  0  0  0  0  0  0  0  0  0  0
    0.5585    0.5571   -0.2315 H   0  0  0  0  0  0  0  0  0  0  0  0
    1.0740   -0.3163    1.2079 H   0  0  0  0  0  0  0  0  0  0  0  0
    1.7440   -1.1861   -0.6192 C   0  0  0  0  0  0  0  0  0  0  0  0
    1.6222   -2.3356   -1.0143 O   0  0  0  0  0  0  0  0  0  0  0  0
    2.7102   -0.4194   -1.2490 N   0  0  0  0  0  0  0  0  0  0  0  0
    2.7953    0.5537   -0.9728 H   0  0  0  0  0  0  0  0  0  0  0  0
    3.6808   -0.9648   -2.1928 C   0  0  0  0  0  0  0  0  0  0  0  0
    4.2707   -1.7578   -1.7210 H   0  0  0  0  0  0  0  0  0  0  0  0
    3.1724   -1.3785   -3.0702 H   0  0  0  0  0  0  0  0  0  0  0  0
    4.3646   -0.1796   -2.5292 H   0  0  0  0  0  0  0  0  0  0  0  0
  1  2  1  0  0  0  0
  2  3  1  0  0  0  0
  2  4  1  0  0  0  0
  2  5  1  0  0  0  0
  5  6  2  0  0  0  0
  5  7  1  0  0  0  0
  7  8  1  0  0  0  0
  7  9  1  0  0  0  0
  9 10  1  0  0  0  0
  9 11  1  0  0  0  0
  9 12  1  0  0  0  0
 12 13  2  0  0  0  0
 12 14  1  0  0  0  0
 14 15  1  0  0  0  0
 14 16  1  0  0  0  0
 16 17  1  0  0  0  0
 16 18  1  0  0  0  0
 16 19  1  0  0  0  0
M  END
$$$$

  -OEChem-01062216083D

 19 18  0     0  0  0  0  0  0999 V2000
   -2.3174   -3.9795   -0.1006 H   0  0  0  0  0  0  0  0  0  0  0  0
   -2.2490   -2.9006   -0.2661 C   0  0  0  0  0  0  0  0  0  0  0  0
   -3.1094   -2.4163    0.2015 H   0  0  0  0  0  0  0  0  0  0  0  0
   -2.2683   -2.7099   -1.3419 H   0  0  0  0  0  0  0  0  0  0  0  0
   -0.9598   -2.3640    0.3282 C   0  0  0  0  0  0  0  0  0  0  0  0
   -0.2298   -3.1032    0.9699 O   0  0  0  0  0  0  0  0  0  0  0  0
   -0.7130   -1.0029    0.3353 N   0  0  0  0  0  0  0  0  0  0  0  0
   -1.4421   -0.4705   -0.1293 H   0  0  0  0  0  0  0  0  0  0  0  0
    0.6481   -0.4368    0.2089 C   0  0  0  0  0  0  0  0  0  0  0  0
    0.5575    0.5621   -0.2258 H   0  0  0  0  0  0  0  0  0  0  0  0
    1.0476   -0.3188    1.2204 H   0  0  0  0  0  0  0  0  0  0  0  0
    1.7282   -1.1893   -0.6053 C   0  0  0  0  0  0  0  0  0  0  0  0
    1.4747   -2.1846   -1.2701 O   0  0  0  0  0  0  0  0  0  0  0  0
    2.8702   -0.4890   -0.9550 N   0  0  0  0  0  0  0  0  0  0  0  0
    3.0677    0.3687   -0.4492 H   0  0  0  0  0  0  0  0  0  0  0  0
    3.8788   -1.0042   -1.8754 C   0  0  0  0  0  0  0  0  0  0  0  0
    4.2822   -1.9543   -1.5095 H   0  0  0  0  0  0  0  0  0  0  0  0
    3.4467   -1.1639   -2.8688 H   0  0  0  0  0  0  0  0  0  0  0  0
    4.7040   -0.2922   -1.9698 H   0  0  0  0  0  0  0  0  0  0  0  0
  1  2  1  0  0  0  0
  2  3  1  0  0  0  0
  2  4  1  0  0  0  0
  2  5  1  0  0  0  0
  5  6  2  0  0  0  0
  5  7  1  0  0  0  0
  7  8  1  0  0  0  0
  7  9  1  0  0  0  0
  9 10  1  0  0  0  0
  9 11  1  0  0  0  0
  9 12  1  0  0  0  0
 12 13  2  0  0  0  0
 12 14  1  0  0  0  0
 14 15  1  0  0  0  0
 14 16  1  0  0  0  0
 16 17  1  0  0  0  0
 16 18  1  0  0  0  0
 16 19  1  0  0  0  0
M  END
$$$$

  -OEChem-01062216083D

 19 18  0     0  0  0  0  0  0999 V2000
   -2.2100   -3.9977   -0.1010 H   0  0  0  0  0  0  0  0  0  0  0  0
   -2.2058   -2.9130   -0.2405 C   0  0  0  0  0  0  0  0  0  0  0  0
   -3.0478   -2.4838    0.3075 H   0  0  0  0  0  0  0  0  0  0  0  0
   -2.3206   -2.6958   -1.3054 H   0  0  0  0  0  0  0  0  0  0  0  0
   -0.9001   -2.3275    0.2643 C   0  0  0  0  0  0  0  0  0  0  0  0
   -0.0433   -3.0591    0.7379 O   0  0  0  0  0  0  0  0  0  0  0  0
   -0.7202   -0.9559    0.2979 N   0  0  0  0  0  0  0  0  0  0  0  0
   -1.4646   -0.4372   -0.1586 H   0  0  0  0  0  0  0  0  0  0  0  0
    0.6296   -0.3668    0.2005 C   0  0  0  0  0  0  0  0  0  0  0  0
    0.5349    0.7079    0.0247 H   0  0  0  0  0  0  0  0  0  0  0  0
    1.1295   -0.4994    1.1644 H   0  0  0  0  0  0  0  0  0  0  0  0
    1.5607   -0.9409   -0.8885 C   0  0  0  0  0  0  0  0  0  0  0  0
    1.1110   -1.5969   -1.8205 O   0  0  0  0  0  0  0  0  0  0  0  0
    2.8374   -0.4241   -1.0160 N   0  0  0  0  0  0  0  0  0  0  0  0
    3.2001    0.1247   -0.2427 H   0  0  0  0  0  0  0  0  0  0  0  0
    3.7478   -0.8076   -2.0890 C   0  0  0  0  0  0  0  0  0  0  0  0
    3.9237   -1.8885   -2.0735 H   0  0  0  0  0  0  0  0  0  0  0  0
    3.3302   -0.5320   -3.0632 H   0  0  0  0  0  0  0  0  0  0  0  0
    4.7090   -0.2985   -1.9695 H   0  0  0  0  0  0  0  0  0  0  0  0
  1  2  1  0  0  0  0
  2  3  1  0  0  0  0
  2  4  1  0  0  0  0
  2  5  1  0  0  0  0
  5  6  2  0  0  0  0
  5  7  1  0  0  0  0
  7  8  1  0  0  0  0
  7  9  1  0  0  0  0
  9 10  1  0  0  0  0
  9 11  1  0  0  0  0
  9 12  1  0  0  0  0
 12 13  2  0  0  0  0
 12 14  1  0  0  0  0
 14 15  1  0  0  0  0
 14 16  1  0  0  0  0
 16 17  1  0  0  0  0
 16 18  1  0  0  0  0
 16 19  1  0  0  0  0
M  END
$$$$

  -OEChem-01062216083D

 19 18  0     0  0  0  0  0  0999 V2000
   -2.1657   -4.0076   -0.1328 H   0  0  0  0  0  0  0  0  0  0  0  0
   -2.1873   -2.9205   -0.2487 C   0  0  0  0  0  0  0  0  0  0  0  0
   -3.0305   -2.5217    0.3201 H   0  0  0  0  0  0  0  0  0  0  0  0
   -2.3224   -2.6832   -1.3069 H   0  0  0  0  0  0  0  0  0  0  0  0
   -0.8882   -2.3170    0.2511 C   0  0  0  0  0  0  0  0  0  0  0  0
   -0.0095   -3.0384    0.7001 O   0  0  0  0  0  0  0  0  0  0  0  0
   -0.7305   -0.9430    0.2863 N   0  0  0  0  0  0  0  0  0  0  0  0
   -1.4776   -0.4333   -0.1764 H   0  0  0  0  0  0  0  0  0  0  0  0
    0.6113   -0.3351    0.2099 C   0  0  0  0  0  0  0  0  0  0  0  0
    0.5114    0.7378    0.0265 H   0  0  0  0  0  0  0  0  0  0  0  0
    1.0998   -0.4593    1.1808 H   0  0  0  0  0  0  0  0  0  0  0  0
    1.5480   -0.9144   -0.8689 C   0  0  0  0  0  0  0  0  0  0  0  0
    1.0827   -1.3973   -1.8946 O   0  0  0  0  0  0  0  0  0  0  0  0
    2.9026   -0.6420   -0.8178 N   0  0  0  0  0  0  0  0  0  0  0  0
    3.2731   -0.2750    0.0535 H   0  0  0  0  0  0  0  0  0  0  0  0
    3.8388   -1.0900   -1.8419 C   0  0  0  0  0  0  0  0  0  0  0  0
    3.8266   -2.1822   -1.9201 H   0  0  0  0  0  0  0  0  0  0  0  0
    3.5748   -0.6639   -2.8155 H   0  0  0  0  0  0  0  0  0  0  0  0
    4.8552   -0.7717   -1.5913 H   0  0  0  0  0  0  0  0  0  0  0  0
  1  2  1  0  0  0  0
  2  3  1  0  0  0  0
  2  4  1  0  0  0  0
  2  5  1  0  0  0  0
  5  6  2  0  0  0  0
  5  7  1  0  0  0  0
  7  8  1  0  0  0  0
  7  9  1  0  0  0  0
  9 10  1  0  0  0  0
  9 11  1  0  0  0  0
  9 12  1  0  0  0  0
 12 13  2  0  0  0  0
 12 14  1  0  0  0  0
 14 15  1  0  0  0  0
 14 16  1  0  0  0  0
 16 17  1  0  0  0  0
 16 18  1  0  0  0  0
 16 19  1  0  0  0  0
M  END
$$$$

  -OEChem-01062216083D

 19 18  0     0  0  0  0  0  0999 V2000
   -2.1121   -4.0151   -0.1927 H   0  0  0  0  0  0  0  0  0  0  0  0
   -2.1670   -2.9245   -0.2527 C   0  0  0  0  0  0  0  0  0  0  0  0
   -3.0011   -2.5782    0.3620 H   0  0  0  0  0  0  0  0  0  0  0  0
   -2.3436   -2.6393   -1.2928 H   0  0  0  0  0  0  0  0  0  0  0  0
   -0.8691   -2.3090    0.2356 C   0  0  0  0  0  0  0  0  0  0  0  0
    0.0300   -3.0255    0.6510 O   0  0  0  0  0  0  0  0  0  0  0  0
   -0.7288   -0.9336    0.2808 N   0  0  0  0  0  0  0  0  0  0  0  0
   -1.4842   -0.4254   -0.1705 H   0  0  0  0  0  0  0  0  0  0  0  0
    0.6044   -0.3063    0.2215 C   0  0  0  0  0  0  0  0  0  0  0  0
    0.4960    0.7658    0.0378 H   0  0  0  0  0  0  0  0  0  0  0  0
    1.0865   -0.4255    1.1960 H   0  0  0  0  0  0  0  0  0  0  0  0
    1.5441   -0.8793   -0.8560 C   0  0  0  0  0  0  0  0  0  0  0  0
    1.0931   -1.1787   -1.9553 O   0  0  0  0  0  0  0  0  0  0  0  0
    2.9128   -0.8774   -0.6620 N   0  0  0  0  0  0  0  0  0  0  0  0
    3.2445   -0.7167    0.2842 H   0  0  0  0  0  0  0  0  0  0  0  0
    3.8441   -1.4242   -1.6413 C   0  0  0  0  0  0  0  0  0  0  0  0
    3.6428   -2.4878   -1.8079 H   0  0  0  0  0  0  0  0  0  0  0  0
    3.7534   -0.8944   -2.5955 H   0  0  0  0  0  0  0  0  0  0  0  0
    4.8732   -1.3173   -1.2854 H   0  0  0  0  0  0  0  0  0  0  0  0
  1  2  1  0  0  0  0
  2  3  1  0  0  0  0
  2  4  1  0  0  0  0
  2  5  1  0  0  0  0
  5  6  2  0  0  0  0
  5  7  1  0  0  0  0
  7  8  1  0  0  0  0
  7  9  1  0  0  0  0
  9 10  1  0  0  0  0
  9 11  1  0  0  0  0
  9 12  1  0  0  0  0
 12 13  2  0  0  0  0
 12 14  1  0  0  0  0
 14 15  1  0  0  0  0
 14 16  1  0  0  0  0
 16 17  1  0  0  0  0
 16 18  1  0  0  0  0
 16 19  1  0  0  0  0
M  END
$$$$

  -OEChem-01062216083D

 19 18  0     0  0  0  0  0  0999 V2000
   -1.9951   -4.1064    0.1603 H   0  0  0  0  0  0  0  0  0  0  0  0
   -2.1031   -3.0380   -0.0471 C   0  0  0  0  0  0  0  0  0  0  0  0
   -2.9338   -2.6463    0.5448 H   0  0  0  0  0  0  0  0  0  0  0  0
   -2.3254   -2.9071   -1.1092 H   0  0  0  0  0  0  0  0  0  0  0  0
   -0.8220   -2.3052    0.3053 C   0  0  0  0  0  0  0  0  0  0  0  0
    0.1276   -2.9203    0.7679 O   0  0  0  0  0  0  0  0  0  0  0  0
   -0.7547   -0.9301    0.1739 N   0  0  0  0  0  0  0  0  0  0  0  0
   -1.5430   -0.5156   -0.3158 H   0  0  0  0  0  0  0  0  0  0  0  0
    0.5378   -0.2334    0.0448 C   0  0  0  0  0  0  0  0  0  0  0  0
    0.3681    0.7961   -0.2815 H   0  0  0  0  0  0  0  0  0  0  0  0
    1.0117   -0.1906    1.0296 H   0  0  0  0  0  0  0  0  0  0  0  0
    1.5205   -0.8863   -0.9430 C   0  0  0  0  0  0  0  0  0  0  0  0
    1.1392   -1.1516   -2.0764 O   0  0  0  0  0  0  0  0  0  0  0  0
    2.8504   -1.0556   -0.6071 N   0  0  0  0  0  0  0  0  0  0  0  0
    3.0845   -0.9727    0.3778 H   0  0  0  0  0  0  0  0  0  0  0  0
    3.7995   -1.7231   -1.4890 C   0  0  0  0  0  0  0  0  0  0  0  0
    3.8822   -1.1868   -2.4401 H   0  0  0  0  0  0  0  0  0  0  0  0
    4.7897   -1.7539   -1.0248 H   0  0  0  0  0  0  0  0  0  0  0  0
    3.4779   -2.7504   -1.6900 H   0  0  0  0  0  0  0  0  0  0  0  0
  1  2  1  0  0  0  0
  2  3  1  0  0  0  0
  2  4  1  0  0  0  0
  2  5  1  0  0  0  0
  5  6  2  0  0  0  0
  5  7  1  0  0  0  0
  7  8  1  0  0  0  0
  7  9  1  0  0  0  0
  9 10  1  0  0  0  0
  9 11  1  0  0  0  0
  9 12  1  0  0  0  0
 12 13  2  0  0  0  0
 12 14  1  0  0  0  0
 14 15  1  0  0  0  0
 14 16  1  0  0  0  0
 16 17  1  0  0  0  0
 16 18  1  0  0  0  0
 16 19  1  0  0  0  0
M  END
$$$$

  -OEChem-01062216083D

 19 18  0     0  0  0  0  0  0999 V2000
   -2.0141   -4.1002    0.2174 H   0  0  0  0  0  0  0  0  0  0  0  0
   -2.1053   -3.0392   -0.0313 C   0  0  0  0  0  0  0  0  0  0  0  0
   -2.9320   -2.6135    0.5422 H   0  0  0  0  0  0  0  0  0  0  0  0
   -2.3233   -2.9459   -1.0981 H   0  0  0  0  0  0  0  0  0  0  0  0
   -0.8141   -2.3123    0.2966 C   0  0  0  0  0  0  0  0  0  0  0  0
    0.1444   -2.9340    0.7310 O   0  0  0  0  0  0  0  0  0  0  0  0
   -0.7435   -0.9374    0.1669 N   0  0  0  0  0  0  0  0  0  0  0  0
   -1.5406   -0.5128   -0.2996 H   0  0  0  0  0  0  0  0  0  0  0  0
    0.5454   -0.2338    0.0405 C   0  0  0  0  0  0  0  0  0  0  0  0
    0.3699    0.7938   -0.2892 H   0  0  0  0  0  0  0  0  0  0  0  0
    1.0204   -0.1832    1.0245 H   0  0  0  0  0  0  0  0  0  0  0  0
    1.5279   -0.8841   -0.9475 C   0  0  0  0  0  0  0  0  0  0  0  0
    1.2279   -0.9345   -2.1334 O   0  0  0  0  0  0  0  0  0  0  0  0
    2.7647   -1.3324   -0.5253 N   0  0  0  0  0  0  0  0  0  0  0  0
    2.8665   -1.4746    0.4759 H   0  0  0  0  0  0  0  0  0  0  0  0
    3.6748   -2.0454   -1.4128 C   0  0  0  0  0  0  0  0  0  0  0  0
    3.9427   -1.4204   -2.2712 H   0  0  0  0  0  0  0  0  0  0  0  0
    4.5934   -2.3083   -0.8797 H   0  0  0  0  0  0  0  0  0  0  0  0
    3.2089   -2.9666   -1.7784 H   0  0  0  0  0  0  0  0  0  0  0  0
  1  2  1  0  0  0  0
  2  3  1  0  0  0  0
  2  4  1  0  0  0  0
  2  5  1  0  0  0  0
  5  6  2  0  0  0  0
  5  7  1  0  0  0  0
  7  8  1  0  0  0  0
  7  9  1  0  0  0  0
  9 10  1  0  0  0  0
  9 11  1  0  0  0  0
  9 12  1  0  0  0  0
 12 13  2  0  0  0  0
 12 14  1  0  0  0  0
 14 15  1  0  0  0  0
 14 16  1  0  0  0  0
 16 17  1  0  0  0  0
 16 18  1  0  0  0  0
 16 19  1  0  0  0  0
M  END
$$$$

  -OEChem-01062216083D

 19 18  0     0  0  0  0  0  0999 V2000
   -2.0473   -4.0935    0.2376 H   0  0  0  0  0  0  0  0  0  0  0  0
   -2.1307   -3.0311   -0.0085 C   0  0  0  0  0  0  0  0  0  0  0  0
   -2.9399   -2.5958    0.5827 H   0  0  0  0  0  0  0  0  0  0  0  0
   -2.3699   -2.9337   -1.0704 H   0  0  0  0  0  0  0  0  0  0  0  0
   -0.8245   -2.3203    0.2932 C   0  0  0  0  0  0  0  0  0  0  0  0
    0.1330   -2.9526    0.7146 O   0  0  0  0  0  0  0  0  0  0  0  0
   -0.7376   -0.9477    0.1518 N   0  0  0  0  0  0  0  0  0  0  0  0
   -1.5411   -0.5099   -0.2914 H   0  0  0  0  0  0  0  0  0  0  0  0
    0.5534   -0.2488    0.0204 C   0  0  0  0  0  0  0  0  0  0  0  0
    0.3785    0.7769   -0.3166 H   0  0  0  0  0  0  0  0  0  0  0  0
    1.0296   -0.1895    1.0033 H   0  0  0  0  0  0  0  0  0  0  0  0
    1.5390   -0.9050   -0.9601 C   0  0  0  0  0  0  0  0  0  0  0  0
    1.3831   -0.7290   -2.1611 O   0  0  0  0  0  0  0  0  0  0  0  0
    2.6258   -1.6199   -0.4965 N   0  0  0  0  0  0  0  0  0  0  0  0
    2.5340   -1.9683    0.4558 H   0  0  0  0  0  0  0  0  0  0  0  0
    3.5196   -2.3379   -1.3962 C   0  0  0  0  0  0  0  0  0  0  0  0
    3.9747   -1.6492   -2.1158 H   0  0  0  0  0  0  0  0  0  0  0  0
    4.3210   -2.8185   -0.8269 H   0  0  0  0  0  0  0  0  0  0  0  0
    2.9712   -3.1104   -1.9454 H   0  0  0  0  0  0  0  0  0  0  0  0
  1  2  1  0  0  0  0
  2  3  1  0  0  0  0
  2  4  1  0  0  0  0
  2  5  1  0  0  0  0
  5  6  2  0  0  0  0
  5  7  1  0  0  0  0
  7  8  1  0  0  0  0
  7  9  1  0  0  0  0
  9 10  1  0  0  0  0
  9 11  1  0  0  0  0
  9 12  1  0  0  0  0
 12 13  2  0  0  0  0
 12 14  1  0  0  0  0
 14 15  1  0  0  0  0
 14 16  1  0  0  0  0
 16 17  1  0  0  0  0
 16 18  1  0  0  0  0
 16 19  1  0  0  0  0
M  END
$$$$

  -OEChem-01062216083D

 19 18  0     0  0  0  0  0  0999 V2000
   -2.1319   -4.0813    0.2572 H   0  0  0  0  0  0  0  0  0  0  0  0
   -2.1971   -3.0137    0.0284 C   0  0  0  0  0  0  0  0  0  0  0  0
   -2.9685   -2.5656    0.6596 H   0  0  0  0  0  0  0  0  0  0  0  0
   -2.4790   -2.8958   -1.0209 H   0  0  0  0  0  0  0  0  0  0  0  0
   -0.8607   -2.3414    0.2825 C   0  0  0  0  0  0  0  0  0  0  0  0
    0.0865   -3.0012    0.6841 O   0  0  0  0  0  0  0  0  0  0  0  0
   -0.7377   -0.9732    0.1260 N   0  0  0  0  0  0  0  0  0  0  0  0
   -1.5504   -0.5071   -0.2689 H   0  0  0  0  0  0  0  0  0  0  0  0
    0.5581   -0.2818   -0.0135 C   0  0  0  0  0  0  0  0  0  0  0  0
    0.3831    0.7427   -0.3551 H   0  0  0  0  0  0  0  0  0  0  0  0
    1.0340   -0.2163    0.9691 H   0  0  0  0  0  0  0  0  0  0  0  0
    1.5568   -0.9351   -0.9836 C   0  0  0  0  0  0  0  0  0  0  0  0
    1.5967   -0.5464   -2.1430 O   0  0  0  0  0  0  0  0  0  0  0  0
    2.4560   -1.8837   -0.5396 N   0  0  0  0  0  0  0  0  0  0  0  0
    2.1633   -2.3724    0.3079 H   0  0  0  0  0  0  0  0  0  0  0  0
    3.3584   -2.5824   -1.4456 C   0  0  0  0  0  0  0  0  0  0  0  0
    3.9950   -1.8695   -1.9802 H   0  0  0  0  0  0  0  0  0  0  0  0
    4.0040   -3.2632   -0.8827 H   0  0  0  0  0  0  0  0  0  0  0  0
    2.7902   -3.1658   -2.1774 H   0  0  0  0  0  0  0  0  0  0  0  0
  1  2  1  0  0  0  0
  2  3  1  0  0  0  0
  2  4  1  0  0  0  0
  2  5  1  0  0  0  0
  5  6  2  0  0  0  0
  5  7  1  0  0  0  0
  7  8  1  0  0  0  0
  7  9  1  0  0  0  0
  9 10  1  0  0  0  0
  9 11  1  0  0  0  0
  9 12  1  0  0  0  0
 12 13  2  0  0  0  0
 12 14  1  0  0  0  0
 14 15  1  0  0  0  0
 14 16  1  0  0  0  0
 16 17  1  0  0  0  0
 16 18  1  0  0  0  0
 16 19  1  0  0  0  0
M  END
$$$$

  -OEChem-01062216083D

 19 18  0     0  0  0  0  0  0999 V2000
   -2.2531   -4.0550    0.2979 H   0  0  0  0  0  0  0  0  0  0  0  0
   -2.2801   -2.9881    0.0578 C   0  0  0  0  0  0  0  0  0  0  0  0
   -3.0216   -2.5030    0.6975 H   0  0  0  0  0  0  0  0  0  0  0  0
   -2.5771   -2.8707   -0.9874 H   0  0  0  0  0  0  0  0  0  0  0  0
   -0.9135   -2.3666    0.2808 C   0  0  0  0  0  0  0  0  0  0  0  0
    0.0103   -3.0613    0.6756 O   0  0  0  0  0  0  0  0  0  0  0  0
   -0.7459   -1.0049    0.1107 N   0  0  0  0  0  0  0  0  0  0  0  0
   -1.5599   -0.5134   -0.2494 H   0  0  0  0  0  0  0  0  0  0  0  0
    0.5554   -0.3209   -0.0382 C   0  0  0  0  0  0  0  0  0  0  0  0
    0.3774    0.7036   -0.3790 H   0  0  0  0  0  0  0  0  0  0  0  0
    1.0289   -0.2537    0.9456 H   0  0  0  0  0  0  0  0  0  0  0  0
    1.5754   -0.9596   -0.9985 C   0  0  0  0  0  0  0  0  0  0  0  0
    1.7987   -0.4092   -2.0678 O   0  0  0  0  0  0  0  0  0  0  0  0
    2.2785   -2.0969   -0.6571 N   0  0  0  0  0  0  0  0  0  0  0  0
    1.8672   -2.6415    0.1051 H   0  0  0  0  0  0  0  0  0  0  0  0
    3.1771   -2.7766   -1.5808 C   0  0  0  0  0  0  0  0  0  0  0  0
    3.9514   -2.0903   -1.9394 H   0  0  0  0  0  0  0  0  0  0  0  0
    3.6686   -3.6155   -1.0785 H   0  0  0  0  0  0  0  0  0  0  0  0
    2.6210   -3.1617   -2.4417 H   0  0  0  0  0  0  0  0  0  0  0  0
  1  2  1  0  0  0  0
  2  3  1  0  0  0  0
  2  4  1  0  0  0  0
  2  5  1  0  0  0  0
  5  6  2  0  0  0  0
  5  7  1  0  0  0  0
  7  8  1  0  0  0  0
  7  9  1  0  0  0  0
  9 10  1  0  0  0  0
  9 11  1  0  0  0  0
  9 12  1  0  0  0  0
 12 13  2  0  0  0  0
 12 14  1  0  0  0  0
 14 15  1  0  0  0  0
 14 16  1  0  0  0  0
 16 17  1  0  0  0  0
 16 18  1  0  0  0  0
 16 19  1  0  0  0  0
M  END
$$$$

  -OEChem-01062216083D

 19 18  0     0  0  0  0  0  0999 V2000
   -2.3828   -4.0128    0.3848 H   0  0  0  0  0  0  0  0  0  0  0  0
   -2.3658   -2.9576    0.0971 C   0  0  0  0  0  0  0  0  0  0  0  0
   -3.0825   -2.4135    0.7173 H   0  0  0  0  0  0  0  0  0  0  0  0
   -2.6637   -2.8744   -0.9510 H   0  0  0  0  0  0  0  0  0  0  0  0
   -0.9728   -2.3853    0.2861 C   0  0  0  0  0  0  0  0  0  0  0  0
   -0.0703   -3.1132    0.6676 O   0  0  0  0  0  0  0  0  0  0  0  0
   -0.7628   -1.0312    0.1029 N   0  0  0  0  0  0  0  0  0  0  0  0
   -1.5770   -0.5134   -0.2173 H   0  0  0  0  0  0  0  0  0  0  0  0
    0.5452   -0.3596   -0.0630 C   0  0  0  0  0  0  0  0  0  0  0  0
    0.3658    0.6658   -0.4005 H   0  0  0  0  0  0  0  0  0  0  0  0
    1.0210   -0.2939    0.9196 H   0  0  0  0  0  0  0  0  0  0  0  0
    1.5792   -0.9853   -1.0211 C   0  0  0  0  0  0  0  0  0  0  0  0
    1.9783   -0.3131   -1.9618 O   0  0  0  0  0  0  0  0  0  0  0  0
    2.0835   -2.2580   -0.8489 N   0  0  0  0  0  0  0  0  0  0  0  0
    1.6143   -2.8330   -0.1442 H   0  0  0  0  0  0  0  0  0  0  0  0
    2.9893   -2.9013   -1.7911 C   0  0  0  0  0  0  0  0  0  0  0  0
    3.9009   -2.3071   -1.9142 H   0  0  0  0  0  0  0  0  0  0  0  0
    3.2716   -3.8929   -1.4245 H   0  0  0  0  0  0  0  0  0  0  0  0
    2.5078   -3.0158   -2.7677 H   0  0  0  0  0  0  0  0  0  0  0  0
  1  2  1  0  0  0  0
  2  3  1  0  0  0  0
  2  4  1  0  0  0  0
  2  5  1  0  0  0  0
  5  6  2  0  0  0  0
  5  7  1  0  0  0  0
  7  8  1  0  0  0  0
  7  9  1  0  0  0  0
  9 10  1  0  0  0  0
  9 11  1  0  0  0  0
  9 12  1  0  0  0  0
 12 13  2  0  0  0  0
 12 14  1  0  0  0  0
 14 15  1  0  0  0  0
 14 16  1  0  0  0  0
 16 17  1  0  0  0  0
 16 18  1  0  0  0  0
 16 19  1  0  0  0  0
M  END
$$$$

  -OEChem-01062216083D

 19 18  0     0  0  0  0  0  0999 V2000
   -2.4516   -3.9990    0.3544 H   0  0  0  0  0  0  0  0  0  0  0  0
   -2.4359   -2.9226    0.1610 C   0  0  0  0  0  0  0  0  0  0  0  0
   -3.0934   -2.4270    0.8794 H   0  0  0  0  0  0  0  0  0  0  0  0
   -2.8097   -2.7426   -0.8500 H   0  0  0  0  0  0  0  0  0  0  0  0
   -1.0222   -2.3872    0.2948 C   0  0  0  0  0  0  0  0  0  0  0  0
   -0.1272   -3.1376    0.6488 O   0  0  0  0  0  0  0  0  0  0  0  0
   -0.7849   -1.0400    0.0943 N   0  0  0  0  0  0  0  0  0  0  0  0
   -1.6011   -0.5027   -0.1864 H   0  0  0  0  0  0  0  0  0  0  0  0
    0.5274   -0.3850   -0.1111 C   0  0  0  0  0  0  0  0  0  0  0  0
    0.3464    0.6404   -0.4480 H   0  0  0  0  0  0  0  0  0  0  0  0
    1.0249   -0.3194    0.8609 H   0  0  0  0  0  0  0  0  0  0  0  0
    1.5480   -1.0103   -1.0862 C   0  0  0  0  0  0  0  0  0  0  0  0
    2.1178   -0.2672   -1.8729 O   0  0  0  0  0  0  0  0  0  0  0  0
    1.8447   -2.3571   -1.1219 N   0  0  0  0  0  0  0  0  0  0  0  0
    1.3621   -2.9498   -0.4421 H   0  0  0  0  0  0  0  0  0  0  0  0
    2.8069   -2.9601   -2.0339 C   0  0  0  0  0  0  0  0  0  0  0  0
    3.8068   -2.5481   -1.8636 H   0  0  0  0  0  0  0  0  0  0  0  0
    2.8470   -4.0422   -1.8766 H   0  0  0  0  0  0  0  0  0  0  0  0
    2.5194   -2.7724   -3.0734 H   0  0  0  0  0  0  0  0  0  0  0  0
  1  2  1  0  0  0  0
  2  3  1  0  0  0  0
  2  4  1  0  0  0  0
  2  5  1  0  0  0  0
  5  6  2  0  0  0  0
  5  7  1  0  0  0  0
  7  8  1  0  0  0  0
  7  9  1  0  0  0  0
  9 10  1  0  0  0  0
  9 11  1  0  0  0  0
  9 12  1  0  0  0  0
 12 13  2  0  0  0  0
 12 14  1  0  0  0  0
 14 15  1  0  0  0  0
 14 16  1  0  0  0  0
 16 17  1  0  0  0  0
 16 18  1  0  0  0  0
 16 19  1  0  0  0  0
M  END
$$$$

  -OEChem-01062216083D

 19 18  0     0  0  0  0  0  0999 V2000
   -2.7644   -3.8347   -0.0340 H   0  0  0  0  0  0  0  0  0  0  0  0
   -2.6211   -2.7504   -0.0523 C   0  0  0  0  0  0  0  0  0  0  0  0
   -3.2048   -2.3057    0.7575 H   0  0  0  0  0  0  0  0  0  0  0  0
   -2.9831   -2.3646   -1.0085 H   0  0  0  0  0  0  0  0  0  0  0  0
   -1.1514   -2.4128    0.1208 C   0  0  0  0  0  0  0  0  0  0  0  0
   -0.3449   -3.3133    0.2860 O   0  0  0  0  0  0  0  0  0  0  0  0
   -0.7618   -1.0872    0.1653 N   0  0  0  0  0  0  0  0  0  0  0  0
   -1.5132   -0.4162    0.0276 H   0  0  0  0  0  0  0  0  0  0  0  0
    0.6169   -0.5474    0.1132 C   0  0  0  0  0  0  0  0  0  0  0  0
    0.5485    0.5334   -0.0433 H   0  0  0  0  0  0  0  0  0  0  0  0
    1.0698   -0.7018    1.0969 H   0  0  0  0  0  0  0  0  0  0  0  0
    1.6321   -1.0834   -0.9201 C   0  0  0  0  0  0  0  0  0  0  0  0
    2.4723   -0.3013   -1.3423 O   0  0  0  0  0  0  0  0  0  0  0  0
    1.6272   -2.3715   -1.4161 N   0  0  0  0  0  0  0  0  0  0  0  0
    1.0157   -3.0338   -0.9336 H   0  0  0  0  0  0  0  0  0  0  0  0
    2.6437   -2.8900   -2.3218 C   0  0  0  0  0  0  0  0  0  0  0  0
    2.6852   -2.2888   -3.2360 H   0  0  0  0  0  0  0  0  0  0  0  0
    3.6281   -2.8730   -1.8425 H   0  0  0  0  0  0  0  0  0  0  0  0
    2.4098   -3.9223   -2.5990 H   0  0  0  0  0  0  0  0  0  0  0  0
  1  2  1  0  0  0  0
  2  3  1  0  0  0  0
  2  4  1  0  0  0  0
  2  5  1  0  0  0  0
  5  6  2  0  0  0  0
  5  7  1  0  0  0  0
  7  8  1  0  0  0  0
  7  9  1  0  0  0  0
  9 10  1  0  0  0  0
  9 11  1  0  0  0  0
  9 12  1  0  0  0  0
 12 13  2  0  0  0  0
 12 14  1  0  0  0  0
 14 15  1  0  0  0  0
 14 16  1  0  0  0  0
 16 17  1  0  0  0  0
 16 18  1  0  0  0  0
 16 19  1  0  0  0  0
M  END
$$$$

  -OEChem-01062216083D

 19 18  0     0  0  0  0  0  0999 V2000
   -2.7122   -3.8725    0.1437 H   0  0  0  0  0  0  0  0  0  0  0  0
   -2.5933   -2.7855    0.1141 C   0  0  0  0  0  0  0  0  0  0  0  0
   -3.1087   -2.3528    0.9752 H   0  0  0  0  0  0  0  0  0  0  0  0
   -3.0499   -2.4073   -0.8039 H   0  0  0  0  0  0  0  0  0  0  0  0
   -1.1213   -2.4182    0.1512 C   0  0  0  0  0  0  0  0  0  0  0  0
   -0.2839   -3.3023    0.2202 O   0  0  0  0  0  0  0  0  0  0  0  0
   -0.7550   -1.0854    0.1495 N   0  0  0  0  0  0  0  0  0  0  0  0
   -1.5264   -0.4256    0.0926 H   0  0  0  0  0  0  0  0  0  0  0  0
    0.6101   -0.5208    0.0318 C   0  0  0  0  0  0  0  0  0  0  0  0
    0.5143    0.5535   -0.1513 H   0  0  0  0  0  0  0  0  0  0  0  0
    1.1023   -0.6409    1.0013 H   0  0  0  0  0  0  0  0  0  0  0  0
    1.5987   -1.0597   -1.0249 C   0  0  0  0  0  0  0  0  0  0  0  0
    2.5412   -0.3423   -1.3298 O   0  0  0  0  0  0  0  0  0  0  0  0
    1.4282   -2.2492   -1.7052 N   0  0  0  0  0  0  0  0  0  0  0  0
    0.7873   -2.9109   -1.2632 H   0  0  0  0  0  0  0  0  0  0  0  0
    2.4055   -2.7693   -2.6527 C   0  0  0  0  0  0  0  0  0  0  0  0
    2.5682   -2.0555   -3.4671 H   0  0  0  0  0  0  0  0  0  0  0  0
    3.3611   -2.9586   -2.1529 H   0  0  0  0  0  0  0  0  0  0  0  0
    2.0466   -3.7081   -3.0852 H   0  0  0  0  0  0  0  0  0  0  0  0
  1  2  1  0  0  0  0
  2  3  1  0  0  0  0
  2  4  1  0  0  0  0
  2  5  1  0  0  0  0
  5  6  2  0  0  0  0
  5  7  1  0  0  0  0
  7  8  1  0  0  0  0
  7  9  1  0  0  0  0
  9 10  1  0  0  0  0
  9 11  1  0  0  0  0
  9 12  1  0  0  0  0
 12 13  2  0  0  0  0
 12 14  1  0  0  0  0
 14 15  1  0  0  0  0
 14 16  1  0  0  0  0
 16 17  1  0  0  0  0
 16 18  1  0  0  0  0
 16 19  1  0  0  0  0
M  END
$$$$

  -OEChem-01062216083D

 19 18  0     0  0  0  0  0  0999 V2000
   -2.7086   -3.8762    0.1286 H   0  0  0  0  0  0  0  0  0  0  0  0
   -2.5931   -2.7887    0.1552 C   0  0  0  0  0  0  0  0  0  0  0  0
   -3.0312   -2.4127    1.0831 H   0  0  0  0  0  0  0  0  0  0  0  0
   -3.1288   -2.3580   -0.6943 H   0  0  0  0  0  0  0  0  0  0  0  0
   -1.1234   -2.4162    0.0861 C   0  0  0  0  0  0  0  0  0  0  0  0
   -0.2842   -3.2978    0.0194 O   0  0  0  0  0  0  0  0  0  0  0  0
   -0.7580   -1.0833    0.1084 N   0  0  0  0  0  0  0  0  0  0  0  0
   -1.5258   -0.4196    0.1688 H   0  0  0  0  0  0  0  0  0  0  0  0
    0.6089   -0.5202    0.0095 C   0  0  0  0  0  0  0  0  0  0  0  0
    0.5190    0.5558   -0.1643 H   0  0  0  0  0  0  0  0  0  0  0  0
    1.0947   -0.6533    0.9808 H   0  0  0  0  0  0  0  0  0  0  0  0
    1.5988   -1.0500   -1.0489 C   0  0  0  0  0  0  0  0  0  0  0  0
    2.6585   -0.4528   -1.1775 O   0  0  0  0  0  0  0  0  0  0  0  0
    1.2862   -2.0538   -1.9451 N   0  0  0  0  0  0  0  0  0  0  0  0
    0.5572   -2.6897   -1.6197 H   0  0  0  0  0  0  0  0  0  0  0  0
    2.2525   -2.5717   -2.9053 C   0  0  0  0  0  0  0  0  0  0  0  0
    2.5852   -1.7773   -3.5816 H   0  0  0  0  0  0  0  0  0  0  0  0
    3.1251   -2.9828   -2.3868 H   0  0  0  0  0  0  0  0  0  0  0  0
    1.7983   -3.3661   -3.5050 H   0  0  0  0  0  0  0  0  0  0  0  0
  1  2  1  0  0  0  0
  2  3  1  0  0  0  0
  2  4  1  0  0  0  0
  2  5  1  0  0  0  0
  5  6  2  0  0  0  0
  5  7  1  0  0  0  0
  7  8  1  0  0  0  0
  7  9  1  0  0  0  0
  9 10  1  0  0  0  0
  9 11  1  0  0  0  0
  9 12  1  0  0  0  0
 12 13  2  0  0  0  0
 12 14  1  0  0  0  0
 14 15  1  0  0  0  0
 14 16  1  0  0  0  0
 16 17  1  0  0  0  0
 16 18  1  0  0  0  0
 16 19  1  0  0  0  0
M  END
$$$$

  -OEChem-01062216083D

 19 18  0     0  0  0  0  0  0999 V2000
   -2.6763   -3.8978    0.0817 H   0  0  0  0  0  0  0  0  0  0  0  0
   -2.5697   -2.8126    0.1684 C   0  0  0  0  0  0  0  0  0  0  0  0
   -2.9398   -2.5013    1.1483 H   0  0  0  0  0  0  0  0  0  0  0  0
   -3.1724   -2.3374   -0.6095 H   0  0  0  0  0  0  0  0  0  0  0  0
   -1.1129   -2.4152    0.0146 C   0  0  0  0  0  0  0  0  0  0  0  0
   -0.2705   -3.2770   -0.1643 O   0  0  0  0  0  0  0  0  0  0  0  0
   -0.7646   -1.0784    0.0604 N   0  0  0  0  0  0  0  0  0  0  0  0
   -1.5295   -0.4294    0.2259 H   0  0  0  0  0  0  0  0  0  0  0  0
    0.6011   -0.5092   -0.0037 C   0  0  0  0  0  0  0  0  0  0  0  0
    0.5133    0.5669   -0.1764 H   0  0  0  0  0  0  0  0  0  0  0  0
    1.0709   -0.6467    0.9749 H   0  0  0  0  0  0  0  0  0  0  0  0
    1.6000   -1.0369   -1.0518 C   0  0  0  0  0  0  0  0  0  0  0  0
    2.7424   -0.6011   -1.0186 O   0  0  0  0  0  0  0  0  0  0  0  0
    1.2019   -1.8024   -2.1310 N   0  0  0  0  0  0  0  0  0  0  0  0
    0.3766   -2.3707   -1.9463 H   0  0  0  0  0  0  0  0  0  0  0  0
    2.1526   -2.3016   -3.1166 C   0  0  0  0  0  0  0  0  0  0  0  0
    2.6729   -1.4706   -3.6045 H   0  0  0  0  0  0  0  0  0  0  0  0
    2.8944   -2.9500   -2.6387 H   0  0  0  0  0  0  0  0  0  0  0  0
    1.6297   -2.8778   -3.8858 H   0  0  0  0  0  0  0  0  0  0  0  0
  1  2  1  0  0  0  0
  2  3  1  0  0  0  0
  2  4  1  0  0  0  0
  2  5  1  0  0  0  0
  5  6  2  0  0  0  0
  5  7  1  0  0  0  0
  7  8  1  0  0  0  0
  7  9  1  0  0  0  0
  9 10  1  0  0  0  0
  9 11  1  0  0  0  0
  9 12  1  0  0  0  0
 12 13  2  0  0  0  0
 12 14  1  0  0  0  0
 14 15  1  0  0  0  0
 14 16  1  0  0  0  0
 16 17  1  0  0  0  0
 16 18  1  0  0  0  0
 16 19  1  0  0  0  0
M  END
$$$$

  -OEChem-01062216083D

 19 18  0     0  0  0  0  0  0999 V2000
   -2.6002   -3.9281    0.0087 H   0  0  0  0  0  0  0  0  0  0  0  0
   -2.5168   -2.8450    0.1369 C   0  0  0  0  0  0  0  0  0  0  0  0
   -2.8731   -2.5819    1.1359 H   0  0  0  0  0  0  0  0  0  0  0  0
   -3.1464   -2.3538   -0.6090 H   0  0  0  0  0  0  0  0  0  0  0  0
   -1.0729   -2.4084   -0.0307 C   0  0  0  0  0  0  0  0  0  0  0  0
   -0.2138   -3.2446   -0.2441 O   0  0  0  0  0  0  0  0  0  0  0  0
   -0.7551   -1.0646    0.0400 N   0  0  0  0  0  0  0  0  0  0  0  0
   -1.5246   -0.4374    0.2594 H   0  0  0  0  0  0  0  0  0  0  0  0
    0.6062   -0.4849    0.0020 C   0  0  0  0  0  0  0  0  0  0  0  0
    0.5197    0.5927   -0.1612 H   0  0  0  0  0  0  0  0  0  0  0  0
    1.0696   -0.6344    0.9823 H   0  0  0  0  0  0  0  0  0  0  0  0
    1.5992   -1.0107   -1.0500 C   0  0  0  0  0  0  0  0  0  0  0  0
    2.7922   -0.8012   -0.8796 O   0  0  0  0  0  0  0  0  0  0  0  0
    1.1619   -1.4917   -2.2698 N   0  0  0  0  0  0  0  0  0  0  0  0
    0.2145   -1.8577   -2.2639 H   0  0  0  0  0  0  0  0  0  0  0  0
    2.0841   -2.0134   -3.2705 C   0  0  0  0  0  0  0  0  0  0  0  0
    2.7976   -1.2407   -3.5756 H   0  0  0  0  0  0  0  0  0  0  0  0
    2.6396   -2.8679   -2.8699 H   0  0  0  0  0  0  0  0  0  0  0  0
    1.5328   -2.3409   -4.1571 H   0  0  0  0  0  0  0  0  0  0  0  0
  1  2  1  0  0  0  0
  2  3  1  0  0  0  0
  2  4  1  0  0  0  0
  2  5  1  0  0  0  0
  5  6  2  0  0  0  0
  5  7  1  0  0  0  0
  7  8  1  0  0  0  0
  7  9  1  0  0  0  0
  9 10  1  0  0  0  0
  9 11  1  0  0  0  0
  9 12  1  0  0  0  0
 12 13  2  0  0  0  0
 12 14  1  0  0  0  0
 14 15  1  0  0  0  0
 14 16  1  0  0  0  0
 16 17  1  0  0  0  0
 16 18  1  0  0  0  0
 16 19  1  0  0  0  0
M  END
$$$$

  -OEChem-01062216083D

 19 18  0     0  0  0  0  0  0999 V2000
   -2.5416   -3.9508   -0.0044 H   0  0  0  0  0  0  0  0  0  0  0  0
   -2.4782   -2.8643    0.1059 C   0  0  0  0  0  0  0  0  0  0  0  0
   -2.8495   -2.5903    1.0963 H   0  0  0  0  0  0  0  0  0  0  0  0
   -3.1083   -2.3971   -0.6547 H   0  0  0  0  0  0  0  0  0  0  0  0
   -1.0400   -2.4059   -0.0542 C   0  0  0  0  0  0  0  0  0  0  0  0
   -0.1682   -3.2304   -0.2604 O   0  0  0  0  0  0  0  0  0  0  0  0
   -0.7435   -1.0571    0.0250 N   0  0  0  0  0  0  0  0  0  0  0  0
   -1.5195   -0.4438    0.2595 H   0  0  0  0  0  0  0  0  0  0  0  0
    0.6131   -0.4679    0.0060 C   0  0  0  0  0  0  0  0  0  0  0  0
    0.5268    0.6095   -0.1577 H   0  0  0  0  0  0  0  0  0  0  0  0
    1.0694   -0.6172    0.9898 H   0  0  0  0  0  0  0  0  0  0  0  0
    1.6017   -1.0022   -1.0437 C   0  0  0  0  0  0  0  0  0  0  0  0
    2.7944   -1.0331   -0.7743 O   0  0  0  0  0  0  0  0  0  0  0  0
    1.1947   -1.1900   -2.3514 N   0  0  0  0  0  0  0  0  0  0  0  0
    0.1955   -1.3015   -2.4884 H   0  0  0  0  0  0  0  0  0  0  0  0
    2.0934   -1.6978   -3.3801 C   0  0  0  0  0  0  0  0  0  0  0  0
    2.9481   -1.0254   -3.5089 H   0  0  0  0  0  0  0  0  0  0  0  0
    2.4641   -2.6917   -3.1075 H   0  0  0  0  0  0  0  0  0  0  0  0
    1.5683   -1.7726   -4.3368 H   0  0  0  0  0  0  0  0  0  0  0  0
  1  2  1  0  0  0  0
  2  3  1  0  0  0  0
  2  4  1  0  0  0  0
  2  5  1  0  0  0  0
  5  6  2  0  0  0  0
  5  7  1  0  0  0  0
  7  8  1  0  0  0  0
  7  9  1  0  0  0  0
  9 10  1  0  0  0  0
  9 11  1  0  0  0  0
  9 12  1  0  0  0  0
 12 13  2  0  0  0  0
 12 14  1  0  0  0  0
 14 15  1  0  0  0  0
 14 16  1  0  0  0  0
 16 17  1  0  0  0  0
 16 18  1  0  0  0  0
 16 19  1  0  0  0  0
M  END
$$$$

  -OEChem-01062216083D

 19 18  0     0  0  0  0  0  0999 V2000
   -2.2992   -4.0812    0.1548 H   0  0  0  0  0  0  0  0  0  0  0  0
   -2.3345   -2.9902    0.2246 C   0  0  0  0  0  0  0  0  0  0  0  0
   -2.7144   -2.7140    1.2113 H   0  0  0  0  0  0  0  0  0  0  0  0
   -3.0160   -2.6120   -0.5412 H   0  0  0  0  0  0  0  0  0  0  0  0
   -0.9472   -2.4086    0.0217 C   0  0  0  0  0  0  0  0  0  0  0  0
    0.0051   -3.1593   -0.0846 O   0  0  0  0  0  0  0  0  0  0  0  0
   -0.7902   -1.0353   -0.0416 N   0  0  0  0  0  0  0  0  0  0  0  0
   -1.6269   -0.4842    0.1297 H   0  0  0  0  0  0  0  0  0  0  0  0
    0.5005   -0.3185   -0.1171 C   0  0  0  0  0  0  0  0  0  0  0  0
    0.3140    0.7226   -0.3928 H   0  0  0  0  0  0  0  0  0  0  0  0
    0.9567   -0.3184    0.8782 H   0  0  0  0  0  0  0  0  0  0  0  0
    1.5437   -0.8692   -1.1031 C   0  0  0  0  0  0  0  0  0  0  0  0
    2.7064   -0.9902   -0.7437 O   0  0  0  0  0  0  0  0  0  0  0  0
    1.2419   -0.9406   -2.4505 N   0  0  0  0  0  0  0  0  0  0  0  0
    0.2565   -0.9286   -2.6915 H   0  0  0  0  0  0  0  0  0  0  0  0
    2.1946   -1.4284   -3.4401 C   0  0  0  0  0  0  0  0  0  0  0  0
    2.4709   -2.4659   -3.2243 H   0  0  0  0  0  0  0  0  0  0  0  0
    1.7554   -1.3861   -4.4413 H   0  0  0  0  0  0  0  0  0  0  0  0
    3.1014   -0.8142   -3.4366 H   0  0  0  0  0  0  0  0  0  0  0  0
  1  2  1  0  0  0  0
  2  3  1  0  0  0  0
  2  4  1  0  0  0  0
  2  5  1  0  0  0  0
  5  6  2  0  0  0  0
  5  7  1  0  0  0  0
  7  8  1  0  0  0  0
  7  9  1  0  0  0  0
  9 10  1  0  0  0  0
  9 11  1  0  0  0  0
  9 12  1  0  0  0  0
 12 13  2  0  0  0  0
 12 14  1  0  0  0  0
 14 15  1  0  0  0  0
 14 16  1  0  0  0  0
 16 17  1  0  0  0  0
 16 18  1  0  0  0  0
 16 19  1  0  0  0  0
M  END
$$$$

  -OEChem-01062216083D

 19 18  0     0  0  0  0  0  0999 V2000
   -2.2904   -4.0900    0.2123 H   0  0  0  0  0  0  0  0  0  0  0  0
   -2.3345   -2.9970    0.2146 C   0  0  0  0  0  0  0  0  0  0  0  0
   -2.7473   -2.6647    1.1702 H   0  0  0  0  0  0  0  0  0  0  0  0
   -2.9932   -2.6708   -0.5937 H   0  0  0  0  0  0  0  0  0  0  0  0
   -0.9451   -2.4174    0.0202 C   0  0  0  0  0  0  0  0  0  0  0  0
    0.0060   -3.1703   -0.0750 O   0  0  0  0  0  0  0  0  0  0  0  0
   -0.7896   -1.0442   -0.0497 N   0  0  0  0  0  0  0  0  0  0  0  0
   -1.6299   -0.4957    0.1099 H   0  0  0  0  0  0  0  0  0  0  0  0
    0.4978   -0.3220   -0.1193 C   0  0  0  0  0  0  0  0  0  0  0  0
    0.3094    0.7185   -0.3959 H   0  0  0  0  0  0  0  0  0  0  0  0
    0.9463   -0.3181    0.8793 H   0  0  0  0  0  0  0  0  0  0  0  0
    1.5510   -0.8739   -1.0944 C   0  0  0  0  0  0  0  0  0  0  0  0
    2.6482   -1.2128   -0.6738 O   0  0  0  0  0  0  0  0  0  0  0  0
    1.3908   -0.6702   -2.4528 N   0  0  0  0  0  0  0  0  0  0  0  0
    0.4554   -0.4426   -2.7733 H   0  0  0  0  0  0  0  0  0  0  0  0
    2.3785   -1.1036   -3.4336 C   0  0  0  0  0  0  0  0  0  0  0  0
    2.5250   -2.1874   -3.3749 H   0  0  0  0  0  0  0  0  0  0  0  0
    2.0433   -0.8525   -4.4444 H   0  0  0  0  0  0  0  0  0  0  0  0
    3.3391   -0.6083   -3.2563 H   0  0  0  0  0  0  0  0  0  0  0  0
  1  2  1  0  0  0  0
  2  3  1  0  0  0  0
  2  4  1  0  0  0  0
  2  5  1  0  0  0  0
  5  6  2  0  0  0  0
  5  7  1  0  0  0  0
  7  8  1  0  0  0  0
  7  9  1  0  0  0  0
  9 10  1  0  0  0  0
  9 11  1  0  0  0  0
  9 12  1  0  0  0  0
 12 13  2  0  0  0  0
 12 14  1  0  0  0  0
 14 15  1  0  0  0  0
 14 16  1  0  0  0  0
 16 17  1  0  0  0  0
 16 18  1  0  0  0  0
 16 19  1  0  0  0  0
M  END
$$$$

  -OEChem-01062216083D

 19 18  0     0  0  0  0  0  0999 V2000
   -2.3079   -4.0896    0.2271 H   0  0  0  0  0  0  0  0  0  0  0  0
   -2.3456   -2.9966    0.2054 C   0  0  0  0  0  0  0  0  0  0  0  0
   -2.7852   -2.6423    1.1408 H   0  0  0  0  0  0  0  0  0  0  0  0
   -2.9776   -2.6846   -0.6293 H   0  0  0  0  0  0  0  0  0  0  0  0
   -0.9474   -2.4290    0.0412 C   0  0  0  0  0  0  0  0  0  0  0  0
   -0.0020   -3.1918   -0.0133 O   0  0  0  0  0  0  0  0  0  0  0  0
   -0.7814   -1.0577   -0.0400 N   0  0  0  0  0  0  0  0  0  0  0  0
   -1.6255   -0.5043    0.0753 H   0  0  0  0  0  0  0  0  0  0  0  0
    0.5059   -0.3361   -0.1225 C   0  0  0  0  0  0  0  0  0  0  0  0
    0.3144    0.7045   -0.3964 H   0  0  0  0  0  0  0  0  0  0  0  0
    0.9600   -0.3294    0.8735 H   0  0  0  0  0  0  0  0  0  0  0  0
    1.5604   -0.8886   -1.0983 C   0  0  0  0  0  0  0  0  0  0  0  0
    2.5618   -1.4422   -0.6677 O   0  0  0  0  0  0  0  0  0  0  0  0
    1.5728   -0.4372   -2.4061 N   0  0  0  0  0  0  0  0  0  0  0  0
    0.7307    0.0120   -2.7501 H   0  0  0  0  0  0  0  0  0  0  0  0
    2.6080   -0.8126   -3.3621 C   0  0  0  0  0  0  0  0  0  0  0  0
    2.6335   -1.8998   -3.4905 H   0  0  0  0  0  0  0  0  0  0  0  0
    2.4100   -0.3528   -4.3348 H   0  0  0  0  0  0  0  0  0  0  0  0
    3.5908   -0.4757   -3.0160 H   0  0  0  0  0  0  0  0  0  0  0  0
  1  2  1  0  0  0  0
  2  3  1  0  0  0  0
  2  4  1  0  0  0  0
  2  5  1  0  0  0  0
  5  6  2  0  0  0  0
  5  7  1  0  0  0  0
  7  8  1  0  0  0  0
  7  9  1  0  0  0  0
  9 10  1  0  0  0  0
  9 11  1  0  0  0  0
  9 12  1  0  0  0  0
 12 13  2  0  0  0  0
 12 14  1  0  0  0  0
 14 15  1  0  0  0  0
 14 16  1  0  0  0  0
 16 17  1  0  0  0  0
 16 18  1  0  0  0  0
 16 19  1  0  0  0  0
M  END
$$$$

  -OEChem-01062216083D

 19 18  0     0  0  0  0  0  0999 V2000
   -2.3363   -4.0821    0.2310 H   0  0  0  0  0  0  0  0  0  0  0  0
   -2.3587   -2.9900    0.1741 C   0  0  0  0  0  0  0  0  0  0  0  0
   -2.8588   -2.6030    1.0651 H   0  0  0  0  0  0  0  0  0  0  0  0
   -2.9259   -2.6967   -0.7123 H   0  0  0  0  0  0  0  0  0  0  0  0
   -0.9451   -2.4428    0.0929 C   0  0  0  0  0  0  0  0  0  0  0  0
   -0.0103   -3.2177    0.1413 O   0  0  0  0  0  0  0  0  0  0  0  0
   -0.7594   -1.0748   -0.0005 N   0  0  0  0  0  0  0  0  0  0  0  0
   -1.6076   -0.5162    0.0069 H   0  0  0  0  0  0  0  0  0  0  0  0
    0.5297   -0.3597   -0.1148 C   0  0  0  0  0  0  0  0  0  0  0  0
    0.3322    0.6822   -0.3784 H   0  0  0  0  0  0  0  0  0  0  0  0
    1.0041   -0.3557    0.8718 H   0  0  0  0  0  0  0  0  0  0  0  0
    1.5736   -0.9083   -1.1068 C   0  0  0  0  0  0  0  0  0  0  0  0
    2.4465   -1.6776   -0.7346 O   0  0  0  0  0  0  0  0  0  0  0  0
    1.7722   -0.2450   -2.3055 N   0  0  0  0  0  0  0  0  0  0  0  0
    1.0679    0.4254   -2.5953 H   0  0  0  0  0  0  0  0  0  0  0  0
    2.8512   -0.5760   -3.2297 C   0  0  0  0  0  0  0  0  0  0  0  0
    2.7812   -1.6240   -3.5395 H   0  0  0  0  0  0  0  0  0  0  0  0
    2.7929    0.0536   -4.1227 H   0  0  0  0  0  0  0  0  0  0  0  0
    3.8250   -0.4134   -2.7558 H   0  0  0  0  0  0  0  0  0  0  0  0
  1  2  1  0  0  0  0
  2  3  1  0  0  0  0
  2  4  1  0  0  0  0
  2  5  1  0  0  0  0
  5  6  2  0  0  0  0
  5  7  1  0  0  0  0
  7  8  1  0  0  0  0
  7  9  1  0  0  0  0
  9 10  1  0  0  0  0
  9 11  1  0  0  0  0
  9 12  1  0  0  0  0
 12 13  2  0  0  0  0
 12 14  1  0  0  0  0
 14 15  1  0  0  0  0
 14 16  1  0  0  0  0
 16 17  1  0  0  0  0
 16 18  1  0  0  0  0
 16 19  1  0  0  0  0
M  END
$$$$

  -OEChem-01062216083D

 19 18  0     0  0  0  0  0  0999 V2000
   -2.1147   -4.0856    0.0678 H   0  0  0  0  0  0  0  0  0  0  0  0
   -2.1550   -3.0068   -0.1082 C   0  0  0  0  0  0  0  0  0  0  0  0
   -2.9932   -2.5887    0.4541 H   0  0  0  0  0  0  0  0  0  0  0  0
   -2.3138   -2.8325   -1.1749 H   0  0  0  0  0  0  0  0  0  0  0  0
   -0.8558   -2.3590    0.3346 C   0  0  0  0  0  0  0  0  0  0  0  0
   -0.0255   -3.0263    0.9250 O   0  0  0  0  0  0  0  0  0  0  0  0
   -0.7098   -0.9865    0.2405 N   0  0  0  0  0  0  0  0  0  0  0  0
   -1.5095   -0.5237   -0.1804 H   0  0  0  0  0  0  0  0  0  0  0  0
    0.5923   -0.3127    0.0526 C   0  0  0  0  0  0  0  0  0  0  0  0
    0.4080    0.7380   -0.1842 H   0  0  0  0  0  0  0  0  0  0  0  0
    1.1253   -0.3353    1.0083 H   0  0  0  0  0  0  0  0  0  0  0  0
    1.5608   -0.8855   -1.0061 C   0  0  0  0  0  0  0  0  0  0  0  0
    1.9875   -2.0276   -0.9786 O   0  0  0  0  0  0  0  0  0  0  0  0
    1.9531   -0.0744   -2.0571 N   0  0  0  0  0  0  0  0  0  0  0  0
    1.6142    0.8821   -2.0725 H   0  0  0  0  0  0  0  0  0  0  0  0
    2.8679   -0.5122   -3.1059 C   0  0  0  0  0  0  0  0  0  0  0  0
    2.4389   -1.3523   -3.6622 H   0  0  0  0  0  0  0  0  0  0  0  0
    3.0591    0.3050   -3.8078 H   0  0  0  0  0  0  0  0  0  0  0  0
    3.8241   -0.8272   -2.6744 H   0  0  0  0  0  0  0  0  0  0  0  0
  1  2  1  0  0  0  0
  2  3  1  0  0  0  0
  2  4  1  0  0  0  0
  2  5  1  0  0  0  0
  5  6  2  0  0  0  0
  5  7  1  0  0  0  0
  7  8  1  0  0  0  0
  7  9  1  0  0  0  0
  9 10  1  0  0  0  0
  9 11  1  0  0  0  0
  9 12  1  0  0  0  0
 12 13  2  0  0  0  0
 12 14  1  0  0  0  0
 14 15  1  0  0  0  0
 14 16  1  0  0  0  0
 16 17  1  0  0  0  0
 16 18  1  0  0  0  0
 16 19  1  0  0  0  0
M  END
$$$$

  -OEChem-01062216083D

 19 18  0     0  0  0  0  0  0999 V2000
   -2.2563   -3.9623   -0.1700 H   0  0  0  0  0  0  0  0  0  0  0  0
   -2.2150   -2.8740   -0.2704 C   0  0  0  0  0  0  0  0  0  0  0  0
   -3.0608   -2.4371    0.2653 H   0  0  0  0  0  0  0  0  0  0  0  0
   -2.2877   -2.6178   -1.3301 H   0  0  0  0  0  0  0  0  0  0  0  0
   -0.9099   -2.3491    0.2985 C   0  0  0  0  0  0  0  0  0  0  0  0
   -0.1537   -3.1067    0.8844 O   0  0  0  0  0  0  0  0  0  0  0  0
   -0.6685   -0.9876    0.3357 N   0  0  0  0  0  0  0  0  0  0  0  0
   -1.4128   -0.4428   -0.0887 H   0  0  0  0  0  0  0  0  0  0  0  0
    0.6892   -0.4246    0.1825 C   0  0  0  0  0  0  0  0  0  0  0  0
    0.5947    0.6555    0.0463 H   0  0  0  0  0  0  0  0  0  0  0  0
    1.2281   -0.5838    1.1216 H   0  0  0  0  0  0  0  0  0  0  0  0
    1.5941   -0.9730   -0.9468 C   0  0  0  0  0  0  0  0  0  0  0  0
    1.5444   -2.1248   -1.3499 O   0  0  0  0  0  0  0  0  0  0  0  0
    2.2982   -0.0649   -1.7192 N   0  0  0  0  0  0  0  0  0  0  0  0
    2.3257    0.9007   -1.4075 H   0  0  0  0  0  0  0  0  0  0  0  0
    3.0929   -0.4478   -2.8814 C   0  0  0  0  0  0  0  0  0  0  0  0
    3.8774   -1.1552   -2.5927 H   0  0  0  0  0  0  0  0  0  0  0  0
    2.4596   -0.9156   -3.6426 H   0  0  0  0  0  0  0  0  0  0  0  0
    3.5675    0.4339   -3.3224 H   0  0  0  0  0  0  0  0  0  0  0  0
  1  2  1  0  0  0  0
  2  3  1  0  0  0  0
  2  4  1  0  0  0  0
  2  5  1  0  0  0  0
  5  6  2  0  0  0  0
  5  7  1  0  0  0  0
  7  8  1  0  0  0  0
  7  9  1  0  0  0  0
  9 10  1  0  0  0  0
  9 11  1  0  0  0  0
  9 12  1  0  0  0  0
 12 13  2  0  0  0  0
 12 14  1  0  0  0  0
 14 15  1  0  0  0  0
 14 16  1  0  0  0  0
 16 17  1  0  0  0  0
 16 18  1  0  0  0  0
 16 19  1  0  0  0  0
M  END
$$$$

  -OEChem-01062216083D

 19 18  0     0  0  0  0  0  0999 V2000
   -2.2459   -3.9806   -0.1162 H   0  0  0  0  0  0  0  0  0  0  0  0
   -2.2128   -2.8962   -0.2543 C   0  0  0  0  0  0  0  0  0  0  0  0
   -3.0623   -2.4479    0.2661 H   0  0  0  0  0  0  0  0  0  0  0  0
   -2.2868   -2.6774   -1.3224 H   0  0  0  0  0  0  0  0  0  0  0  0
   -0.9116   -2.3412    0.2946 C   0  0  0  0  0  0  0  0  0  0  0  0
   -0.1207   -3.0818    0.8583 O   0  0  0  0  0  0  0  0  0  0  0  0
   -0.6921   -0.9754    0.3157 N   0  0  0  0  0  0  0  0  0  0  0  0
   -1.4306   -0.4468   -0.1383 H   0  0  0  0  0  0  0  0  0  0  0  0
    0.6662   -0.4092    0.1841 C   0  0  0  0  0  0  0  0  0  0  0  0
    0.5708    0.6673    0.0201 H   0  0  0  0  0  0  0  0  0  0  0  0
    1.1823   -0.5476    1.1387 H   0  0  0  0  0  0  0  0  0  0  0  0
    1.5971   -0.9745   -0.9154 C   0  0  0  0  0  0  0  0  0  0  0  0
    1.3363   -1.9898   -1.5457 O   0  0  0  0  0  0  0  0  0  0  0  0
    2.5416   -0.1254   -1.4662 N   0  0  0  0  0  0  0  0  0  0  0  0
    2.7334    0.7454   -0.9810 H   0  0  0  0  0  0  0  0  0  0  0  0
    3.3553   -0.4735   -2.6264 C   0  0  0  0  0  0  0  0  0  0  0  0
    3.8988   -1.4075   -2.4481 H   0  0  0  0  0  0  0  0  0  0  0  0
    2.7245   -0.5968   -3.5130 H   0  0  0  0  0  0  0  0  0  0  0  0
    4.0847    0.3166   -2.8282 H   0  0  0  0  0  0  0  0  0  0  0  0
  1  2  1  0  0  0  0
  2  3  1  0  0  0  0
  2  4  1  0  0  0  0
  2  5  1  0  0  0  0
  5  6  2  0  0  0  0
  5  7  1  0  0  0  0
  7  8  1  0  0  0  0
  7  9  1  0  0  0  0
  9 10  1  0  0  0  0
  9 11  1  0  0  0  0
  9 12  1  0  0  0  0
 12 13  2  0  0  0  0
 12 14  1  0  0  0  0
 14 15  1  0  0  0  0
 14 16  1  0  0  0  0
 16 17  1  0  0  0  0
 16 18  1  0  0  0  0
 16 19  1  0  0  0  0
M  END
$$$$

  -OEChem-01062216083D

 19 18  0     0  0  0  0  0  0999 V2000
   -2.2327   -3.9850   -0.1097 H   0  0  0  0  0  0  0  0  0  0  0  0
   -2.2086   -2.9008   -0.2515 C   0  0  0  0  0  0  0  0  0  0  0  0
   -3.0584   -2.4571    0.2721 H   0  0  0  0  0  0  0  0  0  0  0  0
   -2.2903   -2.6848   -1.3197 H   0  0  0  0  0  0  0  0  0  0  0  0
   -0.9085   -2.3342    0.2876 C   0  0  0  0  0  0  0  0  0  0  0  0
   -0.0853   -3.0737    0.8059 O   0  0  0  0  0  0  0  0  0  0  0  0
   -0.7053   -0.9659    0.3169 N   0  0  0  0  0  0  0  0  0  0  0  0
   -1.4447   -0.4401   -0.1393 H   0  0  0  0  0  0  0  0  0  0  0  0
    0.6511   -0.3947    0.1978 C   0  0  0  0  0  0  0  0  0  0  0  0
    0.5599    0.6814    0.0295 H   0  0  0  0  0  0  0  0  0  0  0  0
    1.1617   -0.5342    1.1552 H   0  0  0  0  0  0  0  0  0  0  0  0
    1.5769   -0.9653   -0.9004 C   0  0  0  0  0  0  0  0  0  0  0  0
    1.1880   -1.8053   -1.7020 O   0  0  0  0  0  0  0  0  0  0  0  0
    2.7147   -0.2514   -1.2334 N   0  0  0  0  0  0  0  0  0  0  0  0
    3.0227    0.4706   -0.5894 H   0  0  0  0  0  0  0  0  0  0  0  0
    3.5748   -0.5974   -2.3599 C   0  0  0  0  0  0  0  0  0  0  0  0
    3.9563   -1.6180   -2.2505 H   0  0  0  0  0  0  0  0  0  0  0  0
    3.0209   -0.5271   -3.3019 H   0  0  0  0  0  0  0  0  0  0  0  0
    4.4267    0.0873   -2.4102 H   0  0  0  0  0  0  0  0  0  0  0  0
  1  2  1  0  0  0  0
  2  3  1  0  0  0  0
  2  4  1  0  0  0  0
  2  5  1  0  0  0  0
  5  6  2  0  0  0  0
  5  7  1  0  0  0  0
  7  8  1  0  0  0  0
  7  9  1  0  0  0  0
  9 10  1  0  0  0  0
  9 11  1  0  0  0  0
  9 12  1  0  0  0  0
 12 13  2  0  0  0  0
 12 14  1  0  0  0  0
 14 15  1  0  0  0  0
 14 16  1  0  0  0  0
 16 17  1  0  0  0  0
 16 18  1  0  0  0  0
 16 19  1  0  0  0  0
M  END
$$$$

  -OEChem-01062216083D

 19 18  0     0  0  0  0  0  0999 V2000
   -2.1878   -3.9837   -0.1293 H   0  0  0  0  0  0  0  0  0  0  0  0
   -2.1975   -2.8957   -0.2399 C   0  0  0  0  0  0  0  0  0  0  0  0
   -3.0162   -2.4879    0.3576 H   0  0  0  0  0  0  0  0  0  0  0  0
   -2.3631   -2.6508   -1.2920 H   0  0  0  0  0  0  0  0  0  0  0  0
   -0.8743   -2.3126    0.2201 C   0  0  0  0  0  0  0  0  0  0  0  0
    0.0287   -3.0532    0.5811 O   0  0  0  0  0  0  0  0  0  0  0  0
   -0.7075   -0.9410    0.2862 N   0  0  0  0  0  0  0  0  0  0  0  0
   -1.4545   -0.4121   -0.1552 H   0  0  0  0  0  0  0  0  0  0  0  0
    0.6426   -0.3557    0.2066 C   0  0  0  0  0  0  0  0  0  0  0  0
    0.5679    0.7299    0.3095 H   0  0  0  0  0  0  0  0  0  0  0  0
    1.2405   -0.7238    1.0461 H   0  0  0  0  0  0  0  0  0  0  0  0
    1.4054   -0.6634   -1.0966 C   0  0  0  0  0  0  0  0  0  0  0  0
    0.8248   -1.1373   -2.0662 O   0  0  0  0  0  0  0  0  0  0  0  0
    2.6827   -0.1629   -1.2694 N   0  0  0  0  0  0  0  0  0  0  0  0
    3.1548    0.2113   -0.4518 H   0  0  0  0  0  0  0  0  0  0  0  0
    3.4443   -0.3354   -2.5010 C   0  0  0  0  0  0  0  0  0  0  0  0
    3.5747   -1.3993   -2.7250 H   0  0  0  0  0  0  0  0  0  0  0  0
    2.9278    0.1410   -3.3410 H   0  0  0  0  0  0  0  0  0  0  0  0
    4.4339    0.1207   -2.4016 H   0  0  0  0  0  0  0  0  0  0  0  0
  1  2  1  0  0  0  0
  2  3  1  0  0  0  0
  2  4  1  0  0  0  0
  2  5  1  0  0  0  0
  5  6  2  0  0  0  0
  5  7  1  0  0  0  0
  7  8  1  0  0  0  0
  7  9  1  0  0  0  0
  9 10  1  0  0  0  0
  9 11  1  0  0  0  0
  9 12  1  0  0  0  0
 12 13  2  0  0  0  0
 12 14  1  0  0  0  0
 14 15  1  0  0  0  0
 14 16  1  0  0  0  0
 16 17  1  0  0  0  0
 16 18  1  0  0  0  0
 16 19  1  0  0  0  0
M  END
$$$$

  -OEChem-01062216083D

 19 18  0     0  0  0  0  0  0999 V2000
   -2.1520   -3.9922   -0.1763 H   0  0  0  0  0  0  0  0  0  0  0  0
   -2.1905   -2.9011   -0.2405 C   0  0  0  0  0  0  0  0  0  0  0  0
   -2.9978   -2.5384    0.4001 H   0  0  0  0  0  0  0  0  0  0  0  0
   -2.3975   -2.6170   -1.2753 H   0  0  0  0  0  0  0  0  0  0  0  0
   -0.8670   -2.3048    0.2016 C   0  0  0  0  0  0  0  0  0  0  0  0
    0.0529   -3.0366    0.5374 O   0  0  0  0  0  0  0  0  0  0  0  0
   -0.7149   -0.9319    0.2661 N   0  0  0  0  0  0  0  0  0  0  0  0
   -1.4636   -0.4080   -0.1789 H   0  0  0  0  0  0  0  0  0  0  0  0
    0.6284   -0.3301    0.2119 C   0  0  0  0  0  0  0  0  0  0  0  0
    0.5438    0.7556    0.3050 H   0  0  0  0  0  0  0  0  0  0  0  0
    1.2139   -0.6869    1.0648 H   0  0  0  0  0  0  0  0  0  0  0  0
    1.4073   -0.6425   -1.0787 C   0  0  0  0  0  0  0  0  0  0  0  0
    0.8063   -0.9237   -2.1090 O   0  0  0  0  0  0  0  0  0  0  0  0
    2.7696   -0.4141   -1.1342 N   0  0  0  0  0  0  0  0  0  0  0  0
    3.2503   -0.2444   -0.2558 H   0  0  0  0  0  0  0  0  0  0  0  0
    3.5658   -0.6603   -2.3306 C   0  0  0  0  0  0  0  0  0  0  0  0
    3.5219   -1.7185   -2.6091 H   0  0  0  0  0  0  0  0  0  0  0  0
    3.1965   -0.0594   -3.1684 H   0  0  0  0  0  0  0  0  0  0  0  0
    4.6111   -0.3921   -2.1505 H   0  0  0  0  0  0  0  0  0  0  0  0
  1  2  1  0  0  0  0
  2  3  1  0  0  0  0
  2  4  1  0  0  0  0
  2  5  1  0  0  0  0
  5  6  2  0  0  0  0
  5  7  1  0  0  0  0
  7  8  1  0  0  0  0
  7  9  1  0  0  0  0
  9 10  1  0  0  0  0
  9 11  1  0  0  0  0
  9 12  1  0  0  0  0
 12 13  2  0  0  0  0
 12 14  1  0  0  0  0
 14 15  1  0  0  0  0
 14 16  1  0  0  0  0
 16 17  1  0  0  0  0
 16 18  1  0  0  0  0
 16 19  1  0  0  0  0
M  END
$$$$

  -OEChem-01062216083D

 19 18  0     0  0  0  0  0  0999 V2000
   -2.1400   -3.9934   -0.1662 H   0  0  0  0  0  0  0  0  0  0  0  0
   -2.1754   -2.9034   -0.2475 C   0  0  0  0  0  0  0  0  0  0  0  0
   -2.9824   -2.5288    0.3867 H   0  0  0  0  0  0  0  0  0  0  0  0
   -2.3805   -2.6345   -1.2869 H   0  0  0  0  0  0  0  0  0  0  0  0
   -0.8509   -2.3038    0.1866 C   0  0  0  0  0  0  0  0  0  0  0  0
    0.0818   -3.0333    0.4900 O   0  0  0  0  0  0  0  0  0  0  0  0
   -0.7066   -0.9313    0.2655 N   0  0  0  0  0  0  0  0  0  0  0  0
   -1.4605   -0.4027   -0.1653 H   0  0  0  0  0  0  0  0  0  0  0  0
    0.6312   -0.3174    0.2319 C   0  0  0  0  0  0  0  0  0  0  0  0
    0.5395    0.7674    0.3304 H   0  0  0  0  0  0  0  0  0  0  0  0
    1.2116   -0.6761    1.0875 H   0  0  0  0  0  0  0  0  0  0  0  0
    1.4145   -0.6195   -1.0569 C   0  0  0  0  0  0  0  0  0  0  0  0
    0.8213   -0.6918   -2.1265 O   0  0  0  0  0  0  0  0  0  0  0  0
    2.7947   -0.6871   -1.0361 N   0  0  0  0  0  0  0  0  0  0  0  0
    3.2407   -0.7371   -0.1250 H   0  0  0  0  0  0  0  0  0  0  0  0
    3.5851   -1.0118   -2.2172 C   0  0  0  0  0  0  0  0  0  0  0  0
    3.3254   -2.0087   -2.5885 H   0  0  0  0  0  0  0  0  0  0  0  0
    3.4048   -0.2813   -3.0129 H   0  0  0  0  0  0  0  0  0  0  0  0
    4.6517   -0.9988   -1.9736 H   0  0  0  0  0  0  0  0  0  0  0  0
  1  2  1  0  0  0  0
  2  3  1  0  0  0  0
  2  4  1  0  0  0  0
  2  5  1  0  0  0  0
  5  6  2  0  0  0  0
  5  7  1  0  0  0  0
  7  8  1  0  0  0  0
  7  9  1  0  0  0  0
  9 10  1  0  0  0  0
  9 11  1  0  0  0  0
  9 12  1  0  0  0  0
 12 13  2  0  0  0  0
 12 14  1  0  0  0  0
 14 15  1  0  0  0  0
 14 16  1  0  0  0  0
 16 17  1  0  0  0  0
 16 18  1  0  0  0  0
 16 19  1  0  0  0  0
M  END
$$$$

  -OEChem-01062216083D

 19 18  0     0  0  0  0  0  0999 V2000
   -1.9124   -4.1144    0.0255 H   0  0  0  0  0  0  0  0  0  0  0  0
   -2.0607   -3.0385   -0.1037 C   0  0  0  0  0  0  0  0  0  0  0  0
   -2.8823   -2.7158    0.5401 H   0  0  0  0  0  0  0  0  0  0  0  0
   -2.3236   -2.8428   -1.1465 H   0  0  0  0  0  0  0  0  0  0  0  0
   -0.7920   -2.2890    0.2581 C   0  0  0  0  0  0  0  0  0  0  0  0
    0.1906   -2.9011    0.6512 O   0  0  0  0  0  0  0  0  0  0  0  0
   -0.7507   -0.9110    0.1589 N   0  0  0  0  0  0  0  0  0  0  0  0
   -1.5331   -0.4942   -0.3391 H   0  0  0  0  0  0  0  0  0  0  0  0
    0.5366   -0.2019    0.0814 C   0  0  0  0  0  0  0  0  0  0  0  0
    0.3619    0.8759    0.0261 H   0  0  0  0  0  0  0  0  0  0  0  0
    1.1112   -0.3923    0.9928 H   0  0  0  0  0  0  0  0  0  0  0  0
    1.3767   -0.6150   -1.1370 C   0  0  0  0  0  0  0  0  0  0  0  0
    0.8513   -0.6538   -2.2427 O   0  0  0  0  0  0  0  0  0  0  0  0
    2.7271   -0.8766   -1.0064 N   0  0  0  0  0  0  0  0  0  0  0  0
    3.0773   -0.9990   -0.0605 H   0  0  0  0  0  0  0  0  0  0  0  0
    3.5389   -1.3670   -2.1131 C   0  0  0  0  0  0  0  0  0  0  0  0
    3.5207   -0.6566   -2.9464 H   0  0  0  0  0  0  0  0  0  0  0  0
    4.5774   -1.4946   -1.7928 H   0  0  0  0  0  0  0  0  0  0  0  0
    3.1621   -2.3334   -2.4648 H   0  0  0  0  0  0  0  0  0  0  0  0
  1  2  1  0  0  0  0
  2  3  1  0  0  0  0
  2  4  1  0  0  0  0
  2  5  1  0  0  0  0
  5  6  2  0  0  0  0
  5  7  1  0  0  0  0
  7  8  1  0  0  0  0
  7  9  1  0  0  0  0
  9 10  1  0  0  0  0
  9 11  1  0  0  0  0
  9 12  1  0  0  0  0
 12 13  2  0  0  0  0
 12 14  1  0  0  0  0
 14 15  1  0  0  0  0
 14 16  1  0  0  0  0
 16 17  1  0  0  0  0
 16 18  1  0  0  0  0
 16 19  1  0  0  0  0
M  END
$$$$

  -OEChem-01062216083D

 19 18  0     0  0  0  0  0  0999 V2000
   -1.9656   -4.1064    0.1517 H   0  0  0  0  0  0  0  0  0  0  0  0
   -2.0767   -3.0408   -0.0678 C   0  0  0  0  0  0  0  0  0  0  0  0
   -2.8911   -2.6395    0.5400 H   0  0  0  0  0  0  0  0  0  0  0  0
   -2.3271   -2.9231   -1.1250 H   0  0  0  0  0  0  0  0  0  0  0  0
   -0.7857   -2.3060    0.2415 C   0  0  0  0  0  0  0  0  0  0  0  0
    0.2077   -2.9295    0.5869 O   0  0  0  0  0  0  0  0  0  0  0  0
   -0.7352   -0.9283    0.1479 N   0  0  0  0  0  0  0  0  0  0  0  0
   -1.5315   -0.4933   -0.3112 H   0  0  0  0  0  0  0  0  0  0  0  0
    0.5506   -0.2175    0.0731 C   0  0  0  0  0  0  0  0  0  0  0  0
    0.3733    0.8601    0.0209 H   0  0  0  0  0  0  0  0  0  0  0  0
    1.1270   -0.4076    0.9835 H   0  0  0  0  0  0  0  0  0  0  0  0
    1.3889   -0.6254   -1.1468 C   0  0  0  0  0  0  0  0  0  0  0  0
    0.9474   -0.4176   -2.2695 O   0  0  0  0  0  0  0  0  0  0  0  0
    2.6435   -1.1800   -0.9855 N   0  0  0  0  0  0  0  0  0  0  0  0
    2.8553   -1.5385   -0.0577 H   0  0  0  0  0  0  0  0  0  0  0  0
    3.4273   -1.6767   -2.1094 C   0  0  0  0  0  0  0  0  0  0  0  0
    3.6050   -0.8773   -2.8366 H   0  0  0  0  0  0  0  0  0  0  0  0
    4.3968   -2.0446   -1.7600 H   0  0  0  0  0  0  0  0  0  0  0  0
    2.9026   -2.4978   -2.6092 H   0  0  0  0  0  0  0  0  0  0  0  0
  1  2  1  0  0  0  0
  2  3  1  0  0  0  0
  2  4  1  0  0  0  0
  2  5  1  0  0  0  0
  5  6  2  0  0  0  0
  5  7  1  0  0  0  0
  7  8  1  0  0  0  0
  7  9  1  0  0  0  0
  9 10  1  0  0  0  0
  9 11  1  0  0  0  0
  9 12  1  0  0  0  0
 12 13  2  0  0  0  0
 12 14  1  0  0  0  0
 14 15  1  0  0  0  0
 14 16  1  0  0  0  0
 16 17  1  0  0  0  0
 16 18  1  0  0  0  0
 16 19  1  0  0  0  0
M  END
$$$$

  -OEChem-01062216083D

 19 18  0     0  0  0  0  0  0999 V2000
   -1.9850   -4.1121    0.1616 H   0  0  0  0  0  0  0  0  0  0  0  0
   -2.0988   -3.0422   -0.0345 C   0  0  0  0  0  0  0  0  0  0  0  0
   -2.8798   -2.6462    0.6192 H   0  0  0  0  0  0  0  0  0  0  0  0
   -2.3999   -2.9046   -1.0760 H   0  0  0  0  0  0  0  0  0  0  0  0
   -0.7893   -2.3207    0.2242 C   0  0  0  0  0  0  0  0  0  0  0  0
    0.2106   -2.9534    0.5337 O   0  0  0  0  0  0  0  0  0  0  0  0
   -0.7280   -0.9439    0.1228 N   0  0  0  0  0  0  0  0  0  0  0  0
   -1.5401   -0.4920   -0.2902 H   0  0  0  0  0  0  0  0  0  0  0  0
    0.5565   -0.2307    0.0472 C   0  0  0  0  0  0  0  0  0  0  0  0
    0.3757    0.8462   -0.0128 H   0  0  0  0  0  0  0  0  0  0  0  0
    1.1328   -0.4109    0.9595 H   0  0  0  0  0  0  0  0  0  0  0  0
    1.4000   -0.6420   -1.1668 C   0  0  0  0  0  0  0  0  0  0  0  0
    1.1090   -0.2055   -2.2722 O   0  0  0  0  0  0  0  0  0  0  0  0
    2.4996   -1.4613   -1.0070 N   0  0  0  0  0  0  0  0  0  0  0  0
    2.5149   -2.0003   -0.1426 H   0  0  0  0  0  0  0  0  0  0  0  0
    3.2674   -1.9629   -2.1391 C   0  0  0  0  0  0  0  0  0  0  0  0
    3.6621   -1.1323   -2.7337 H   0  0  0  0  0  0  0  0  0  0  0  0
    4.1111   -2.5630   -1.7852 H   0  0  0  0  0  0  0  0  0  0  0  0
    2.6390   -2.5888   -2.7812 H   0  0  0  0  0  0  0  0  0  0  0  0
  1  2  1  0  0  0  0
  2  3  1  0  0  0  0
  2  4  1  0  0  0  0
  2  5  1  0  0  0  0
  5  6  2  0  0  0  0
  5  7  1  0  0  0  0
  7  8  1  0  0  0  0
  7  9  1  0  0  0  0
  9 10  1  0  0  0  0
  9 11  1  0  0  0  0
  9 12  1  0  0  0  0
 12 13  2  0  0  0  0
 12 14  1  0  0  0  0
 14 15  1  0  0  0  0
 14 16  1  0  0  0  0
 16 17  1  0  0  0  0
 16 18  1  0  0  0  0
 16 19  1  0  0  0  0
M  END
$$$$

  -OEChem-01062216083D

 19 18  0     0  0  0  0  0  0999 V2000
   -2.0398   -4.1093    0.2175 H   0  0  0  0  0  0  0  0  0  0  0  0
   -2.1410   -3.0410    0.0062 C   0  0  0  0  0  0  0  0  0  0  0  0
   -2.8936   -2.6204    0.6775 H   0  0  0  0  0  0  0  0  0  0  0  0
   -2.4733   -2.9170   -1.0275 H   0  0  0  0  0  0  0  0  0  0  0  0
   -0.8110   -2.3394    0.2106 C   0  0  0  0  0  0  0  0  0  0  0  0
    0.1868   -2.9886    0.4912 O   0  0  0  0  0  0  0  0  0  0  0  0
   -0.7292   -0.9643    0.0961 N   0  0  0  0  0  0  0  0  0  0  0  0
   -1.5562   -0.4921   -0.2607 H   0  0  0  0  0  0  0  0  0  0  0  0
    0.5560   -0.2502    0.0120 C   0  0  0  0  0  0  0  0  0  0  0  0
    0.3712    0.8262   -0.0517 H   0  0  0  0  0  0  0  0  0  0  0  0
    1.1336   -0.4237    0.9250 H   0  0  0  0  0  0  0  0  0  0  0  0
    1.4106   -0.6610   -1.1953 C   0  0  0  0  0  0  0  0  0  0  0  0
    1.3156   -0.0318   -2.2401 O   0  0  0  0  0  0  0  0  0  0  0  0
    2.3124   -1.7003   -1.0872 N   0  0  0  0  0  0  0  0  0  0  0  0
    2.1362   -2.3392   -0.3097 H   0  0  0  0  0  0  0  0  0  0  0  0
    3.0755   -2.1961   -2.2247 C   0  0  0  0  0  0  0  0  0  0  0  0
    3.7200   -1.4072   -2.6264 H   0  0  0  0  0  0  0  0  0  0  0  0
    3.7083   -3.0341   -1.9172 H   0  0  0  0  0  0  0  0  0  0  0  0
    2.4031   -2.5404   -3.0173 H   0  0  0  0  0  0  0  0  0  0  0  0
  1  2  1  0  0  0  0
  2  3  1  0  0  0  0
  2  4  1  0  0  0  0
  2  5  1  0  0  0  0
  5  6  2  0  0  0  0
  5  7  1  0  0  0  0
  7  8  1  0  0  0  0
  7  9  1  0  0  0  0
  9 10  1  0  0  0  0
  9 11  1  0  0  0  0
  9 12  1  0  0  0  0
 12 13  2  0  0  0  0
 12 14  1  0  0  0  0
 14 15  1  0  0  0  0
 14 16  1  0  0  0  0
 16 17  1  0  0  0  0
 16 18  1  0  0  0  0
 16 19  1  0  0  0  0
M  END
$$$$

  -OEChem-01062216083D

 19 18  0     0  0  0  0  0  0999 V2000
   -2.1287   -4.1011    0.2155 H   0  0  0  0  0  0  0  0  0  0  0  0
   -2.2098   -3.0244    0.0408 C   0  0  0  0  0  0  0  0  0  0  0  0
   -2.9179   -2.6045    0.7595 H   0  0  0  0  0  0  0  0  0  0  0  0
   -2.5870   -2.8600   -0.9716 H   0  0  0  0  0  0  0  0  0  0  0  0
   -0.8530   -2.3644    0.2028 C   0  0  0  0  0  0  0  0  0  0  0  0
    0.1275   -3.0441    0.4688 O   0  0  0  0  0  0  0  0  0  0  0  0
   -0.7358   -0.9927    0.0794 N   0  0  0  0  0  0  0  0  0  0  0  0
   -1.5675   -0.4985   -0.2342 H   0  0  0  0  0  0  0  0  0  0  0  0
    0.5529   -0.2817   -0.0135 C   0  0  0  0  0  0  0  0  0  0  0  0
    0.3670    0.7949   -0.0720 H   0  0  0  0  0  0  0  0  0  0  0  0
    1.1294   -0.4584    0.8996 H   0  0  0  0  0  0  0  0  0  0  0  0
    1.4255   -0.6810   -1.2138 C   0  0  0  0  0  0  0  0  0  0  0  0
    1.5257    0.0863   -2.1610 O   0  0  0  0  0  0  0  0  0  0  0  0
    2.1075   -1.8805   -1.2247 N   0  0  0  0  0  0  0  0  0  0  0  0
    1.8153   -2.5565   -0.5144 H   0  0  0  0  0  0  0  0  0  0  0  0
    2.8604   -2.3583   -2.3761 C   0  0  0  0  0  0  0  0  0  0  0  0
    3.6391   -1.6390   -2.6502 H   0  0  0  0  0  0  0  0  0  0  0  0
    3.3410   -3.3130   -2.1421 H   0  0  0  0  0  0  0  0  0  0  0  0
    2.1965   -2.5032   -3.2343 H   0  0  0  0  0  0  0  0  0  0  0  0
  1  2  1  0  0  0  0
  2  3  1  0  0  0  0
  2  4  1  0  0  0  0
  2  5  1  0  0  0  0
  5  6  2  0  0  0  0
  5  7  1  0  0  0  0
  7  8  1  0  0  0  0
  7  9  1  0  0  0  0
  9 10  1  0  0  0  0
  9 11  1  0  0  0  0
  9 12  1  0  0  0  0
 12 13  2  0  0  0  0
 12 14  1  0  0  0  0
 14 15  1  0  0  0  0
 14 16  1  0  0  0  0
 16 17  1  0  0  0  0
 16 18  1  0  0  0  0
 16 19  1  0  0  0  0
M  END
$$$$

  -OEChem-01062216083D

 19 18  0     0  0  0  0  0  0999 V2000
   -2.2328   -4.0834    0.2524 H   0  0  0  0  0  0  0  0  0  0  0  0
   -2.2939   -3.0007    0.1089 C   0  0  0  0  0  0  0  0  0  0  0  0
   -2.9451   -2.5805    0.8795 H   0  0  0  0  0  0  0  0  0  0  0  0
   -2.7271   -2.8005   -0.8742 H   0  0  0  0  0  0  0  0  0  0  0  0
   -0.9117   -2.3813    0.2034 C   0  0  0  0  0  0  0  0  0  0  0  0
    0.0561   -3.0893    0.4366 O   0  0  0  0  0  0  0  0  0  0  0  0
   -0.7611   -1.0152    0.0571 N   0  0  0  0  0  0  0  0  0  0  0  0
   -1.5996   -0.4986   -0.1959 H   0  0  0  0  0  0  0  0  0  0  0  0
    0.5315   -0.3114   -0.0642 C   0  0  0  0  0  0  0  0  0  0  0  0
    0.3432    0.7646   -0.1282 H   0  0  0  0  0  0  0  0  0  0  0  0
    1.1137   -0.4814    0.8465 H   0  0  0  0  0  0  0  0  0  0  0  0
    1.4130   -0.7089   -1.2616 C   0  0  0  0  0  0  0  0  0  0  0  0
    1.7210    0.1469   -2.0791 O   0  0  0  0  0  0  0  0  0  0  0  0
    1.8661   -2.0010   -1.4319 N   0  0  0  0  0  0  0  0  0  0  0  0
    1.5204   -2.6951   -0.7639 H   0  0  0  0  0  0  0  0  0  0  0  0
    2.6637   -2.4394   -2.5686 C   0  0  0  0  0  0  0  0  0  0  0  0
    3.6107   -1.8911   -2.6059 H   0  0  0  0  0  0  0  0  0  0  0  0
    2.8859   -3.5073   -2.4832 H   0  0  0  0  0  0  0  0  0  0  0  0
    2.1213   -2.2717   -3.5048 H   0  0  0  0  0  0  0  0  0  0  0  0
  1  2  1  0  0  0  0
  2  3  1  0  0  0  0
  2  4  1  0  0  0  0
  2  5  1  0  0  0  0
  5  6  2  0  0  0  0
  5  7  1  0  0  0  0
  7  8  1  0  0  0  0
  7  9  1  0  0  0  0
  9 10  1  0  0  0  0
  9 11  1  0  0  0  0
  9 12  1  0  0  0  0
 12 13  2  0  0  0  0
 12 14  1  0  0  0  0
 14 15  1  0  0  0  0
 14 16  1  0  0  0  0
 16 17  1  0  0  0  0
 16 18  1  0  0  0  0
 16 19  1  0  0  0  0
M  END
$$$$

  -OEChem-01062216083D

 19 18  0     0  0  0  0  0  0999 V2000
   -2.3963   -4.0128    0.1420 H   0  0  0  0  0  0  0  0  0  0  0  0
   -2.3986   -2.9200    0.0961 C   0  0  0  0  0  0  0  0  0  0  0  0
   -2.9806   -2.5343    0.9367 H   0  0  0  0  0  0  0  0  0  0  0  0
   -2.8712   -2.6093   -0.8389 H   0  0  0  0  0  0  0  0  0  0  0  0
   -0.9780   -2.3902    0.1622 C   0  0  0  0  0  0  0  0  0  0  0  0
   -0.0471   -3.1677    0.3035 O   0  0  0  0  0  0  0  0  0  0  0  0
   -0.7502   -1.0291    0.0875 N   0  0  0  0  0  0  0  0  0  0  0  0
   -1.5694   -0.4491   -0.0746 H   0  0  0  0  0  0  0  0  0  0  0  0
    0.5727   -0.3778   -0.0183 C   0  0  0  0  0  0  0  0  0  0  0  0
    0.4291    0.7070   -0.0136 H   0  0  0  0  0  0  0  0  0  0  0  0
    1.1559   -0.6278    0.8731 H   0  0  0  0  0  0  0  0  0  0  0  0
    1.4386   -0.7298   -1.2434 C   0  0  0  0  0  0  0  0  0  0  0  0
    1.9708    0.1847   -1.8560 O   0  0  0  0  0  0  0  0  0  0  0  0
    1.5999   -2.0314   -1.6781 N   0  0  0  0  0  0  0  0  0  0  0  0
    1.1787   -2.7521   -1.0867 H   0  0  0  0  0  0  0  0  0  0  0  0
    2.4163   -2.4497   -2.8132 C   0  0  0  0  0  0  0  0  0  0  0  0
    2.9178   -1.6032   -3.2931 H   0  0  0  0  0  0  0  0  0  0  0  0
    3.1857   -3.1529   -2.4801 H   0  0  0  0  0  0  0  0  0  0  0  0
    1.7893   -2.9421   -3.5626 H   0  0  0  0  0  0  0  0  0  0  0  0
  1  2  1  0  0  0  0
  2  3  1  0  0  0  0
  2  4  1  0  0  0  0
  2  5  1  0  0  0  0
  5  6  2  0  0  0  0
  5  7  1  0  0  0  0
  7  8  1  0  0  0  0
  7  9  1  0  0  0  0
  9 10  1  0  0  0  0
  9 11  1  0  0  0  0
  9 12  1  0  0  0  0
 12 13  2  0  0  0  0
 12 14  1  0  0  0  0
 14 15  1  0  0  0  0
 14 16  1  0  0  0  0
 16 17  1  0  0  0  0
 16 18  1  0  0  0  0
 16 19  1  0  0  0  0
M  END
$$$$

  -OEChem-01062216083D

 19 18  0     0  0  0  0  0  0999 V2000
   -2.5606   -3.9305    0.1419 H   0  0  0  0  0  0  0  0  0  0  0  0
   -2.4946   -2.8394    0.1026 C   0  0  0  0  0  0  0  0  0  0  0  0
   -3.0126   -2.4254    0.9712 H   0  0  0  0  0  0  0  0  0  0  0  0
   -2.9875   -2.4901   -0.8080 H   0  0  0  0  0  0  0  0  0  0  0  0
   -1.0415   -2.4019    0.1071 C   0  0  0  0  0  0  0  0  0  0  0  0
   -0.1554   -3.2416    0.1089 O   0  0  0  0  0  0  0  0  0  0  0  0
   -0.7323   -1.0551    0.1142 N   0  0  0  0  0  0  0  0  0  0  0  0
   -1.5206   -0.4143    0.0704 H   0  0  0  0  0  0  0  0  0  0  0  0
    0.6247   -0.4739    0.0274 C   0  0  0  0  0  0  0  0  0  0  0  0
    0.5419    0.6144    0.1021 H   0  0  0  0  0  0  0  0  0  0  0  0
    1.2019   -0.8137    0.8926 H   0  0  0  0  0  0  0  0  0  0  0  0
    1.4633   -0.7881   -1.2269 C   0  0  0  0  0  0  0  0  0  0  0  0
    2.2326    0.0687   -1.6389 O   0  0  0  0  0  0  0  0  0  0  0  0
    1.3317   -1.9666   -1.9342 N   0  0  0  0  0  0  0  0  0  0  0  0
    0.8344   -2.7157   -1.4475 H   0  0  0  0  0  0  0  0  0  0  0  0
    2.1725   -2.3130   -3.0725 C   0  0  0  0  0  0  0  0  0  0  0  0
    2.0620   -1.5713   -3.8703 H   0  0  0  0  0  0  0  0  0  0  0  0
    3.2250   -2.3553   -2.7736 H   0  0  0  0  0  0  0  0  0  0  0  0
    1.8842   -3.2909   -3.4696 H   0  0  0  0  0  0  0  0  0  0  0  0
  1  2  1  0  0  0  0
  2  3  1  0  0  0  0
  2  4  1  0  0  0  0
  2  5  1  0  0  0  0
  5  6  2  0  0  0  0
  5  7  1  0  0  0  0
  7  8  1  0  0  0  0
  7  9  1  0  0  0  0
  9 10  1  0  0  0  0
  9 11  1  0  0  0  0
  9 12  1  0  0  0  0
 12 13  2  0  0  0  0
 12 14  1  0  0  0  0
 14 15  1  0  0  0  0
 14 16  1  0  0  0  0
 16 17  1  0  0  0  0
 16 18  1  0  0  0  0
 16 19  1  0  0  0  0
M  END
$$$$

  -OEChem-01062216083D

 19 18  0     0  0  0  0  0  0999 V2000
   -2.5854   -3.9296    0.1271 H   0  0  0  0  0  0  0  0  0  0  0  0
   -2.5149   -2.8387    0.1621 C   0  0  0  0  0  0  0  0  0  0  0  0
   -2.9429   -2.4897    1.1051 H   0  0  0  0  0  0  0  0  0  0  0  0
   -3.0910   -2.4224   -0.6680 H   0  0  0  0  0  0  0  0  0  0  0  0
   -1.0648   -2.4035    0.0580 C   0  0  0  0  0  0  0  0  0  0  0  0
   -0.1861   -3.2417   -0.0587 O   0  0  0  0  0  0  0  0  0  0  0  0
   -0.7507   -1.0583    0.0749 N   0  0  0  0  0  0  0  0  0  0  0  0
   -1.5337   -0.4139    0.1482 H   0  0  0  0  0  0  0  0  0  0  0  0
    0.6084   -0.4802   -0.0046 C   0  0  0  0  0  0  0  0  0  0  0  0
    0.5278    0.6079    0.0735 H   0  0  0  0  0  0  0  0  0  0  0  0
    1.1810   -0.8263    0.8609 H   0  0  0  0  0  0  0  0  0  0  0  0
    1.4555   -0.7847   -1.2551 C   0  0  0  0  0  0  0  0  0  0  0  0
    2.3839   -0.0332   -1.5184 O   0  0  0  0  0  0  0  0  0  0  0  0
    1.1350   -1.7953   -2.1405 N   0  0  0  0  0  0  0  0  0  0  0  0
    0.5443   -2.5298   -1.7473 H   0  0  0  0  0  0  0  0  0  0  0  0
    1.9715   -2.1301   -3.2856 C   0  0  0  0  0  0  0  0  0  0  0  0
    2.0770   -1.2657   -3.9493 H   0  0  0  0  0  0  0  0  0  0  0  0
    2.9668   -2.4441   -2.9547 H   0  0  0  0  0  0  0  0  0  0  0  0
    1.5199   -2.9474   -3.8556 H   0  0  0  0  0  0  0  0  0  0  0  0
  1  2  1  0  0  0  0
  2  3  1  0  0  0  0
  2  4  1  0  0  0  0
  2  5  1  0  0  0  0
  5  6  2  0  0  0  0
  5  7  1  0  0  0  0
  7  8  1  0  0  0  0
  7  9  1  0  0  0  0
  9 10  1  0  0  0  0
  9 11  1  0  0  0  0
  9 12  1  0  0  0  0
 12 13  2  0  0  0  0
 12 14  1  0  0  0  0
 14 15  1  0  0  0  0
 14 16  1  0  0  0  0
 16 17  1  0  0  0  0
 16 18  1  0  0  0  0
 16 19  1  0  0  0  0
M  END
$$$$

  -OEChem-01062216083D

 19 18  0     0  0  0  0  0  0999 V2000
   -2.5821   -3.9349    0.0874 H   0  0  0  0  0  0  0  0  0  0  0  0
   -2.5098   -2.8481    0.1881 C   0  0  0  0  0  0  0  0  0  0  0  0
   -2.8667   -2.5632    1.1809 H   0  0  0  0  0  0  0  0  0  0  0  0
   -3.1461   -2.3821   -0.5682 H   0  0  0  0  0  0  0  0  0  0  0  0
   -1.0715   -2.3999    0.0056 C   0  0  0  0  0  0  0  0  0  0  0  0
   -0.2013   -3.2246   -0.2155 O   0  0  0  0  0  0  0  0  0  0  0  0
   -0.7613   -1.0545    0.0432 N   0  0  0  0  0  0  0  0  0  0  0  0
   -1.5326   -0.4187    0.2288 H   0  0  0  0  0  0  0  0  0  0  0  0
    0.6011   -0.4824   -0.0164 C   0  0  0  0  0  0  0  0  0  0  0  0
    0.5256    0.6056    0.0668 H   0  0  0  0  0  0  0  0  0  0  0  0
    1.1653   -0.8381    0.8510 H   0  0  0  0  0  0  0  0  0  0  0  0
    1.4524   -0.7806   -1.2643 C   0  0  0  0  0  0  0  0  0  0  0  0
    2.5129   -0.1853   -1.3930 O   0  0  0  0  0  0  0  0  0  0  0  0
    0.9808   -1.5570   -2.3055 N   0  0  0  0  0  0  0  0  0  0  0  0
    0.2691   -2.2325   -2.0298 H   0  0  0  0  0  0  0  0  0  0  0  0
    1.7961   -1.8697   -3.4721 C   0  0  0  0  0  0  0  0  0  0  0  0
    2.0639   -0.9536   -4.0088 H   0  0  0  0  0  0  0  0  0  0  0  0
    2.7150   -2.3840   -3.1714 H   0  0  0  0  0  0  0  0  0  0  0  0
    1.2420   -2.5195   -4.1560 H   0  0  0  0  0  0  0  0  0  0  0  0
  1  2  1  0  0  0  0
  2  3  1  0  0  0  0
  2  4  1  0  0  0  0
  2  5  1  0  0  0  0
  5  6  2  0  0  0  0
  5  7  1  0  0  0  0
  7  8  1  0  0  0  0
  7  9  1  0  0  0  0
  9 10  1  0  0  0  0
  9 11  1  0  0  0  0
  9 12  1  0  0  0  0
 12 13  2  0  0  0  0
 12 14  1  0  0  0  0
 14 15  1  0  0  0  0
 14 16  1  0  0  0  0
 16 17  1  0  0  0  0
 16 18  1  0  0  0  0
 16 19  1  0  0  0  0
M  END
$$$$

  -OEChem-01062216083D

 19 18  0     0  0  0  0  0  0999 V2000
   -2.5338   -3.9579    0.0633 H   0  0  0  0  0  0  0  0  0  0  0  0
   -2.4777   -2.8727    0.1889 C   0  0  0  0  0  0  0  0  0  0  0  0
   -2.8004   -2.6196    1.2018 H   0  0  0  0  0  0  0  0  0  0  0  0
   -3.1516   -2.4007   -0.5300 H   0  0  0  0  0  0  0  0  0  0  0  0
   -1.0557   -2.3930   -0.0368 C   0  0  0  0  0  0  0  0  0  0  0  0
   -0.1782   -3.1964   -0.2991 O   0  0  0  0  0  0  0  0  0  0  0  0
   -0.7687   -1.0427    0.0181 N   0  0  0  0  0  0  0  0  0  0  0  0
   -1.5374   -0.4268    0.2701 H   0  0  0  0  0  0  0  0  0  0  0  0
    0.5918   -0.4658   -0.0243 C   0  0  0  0  0  0  0  0  0  0  0  0
    0.5154    0.6214    0.0643 H   0  0  0  0  0  0  0  0  0  0  0  0
    1.1528   -0.8281    0.8429 H   0  0  0  0  0  0  0  0  0  0  0  0
    1.4420   -0.7572   -1.2728 C   0  0  0  0  0  0  0  0  0  0  0  0
    2.6035   -0.3750   -1.2870 O   0  0  0  0  0  0  0  0  0  0  0  0
    0.8763   -1.2562   -2.4310 N   0  0  0  0  0  0  0  0  0  0  0  0
    0.0082   -1.7659   -2.2918 H   0  0  0  0  0  0  0  0  0  0  0  0
    1.6728   -1.5754   -3.6092 C   0  0  0  0  0  0  0  0  0  0  0  0
    2.2182   -0.6915   -3.9562 H   0  0  0  0  0  0  0  0  0  0  0  0
    2.3937   -2.3670   -3.3799 H   0  0  0  0  0  0  0  0  0  0  0  0
    1.0245   -1.9183   -4.4211 H   0  0  0  0  0  0  0  0  0  0  0  0
  1  2  1  0  0  0  0
  2  3  1  0  0  0  0
  2  4  1  0  0  0  0
  2  5  1  0  0  0  0
  5  6  2  0  0  0  0
  5  7  1  0  0  0  0
  7  8  1  0  0  0  0
  7  9  1  0  0  0  0
  9 10  1  0  0  0  0
  9 11  1  0  0  0  0
  9 12  1  0  0  0  0
 12 13  2  0  0  0  0
 12 14  1  0  0  0  0
 14 15  1  0  0  0  0
 14 16  1  0  0  0  0
 16 17  1  0  0  0  0
 16 18  1  0  0  0  0
 16 19  1  0  0  0  0
M  END
$$$$

  -OEChem-01062216083D

 19 18  0     0  0  0  0  0  0999 V2000
   -2.4890   -3.9671   -0.0203 H   0  0  0  0  0  0  0  0  0  0  0  0
   -2.4424   -2.8860    0.1399 C   0  0  0  0  0  0  0  0  0  0  0  0
   -2.7829   -2.6668    1.1548 H   0  0  0  0  0  0  0  0  0  0  0  0
   -3.1082   -2.3967   -0.5751 H   0  0  0  0  0  0  0  0  0  0  0  0
   -1.0203   -2.3904   -0.0482 C   0  0  0  0  0  0  0  0  0  0  0  0
   -0.1258   -3.1861   -0.2730 O   0  0  0  0  0  0  0  0  0  0  0  0
   -0.7511   -1.0364    0.0186 N   0  0  0  0  0  0  0  0  0  0  0  0
   -1.5271   -0.4301    0.2712 H   0  0  0  0  0  0  0  0  0  0  0  0
    0.6061   -0.4535   -0.0112 C   0  0  0  0  0  0  0  0  0  0  0  0
    0.5297    0.6331    0.0807 H   0  0  0  0  0  0  0  0  0  0  0  0
    1.1675   -0.8194    0.8546 H   0  0  0  0  0  0  0  0  0  0  0  0
    1.4436   -0.7471   -1.2661 C   0  0  0  0  0  0  0  0  0  0  0  0
    2.6575   -0.6099   -1.2135 O   0  0  0  0  0  0  0  0  0  0  0  0
    0.8334   -0.9439   -2.4907 N   0  0  0  0  0  0  0  0  0  0  0  0
   -0.1494   -1.1939   -2.4569 H   0  0  0  0  0  0  0  0  0  0  0  0
    1.5868   -1.2517   -3.6997 C   0  0  0  0  0  0  0  0  0  0  0  0
    2.2905   -0.4449   -3.9299 H   0  0  0  0  0  0  0  0  0  0  0  0
    2.1480   -2.1835   -3.5730 H   0  0  0  0  0  0  0  0  0  0  0  0
    0.9069   -1.3673   -4.5491 H   0  0  0  0  0  0  0  0  0  0  0  0
  1  2  1  0  0  0  0
  2  3  1  0  0  0  0
  2  4  1  0  0  0  0
  2  5  1  0  0  0  0
  5  6  2  0  0  0  0
  5  7  1  0  0  0  0
  7  8  1  0  0  0  0
  7  9  1  0  0  0  0
  9 10  1  0  0  0  0
  9 11  1  0  0  0  0
  9 12  1  0  0  0  0
 12 13  2  0  0  0  0
 12 14  1  0  0  0  0
 14 15  1  0  0  0  0
 14 16  1  0  0  0  0
 16 17  1  0  0  0  0
 16 18  1  0  0  0  0
 16 19  1  0  0  0  0
M  END
$$$$

  -OEChem-01062216083D

 19 18  0     0  0  0  0  0  0999 V2000
   -2.3335   -4.0483    0.1654 H   0  0  0  0  0  0  0  0  0  0  0  0
   -2.3630   -2.9550    0.1425 C   0  0  0  0  0  0  0  0  0  0  0  0
   -2.8128   -2.5977    1.0720 H   0  0  0  0  0  0  0  0  0  0  0  0
   -2.9818   -2.6374   -0.7000 H   0  0  0  0  0  0  0  0  0  0  0  0
   -0.9588   -2.3978   -0.0050 C   0  0  0  0  0  0  0  0  0  0  0  0
   -0.0166   -3.1590   -0.1317 O   0  0  0  0  0  0  0  0  0  0  0  0
   -0.7606   -1.0296   -0.0003 N   0  0  0  0  0  0  0  0  0  0  0  0
   -1.5749   -0.4516    0.1886 H   0  0  0  0  0  0  0  0  0  0  0  0
    0.5661   -0.3825   -0.0334 C   0  0  0  0  0  0  0  0  0  0  0  0
    0.4395    0.7027    0.0039 H   0  0  0  0  0  0  0  0  0  0  0  0
    1.1286   -0.6798    0.8579 H   0  0  0  0  0  0  0  0  0  0  0  0
    1.4283   -0.7062   -1.2632 C   0  0  0  0  0  0  0  0  0  0  0  0
    2.6441   -0.7455   -1.1437 O   0  0  0  0  0  0  0  0  0  0  0  0
    0.8561   -0.6856   -2.5234 N   0  0  0  0  0  0  0  0  0  0  0  0
   -0.1580   -0.6859   -2.5520 H   0  0  0  0  0  0  0  0  0  0  0  0
    1.5843   -0.9174   -3.7681 C   0  0  0  0  0  0  0  0  0  0  0  0
    2.6513   -1.0922   -3.5953 H   0  0  0  0  0  0  0  0  0  0  0  0
    1.1791   -1.7963   -4.2789 H   0  0  0  0  0  0  0  0  0  0  0  0
    1.4859   -0.0491   -4.4268 H   0  0  0  0  0  0  0  0  0  0  0  0
  1  2  1  0  0  0  0
  2  3  1  0  0  0  0
  2  4  1  0  0  0  0
  2  5  1  0  0  0  0
  5  6  2  0  0  0  0
  5  7  1  0  0  0  0
  7  8  1  0  0  0  0
  7  9  1  0  0  0  0
  9 10  1  0  0  0  0
  9 11  1  0  0  0  0
  9 12  1  0  0  0  0
 12 13  2  0  0  0  0
 12 14  1  0  0  0  0
 14 15  1  0  0  0  0
 14 16  1  0  0  0  0
 16 17  1  0  0  0  0
 16 18  1  0  0  0  0
 16 19  1  0  0  0  0
M  END
$$$$

  -OEChem-01062216083D

 19 18  0     0  0  0  0  0  0999 V2000
   -2.2074   -4.1158    0.1218 H   0  0  0  0  0  0  0  0  0  0  0  0
   -2.2828   -3.0266    0.1900 C   0  0  0  0  0  0  0  0  0  0  0  0
   -2.6918   -2.7632    1.1685 H   0  0  0  0  0  0  0  0  0  0  0  0
   -2.9615   -2.6727   -0.5896 H   0  0  0  0  0  0  0  0  0  0  0  0
   -0.9131   -2.3969    0.0141 C   0  0  0  0  0  0  0  0  0  0  0  0
    0.0700   -3.1090   -0.0781 O   0  0  0  0  0  0  0  0  0  0  0  0
   -0.7945   -1.0204   -0.0338 N   0  0  0  0  0  0  0  0  0  0  0  0
   -1.6428   -0.4863    0.1325 H   0  0  0  0  0  0  0  0  0  0  0  0
    0.4908   -0.2967   -0.0818 C   0  0  0  0  0  0  0  0  0  0  0  0
    0.3010    0.7796   -0.0864 H   0  0  0  0  0  0  0  0  0  0  0  0
    1.0608   -0.5260    0.8246 H   0  0  0  0  0  0  0  0  0  0  0  0
    1.3801   -0.6193   -1.2922 C   0  0  0  0  0  0  0  0  0  0  0  0
    2.5738   -0.8285   -1.1310 O   0  0  0  0  0  0  0  0  0  0  0  0
    0.9062   -0.3834   -2.5696 N   0  0  0  0  0  0  0  0  0  0  0  0
   -0.0969   -0.2705   -2.6712 H   0  0  0  0  0  0  0  0  0  0  0  0
    1.7120   -0.6089   -3.7635 C   0  0  0  0  0  0  0  0  0  0  0  0
    2.0200   -1.6581   -3.8244 H   0  0  0  0  0  0  0  0  0  0  0  0
    1.1358   -0.3631   -4.6607 H   0  0  0  0  0  0  0  0  0  0  0  0
    2.6080    0.0207   -3.7464 H   0  0  0  0  0  0  0  0  0  0  0  0
  1  2  1  0  0  0  0
  2  3  1  0  0  0  0
  2  4  1  0  0  0  0
  2  5  1  0  0  0  0
  5  6  2  0  0  0  0
  5  7  1  0  0  0  0
  7  8  1  0  0  0  0
  7  9  1  0  0  0  0
  9 10  1  0  0  0  0
  9 11  1  0  0  0  0
  9 12  1  0  0  0  0
 12 13  2  0  0  0  0
 12 14  1  0  0  0  0
 14 15  1  0  0  0  0
 14 16  1  0  0  0  0
 16 17  1  0  0  0  0
 16 18  1  0  0  0  0
 16 19  1  0  0  0  0
M  END
$$$$

  -OEChem-01062216083D

 19 18  0     0  0  0  0  0  0999 V2000
   -2.1945   -4.1188    0.1497 H   0  0  0  0  0  0  0  0  0  0  0  0
   -2.2776   -3.0282    0.1466 C   0  0  0  0  0  0  0  0  0  0  0  0
   -2.7707   -2.7110    1.0686 H   0  0  0  0  0  0  0  0  0  0  0  0
   -2.8859   -2.7252   -0.7090 H   0  0  0  0  0  0  0  0  0  0  0  0
   -0.8990   -2.4004    0.0532 C   0  0  0  0  0  0  0  0  0  0  0  0
    0.0868   -3.1139    0.0468 O   0  0  0  0  0  0  0  0  0  0  0  0
   -0.7786   -1.0243   -0.0070 N   0  0  0  0  0  0  0  0  0  0  0  0
   -1.6390   -0.4885    0.0615 H   0  0  0  0  0  0  0  0  0  0  0  0
    0.5028   -0.2954   -0.0687 C   0  0  0  0  0  0  0  0  0  0  0  0
    0.3113    0.7807   -0.0717 H   0  0  0  0  0  0  0  0  0  0  0  0
    1.0800   -0.5198    0.8346 H   0  0  0  0  0  0  0  0  0  0  0  0
    1.3854   -0.6248   -1.2832 C   0  0  0  0  0  0  0  0  0  0  0  0
    2.5081   -1.0804   -1.1241 O   0  0  0  0  0  0  0  0  0  0  0  0
    1.0425   -0.1225   -2.5257 N   0  0  0  0  0  0  0  0  0  0  0  0
    0.1000    0.2353   -2.6385 H   0  0  0  0  0  0  0  0  0  0  0  0
    1.8751   -0.2992   -3.7096 C   0  0  0  0  0  0  0  0  0  0  0  0
    2.0045   -1.3640   -3.9308 H   0  0  0  0  0  0  0  0  0  0  0  0
    1.4094    0.1817   -4.5751 H   0  0  0  0  0  0  0  0  0  0  0  0
    2.8617    0.1503   -3.5554 H   0  0  0  0  0  0  0  0  0  0  0  0
  1  2  1  0  0  0  0
  2  3  1  0  0  0  0
  2  4  1  0  0  0  0
  2  5  1  0  0  0  0
  5  6  2  0  0  0  0
  5  7  1  0  0  0  0
  7  8  1  0  0  0  0
  7  9  1  0  0  0  0
  9 10  1  0  0  0  0
  9 11  1  0  0  0  0
  9 12  1  0  0  0  0
 12 13  2  0  0  0  0
 12 14  1  0  0  0  0
 14 15  1  0  0  0  0
 14 16  1  0  0  0  0
 16 17  1  0  0  0  0
 16 18  1  0  0  0  0
 16 19  1  0  0  0  0
M  END
$$$$

  -OEChem-01062216083D

 19 18  0     0  0  0  0  0  0999 V2000
   -2.1813   -4.1074    0.1331 H   0  0  0  0  0  0  0  0  0  0  0  0
   -2.2551   -3.0185    0.0596 C   0  0  0  0  0  0  0  0  0  0  0  0
   -2.8731   -2.6522    0.8828 H   0  0  0  0  0  0  0  0  0  0  0  0
   -2.7322   -2.7628   -0.8895 H   0  0  0  0  0  0  0  0  0  0  0  0
   -0.8724   -2.3961    0.1305 C   0  0  0  0  0  0  0  0  0  0  0  0
    0.0998   -3.1124    0.2798 O   0  0  0  0  0  0  0  0  0  0  0  0
   -0.7412   -1.0208    0.0715 N   0  0  0  0  0  0  0  0  0  0  0  0
   -1.5995   -0.4920   -0.0518 H   0  0  0  0  0  0  0  0  0  0  0  0
    0.5443   -0.3031   -0.0267 C   0  0  0  0  0  0  0  0  0  0  0  0
    0.3639    0.7746   -0.0074 H   0  0  0  0  0  0  0  0  0  0  0  0
    1.1482   -0.5425    0.8550 H   0  0  0  0  0  0  0  0  0  0  0  0
    1.3877   -0.6334   -1.2700 C   0  0  0  0  0  0  0  0  0  0  0  0
    2.3583   -1.3708   -1.1972 O   0  0  0  0  0  0  0  0  0  0  0  0
    1.2111    0.1112   -2.4229 N   0  0  0  0  0  0  0  0  0  0  0  0
    0.4196    0.7447   -2.4596 H   0  0  0  0  0  0  0  0  0  0  0  0
    2.0420   -0.0503   -3.6104 C   0  0  0  0  0  0  0  0  0  0  0  0
    1.9802   -1.0780   -3.9838 H   0  0  0  0  0  0  0  0  0  0  0  0
    1.7069    0.6264   -4.4022 H   0  0  0  0  0  0  0  0  0  0  0  0
    3.0879    0.1785   -3.3801 H   0  0  0  0  0  0  0  0  0  0  0  0
  1  2  1  0  0  0  0
  2  3  1  0  0  0  0
  2  4  1  0  0  0  0
  2  5  1  0  0  0  0
  5  6  2  0  0  0  0
  5  7  1  0  0  0  0
  7  8  1  0  0  0  0
  7  9  1  0  0  0  0
  9 10  1  0  0  0  0
  9 11  1  0  0  0  0
  9 12  1  0  0  0  0
 12 13  2  0  0  0  0
 12 14  1  0  0  0  0
 14 15  1  0  0  0  0
 14 16  1  0  0  0  0
 16 17  1  0  0  0  0
 16 18  1  0  0  0  0
 16 19  1  0  0  0  0
M  END
$$$$

  -OEChem-01062216083D

 19 18  0     0  0  0  0  0  0999 V2000
   -2.0919   -4.0983    0.0660 H   0  0  0  0  0  0  0  0  0  0  0  0
   -2.1554   -3.0176   -0.0908 C   0  0  0  0  0  0  0  0  0  0  0  0
   -2.9397   -2.6143    0.5540 H   0  0  0  0  0  0  0  0  0  0  0  0
   -2.4161   -2.8300   -1.1350 H   0  0  0  0  0  0  0  0  0  0  0  0
   -0.8251   -2.3647    0.2370 C   0  0  0  0  0  0  0  0  0  0  0  0
    0.0959   -3.0503    0.6435 O   0  0  0  0  0  0  0  0  0  0  0  0
   -0.7099   -0.9869    0.1909 N   0  0  0  0  0  0  0  0  0  0  0  0
   -1.5312   -0.5047   -0.1614 H   0  0  0  0  0  0  0  0  0  0  0  0
    0.5852   -0.2934    0.0540 C   0  0  0  0  0  0  0  0  0  0  0  0
    0.4229    0.7862    0.1019 H   0  0  0  0  0  0  0  0  0  0  0  0
    1.2177   -0.5577    0.9080 H   0  0  0  0  0  0  0  0  0  0  0  0
    1.3807   -0.6203   -1.2242 C   0  0  0  0  0  0  0  0  0  0  0  0
    2.0003   -1.6628   -1.3584 O   0  0  0  0  0  0  0  0  0  0  0  0
    1.4264    0.3104   -2.2474 N   0  0  0  0  0  0  0  0  0  0  0  0
    0.9317    1.1867   -2.1156 H   0  0  0  0  0  0  0  0  0  0  0  0
    2.1780    0.1045   -3.4804 C   0  0  0  0  0  0  0  0  0  0  0  0
    1.7858   -0.7588   -4.0284 H   0  0  0  0  0  0  0  0  0  0  0  0
    2.1004    0.9867   -4.1231 H   0  0  0  0  0  0  0  0  0  0  0  0
    3.2366   -0.0699   -3.2600 H   0  0  0  0  0  0  0  0  0  0  0  0
  1  2  1  0  0  0  0
  2  3  1  0  0  0  0
  2  4  1  0  0  0  0
  2  5  1  0  0  0  0
  5  6  2  0  0  0  0
  5  7  1  0  0  0  0
  7  8  1  0  0  0  0
  7  9  1  0  0  0  0
  9 10  1  0  0  0  0
  9 11  1  0  0  0  0
  9 12  1  0  0  0  0
 12 13  2  0  0  0  0
 12 14  1  0  0  0  0
 14 15  1  0  0  0  0
 14 16  1  0  0  0  0
 16 17  1  0  0  0  0
 16 18  1  0  0  0  0
 16 19  1  0  0  0  0
M  END
$$$$

  -OEChem-01062216083D

 19 18  0     0  0  0  0  0  0999 V2000
   -2.2552   -3.9518   -0.1566 H   0  0  0  0  0  0  0  0  0  0  0  0
   -2.2348   -2.8605   -0.2253 C   0  0  0  0  0  0  0  0  0  0  0  0
   -3.0263   -2.4525    0.4077 H   0  0  0  0  0  0  0  0  0  0  0  0
   -2.4183   -2.5719   -1.2630 H   0  0  0  0  0  0  0  0  0  0  0  0
   -0.8840   -2.3363    0.2256 C   0  0  0  0  0  0  0  0  0  0  0  0
   -0.0506   -3.1104    0.6668 O   0  0  0  0  0  0  0  0  0  0  0  0
   -0.6582   -0.9725    0.2825 N   0  0  0  0  0  0  0  0  0  0  0  0
   -1.4190   -0.4136   -0.0918 H   0  0  0  0  0  0  0  0  0  0  0  0
    0.6975   -0.4070    0.1428 C   0  0  0  0  0  0  0  0  0  0  0  0
    0.6426    0.6759    0.2789 H   0  0  0  0  0  0  0  0  0  0  0  0
    1.3277   -0.7978    0.9483 H   0  0  0  0  0  0  0  0  0  0  0  0
    1.4196   -0.7043   -1.1882 C   0  0  0  0  0  0  0  0  0  0  0  0
    1.5245   -1.8329   -1.6421 O   0  0  0  0  0  0  0  0  0  0  0  0
    1.8090    0.3551   -1.9893 N   0  0  0  0  0  0  0  0  0  0  0  0
    1.7108    1.2940   -1.6159 H   0  0  0  0  0  0  0  0  0  0  0  0
    2.4325    0.1816   -3.2967 C   0  0  0  0  0  0  0  0  0  0  0  0
    3.3589   -0.3955   -3.2061 H   0  0  0  0  0  0  0  0  0  0  0  0
    1.7550   -0.3444   -3.9777 H   0  0  0  0  0  0  0  0  0  0  0  0
    2.6734    1.1555   -3.7336 H   0  0  0  0  0  0  0  0  0  0  0  0
  1  2  1  0  0  0  0
  2  3  1  0  0  0  0
  2  4  1  0  0  0  0
  2  5  1  0  0  0  0
  5  6  2  0  0  0  0
  5  7  1  0  0  0  0
  7  8  1  0  0  0  0
  7  9  1  0  0  0  0
  9 10  1  0  0  0  0
  9 11  1  0  0  0  0
  9 12  1  0  0  0  0
 12 13  2  0  0  0  0
 12 14  1  0  0  0  0
 14 15  1  0  0  0  0
 14 16  1  0  0  0  0
 16 17  1  0  0  0  0
 16 18  1  0  0  0  0
 16 19  1  0  0  0  0
M  END
$$$$

  -OEChem-01062216083D

 19 18  0     0  0  0  0  0  0999 V2000
   -2.2417   -3.9587   -0.1333 H   0  0  0  0  0  0  0  0  0  0  0  0
   -2.2170   -2.8706   -0.2412 C   0  0  0  0  0  0  0  0  0  0  0  0
   -3.0326   -2.4396    0.3441 H   0  0  0  0  0  0  0  0  0  0  0  0
   -2.3580   -2.6199   -1.2954 H   0  0  0  0  0  0  0  0  0  0  0  0
   -0.8839   -2.3297    0.2418 C   0  0  0  0  0  0  0  0  0  0  0  0
   -0.0450   -3.0922    0.6958 O   0  0  0  0  0  0  0  0  0  0  0  0
   -0.6701   -0.9636    0.2954 N   0  0  0  0  0  0  0  0  0  0  0  0
   -1.4204   -0.4176   -0.1173 H   0  0  0  0  0  0  0  0  0  0  0  0
    0.6884   -0.4029    0.1642 C   0  0  0  0  0  0  0  0  0  0  0  0
    0.6278    0.6814    0.2877 H   0  0  0  0  0  0  0  0  0  0  0  0
    1.3091   -0.7844    0.9811 H   0  0  0  0  0  0  0  0  0  0  0  0
    1.4281   -0.7049   -1.1575 C   0  0  0  0  0  0  0  0  0  0  0  0
    1.2381   -1.7308   -1.7948 O   0  0  0  0  0  0  0  0  0  0  0  0
    2.0998    0.3261   -1.7912 N   0  0  0  0  0  0  0  0  0  0  0  0
    2.2342    1.1903   -1.2756 H   0  0  0  0  0  0  0  0  0  0  0  0
    2.7181    0.1919   -3.1060 C   0  0  0  0  0  0  0  0  0  0  0  0
    3.4721   -0.6024   -3.0963 H   0  0  0  0  0  0  0  0  0  0  0  0
    1.9631   -0.0482   -3.8623 H   0  0  0  0  0  0  0  0  0  0  0  0
    3.2066    1.1285   -3.3919 H   0  0  0  0  0  0  0  0  0  0  0  0
  1  2  1  0  0  0  0
  2  3  1  0  0  0  0
  2  4  1  0  0  0  0
  2  5  1  0  0  0  0
  5  6  2  0  0  0  0
  5  7  1  0  0  0  0
  7  8  1  0  0  0  0
  7  9  1  0  0  0  0
  9 10  1  0  0  0  0
  9 11  1  0  0  0  0
  9 12  1  0  0  0  0
 12 13  2  0  0  0  0
 12 14  1  0  0  0  0
 14 15  1  0  0  0  0
 14 16  1  0  0  0  0
 16 17  1  0  0  0  0
 16 18  1  0  0  0  0
 16 19  1  0  0  0  0
M  END
$$$$

  -OEChem-01062216083D

 19 18  0     0  0  0  0  0  0999 V2000
   -2.2236   -3.9682   -0.1287 H   0  0  0  0  0  0  0  0  0  0  0  0
   -2.2102   -2.8803   -0.2396 C   0  0  0  0  0  0  0  0  0  0  0  0
   -3.0303   -2.4558    0.3442 H   0  0  0  0  0  0  0  0  0  0  0  0
   -2.3533   -2.6336   -1.2945 H   0  0  0  0  0  0  0  0  0  0  0  0
   -0.8828   -2.3244    0.2417 C   0  0  0  0  0  0  0  0  0  0  0  0
   -0.0203   -3.0803    0.6634 O   0  0  0  0  0  0  0  0  0  0  0  0
   -0.6841   -0.9561    0.2998 N   0  0  0  0  0  0  0  0  0  0  0  0
   -1.4316   -0.4165   -0.1264 H   0  0  0  0  0  0  0  0  0  0  0  0
    0.6736   -0.3928    0.1793 C   0  0  0  0  0  0  0  0  0  0  0  0
    0.6093    0.6922    0.2952 H   0  0  0  0  0  0  0  0  0  0  0  0
    1.2894   -0.7702    1.0018 H   0  0  0  0  0  0  0  0  0  0  0  0
    1.4188   -0.6960   -1.1387 C   0  0  0  0  0  0  0  0  0  0  0  0
    1.0296   -1.5543   -1.9197 O   0  0  0  0  0  0  0  0  0  0  0  0
    2.3407    0.2240   -1.6058 N   0  0  0  0  0  0  0  0  0  0  0  0
    2.6455    0.9518   -0.9669 H   0  0  0  0  0  0  0  0  0  0  0  0
    3.0040    0.1043   -2.8995 C   0  0  0  0  0  0  0  0  0  0  0  0
    3.5555   -0.8398   -2.9612 H   0  0  0  0  0  0  0  0  0  0  0  0
    2.2702    0.1375   -3.7117 H   0  0  0  0  0  0  0  0  0  0  0  0
    3.7108    0.9275   -3.0401 H   0  0  0  0  0  0  0  0  0  0  0  0
  1  2  1  0  0  0  0
  2  3  1  0  0  0  0
  2  4  1  0  0  0  0
  2  5  1  0  0  0  0
  5  6  2  0  0  0  0
  5  7  1  0  0  0  0
  7  8  1  0  0  0  0
  7  9  1  0  0  0  0
  9 10  1  0  0  0  0
  9 11  1  0  0  0  0
  9 12  1  0  0  0  0
 12 13  2  0  0  0  0
 12 14  1  0  0  0  0
 14 15  1  0  0  0  0
 14 16  1  0  0  0  0
 16 17  1  0  0  0  0
 16 18  1  0  0  0  0
 16 19  1  0  0  0  0
M  END
$$$$

  -OEChem-01062216083D

 19 18  0     0  0  0  0  0  0999 V2000
   -2.2095   -3.9735   -0.1264 H   0  0  0  0  0  0  0  0  0  0  0  0
   -2.2030   -2.8861   -0.2416 C   0  0  0  0  0  0  0  0  0  0  0  0
   -3.0251   -2.4645    0.3412 H   0  0  0  0  0  0  0  0  0  0  0  0
   -2.3487   -2.6442   -1.2973 H   0  0  0  0  0  0  0  0  0  0  0  0
   -0.8796   -2.3188    0.2366 C   0  0  0  0  0  0  0  0  0  0  0  0
    0.0022   -3.0683    0.6296 O   0  0  0  0  0  0  0  0  0  0  0  0
   -0.6957   -0.9490    0.2989 N   0  0  0  0  0  0  0  0  0  0  0  0
   -1.4423   -0.4149   -0.1362 H   0  0  0  0  0  0  0  0  0  0  0  0
    0.6594   -0.3776    0.1961 C   0  0  0  0  0  0  0  0  0  0  0  0
    0.5922    0.7079    0.3044 H   0  0  0  0  0  0  0  0  0  0  0  0
    1.2669   -0.7506    1.0266 H   0  0  0  0  0  0  0  0  0  0  0  0
    1.4108   -0.6840   -1.1158 C   0  0  0  0  0  0  0  0  0  0  0  0
    0.8981   -1.3564   -2.0021 O   0  0  0  0  0  0  0  0  0  0  0  0
    2.5391    0.0525   -1.4286 N   0  0  0  0  0  0  0  0  0  0  0  0
    2.9508    0.6190   -0.6933 H   0  0  0  0  0  0  0  0  0  0  0  0
    3.2500   -0.0761   -2.6956 C   0  0  0  0  0  0  0  0  0  0  0  0
    3.5980   -1.1049   -2.8370 H   0  0  0  0  0  0  0  0  0  0  0  0
    2.5962    0.1930   -3.5319 H   0  0  0  0  0  0  0  0  0  0  0  0
    4.1192    0.5882   -2.7104 H   0  0  0  0  0  0  0  0  0  0  0  0
  1  2  1  0  0  0  0
  2  3  1  0  0  0  0
  2  4  1  0  0  0  0
  2  5  1  0  0  0  0
  5  6  2  0  0  0  0
  5  7  1  0  0  0  0
  7  8  1  0  0  0  0
  7  9  1  0  0  0  0
  9 10  1  0  0  0  0
  9 11  1  0  0  0  0
  9 12  1  0  0  0  0
 12 13  2  0  0  0  0
 12 14  1  0  0  0  0
 14 15  1  0  0  0  0
 14 16  1  0  0  0  0
 16 17  1  0  0  0  0
 16 18  1  0  0  0  0
 16 19  1  0  0  0  0
M  END
$$$$

  -OEChem-01062216083D

 19 18  0     0  0  0  0  0  0999 V2000
   -2.2188   -3.9635   -0.1682 H   0  0  0  0  0  0  0  0  0  0  0  0
   -2.2284   -2.8711   -0.2174 C   0  0  0  0  0  0  0  0  0  0  0  0
   -3.0029   -2.4950    0.4552 H   0  0  0  0  0  0  0  0  0  0  0  0
   -2.4627   -2.5671   -1.2407 H   0  0  0  0  0  0  0  0  0  0  0  0
   -0.8744   -2.3173    0.1861 C   0  0  0  0  0  0  0  0  0  0  0  0
    0.0418   -3.0805    0.4539 O   0  0  0  0  0  0  0  0  0  0  0  0
   -0.6892   -0.9499    0.2691 N   0  0  0  0  0  0  0  0  0  0  0  0
   -1.4374   -0.4024   -0.1476 H   0  0  0  0  0  0  0  0  0  0  0  0
    0.6631   -0.3713    0.1953 C   0  0  0  0  0  0  0  0  0  0  0  0
    0.6306    0.6589    0.5593 H   0  0  0  0  0  0  0  0  0  0  0  0
    1.3427   -0.9243    0.8512 H   0  0  0  0  0  0  0  0  0  0  0  0
    1.2533   -0.3630   -1.2256 C   0  0  0  0  0  0  0  0  0  0  0  0
    0.5576   -0.6487   -2.1931 O   0  0  0  0  0  0  0  0  0  0  0  0
    2.5188    0.1510   -1.4379 N   0  0  0  0  0  0  0  0  0  0  0  0
    3.0869    0.3559   -0.6213 H   0  0  0  0  0  0  0  0  0  0  0  0
    3.1280    0.2462   -2.7592 C   0  0  0  0  0  0  0  0  0  0  0  0
    3.2276   -0.7478   -3.2078 H   0  0  0  0  0  0  0  0  0  0  0  0
    2.5171    0.8712   -3.4191 H   0  0  0  0  0  0  0  0  0  0  0  0
    4.1233    0.6944   -2.6849 H   0  0  0  0  0  0  0  0  0  0  0  0
  1  2  1  0  0  0  0
  2  3  1  0  0  0  0
  2  4  1  0  0  0  0
  2  5  1  0  0  0  0
  5  6  2  0  0  0  0
  5  7  1  0  0  0  0
  7  8  1  0  0  0  0
  7  9  1  0  0  0  0
  9 10  1  0  0  0  0
  9 11  1  0  0  0  0
  9 12  1  0  0  0  0
 12 13  2  0  0  0  0
 12 14  1  0  0  0  0
 14 15  1  0  0  0  0
 14 16  1  0  0  0  0
 16 17  1  0  0  0  0
 16 18  1  0  0  0  0
 16 19  1  0  0  0  0
M  END
$$$$

  -OEChem-01062216083D

 19 18  0     0  0  0  0  0  0999 V2000
   -2.1939   -3.9716   -0.1966 H   0  0  0  0  0  0  0  0  0  0  0  0
   -2.2240   -2.8785   -0.2146 C   0  0  0  0  0  0  0  0  0  0  0  0
   -2.9849   -2.5350    0.4902 H   0  0  0  0  0  0  0  0  0  0  0  0
   -2.4937   -2.5506   -1.2216 H   0  0  0  0  0  0  0  0  0  0  0  0
   -0.8688   -2.3117    0.1657 C   0  0  0  0  0  0  0  0  0  0  0  0
    0.0628   -3.0656    0.4054 O   0  0  0  0  0  0  0  0  0  0  0  0
   -0.6952   -0.9432    0.2484 N   0  0  0  0  0  0  0  0  0  0  0  0
   -1.4466   -0.3962   -0.1641 H   0  0  0  0  0  0  0  0  0  0  0  0
    0.6511   -0.3499    0.2016 C   0  0  0  0  0  0  0  0  0  0  0  0
    0.6032    0.6820    0.5589 H   0  0  0  0  0  0  0  0  0  0  0  0
    1.3214   -0.8938    0.8744 H   0  0  0  0  0  0  0  0  0  0  0  0
    1.2629   -0.3437   -1.2088 C   0  0  0  0  0  0  0  0  0  0  0  0
    0.5407   -0.4205   -2.1958 O   0  0  0  0  0  0  0  0  0  0  0  0
    2.6160   -0.1156   -1.3749 N   0  0  0  0  0  0  0  0  0  0  0  0
    3.1975   -0.1257   -0.5422 H   0  0  0  0  0  0  0  0  0  0  0  0
    3.2640   -0.1028   -2.6809 C   0  0  0  0  0  0  0  0  0  0  0  0
    3.1461   -1.0721   -3.1767 H   0  0  0  0  0  0  0  0  0  0  0  0
    2.8293    0.6744   -3.3182 H   0  0  0  0  0  0  0  0  0  0  0  0
    4.3330    0.1022   -2.5699 H   0  0  0  0  0  0  0  0  0  0  0  0
  1  2  1  0  0  0  0
  2  3  1  0  0  0  0
  2  4  1  0  0  0  0
  2  5  1  0  0  0  0
  5  6  2  0  0  0  0
  5  7  1  0  0  0  0
  7  8  1  0  0  0  0
  7  9  1  0  0  0  0
  9 10  1  0  0  0  0
  9 11  1  0  0  0  0
  9 12  1  0  0  0  0
 12 13  2  0  0  0  0
 12 14  1  0  0  0  0
 14 15  1  0  0  0  0
 14 16  1  0  0  0  0
 16 17  1  0  0  0  0
 16 18  1  0  0  0  0
 16 19  1  0  0  0  0
M  END
$$$$

  -OEChem-01062216083D

 19 18  0     0  0  0  0  0  0999 V2000
   -2.1843   -3.9706   -0.1966 H   0  0  0  0  0  0  0  0  0  0  0  0
   -2.2190   -2.8777   -0.2172 C   0  0  0  0  0  0  0  0  0  0  0  0
   -2.9777   -2.5360    0.4907 H   0  0  0  0  0  0  0  0  0  0  0  0
   -2.4955   -2.5536   -1.2236 H   0  0  0  0  0  0  0  0  0  0  0  0
   -0.8645   -2.3045    0.1564 C   0  0  0  0  0  0  0  0  0  0  0  0
    0.0722   -3.0532    0.3920 O   0  0  0  0  0  0  0  0  0  0  0  0
   -0.6937   -0.9355    0.2299 N   0  0  0  0  0  0  0  0  0  0  0  0
   -1.4456   -0.3874   -0.1810 H   0  0  0  0  0  0  0  0  0  0  0  0
    0.6494   -0.3347    0.2062 C   0  0  0  0  0  0  0  0  0  0  0  0
    0.5918    0.7012    0.5505 H   0  0  0  0  0  0  0  0  0  0  0  0
    1.3084   -0.8683    0.8981 H   0  0  0  0  0  0  0  0  0  0  0  0
    1.2807   -0.3431   -1.1942 C   0  0  0  0  0  0  0  0  0  0  0  0
    0.5711   -0.2075   -2.1836 O   0  0  0  0  0  0  0  0  0  0  0  0
    2.6526   -0.4214   -1.3419 N   0  0  0  0  0  0  0  0  0  0  0  0
    3.1979   -0.6387   -0.5129 H   0  0  0  0  0  0  0  0  0  0  0  0
    3.3081   -0.4745   -2.6429 C   0  0  0  0  0  0  0  0  0  0  0  0
    3.0051   -1.3747   -3.1880 H   0  0  0  0  0  0  0  0  0  0  0  0
    3.0472    0.4051   -3.2409 H   0  0  0  0  0  0  0  0  0  0  0  0
    4.3950   -0.4940   -2.5177 H   0  0  0  0  0  0  0  0  0  0  0  0
  1  2  1  0  0  0  0
  2  3  1  0  0  0  0
  2  4  1  0  0  0  0
  2  5  1  0  0  0  0
  5  6  2  0  0  0  0
  5  7  1  0  0  0  0
  7  8  1  0  0  0  0
  7  9  1  0  0  0  0
  9 10  1  0  0  0  0
  9 11  1  0  0  0  0
  9 12  1  0  0  0  0
 12 13  2  0  0  0  0
 12 14  1  0  0  0  0
 14 15  1  0  0  0  0
 14 16  1  0  0  0  0
 16 17  1  0  0  0  0
 16 18  1  0  0  0  0
 16 19  1  0  0  0  0
M  END
$$$$

  -OEChem-01062216083D

 19 18  0     0  0  0  0  0  0999 V2000
   -2.1551   -3.9658   -0.2622 H   0  0  0  0  0  0  0  0  0  0  0  0
   -2.2088   -2.8744   -0.2200 C   0  0  0  0  0  0  0  0  0  0  0  0
   -2.9488   -2.5864    0.5305 H   0  0  0  0  0  0  0  0  0  0  0  0
   -2.5252   -2.5007   -1.1969 H   0  0  0  0  0  0  0  0  0  0  0  0
   -0.8526   -2.2968    0.1403 C   0  0  0  0  0  0  0  0  0  0  0  0
    0.0924   -3.0416    0.3550 O   0  0  0  0  0  0  0  0  0  0  0  0
   -0.6839   -0.9276    0.2107 N   0  0  0  0  0  0  0  0  0  0  0  0
   -1.4394   -0.3742   -0.1866 H   0  0  0  0  0  0  0  0  0  0  0  0
    0.6560   -0.3210    0.2115 C   0  0  0  0  0  0  0  0  0  0  0  0
    0.5878    0.7183    0.5433 H   0  0  0  0  0  0  0  0  0  0  0  0
    1.3043   -0.8436    0.9216 H   0  0  0  0  0  0  0  0  0  0  0  0
    1.3042   -0.3397   -1.1794 C   0  0  0  0  0  0  0  0  0  0  0  0
    0.6493    0.0110   -2.1530 O   0  0  0  0  0  0  0  0  0  0  0  0
    2.6232   -0.7199   -1.3368 N   0  0  0  0  0  0  0  0  0  0  0  0
    3.0748   -1.1518   -0.5353 H   0  0  0  0  0  0  0  0  0  0  0  0
    3.2530   -0.8548   -2.6445 C   0  0  0  0  0  0  0  0  0  0  0  0
    2.7858   -1.6663   -3.2122 H   0  0  0  0  0  0  0  0  0  0  0  0
    3.1578    0.0749   -3.2154 H   0  0  0  0  0  0  0  0  0  0  0  0
    4.3180   -1.0781   -2.5294 H   0  0  0  0  0  0  0  0  0  0  0  0
  1  2  1  0  0  0  0
  2  3  1  0  0  0  0
  2  4  1  0  0  0  0
  2  5  1  0  0  0  0
  5  6  2  0  0  0  0
  5  7  1  0  0  0  0
  7  8  1  0  0  0  0
  7  9  1  0  0  0  0
  9 10  1  0  0  0  0
  9 11  1  0  0  0  0
  9 12  1  0  0  0  0
 12 13  2  0  0  0  0
 12 14  1  0  0  0  0
 14 15  1  0  0  0  0
 14 16  1  0  0  0  0
 16 17  1  0  0  0  0
 16 18  1  0  0  0  0
 16 19  1  0  0  0  0
M  END
$$$$

  -OEChem-01062216083D

 19 18  0     0  0  0  0  0  0999 V2000
   -1.9682   -4.1105    0.0316 H   0  0  0  0  0  0  0  0  0  0  0  0
   -2.0985   -3.0312   -0.0887 C   0  0  0  0  0  0  0  0  0  0  0  0
   -2.8669   -2.6896    0.6091 H   0  0  0  0  0  0  0  0  0  0  0  0
   -2.4269   -2.8280   -1.1111 H   0  0  0  0  0  0  0  0  0  0  0  0
   -0.7904   -2.3131    0.1866 C   0  0  0  0  0  0  0  0  0  0  0  0
    0.2153   -2.9536    0.4566 O   0  0  0  0  0  0  0  0  0  0  0  0
   -0.7312   -0.9350    0.1135 N   0  0  0  0  0  0  0  0  0  0  0  0
   -1.5300   -0.4771   -0.3193 H   0  0  0  0  0  0  0  0  0  0  0  0
    0.5535   -0.2208    0.0862 C   0  0  0  0  0  0  0  0  0  0  0  0
    0.3892    0.8389    0.3002 H   0  0  0  0  0  0  0  0  0  0  0  0
    1.2177   -0.6057    0.8661 H   0  0  0  0  0  0  0  0  0  0  0  0
    1.2464   -0.3344   -1.2767 C   0  0  0  0  0  0  0  0  0  0  0  0
    0.6825    0.0989   -2.2731 O   0  0  0  0  0  0  0  0  0  0  0  0
    2.4968   -0.9116   -1.3826 N   0  0  0  0  0  0  0  0  0  0  0  0
    2.8228   -1.4333   -0.5727 H   0  0  0  0  0  0  0  0  0  0  0  0
    3.1465   -1.1480   -2.6658 C   0  0  0  0  0  0  0  0  0  0  0  0
    3.2571   -0.2092   -3.2189 H   0  0  0  0  0  0  0  0  0  0  0  0
    4.1422   -1.5749   -2.5121 H   0  0  0  0  0  0  0  0  0  0  0  0
    2.5579   -1.8461   -3.2701 H   0  0  0  0  0  0  0  0  0  0  0  0
  1  2  1  0  0  0  0
  2  3  1  0  0  0  0
  2  4  1  0  0  0  0
  2  5  1  0  0  0  0
  5  6  2  0  0  0  0
  5  7  1  0  0  0  0
  7  8  1  0  0  0  0
  7  9  1  0  0  0  0
  9 10  1  0  0  0  0
  9 11  1  0  0  0  0
  9 12  1  0  0  0  0
 12 13  2  0  0  0  0
 12 14  1  0  0  0  0
 14 15  1  0  0  0  0
 14 16  1  0  0  0  0
 16 17  1  0  0  0  0
 16 18  1  0  0  0  0
 16 19  1  0  0  0  0
M  END
$$$$

  -OEChem-01062216083D

 19 18  0     0  0  0  0  0  0999 V2000
   -1.9953   -4.1152    0.0840 H   0  0  0  0  0  0  0  0  0  0  0  0
   -2.1170   -3.0369   -0.0530 C   0  0  0  0  0  0  0  0  0  0  0  0
   -2.8520   -2.6716    0.6685 H   0  0  0  0  0  0  0  0  0  0  0  0
   -2.4850   -2.8494   -1.0648 H   0  0  0  0  0  0  0  0  0  0  0  0
   -0.7906   -2.3296    0.1547 C   0  0  0  0  0  0  0  0  0  0  0  0
    0.2257   -2.9769    0.3638 O   0  0  0  0  0  0  0  0  0  0  0  0
   -0.7243   -0.9518    0.0842 N   0  0  0  0  0  0  0  0  0  0  0  0
   -1.5451   -0.4723   -0.2778 H   0  0  0  0  0  0  0  0  0  0  0  0
    0.5588   -0.2353    0.0622 C   0  0  0  0  0  0  0  0  0  0  0  0
    0.3910    0.8240    0.2763 H   0  0  0  0  0  0  0  0  0  0  0  0
    1.2232   -0.6176    0.8433 H   0  0  0  0  0  0  0  0  0  0  0  0
    1.2548   -0.3465   -1.2978 C   0  0  0  0  0  0  0  0  0  0  0  0
    0.8438    0.3156   -2.2410 O   0  0  0  0  0  0  0  0  0  0  0  0
    2.3426   -1.1824   -1.4521 N   0  0  0  0  0  0  0  0  0  0  0  0
    2.4807   -1.8699   -0.7133 H   0  0  0  0  0  0  0  0  0  0  0  0
    2.9748   -1.4179   -2.7436 C   0  0  0  0  0  0  0  0  0  0  0  0
    3.3169   -0.4741   -3.1813 H   0  0  0  0  0  0  0  0  0  0  0  0
    3.8413   -2.0752   -2.6247 H   0  0  0  0  0  0  0  0  0  0  0  0
    2.2699   -1.8919   -3.4343 H   0  0  0  0  0  0  0  0  0  0  0  0
  1  2  1  0  0  0  0
  2  3  1  0  0  0  0
  2  4  1  0  0  0  0
  2  5  1  0  0  0  0
  5  6  2  0  0  0  0
  5  7  1  0  0  0  0
  7  8  1  0  0  0  0
  7  9  1  0  0  0  0
  9 10  1  0  0  0  0
  9 11  1  0  0  0  0
  9 12  1  0  0  0  0
 12 13  2  0  0  0  0
 12 14  1  0  0  0  0
 14 15  1  0  0  0  0
 14 16  1  0  0  0  0
 16 17  1  0  0  0  0
 16 18  1  0  0  0  0
 16 19  1  0  0  0  0
M  END
$$$$

  -OEChem-01062216083D

 19 18  0     0  0  0  0  0  0999 V2000
   -2.0110   -4.1214    0.0872 H   0  0  0  0  0  0  0  0  0  0  0  0
   -2.1347   -3.0409   -0.0270 C   0  0  0  0  0  0  0  0  0  0  0  0
   -2.8311   -2.6842    0.7358 H   0  0  0  0  0  0  0  0  0  0  0  0
   -2.5517   -2.8366   -1.0162 H   0  0  0  0  0  0  0  0  0  0  0  0
   -0.7965   -2.3421    0.1248 C   0  0  0  0  0  0  0  0  0  0  0  0
    0.2256   -2.9965    0.2778 O   0  0  0  0  0  0  0  0  0  0  0  0
   -0.7237   -0.9645    0.0538 N   0  0  0  0  0  0  0  0  0  0  0  0
   -1.5641   -0.4668   -0.2302 H   0  0  0  0  0  0  0  0  0  0  0  0
    0.5574   -0.2432    0.0368 C   0  0  0  0  0  0  0  0  0  0  0  0
    0.3845    0.8154    0.2520 H   0  0  0  0  0  0  0  0  0  0  0  0
    1.2214   -0.6242    0.8188 H   0  0  0  0  0  0  0  0  0  0  0  0
    1.2605   -0.3529   -1.3194 C   0  0  0  0  0  0  0  0  0  0  0  0
    1.0496    0.4855   -2.1846 O   0  0  0  0  0  0  0  0  0  0  0  0
    2.1351   -1.3955   -1.5496 N   0  0  0  0  0  0  0  0  0  0  0  0
    2.0792   -2.1681   -0.8845 H   0  0  0  0  0  0  0  0  0  0  0  0
    2.7446   -1.6405   -2.8497 C   0  0  0  0  0  0  0  0  0  0  0  0
    3.3103   -0.7629   -3.1794 H   0  0  0  0  0  0  0  0  0  0  0  0
    3.4320   -2.4897   -2.7895 H   0  0  0  0  0  0  0  0  0  0  0  0
    1.9763   -1.8657   -3.5965 H   0  0  0  0  0  0  0  0  0  0  0  0
  1  2  1  0  0  0  0
  2  3  1  0  0  0  0
  2  4  1  0  0  0  0
  2  5  1  0  0  0  0
  5  6  2  0  0  0  0
  5  7  1  0  0  0  0
  7  8  1  0  0  0  0
  7  9  1  0  0  0  0
  9 10  1  0  0  0  0
  9 11  1  0  0  0  0
  9 12  1  0  0  0  0
 12 13  2  0  0  0  0
 12 14  1  0  0  0  0
 14 15  1  0  0  0  0
 14 16  1  0  0  0  0
 16 17  1  0  0  0  0
 16 18  1  0  0  0  0
 16 19  1  0  0  0  0
M  END
$$$$

  -OEChem-01062216083D

 19 18  0     0  0  0  0  0  0999 V2000
   -2.0819   -4.1206    0.1478 H   0  0  0  0  0  0  0  0  0  0  0  0
   -2.1915   -3.0386    0.0327 C   0  0  0  0  0  0  0  0  0  0  0  0
   -2.8344   -2.6639    0.8329 H   0  0  0  0  0  0  0  0  0  0  0  0
   -2.6634   -2.8329   -0.9312 H   0  0  0  0  0  0  0  0  0  0  0  0
   -0.8335   -2.3649    0.0995 C   0  0  0  0  0  0  0  0  0  0  0  0
    0.1824   -3.0390    0.1943 O   0  0  0  0  0  0  0  0  0  0  0  0
   -0.7395   -0.9891    0.0200 N   0  0  0  0  0  0  0  0  0  0  0  0
   -1.5941   -0.4711   -0.1690 H   0  0  0  0  0  0  0  0  0  0  0  0
    0.5421   -0.2652   -0.0046 C   0  0  0  0  0  0  0  0  0  0  0  0
    0.3670    0.7926    0.2127 H   0  0  0  0  0  0  0  0  0  0  0  0
    1.2059   -0.6473    0.7772 H   0  0  0  0  0  0  0  0  0  0  0  0
    1.2600   -0.3695   -1.3548 C   0  0  0  0  0  0  0  0  0  0  0  0
    1.2742    0.5889   -2.1142 O   0  0  0  0  0  0  0  0  0  0  0  0
    1.8933   -1.5450   -1.7031 N   0  0  0  0  0  0  0  0  0  0  0  0
    1.7024   -2.3492   -1.1008 H   0  0  0  0  0  0  0  0  0  0  0  0
    2.5192   -1.7649   -2.9996 C   0  0  0  0  0  0  0  0  0  0  0  0
    3.2879   -1.0080   -3.1875 H   0  0  0  0  0  0  0  0  0  0  0  0
    2.9938   -2.7504   -3.0263 H   0  0  0  0  0  0  0  0  0  0  0  0
    1.7728   -1.7158   -3.7989 H   0  0  0  0  0  0  0  0  0  0  0  0
  1  2  1  0  0  0  0
  2  3  1  0  0  0  0
  2  4  1  0  0  0  0
  2  5  1  0  0  0  0
  5  6  2  0  0  0  0
  5  7  1  0  0  0  0
  7  8  1  0  0  0  0
  7  9  1  0  0  0  0
  9 10  1  0  0  0  0
  9 11  1  0  0  0  0
  9 12  1  0  0  0  0
 12 13  2  0  0  0  0
 12 14  1  0  0  0  0
 14 15  1  0  0  0  0
 14 16  1  0  0  0  0
 16 17  1  0  0  0  0
 16 18  1  0  0  0  0
 16 19  1  0  0  0  0
M  END
$$$$

  -OEChem-01062216083D

 19 18  0     0  0  0  0  0  0999 V2000
   -2.2431   -4.0491    0.0250 H   0  0  0  0  0  0  0  0  0  0  0  0
   -2.2961   -2.9566    0.0287 C   0  0  0  0  0  0  0  0  0  0  0  0
   -2.8658   -2.6352    0.9040 H   0  0  0  0  0  0  0  0  0  0  0  0
   -2.8131   -2.6268   -0.8759 H   0  0  0  0  0  0  0  0  0  0  0  0
   -0.8993   -2.3656    0.0741 C   0  0  0  0  0  0  0  0  0  0  0  0
    0.0761   -3.1014    0.1048 O   0  0  0  0  0  0  0  0  0  0  0  0
   -0.7274   -0.9952    0.0439 N   0  0  0  0  0  0  0  0  0  0  0  0
   -1.5608   -0.4248   -0.0752 H   0  0  0  0  0  0  0  0  0  0  0  0
    0.5867   -0.3276    0.0176 C   0  0  0  0  0  0  0  0  0  0  0  0
    0.4624    0.7255    0.2867 H   0  0  0  0  0  0  0  0  0  0  0  0
    1.2453   -0.7747    0.7688 H   0  0  0  0  0  0  0  0  0  0  0  0
    1.2896   -0.3995   -1.3449 C   0  0  0  0  0  0  0  0  0  0  0  0
    1.5554    0.6359   -1.9382 O   0  0  0  0  0  0  0  0  0  0  0  0
    1.5992   -1.6281   -1.8958 N   0  0  0  0  0  0  0  0  0  0  0  0
    1.3232   -2.4448   -1.3446 H   0  0  0  0  0  0  0  0  0  0  0  0
    2.2458   -1.8361   -3.1870 C   0  0  0  0  0  0  0  0  0  0  0  0
    2.4649   -0.8899   -3.6924 H   0  0  0  0  0  0  0  0  0  0  0  0
    3.1890   -2.3735   -3.0499 H   0  0  0  0  0  0  0  0  0  0  0  0
    1.5952   -2.4260   -3.8397 H   0  0  0  0  0  0  0  0  0  0  0  0
  1  2  1  0  0  0  0
  2  3  1  0  0  0  0
  2  4  1  0  0  0  0
  2  5  1  0  0  0  0
  5  6  2  0  0  0  0
  5  7  1  0  0  0  0
  7  8  1  0  0  0  0
  7  9  1  0  0  0  0
  9 10  1  0  0  0  0
  9 11  1  0  0  0  0
  9 12  1  0  0  0  0
 12 13  2  0  0  0  0
 12 14  1  0  0  0  0
 14 15  1  0  0  0  0
 14 16  1  0  0  0  0
 16 17  1  0  0  0  0
 16 18  1  0  0  0  0
 16 19  1  0  0  0  0
M  END
$$$$

  -OEChem-01062216083D

 19 18  0     0  0  0  0  0  0999 V2000
   -2.4330   -3.9694    0.0189 H   0  0  0  0  0  0  0  0  0  0  0  0
   -2.4115   -2.8769    0.0668 C   0  0  0  0  0  0  0  0  0  0  0  0
   -2.8967   -2.5564    0.9920 H   0  0  0  0  0  0  0  0  0  0  0  0
   -2.9661   -2.4767   -0.7857 H   0  0  0  0  0  0  0  0  0  0  0  0
   -0.9781   -2.3801    0.0338 C   0  0  0  0  0  0  0  0  0  0  0  0
   -0.0563   -3.1760   -0.0620 O   0  0  0  0  0  0  0  0  0  0  0  0
   -0.7160   -1.0244    0.0637 N   0  0  0  0  0  0  0  0  0  0  0  0
   -1.5164   -0.3973    0.0756 H   0  0  0  0  0  0  0  0  0  0  0  0
    0.6354   -0.4330    0.0316 C   0  0  0  0  0  0  0  0  0  0  0  0
    0.5781    0.6096    0.3582 H   0  0  0  0  0  0  0  0  0  0  0  0
    1.2812   -0.9582    0.7421 H   0  0  0  0  0  0  0  0  0  0  0  0
    1.3175   -0.4676   -1.3445 C   0  0  0  0  0  0  0  0  0  0  0  0
    1.8660    0.5393   -1.7693 O   0  0  0  0  0  0  0  0  0  0  0  0
    1.2892   -1.6109   -2.1176 N   0  0  0  0  0  0  0  0  0  0  0  0
    0.9230   -2.4498   -1.6618 H   0  0  0  0  0  0  0  0  0  0  0  0
    1.9816   -1.7388   -3.3922 C   0  0  0  0  0  0  0  0  0  0  0  0
    1.5975   -1.0077   -4.1111 H   0  0  0  0  0  0  0  0  0  0  0  0
    3.0564   -1.5754   -3.2623 H   0  0  0  0  0  0  0  0  0  0  0  0
    1.8301   -2.7408   -3.8048 H   0  0  0  0  0  0  0  0  0  0  0  0
  1  2  1  0  0  0  0
  2  3  1  0  0  0  0
  2  4  1  0  0  0  0
  2  5  1  0  0  0  0
  5  6  2  0  0  0  0
  5  7  1  0  0  0  0
  7  8  1  0  0  0  0
  7  9  1  0  0  0  0
  9 10  1  0  0  0  0
  9 11  1  0  0  0  0
  9 12  1  0  0  0  0
 12 13  2  0  0  0  0
 12 14  1  0  0  0  0
 14 15  1  0  0  0  0
 14 16  1  0  0  0  0
 16 17  1  0  0  0  0
 16 18  1  0  0  0  0
 16 19  1  0  0  0  0
M  END
$$$$

  -OEChem-01062216083D

 19 18  0     0  0  0  0  0  0999 V2000
   -2.4686   -3.9706    0.0669 H   0  0  0  0  0  0  0  0  0  0  0  0
   -2.4391   -2.8796    0.1391 C   0  0  0  0  0  0  0  0  0  0  0  0
   -2.8502   -2.5804    1.1063 H   0  0  0  0  0  0  0  0  0  0  0  0
   -3.0565   -2.4578   -0.6578 H   0  0  0  0  0  0  0  0  0  0  0  0
   -1.0105   -2.3851    0.0065 C   0  0  0  0  0  0  0  0  0  0  0  0
   -0.1034   -3.1792   -0.1857 O   0  0  0  0  0  0  0  0  0  0  0  0
   -0.7406   -1.0313    0.0378 N   0  0  0  0  0  0  0  0  0  0  0  0
   -1.5325   -0.4050    0.1586 H   0  0  0  0  0  0  0  0  0  0  0  0
    0.6137   -0.4441   -0.0034 C   0  0  0  0  0  0  0  0  0  0  0  0
    0.5608    0.5976    0.3270 H   0  0  0  0  0  0  0  0  0  0  0  0
    1.2602   -0.9753    0.7019 H   0  0  0  0  0  0  0  0  0  0  0  0
    1.3005   -0.4698   -1.3783 C   0  0  0  0  0  0  0  0  0  0  0  0
    2.0483    0.4474   -1.6860 O   0  0  0  0  0  0  0  0  0  0  0  0
    1.0317   -1.4701   -2.2919 N   0  0  0  0  0  0  0  0  0  0  0  0
    0.5794   -2.2996   -1.9033 H   0  0  0  0  0  0  0  0  0  0  0  0
    1.7296   -1.5893   -3.5650 C   0  0  0  0  0  0  0  0  0  0  0  0
    1.5871   -0.6854   -4.1663 H   0  0  0  0  0  0  0  0  0  0  0  0
    2.8019   -1.7388   -3.4016 H   0  0  0  0  0  0  0  0  0  0  0  0
    1.3413   -2.4426   -4.1292 H   0  0  0  0  0  0  0  0  0  0  0  0
  1  2  1  0  0  0  0
  2  3  1  0  0  0  0
  2  4  1  0  0  0  0
  2  5  1  0  0  0  0
  5  6  2  0  0  0  0
  5  7  1  0  0  0  0
  7  8  1  0  0  0  0
  7  9  1  0  0  0  0
  9 10  1  0  0  0  0
  9 11  1  0  0  0  0
  9 12  1  0  0  0  0
 12 13  2  0  0  0  0
 12 14  1  0  0  0  0
 14 15  1  0  0  0  0
 14 16  1  0  0  0  0
 16 17  1  0  0  0  0
 16 18  1  0  0  0  0
 16 19  1  0  0  0  0
M  END
$$$$

  -OEChem-01062216083D

 19 18  0     0  0  0  0  0  0999 V2000
   -2.4815   -3.9751    0.0950 H   0  0  0  0  0  0  0  0  0  0  0  0
   -2.4481   -2.8867    0.1980 C   0  0  0  0  0  0  0  0  0  0  0  0
   -2.7826   -2.6188    1.2032 H   0  0  0  0  0  0  0  0  0  0  0  0
   -3.1266   -2.4435   -0.5351 H   0  0  0  0  0  0  0  0  0  0  0  0
   -1.0347   -2.3831   -0.0294 C   0  0  0  0  0  0  0  0  0  0  0  0
   -0.1431   -3.1669   -0.3104 O   0  0  0  0  0  0  0  0  0  0  0  0
   -0.7669   -1.0294    0.0061 N   0  0  0  0  0  0  0  0  0  0  0  0
   -1.5451   -0.4138    0.2285 H   0  0  0  0  0  0  0  0  0  0  0  0
    0.5904   -0.4475   -0.0303 C   0  0  0  0  0  0  0  0  0  0  0  0
    0.5397    0.5939    0.3003 H   0  0  0  0  0  0  0  0  0  0  0  0
    1.2308   -0.9829    0.6774 H   0  0  0  0  0  0  0  0  0  0  0  0
    1.2897   -0.4684   -1.3989 C   0  0  0  0  0  0  0  0  0  0  0  0
    2.2112    0.3092   -1.6018 O   0  0  0  0  0  0  0  0  0  0  0  0
    0.8231   -1.2608   -2.4297 N   0  0  0  0  0  0  0  0  0  0  0  0
    0.2444   -2.0449   -2.1299 H   0  0  0  0  0  0  0  0  0  0  0  0
    1.5071   -1.3618   -3.7122 C   0  0  0  0  0  0  0  0  0  0  0  0
    1.5768   -0.3782   -4.1884 H   0  0  0  0  0  0  0  0  0  0  0  0
    2.5180   -1.7605   -3.5773 H   0  0  0  0  0  0  0  0  0  0  0  0
    0.9557   -2.0292   -4.3813 H   0  0  0  0  0  0  0  0  0  0  0  0
  1  2  1  0  0  0  0
  2  3  1  0  0  0  0
  2  4  1  0  0  0  0
  2  5  1  0  0  0  0
  5  6  2  0  0  0  0
  5  7  1  0  0  0  0
  7  8  1  0  0  0  0
  7  9  1  0  0  0  0
  9 10  1  0  0  0  0
  9 11  1  0  0  0  0
  9 12  1  0  0  0  0
 12 13  2  0  0  0  0
 12 14  1  0  0  0  0
 14 15  1  0  0  0  0
 14 16  1  0  0  0  0
 16 17  1  0  0  0  0
 16 18  1  0  0  0  0
 16 19  1  0  0  0  0
M  END
$$$$

  -OEChem-01062216083D

 19 18  0     0  0  0  0  0  0999 V2000
   -2.4687   -3.9856    0.0998 H   0  0  0  0  0  0  0  0  0  0  0  0
   -2.4388   -2.8981    0.2134 C   0  0  0  0  0  0  0  0  0  0  0  0
   -2.7512   -2.6424    1.2288 H   0  0  0  0  0  0  0  0  0  0  0  0
   -3.1365   -2.4511   -0.4991 H   0  0  0  0  0  0  0  0  0  0  0  0
   -1.0334   -2.3850   -0.0413 C   0  0  0  0  0  0  0  0  0  0  0  0
   -0.1437   -3.1614   -0.3436 O   0  0  0  0  0  0  0  0  0  0  0  0
   -0.7719   -1.0300    0.0031 N   0  0  0  0  0  0  0  0  0  0  0  0
   -1.5421   -0.4239    0.2738 H   0  0  0  0  0  0  0  0  0  0  0  0
    0.5863   -0.4508   -0.0378 C   0  0  0  0  0  0  0  0  0  0  0  0
    0.5397    0.5888    0.2984 H   0  0  0  0  0  0  0  0  0  0  0  0
    1.2307   -0.9919    0.6625 H   0  0  0  0  0  0  0  0  0  0  0  0
    1.2776   -0.4622   -1.4101 C   0  0  0  0  0  0  0  0  0  0  0  0
    2.3428    0.1250   -1.5354 O   0  0  0  0  0  0  0  0  0  0  0  0
    0.6529   -0.9885   -2.5248 N   0  0  0  0  0  0  0  0  0  0  0  0
   -0.0937   -1.6487   -2.3232 H   0  0  0  0  0  0  0  0  0  0  0  0
    1.3102   -1.0681   -3.8230 C   0  0  0  0  0  0  0  0  0  0  0  0
    1.6006   -0.0703   -4.1682 H   0  0  0  0  0  0  0  0  0  0  0  0
    2.2065   -1.6940   -3.7601 H   0  0  0  0  0  0  0  0  0  0  0  0
    0.6324   -1.5036   -4.5633 H   0  0  0  0  0  0  0  0  0  0  0  0
  1  2  1  0  0  0  0
  2  3  1  0  0  0  0
  2  4  1  0  0  0  0
  2  5  1  0  0  0  0
  5  6  2  0  0  0  0
  5  7  1  0  0  0  0
  7  8  1  0  0  0  0
  7  9  1  0  0  0  0
  9 10  1  0  0  0  0
  9 11  1  0  0  0  0
  9 12  1  0  0  0  0
 12 13  2  0  0  0  0
 12 14  1  0  0  0  0
 14 15  1  0  0  0  0
 14 16  1  0  0  0  0
 16 17  1  0  0  0  0
 16 18  1  0  0  0  0
 16 19  1  0  0  0  0
M  END
$$$$

  -OEChem-01062216083D

 19 18  0     0  0  0  0  0  0999 V2000
   -2.4431   -3.9937    0.0455 H   0  0  0  0  0  0  0  0  0  0  0  0
   -2.4176   -2.9089    0.1827 C   0  0  0  0  0  0  0  0  0  0  0  0
   -2.7427   -2.6760    1.1995 H   0  0  0  0  0  0  0  0  0  0  0  0
   -3.1079   -2.4489   -0.5284 H   0  0  0  0  0  0  0  0  0  0  0  0
   -1.0110   -2.3867   -0.0445 C   0  0  0  0  0  0  0  0  0  0  0  0
   -0.1078   -3.1606   -0.3089 O   0  0  0  0  0  0  0  0  0  0  0  0
   -0.7623   -1.0291    0.0074 N   0  0  0  0  0  0  0  0  0  0  0  0
   -1.5377   -0.4295    0.2775 H   0  0  0  0  0  0  0  0  0  0  0  0
    0.5933   -0.4449   -0.0318 C   0  0  0  0  0  0  0  0  0  0  0  0
    0.5457    0.5934    0.3078 H   0  0  0  0  0  0  0  0  0  0  0  0
    1.2421   -0.9870    0.6641 H   0  0  0  0  0  0  0  0  0  0  0  0
    1.2725   -0.4515   -1.4094 C   0  0  0  0  0  0  0  0  0  0  0  0
    2.4381   -0.0933   -1.4965 O   0  0  0  0  0  0  0  0  0  0  0  0
    0.5438   -0.6848   -2.5607 N   0  0  0  0  0  0  0  0  0  0  0  0
   -0.3609   -1.1252   -2.4265 H   0  0  0  0  0  0  0  0  0  0  0  0
    1.1589   -0.7441   -3.8805 C   0  0  0  0  0  0  0  0  0  0  0  0
    1.6587    0.2021   -4.1137 H   0  0  0  0  0  0  0  0  0  0  0  0
    1.8967   -1.5522   -3.9228 H   0  0  0  0  0  0  0  0  0  0  0  0
    0.3972   -0.9276   -4.6443 H   0  0  0  0  0  0  0  0  0  0  0  0
  1  2  1  0  0  0  0
  2  3  1  0  0  0  0
  2  4  1  0  0  0  0
  2  5  1  0  0  0  0
  5  6  2  0  0  0  0
  5  7  1  0  0  0  0
  7  8  1  0  0  0  0
  7  9  1  0  0  0  0
  9 10  1  0  0  0  0
  9 11  1  0  0  0  0
  9 12  1  0  0  0  0
 12 13  2  0  0  0  0
 12 14  1  0  0  0  0
 14 15  1  0  0  0  0
 14 16  1  0  0  0  0
 16 17  1  0  0  0  0
 16 18  1  0  0  0  0
 16 19  1  0  0  0  0
M  END
$$$$

  -OEChem-01062216083D

 19 18  0     0  0  0  0  0  0999 V2000
   -2.4183   -3.9990    0.0390 H   0  0  0  0  0  0  0  0  0  0  0  0
   -2.4030   -2.9104    0.1451 C   0  0  0  0  0  0  0  0  0  0  0  0
   -2.7645   -2.6501    1.1430 H   0  0  0  0  0  0  0  0  0  0  0  0
   -3.0703   -2.4754   -0.6029 H   0  0  0  0  0  0  0  0  0  0  0  0
   -0.9917   -2.3874   -0.0498 C   0  0  0  0  0  0  0  0  0  0  0  0
   -0.0822   -3.1642   -0.2815 O   0  0  0  0  0  0  0  0  0  0  0  0
   -0.7448   -1.0293    0.0121 N   0  0  0  0  0  0  0  0  0  0  0  0
   -1.5216   -0.4321    0.2832 H   0  0  0  0  0  0  0  0  0  0  0  0
    0.6114   -0.4476   -0.0252 C   0  0  0  0  0  0  0  0  0  0  0  0
    0.5693    0.5887    0.3199 H   0  0  0  0  0  0  0  0  0  0  0  0
    1.2628   -0.9959    0.6637 H   0  0  0  0  0  0  0  0  0  0  0  0
    1.2746   -0.4520   -1.4097 C   0  0  0  0  0  0  0  0  0  0  0  0
    2.4895   -0.3460   -1.4937 O   0  0  0  0  0  0  0  0  0  0  0  0
    0.5037   -0.3690   -2.5544 N   0  0  0  0  0  0  0  0  0  0  0  0
   -0.4854   -0.5656   -2.4434 H   0  0  0  0  0  0  0  0  0  0  0  0
    1.0764   -0.3873   -3.8943 C   0  0  0  0  0  0  0  0  0  0  0  0
    1.7626    0.4552   -4.0301 H   0  0  0  0  0  0  0  0  0  0  0  0
    1.6251   -1.3199   -4.0627 H   0  0  0  0  0  0  0  0  0  0  0  0
    0.2842   -0.3098   -4.6449 H   0  0  0  0  0  0  0  0  0  0  0  0
  1  2  1  0  0  0  0
  2  3  1  0  0  0  0
  2  4  1  0  0  0  0
  2  5  1  0  0  0  0
  5  6  2  0  0  0  0
  5  7  1  0  0  0  0
  7  8  1  0  0  0  0
  7  9  1  0  0  0  0
  9 10  1  0  0  0  0
  9 11  1  0  0  0  0
  9 12  1  0  0  0  0
 12 13  2  0  0  0  0
 12 14  1  0  0  0  0
 14 15  1  0  0  0  0
 14 16  1  0  0  0  0
 16 17  1  0  0  0  0
 16 18  1  0  0  0  0
 16 19  1  0  0  0  0
M  END
$$$$

  -OEChem-01062216083D

 19 18  0     0  0  0  0  0  0999 V2000
   -2.2793   -4.0746    0.1691 H   0  0  0  0  0  0  0  0  0  0  0  0
   -2.3311   -2.9822    0.1430 C   0  0  0  0  0  0  0  0  0  0  0  0
   -2.7813   -2.6307    1.0746 H   0  0  0  0  0  0  0  0  0  0  0  0
   -2.9617   -2.6803   -0.6967 H   0  0  0  0  0  0  0  0  0  0  0  0
   -0.9395   -2.3974   -0.0161 C   0  0  0  0  0  0  0  0  0  0  0  0
    0.0175   -3.1382   -0.1548 O   0  0  0  0  0  0  0  0  0  0  0  0
   -0.7649   -1.0265   -0.0077 N   0  0  0  0  0  0  0  0  0  0  0  0
   -1.5834   -0.4606    0.1982 H   0  0  0  0  0  0  0  0  0  0  0  0
    0.5582   -0.3740   -0.0341 C   0  0  0  0  0  0  0  0  0  0  0  0
    0.4543    0.6722    0.2650 H   0  0  0  0  0  0  0  0  0  0  0  0
    1.2176   -0.8578    0.6947 H   0  0  0  0  0  0  0  0  0  0  0  0
    1.2533   -0.4059   -1.4026 C   0  0  0  0  0  0  0  0  0  0  0  0
    2.4718   -0.4827   -1.4544 O   0  0  0  0  0  0  0  0  0  0  0  0
    0.5301   -0.1049   -2.5440 N   0  0  0  0  0  0  0  0  0  0  0  0
   -0.4786   -0.0740   -2.4406 H   0  0  0  0  0  0  0  0  0  0  0  0
    1.0925   -0.0406   -3.8907 C   0  0  0  0  0  0  0  0  0  0  0  0
    2.1707   -0.2316   -3.8968 H   0  0  0  0  0  0  0  0  0  0  0  0
    0.6156   -0.7893   -4.5304 H   0  0  0  0  0  0  0  0  0  0  0  0
    0.9225    0.9513   -4.3204 H   0  0  0  0  0  0  0  0  0  0  0  0
  1  2  1  0  0  0  0
  2  3  1  0  0  0  0
  2  4  1  0  0  0  0
  2  5  1  0  0  0  0
  5  6  2  0  0  0  0
  5  7  1  0  0  0  0
  7  8  1  0  0  0  0
  7  9  1  0  0  0  0
  9 10  1  0  0  0  0
  9 11  1  0  0  0  0
  9 12  1  0  0  0  0
 12 13  2  0  0  0  0
 12 14  1  0  0  0  0
 14 15  1  0  0  0  0
 14 16  1  0  0  0  0
 16 17  1  0  0  0  0
 16 18  1  0  0  0  0
 16 19  1  0  0  0  0
M  END
$$$$

  -OEChem-01062216083D

 19 18  0     0  0  0  0  0  0999 V2000
   -2.1410   -4.1405    0.0985 H   0  0  0  0  0  0  0  0  0  0  0  0
   -2.2458   -3.0523    0.1344 C   0  0  0  0  0  0  0  0  0  0  0  0
   -2.7200   -2.7758    1.0791 H   0  0  0  0  0  0  0  0  0  0  0  0
   -2.8833   -2.7341   -0.6938 H   0  0  0  0  0  0  0  0  0  0  0  0
   -0.8831   -2.3933    0.0258 C   0  0  0  0  0  0  0  0  0  0  0  0
    0.1202   -3.0821   -0.0198 O   0  0  0  0  0  0  0  0  0  0  0  0
   -0.7890   -1.0150   -0.0115 N   0  0  0  0  0  0  0  0  0  0  0  0
   -1.6523   -0.4916    0.1024 H   0  0  0  0  0  0  0  0  0  0  0  0
    0.4896   -0.2809   -0.0404 C   0  0  0  0  0  0  0  0  0  0  0  0
    0.3179    0.7655    0.2244 H   0  0  0  0  0  0  0  0  0  0  0  0
    1.1660   -0.6990    0.7133 H   0  0  0  0  0  0  0  0  0  0  0  0
    1.2037   -0.3191   -1.3988 C   0  0  0  0  0  0  0  0  0  0  0  0
    2.3944   -0.5867   -1.4599 O   0  0  0  0  0  0  0  0  0  0  0  0
    0.5728    0.1907   -2.5191 N   0  0  0  0  0  0  0  0  0  0  0  0
   -0.4228    0.3711   -2.4484 H   0  0  0  0  0  0  0  0  0  0  0  0
    1.2096    0.2523   -3.8292 C   0  0  0  0  0  0  0  0  0  0  0  0
    1.4987   -0.7502   -4.1619 H   0  0  0  0  0  0  0  0  0  0  0  0
    0.5208    0.6770   -4.5657 H   0  0  0  0  0  0  0  0  0  0  0  0
    2.1048    0.8820   -3.7912 H   0  0  0  0  0  0  0  0  0  0  0  0
  1  2  1  0  0  0  0
  2  3  1  0  0  0  0
  2  4  1  0  0  0  0
  2  5  1  0  0  0  0
  5  6  2  0  0  0  0
  5  7  1  0  0  0  0
  7  8  1  0  0  0  0
  7  9  1  0  0  0  0
  9 10  1  0  0  0  0
  9 11  1  0  0  0  0
  9 12  1  0  0  0  0
 12 13  2  0  0  0  0
 12 14  1  0  0  0  0
 14 15  1  0  0  0  0
 14 16  1  0  0  0  0
 16 17  1  0  0  0  0
 16 18  1  0  0  0  0
 16 19  1  0  0  0  0
M  END
$$$$

  -OEChem-01062216083D

 19 18  0     0  0  0  0  0  0999 V2000
   -2.1159   -4.1251    0.0685 H   0  0  0  0  0  0  0  0  0  0  0  0
   -2.2187   -3.0369    0.0287 C   0  0  0  0  0  0  0  0  0  0  0  0
   -2.8406   -2.7119    0.8660 H   0  0  0  0  0  0  0  0  0  0  0  0
   -2.7081   -2.7655   -0.9096 H   0  0  0  0  0  0  0  0  0  0  0  0
   -0.8527   -2.3808    0.1109 C   0  0  0  0  0  0  0  0  0  0  0  0
    0.1417   -3.0727    0.2354 O   0  0  0  0  0  0  0  0  0  0  0  0
   -0.7515   -1.0028    0.0671 N   0  0  0  0  0  0  0  0  0  0  0  0
   -1.6165   -0.4842   -0.0521 H   0  0  0  0  0  0  0  0  0  0  0  0
    0.5298   -0.2757    0.0046 C   0  0  0  0  0  0  0  0  0  0  0  0
    0.3735    0.7708    0.2780 H   0  0  0  0  0  0  0  0  0  0  0  0
    1.2250   -0.6972    0.7392 H   0  0  0  0  0  0  0  0  0  0  0  0
    1.2028   -0.3255   -1.3748 C   0  0  0  0  0  0  0  0  0  0  0  0
    2.2660   -0.9049   -1.5333 O   0  0  0  0  0  0  0  0  0  0  0  0
    0.7014    0.4457   -2.4082 N   0  0  0  0  0  0  0  0  0  0  0  0
   -0.1675    0.9440   -2.2482 H   0  0  0  0  0  0  0  0  0  0  0  0
    1.3267    0.5178   -3.7235 C   0  0  0  0  0  0  0  0  0  0  0  0
    1.3745   -0.4766   -4.1799 H   0  0  0  0  0  0  0  0  0  0  0  0
    0.7493    1.1734   -4.3822 H   0  0  0  0  0  0  0  0  0  0  0  0
    2.3433    0.9171   -3.6433 H   0  0  0  0  0  0  0  0  0  0  0  0
  1  2  1  0  0  0  0
  2  3  1  0  0  0  0
  2  4  1  0  0  0  0
  2  5  1  0  0  0  0
  5  6  2  0  0  0  0
  5  7  1  0  0  0  0
  7  8  1  0  0  0  0
  7  9  1  0  0  0  0
  9 10  1  0  0  0  0
  9 11  1  0  0  0  0
  9 12  1  0  0  0  0
 12 13  2  0  0  0  0
 12 14  1  0  0  0  0
 14 15  1  0  0  0  0
 14 16  1  0  0  0  0
 16 17  1  0  0  0  0
 16 18  1  0  0  0  0
 16 19  1  0  0  0  0
M  END
$$$$

  -OEChem-01062216083D

 19 18  0     0  0  0  0  0  0999 V2000
   -2.2109   -4.0371   -0.0714 H   0  0  0  0  0  0  0  0  0  0  0  0
   -2.2550   -2.9442   -0.0715 C   0  0  0  0  0  0  0  0  0  0  0  0
   -2.9261   -2.6194    0.7271 H   0  0  0  0  0  0  0  0  0  0  0  0
   -2.6517   -2.6101   -1.0330 H   0  0  0  0  0  0  0  0  0  0  0  0
   -0.8681   -2.3675    0.1473 C   0  0  0  0  0  0  0  0  0  0  0  0
    0.0665   -3.1171    0.3690 O   0  0  0  0  0  0  0  0  0  0  0  0
   -0.6906   -0.9959    0.1549 N   0  0  0  0  0  0  0  0  0  0  0  0
   -1.5068   -0.4439   -0.0909 H   0  0  0  0  0  0  0  0  0  0  0  0
    0.6349   -0.3582    0.0518 C   0  0  0  0  0  0  0  0  0  0  0  0
    0.5694    0.6810    0.3831 H   0  0  0  0  0  0  0  0  0  0  0  0
    1.3379   -0.8603    0.7255 H   0  0  0  0  0  0  0  0  0  0  0  0
    1.2289   -0.3934   -1.3651 C   0  0  0  0  0  0  0  0  0  0  0  0
    1.9752   -1.2939   -1.7127 O   0  0  0  0  0  0  0  0  0  0  0  0
    0.9598    0.6500   -2.2355 N   0  0  0  0  0  0  0  0  0  0  0  0
    0.3565    1.3920   -1.8960 H   0  0  0  0  0  0  0  0  0  0  0  0
    1.4941    0.7608   -3.5916 C   0  0  0  0  0  0  0  0  0  0  0  0
    2.1593   -0.0716   -3.8439 H   0  0  0  0  0  0  0  0  0  0  0  0
    0.6751    0.7686   -4.3173 H   0  0  0  0  0  0  0  0  0  0  0  0
    2.0648    1.6889   -3.6936 H   0  0  0  0  0  0  0  0  0  0  0  0
  1  2  1  0  0  0  0
  2  3  1  0  0  0  0
  2  4  1  0  0  0  0
  2  5  1  0  0  0  0
  5  6  2  0  0  0  0
  5  7  1  0  0  0  0
  7  8  1  0  0  0  0
  7  9  1  0  0  0  0
  9 10  1  0  0  0  0
  9 11  1  0  0  0  0
  9 12  1  0  0  0  0
 12 13  2  0  0  0  0
 12 14  1  0  0  0  0
 14 15  1  0  0  0  0
 14 16  1  0  0  0  0
 16 17  1  0  0  0  0
 16 18  1  0  0  0  0
 16 19  1  0  0  0  0
M  END
$$$$

  -OEChem-01062216083D

 19 18  0     0  0  0  0  0  0999 V2000
   -2.3049   -3.9398   -0.0739 H   0  0  0  0  0  0  0  0  0  0  0  0
   -2.2710   -2.8504   -0.1664 C   0  0  0  0  0  0  0  0  0  0  0  0
   -3.0022   -2.4164    0.5197 H   0  0  0  0  0  0  0  0  0  0  0  0
   -2.5329   -2.5773   -1.1915 H   0  0  0  0  0  0  0  0  0  0  0  0
   -0.8794   -2.3426    0.1640 C   0  0  0  0  0  0  0  0  0  0  0  0
    0.0027   -3.1378    0.4420 O   0  0  0  0  0  0  0  0  0  0  0  0
   -0.6459   -0.9808    0.2363 N   0  0  0  0  0  0  0  0  0  0  0  0
   -1.4235   -0.3987   -0.0603 H   0  0  0  0  0  0  0  0  0  0  0  0
    0.7091   -0.4169    0.0997 C   0  0  0  0  0  0  0  0  0  0  0  0
    0.7168    0.6044    0.4882 H   0  0  0  0  0  0  0  0  0  0  0  0
    1.4144   -0.9918    0.7095 H   0  0  0  0  0  0  0  0  0  0  0  0
    1.2323   -0.4094   -1.3465 C   0  0  0  0  0  0  0  0  0  0  0  0
    1.5224   -1.4434   -1.9270 O   0  0  0  0  0  0  0  0  0  0  0  0
    1.2754    0.7814   -2.0497 N   0  0  0  0  0  0  0  0  0  0  0  0
    1.0423    1.6352   -1.5527 H   0  0  0  0  0  0  0  0  0  0  0  0
    1.7264    0.8732   -3.4337 C   0  0  0  0  0  0  0  0  0  0  0  0
    2.7624    0.5294   -3.5221 H   0  0  0  0  0  0  0  0  0  0  0  0
    1.0948    0.2594   -4.0847 H   0  0  0  0  0  0  0  0  0  0  0  0
    1.6750    1.9096   -3.7809 H   0  0  0  0  0  0  0  0  0  0  0  0
  1  2  1  0  0  0  0
  2  3  1  0  0  0  0
  2  4  1  0  0  0  0
  2  5  1  0  0  0  0
  5  6  2  0  0  0  0
  5  7  1  0  0  0  0
  7  8  1  0  0  0  0
  7  9  1  0  0  0  0
  9 10  1  0  0  0  0
  9 11  1  0  0  0  0
  9 12  1  0  0  0  0
 12 13  2  0  0  0  0
 12 14  1  0  0  0  0
 14 15  1  0  0  0  0
 14 16  1  0  0  0  0
 16 17  1  0  0  0  0
 16 18  1  0  0  0  0
 16 19  1  0  0  0  0
M  END
$$$$

  -OEChem-01062216083D

 19 18  0     0  0  0  0  0  0999 V2000
   -2.2714   -3.9359   -0.1287 H   0  0  0  0  0  0  0  0  0  0  0  0
   -2.2414   -2.8458   -0.2110 C   0  0  0  0  0  0  0  0  0  0  0  0
   -3.0096   -2.4222    0.4400 H   0  0  0  0  0  0  0  0  0  0  0  0
   -2.4523   -2.5666   -1.2463 H   0  0  0  0  0  0  0  0  0  0  0  0
   -0.8725   -2.3292    0.1920 C   0  0  0  0  0  0  0  0  0  0  0  0
   -0.0002   -3.1164    0.5230 O   0  0  0  0  0  0  0  0  0  0  0  0
   -0.6486   -0.9658    0.2674 N   0  0  0  0  0  0  0  0  0  0  0  0
   -1.4116   -0.3965   -0.0867 H   0  0  0  0  0  0  0  0  0  0  0  0
    0.7099   -0.4096    0.1360 C   0  0  0  0  0  0  0  0  0  0  0  0
    0.7126    0.6128    0.5221 H   0  0  0  0  0  0  0  0  0  0  0  0
    1.4111   -0.9829    0.7515 H   0  0  0  0  0  0  0  0  0  0  0  0
    1.2440   -0.4025   -1.3079 C   0  0  0  0  0  0  0  0  0  0  0  0
    1.1914   -1.3992   -2.0129 O   0  0  0  0  0  0  0  0  0  0  0  0
    1.5934    0.7999   -1.8965 N   0  0  0  0  0  0  0  0  0  0  0  0
    1.6142    1.6275   -1.3089 H   0  0  0  0  0  0  0  0  0  0  0  0
    2.0129    0.9154   -3.2885 C   0  0  0  0  0  0  0  0  0  0  0  0
    2.9159    0.3222   -3.4666 H   0  0  0  0  0  0  0  0  0  0  0  0
    1.2217    0.5625   -3.9583 H   0  0  0  0  0  0  0  0  0  0  0  0
    2.2306    1.9594   -3.5327 H   0  0  0  0  0  0  0  0  0  0  0  0
  1  2  1  0  0  0  0
  2  3  1  0  0  0  0
  2  4  1  0  0  0  0
  2  5  1  0  0  0  0
  5  6  2  0  0  0  0
  5  7  1  0  0  0  0
  7  8  1  0  0  0  0
  7  9  1  0  0  0  0
  9 10  1  0  0  0  0
  9 11  1  0  0  0  0
  9 12  1  0  0  0  0
 12 13  2  0  0  0  0
 12 14  1  0  0  0  0
 14 15  1  0  0  0  0
 14 16  1  0  0  0  0
 16 17  1  0  0  0  0
 16 18  1  0  0  0  0
 16 19  1  0  0  0  0
M  END
$$$$

  -OEChem-01062216083D

 19 18  0     0  0  0  0  0  0999 V2000
   -2.2542   -3.9444   -0.1335 H   0  0  0  0  0  0  0  0  0  0  0  0
   -2.2334   -2.8540   -0.2161 C   0  0  0  0  0  0  0  0  0  0  0  0
   -3.0131   -2.4369    0.4255 H   0  0  0  0  0  0  0  0  0  0  0  0
   -2.4344   -2.5769   -1.2539 H   0  0  0  0  0  0  0  0  0  0  0  0
   -0.8739   -2.3256    0.2024 C   0  0  0  0  0  0  0  0  0  0  0  0
    0.0069   -3.1063    0.5293 O   0  0  0  0  0  0  0  0  0  0  0  0
   -0.6600   -0.9608    0.2815 N   0  0  0  0  0  0  0  0  0  0  0  0
   -1.4175   -0.3994   -0.0966 H   0  0  0  0  0  0  0  0  0  0  0  0
    0.6992   -0.4058    0.1529 C   0  0  0  0  0  0  0  0  0  0  0  0
    0.6960    0.6176    0.5365 H   0  0  0  0  0  0  0  0  0  0  0  0
    1.3980   -0.9761    0.7734 H   0  0  0  0  0  0  0  0  0  0  0  0
    1.2424   -0.3944   -1.2888 C   0  0  0  0  0  0  0  0  0  0  0  0
    0.9270   -1.2579   -2.0957 O   0  0  0  0  0  0  0  0  0  0  0  0
    1.8827    0.7374   -1.7613 N   0  0  0  0  0  0  0  0  0  0  0  0
    2.1236    1.4597   -1.0896 H   0  0  0  0  0  0  0  0  0  0  0  0
    2.3367    0.8819   -3.1400 C   0  0  0  0  0  0  0  0  0  0  0  0
    3.0506    0.0909   -3.3933 H   0  0  0  0  0  0  0  0  0  0  0  0
    1.4891    0.8260   -3.8312 H   0  0  0  0  0  0  0  0  0  0  0  0
    2.8296    1.8491   -3.2764 H   0  0  0  0  0  0  0  0  0  0  0  0
  1  2  1  0  0  0  0
  2  3  1  0  0  0  0
  2  4  1  0  0  0  0
  2  5  1  0  0  0  0
  5  6  2  0  0  0  0
  5  7  1  0  0  0  0
  7  8  1  0  0  0  0
  7  9  1  0  0  0  0
  9 10  1  0  0  0  0
  9 11  1  0  0  0  0
  9 12  1  0  0  0  0
 12 13  2  0  0  0  0
 12 14  1  0  0  0  0
 14 15  1  0  0  0  0
 14 16  1  0  0  0  0
 16 17  1  0  0  0  0
 16 18  1  0  0  0  0
 16 19  1  0  0  0  0
M  END
$$$$

  -OEChem-01062216083D

 19 18  0     0  0  0  0  0  0999 V2000
   -2.2537   -3.9475   -0.1298 H   0  0  0  0  0  0  0  0  0  0  0  0
   -2.2336   -2.8576   -0.2177 C   0  0  0  0  0  0  0  0  0  0  0  0
   -3.0149   -2.4378    0.4202 H   0  0  0  0  0  0  0  0  0  0  0  0
   -2.4323   -2.5848   -1.2573 H   0  0  0  0  0  0  0  0  0  0  0  0
   -0.8761   -2.3249    0.2010 C   0  0  0  0  0  0  0  0  0  0  0  0
    0.0152   -3.1024    0.5081 O   0  0  0  0  0  0  0  0  0  0  0  0
   -0.6695   -0.9596    0.2831 N   0  0  0  0  0  0  0  0  0  0  0  0
   -1.4221   -0.4027   -0.1116 H   0  0  0  0  0  0  0  0  0  0  0  0
    0.6894   -0.4016    0.1691 C   0  0  0  0  0  0  0  0  0  0  0  0
    0.6771    0.6244    0.5454 H   0  0  0  0  0  0  0  0  0  0  0  0
    1.3821   -0.9666    0.8010 H   0  0  0  0  0  0  0  0  0  0  0  0
    1.2478   -0.3896   -1.2665 C   0  0  0  0  0  0  0  0  0  0  0  0
    0.7470   -1.0754   -2.1486 O   0  0  0  0  0  0  0  0  0  0  0  0
    2.1491    0.5936   -1.6327 N   0  0  0  0  0  0  0  0  0  0  0  0
    2.5501    1.1653   -0.8954 H   0  0  0  0  0  0  0  0  0  0  0  0
    2.6441    0.7562   -2.9949 C   0  0  0  0  0  0  0  0  0  0  0  0
    3.1802   -0.1425   -3.3177 H   0  0  0  0  0  0  0  0  0  0  0  0
    1.8142    0.9387   -3.6856 H   0  0  0  0  0  0  0  0  0  0  0  0
    3.3297    1.6071   -3.0492 H   0  0  0  0  0  0  0  0  0  0  0  0
  1  2  1  0  0  0  0
  2  3  1  0  0  0  0
  2  4  1  0  0  0  0
  2  5  1  0  0  0  0
  5  6  2  0  0  0  0
  5  7  1  0  0  0  0
  7  8  1  0  0  0  0
  7  9  1  0  0  0  0
  9 10  1  0  0  0  0
  9 11  1  0  0  0  0
  9 12  1  0  0  0  0
 12 13  2  0  0  0  0
 12 14  1  0  0  0  0
 14 15  1  0  0  0  0
 14 16  1  0  0  0  0
 16 17  1  0  0  0  0
 16 18  1  0  0  0  0
 16 19  1  0  0  0  0
M  END
$$$$

  -OEChem-01062216083D

 19 18  0     0  0  0  0  0  0999 V2000
   -2.2380   -3.9603   -0.1420 H   0  0  0  0  0  0  0  0  0  0  0  0
   -2.2360   -2.8688   -0.2076 C   0  0  0  0  0  0  0  0  0  0  0  0
   -3.0077   -2.4743    0.4575 H   0  0  0  0  0  0  0  0  0  0  0  0
   -2.4651   -2.5780   -1.2359 H   0  0  0  0  0  0  0  0  0  0  0  0
   -0.8766   -2.3239    0.1895 C   0  0  0  0  0  0  0  0  0  0  0  0
    0.0309   -3.0936    0.4679 O   0  0  0  0  0  0  0  0  0  0  0  0
   -0.6818   -0.9575    0.2745 N   0  0  0  0  0  0  0  0  0  0  0  0
   -1.4353   -0.4047   -0.1245 H   0  0  0  0  0  0  0  0  0  0  0  0
    0.6731   -0.3871    0.1776 C   0  0  0  0  0  0  0  0  0  0  0  0
    0.6497    0.6399    0.5509 H   0  0  0  0  0  0  0  0  0  0  0  0
    1.3615   -0.9472    0.8183 H   0  0  0  0  0  0  0  0  0  0  0  0
    1.2471   -0.3709   -1.2511 C   0  0  0  0  0  0  0  0  0  0  0  0
    0.6292   -0.8661   -2.1857 O   0  0  0  0  0  0  0  0  0  0  0  0
    2.3579    0.4050   -1.5277 N   0  0  0  0  0  0  0  0  0  0  0  0
    2.8623    0.8036   -0.7416 H   0  0  0  0  0  0  0  0  0  0  0  0
    2.9242    0.5390   -2.8650 C   0  0  0  0  0  0  0  0  0  0  0  0
    3.2376   -0.4381   -3.2478 H   0  0  0  0  0  0  0  0  0  0  0  0
    2.1878    0.9676   -3.5530 H   0  0  0  0  0  0  0  0  0  0  0  0
    3.7977    1.1977   -2.8414 H   0  0  0  0  0  0  0  0  0  0  0  0
  1  2  1  0  0  0  0
  2  3  1  0  0  0  0
  2  4  1  0  0  0  0
  2  5  1  0  0  0  0
  5  6  2  0  0  0  0
  5  7  1  0  0  0  0
  7  8  1  0  0  0  0
  7  9  1  0  0  0  0
  9 10  1  0  0  0  0
  9 11  1  0  0  0  0
  9 12  1  0  0  0  0
 12 13  2  0  0  0  0
 12 14  1  0  0  0  0
 14 15  1  0  0  0  0
 14 16  1  0  0  0  0
 16 17  1  0  0  0  0
 16 18  1  0  0  0  0
 16 19  1  0  0  0  0
M  END
$$$$

  -OEChem-01062216083D

 19 18  0     0  0  0  0  0  0999 V2000
   -2.2784   -3.9529   -0.1475 H   0  0  0  0  0  0  0  0  0  0  0  0
   -2.2741   -2.8593   -0.1621 C   0  0  0  0  0  0  0  0  0  0  0  0
   -2.9890   -2.4942    0.5791 H   0  0  0  0  0  0  0  0  0  0  0  0
   -2.5809   -2.5192   -1.1544 H   0  0  0  0  0  0  0  0  0  0  0  0
   -0.8849   -2.3373    0.1547 C   0  0  0  0  0  0  0  0  0  0  0  0
    0.0326   -3.1233    0.3376 O   0  0  0  0  0  0  0  0  0  0  0  0
   -0.6710   -0.9749    0.2418 N   0  0  0  0  0  0  0  0  0  0  0  0
   -1.4292   -0.4046   -0.1253 H   0  0  0  0  0  0  0  0  0  0  0  0
    0.6808   -0.3955    0.1578 C   0  0  0  0  0  0  0  0  0  0  0  0
    0.7117    0.5186    0.7565 H   0  0  0  0  0  0  0  0  0  0  0  0
    1.4229   -1.0801    0.5802 H   0  0  0  0  0  0  0  0  0  0  0  0
    1.1008   -0.0456   -1.2787 C   0  0  0  0  0  0  0  0  0  0  0  0
    0.2981   -0.1274   -2.2008 O   0  0  0  0  0  0  0  0  0  0  0  0
    2.3461    0.5055   -1.5153 N   0  0  0  0  0  0  0  0  0  0  0  0
    3.0031    0.5351   -0.7412 H   0  0  0  0  0  0  0  0  0  0  0  0
    2.8070    0.8932   -2.8432 C   0  0  0  0  0  0  0  0  0  0  0  0
    2.8337    0.0240   -3.5089 H   0  0  0  0  0  0  0  0  0  0  0  0
    2.1409    1.6477   -3.2748 H   0  0  0  0  0  0  0  0  0  0  0  0
    3.8146    1.3159   -2.7851 H   0  0  0  0  0  0  0  0  0  0  0  0
  1  2  1  0  0  0  0
  2  3  1  0  0  0  0
  2  4  1  0  0  0  0
  2  5  1  0  0  0  0
  5  6  2  0  0  0  0
  5  7  1  0  0  0  0
  7  8  1  0  0  0  0
  7  9  1  0  0  0  0
  9 10  1  0  0  0  0
  9 11  1  0  0  0  0
  9 12  1  0  0  0  0
 12 13  2  0  0  0  0
 12 14  1  0  0  0  0
 14 15  1  0  0  0  0
 14 16  1  0  0  0  0
 16 17  1  0  0  0  0
 16 18  1  0  0  0  0
 16 19  1  0  0  0  0
M  END
$$$$

  -OEChem-01062216083D

 19 18  0     0  0  0  0  0  0999 V2000
   -2.2661   -3.9539   -0.1657 H   0  0  0  0  0  0  0  0  0  0  0  0
   -2.2694   -2.8604   -0.1691 C   0  0  0  0  0  0  0  0  0  0  0  0
   -2.9814   -2.5079    0.5810 H   0  0  0  0  0  0  0  0  0  0  0  0
   -2.5862   -2.5121   -1.1555 H   0  0  0  0  0  0  0  0  0  0  0  0
   -0.8818   -2.3321    0.1443 C   0  0  0  0  0  0  0  0  0  0  0  0
    0.0414   -3.1129    0.3206 O   0  0  0  0  0  0  0  0  0  0  0  0
   -0.6735   -0.9690    0.2280 N   0  0  0  0  0  0  0  0  0  0  0  0
   -1.4281   -0.3992   -0.1485 H   0  0  0  0  0  0  0  0  0  0  0  0
    0.6754   -0.3810    0.1728 C   0  0  0  0  0  0  0  0  0  0  0  0
    0.6896    0.5380    0.7646 H   0  0  0  0  0  0  0  0  0  0  0  0
    1.4107   -1.0592    0.6170 H   0  0  0  0  0  0  0  0  0  0  0  0
    1.1177   -0.0406   -1.2582 C   0  0  0  0  0  0  0  0  0  0  0  0
    0.2846    0.0854   -2.1479 O   0  0  0  0  0  0  0  0  0  0  0  0
    2.4472    0.2222   -1.5292 N   0  0  0  0  0  0  0  0  0  0  0  0
    3.1204    0.0524   -0.7876 H   0  0  0  0  0  0  0  0  0  0  0  0
    2.9387    0.5427   -2.8639 C   0  0  0  0  0  0  0  0  0  0  0  0
    2.7414   -0.2843   -3.5541 H   0  0  0  0  0  0  0  0  0  0  0  0
    2.4506    1.4452   -3.2465 H   0  0  0  0  0  0  0  0  0  0  0  0
    4.0180    0.7205   -2.8361 H   0  0  0  0  0  0  0  0  0  0  0  0
  1  2  1  0  0  0  0
  2  3  1  0  0  0  0
  2  4  1  0  0  0  0
  2  5  1  0  0  0  0
  5  6  2  0  0  0  0
  5  7  1  0  0  0  0
  7  8  1  0  0  0  0
  7  9  1  0  0  0  0
  9 10  1  0  0  0  0
  9 11  1  0  0  0  0
  9 12  1  0  0  0  0
 12 13  2  0  0  0  0
 12 14  1  0  0  0  0
 14 15  1  0  0  0  0
 14 16  1  0  0  0  0
 16 17  1  0  0  0  0
 16 18  1  0  0  0  0
 16 19  1  0  0  0  0
M  END
$$$$

  -OEChem-01062216083D

 19 18  0     0  0  0  0  0  0999 V2000
   -2.2608   -3.9475   -0.1646 H   0  0  0  0  0  0  0  0  0  0  0  0
   -2.2608   -2.8540   -0.1858 C   0  0  0  0  0  0  0  0  0  0  0  0
   -2.9789   -2.4872    0.5516 H   0  0  0  0  0  0  0  0  0  0  0  0
   -2.5673   -2.5209   -1.1806 H   0  0  0  0  0  0  0  0  0  0  0  0
   -0.8746   -2.3244    0.1315 C   0  0  0  0  0  0  0  0  0  0  0  0
    0.0524   -3.1037    0.2937 O   0  0  0  0  0  0  0  0  0  0  0  0
   -0.6666   -0.9617    0.2193 N   0  0  0  0  0  0  0  0  0  0  0  0
   -1.4204   -0.3849   -0.1482 H   0  0  0  0  0  0  0  0  0  0  0  0
    0.6812   -0.3715    0.1921 C   0  0  0  0  0  0  0  0  0  0  0  0
    0.6849    0.5498    0.7806 H   0  0  0  0  0  0  0  0  0  0  0  0
    1.4084   -1.0472    0.6524 H   0  0  0  0  0  0  0  0  0  0  0  0
    1.1394   -0.0359   -1.2337 C   0  0  0  0  0  0  0  0  0  0  0  0
    0.3154    0.3030   -2.0746 O   0  0  0  0  0  0  0  0  0  0  0  0
    2.4804   -0.0720   -1.5656 N   0  0  0  0  0  0  0  0  0  0  0  0
    3.1221   -0.4516   -0.8754 H   0  0  0  0  0  0  0  0  0  0  0  0
    2.9687    0.1687   -2.9180 C   0  0  0  0  0  0  0  0  0  0  0  0
    2.5662   -0.5790   -3.6095 H   0  0  0  0  0  0  0  0  0  0  0  0
    2.6700    1.1644   -3.2625 H   0  0  0  0  0  0  0  0  0  0  0  0
    4.0611    0.1101   -2.9415 H   0  0  0  0  0  0  0  0  0  0  0  0
  1  2  1  0  0  0  0
  2  3  1  0  0  0  0
  2  4  1  0  0  0  0
  2  5  1  0  0  0  0
  5  6  2  0  0  0  0
  5  7  1  0  0  0  0
  7  8  1  0  0  0  0
  7  9  1  0  0  0  0
  9 10  1  0  0  0  0
  9 11  1  0  0  0  0
  9 12  1  0  0  0  0
 12 13  2  0  0  0  0
 12 14  1  0  0  0  0
 14 15  1  0  0  0  0
 14 16  1  0  0  0  0
 16 17  1  0  0  0  0
 16 18  1  0  0  0  0
 16 19  1  0  0  0  0
M  END
$$$$

  -OEChem-01062216083D

 19 18  0     0  0  0  0  0  0999 V2000
   -2.1377   -4.0319   -0.1431 H   0  0  0  0  0  0  0  0  0  0  0  0
   -2.2097   -2.9407   -0.1317 C   0  0  0  0  0  0  0  0  0  0  0  0
   -2.9211   -2.6423    0.6420 H   0  0  0  0  0  0  0  0  0  0  0  0
   -2.5758   -2.6024   -1.1043 H   0  0  0  0  0  0  0  0  0  0  0  0
   -0.8501   -2.3292    0.1515 C   0  0  0  0  0  0  0  0  0  0  0  0
    0.1130   -3.0527    0.3564 O   0  0  0  0  0  0  0  0  0  0  0  0
   -0.7033   -0.9561    0.1572 N   0  0  0  0  0  0  0  0  0  0  0  0
   -1.4818   -0.4268   -0.2301 H   0  0  0  0  0  0  0  0  0  0  0  0
    0.6151   -0.3036    0.1392 C   0  0  0  0  0  0  0  0  0  0  0  0
    0.5532    0.6542    0.6628 H   0  0  0  0  0  0  0  0  0  0  0  0
    1.3549   -0.9098    0.6708 H   0  0  0  0  0  0  0  0  0  0  0  0
    1.1061   -0.0406   -1.2896 C   0  0  0  0  0  0  0  0  0  0  0  0
    0.3305    0.4375   -2.1075 O   0  0  0  0  0  0  0  0  0  0  0  0
    2.4110   -0.3327   -1.6433 N   0  0  0  0  0  0  0  0  0  0  0  0
    2.9774   -0.8085   -0.9462 H   0  0  0  0  0  0  0  0  0  0  0  0
    2.9621   -0.1719   -2.9866 C   0  0  0  0  0  0  0  0  0  0  0  0
    2.2065    0.1636   -3.7043 H   0  0  0  0  0  0  0  0  0  0  0  0
    3.7698    0.5662   -2.9745 H   0  0  0  0  0  0  0  0  0  0  0  0
    3.3614   -1.1264   -3.3427 H   0  0  0  0  0  0  0  0  0  0  0  0
  1  2  1  0  0  0  0
  2  3  1  0  0  0  0
  2  4  1  0  0  0  0
  2  5  1  0  0  0  0
  5  6  2  0  0  0  0
  5  7  1  0  0  0  0
  7  8  1  0  0  0  0
  7  9  1  0  0  0  0
  9 10  1  0  0  0  0
  9 11  1  0  0  0  0
  9 12  1  0  0  0  0
 12 13  2  0  0  0  0
 12 14  1  0  0  0  0
 14 15  1  0  0  0  0
 14 16  1  0  0  0  0
 16 17  1  0  0  0  0
 16 18  1  0  0  0  0
 16 19  1  0  0  0  0
M  END
$$$$

  -OEChem-01062216083D

 19 18  0     0  0  0  0  0  0999 V2000
   -2.0323   -4.1090    0.0034 H   0  0  0  0  0  0  0  0  0  0  0  0
   -2.1456   -3.0247   -0.0838 C   0  0  0  0  0  0  0  0  0  0  0  0
   -2.8726   -2.6859    0.6584 H   0  0  0  0  0  0  0  0  0  0  0  0
   -2.5184   -2.7893   -1.0838 H   0  0  0  0  0  0  0  0  0  0  0  0
   -0.8116   -2.3389    0.1468 C   0  0  0  0  0  0  0  0  0  0  0  0
    0.1893   -3.0057    0.3632 O   0  0  0  0  0  0  0  0  0  0  0  0
   -0.7268   -0.9621    0.0837 N   0  0  0  0  0  0  0  0  0  0  0  0
   -1.5368   -0.4742   -0.2930 H   0  0  0  0  0  0  0  0  0  0  0  0
    0.5558   -0.2432    0.0851 C   0  0  0  0  0  0  0  0  0  0  0  0
    0.4222    0.7381    0.5486 H   0  0  0  0  0  0  0  0  0  0  0  0
    1.3016   -0.7764    0.6827 H   0  0  0  0  0  0  0  0  0  0  0  0
    1.0920   -0.0330   -1.3343 C   0  0  0  0  0  0  0  0  0  0  0  0
    0.4192    0.5899   -2.1450 O   0  0  0  0  0  0  0  0  0  0  0  0
    2.3162   -0.5543   -1.7048 N   0  0  0  0  0  0  0  0  0  0  0  0
    2.7554   -1.2014   -1.0546 H   0  0  0  0  0  0  0  0  0  0  0  0
    2.8316   -0.4719   -3.0657 C   0  0  0  0  0  0  0  0  0  0  0  0
    2.9048    0.5730   -3.3857 H   0  0  0  0  0  0  0  0  0  0  0  0
    3.8293   -0.9181   -3.1194 H   0  0  0  0  0  0  0  0  0  0  0  0
    2.1734   -1.0073   -3.7578 H   0  0  0  0  0  0  0  0  0  0  0  0
  1  2  1  0  0  0  0
  2  3  1  0  0  0  0
  2  4  1  0  0  0  0
  2  5  1  0  0  0  0
  5  6  2  0  0  0  0
  5  7  1  0  0  0  0
  7  8  1  0  0  0  0
  7  9  1  0  0  0  0
  9 10  1  0  0  0  0
  9 11  1  0  0  0  0
  9 12  1  0  0  0  0
 12 13  2  0  0  0  0
 12 14  1  0  0  0  0
 14 15  1  0  0  0  0
 14 16  1  0  0  0  0
 16 17  1  0  0  0  0
 16 18  1  0  0  0  0
 16 19  1  0  0  0  0
M  END
$$$$

  -OEChem-01062216083D

 19 18  0     0  0  0  0  0  0999 V2000
   -2.0504   -4.1063    0.0615 H   0  0  0  0  0  0  0  0  0  0  0  0
   -2.1541   -3.0253   -0.0675 C   0  0  0  0  0  0  0  0  0  0  0  0
   -2.8660   -2.6499    0.6715 H   0  0  0  0  0  0  0  0  0  0  0  0
   -2.5407   -2.8256   -1.0700 H   0  0  0  0  0  0  0  0  0  0  0  0
   -0.8096   -2.3452    0.1145 C   0  0  0  0  0  0  0  0  0  0  0  0
    0.2004   -3.0156    0.2698 O   0  0  0  0  0  0  0  0  0  0  0  0
   -0.7203   -0.9685    0.0594 N   0  0  0  0  0  0  0  0  0  0  0  0
   -1.5495   -0.4620   -0.2430 H   0  0  0  0  0  0  0  0  0  0  0  0
    0.5620   -0.2493    0.0708 C   0  0  0  0  0  0  0  0  0  0  0  0
    0.4268    0.7298    0.5392 H   0  0  0  0  0  0  0  0  0  0  0  0
    1.3075   -0.7841    0.6673 H   0  0  0  0  0  0  0  0  0  0  0  0
    1.1008   -0.0345   -1.3454 C   0  0  0  0  0  0  0  0  0  0  0  0
    0.5744    0.7966   -2.0728 O   0  0  0  0  0  0  0  0  0  0  0  0
    2.1543   -0.7984   -1.8072 N   0  0  0  0  0  0  0  0  0  0  0  0
    2.4213   -1.5953   -1.2330 H   0  0  0  0  0  0  0  0  0  0  0  0
    2.6319   -0.7379   -3.1825 C   0  0  0  0  0  0  0  0  0  0  0  0
    2.9105    0.2874   -3.4480 H   0  0  0  0  0  0  0  0  0  0  0  0
    3.5132   -1.3749   -3.3043 H   0  0  0  0  0  0  0  0  0  0  0  0
    1.8550   -1.0821   -3.8728 H   0  0  0  0  0  0  0  0  0  0  0  0
  1  2  1  0  0  0  0
  2  3  1  0  0  0  0
  2  4  1  0  0  0  0
  2  5  1  0  0  0  0
  5  6  2  0  0  0  0
  5  7  1  0  0  0  0
  7  8  1  0  0  0  0
  7  9  1  0  0  0  0
  9 10  1  0  0  0  0
  9 11  1  0  0  0  0
  9 12  1  0  0  0  0
 12 13  2  0  0  0  0
 12 14  1  0  0  0  0
 14 15  1  0  0  0  0
 14 16  1  0  0  0  0
 16 17  1  0  0  0  0
 16 18  1  0  0  0  0
 16 19  1  0  0  0  0
M  END
$$$$

  -OEChem-01062216083D

 19 18  0     0  0  0  0  0  0999 V2000
   -2.0598   -4.1214    0.0881 H   0  0  0  0  0  0  0  0  0  0  0  0
   -2.1772   -3.0380   -0.0052 C   0  0  0  0  0  0  0  0  0  0  0  0
   -2.8136   -2.6825    0.8088 H   0  0  0  0  0  0  0  0  0  0  0  0
   -2.6602   -2.8167   -0.9602 H   0  0  0  0  0  0  0  0  0  0  0  0
   -0.8226   -2.3574    0.0599 C   0  0  0  0  0  0  0  0  0  0  0  0
    0.1995   -3.0261    0.1116 O   0  0  0  0  0  0  0  0  0  0  0  0
   -0.7364   -0.9807    0.0043 N   0  0  0  0  0  0  0  0  0  0  0  0
   -1.5918   -0.4582   -0.1694 H   0  0  0  0  0  0  0  0  0  0  0  0
    0.5423   -0.2555    0.0267 C   0  0  0  0  0  0  0  0  0  0  0  0
    0.3990    0.7228    0.4944 H   0  0  0  0  0  0  0  0  0  0  0  0
    1.2860   -0.7876    0.6283 H   0  0  0  0  0  0  0  0  0  0  0  0
    1.0931   -0.0411   -1.3838 C   0  0  0  0  0  0  0  0  0  0  0  0
    0.7882    0.9611   -2.0150 O   0  0  0  0  0  0  0  0  0  0  0  0
    1.9272   -0.9923   -1.9360 N   0  0  0  0  0  0  0  0  0  0  0  0
    1.9945   -1.8771   -1.4340 H   0  0  0  0  0  0  0  0  0  0  0  0
    2.4161   -0.9220   -3.3067 C   0  0  0  0  0  0  0  0  0  0  0  0
    2.9723    0.0074   -3.4685 H   0  0  0  0  0  0  0  0  0  0  0  0
    3.0855   -1.7630   -3.5117 H   0  0  0  0  0  0  0  0  0  0  0  0
    1.5814   -0.9609   -4.0142 H   0  0  0  0  0  0  0  0  0  0  0  0
  1  2  1  0  0  0  0
  2  3  1  0  0  0  0
  2  4  1  0  0  0  0
  2  5  1  0  0  0  0
  5  6  2  0  0  0  0
  5  7  1  0  0  0  0
  7  8  1  0  0  0  0
  7  9  1  0  0  0  0
  9 10  1  0  0  0  0
  9 11  1  0  0  0  0
  9 12  1  0  0  0  0
 12 13  2  0  0  0  0
 12 14  1  0  0  0  0
 14 15  1  0  0  0  0
 14 16  1  0  0  0  0
 16 17  1  0  0  0  0
 16 18  1  0  0  0  0
 16 19  1  0  0  0  0
M  END
$$$$

  -OEChem-01062216083D

 19 18  0     0  0  0  0  0  0999 V2000
   -2.1878   -4.0574    0.0096 H   0  0  0  0  0  0  0  0  0  0  0  0
   -2.2607   -2.9662    0.0072 C   0  0  0  0  0  0  0  0  0  0  0  0
   -2.8057   -2.6483    0.8993 H   0  0  0  0  0  0  0  0  0  0  0  0
   -2.8141   -2.6522   -0.8812 H   0  0  0  0  0  0  0  0  0  0  0  0
   -0.8739   -2.3506   -0.0003 C   0  0  0  0  0  0  0  0  0  0  0  0
    0.1161   -3.0642   -0.0746 O   0  0  0  0  0  0  0  0  0  0  0  0
   -0.7231   -0.9784    0.0027 N   0  0  0  0  0  0  0  0  0  0  0  0
   -1.5635   -0.4064   -0.0309 H   0  0  0  0  0  0  0  0  0  0  0  0
    0.5880   -0.3120    0.0339 C   0  0  0  0  0  0  0  0  0  0  0  0
    0.4976    0.6488    0.5490 H   0  0  0  0  0  0  0  0  0  0  0  0
    1.3169   -0.9058    0.5944 H   0  0  0  0  0  0  0  0  0  0  0  0
    1.1245   -0.0611   -1.3763 C   0  0  0  0  0  0  0  0  0  0  0  0
    1.1030    1.0666   -1.8481 O   0  0  0  0  0  0  0  0  0  0  0  0
    1.6284   -1.1304   -2.0915 N   0  0  0  0  0  0  0  0  0  0  0  0
    1.5244   -2.0472   -1.6538 H   0  0  0  0  0  0  0  0  0  0  0  0
    2.1364   -1.0591   -3.4574 C   0  0  0  0  0  0  0  0  0  0  0  0
    2.0747   -0.0443   -3.8641 H   0  0  0  0  0  0  0  0  0  0  0  0
    3.1847   -1.3721   -3.4833 H   0  0  0  0  0  0  0  0  0  0  0  0
    1.5547   -1.7201   -4.1073 H   0  0  0  0  0  0  0  0  0  0  0  0
  1  2  1  0  0  0  0
  2  3  1  0  0  0  0
  2  4  1  0  0  0  0
  2  5  1  0  0  0  0
  5  6  2  0  0  0  0
  5  7  1  0  0  0  0
  7  8  1  0  0  0  0
  7  9  1  0  0  0  0
  9 10  1  0  0  0  0
  9 11  1  0  0  0  0
  9 12  1  0  0  0  0
 12 13  2  0  0  0  0
 12 14  1  0  0  0  0
 14 15  1  0  0  0  0
 14 16  1  0  0  0  0
 16 17  1  0  0  0  0
 16 18  1  0  0  0  0
 16 19  1  0  0  0  0
M  END
$$$$

  -OEChem-01062216083D

 19 18  0     0  0  0  0  0  0999 V2000
   -2.3673   -3.9810   -0.0219 H   0  0  0  0  0  0  0  0  0  0  0  0
   -2.3677   -2.8910    0.0686 C   0  0  0  0  0  0  0  0  0  0  0  0
   -2.7876   -2.6197    1.0402 H   0  0  0  0  0  0  0  0  0  0  0  0
   -2.9955   -2.4724   -0.7218 H   0  0  0  0  0  0  0  0  0  0  0  0
   -0.9530   -2.3556   -0.0524 C   0  0  0  0  0  0  0  0  0  0  0  0
   -0.0202   -3.1192   -0.2525 O   0  0  0  0  0  0  0  0  0  0  0  0
   -0.7185   -0.9960   -0.0079 N   0  0  0  0  0  0  0  0  0  0  0  0
   -1.5216   -0.3828    0.1077 H   0  0  0  0  0  0  0  0  0  0  0  0
    0.6302   -0.4046    0.0204 C   0  0  0  0  0  0  0  0  0  0  0  0
    0.6025    0.5387    0.5738 H   0  0  0  0  0  0  0  0  0  0  0  0
    1.3300   -1.0631    0.5448 H   0  0  0  0  0  0  0  0  0  0  0  0
    1.1743   -0.1298   -1.3838 C   0  0  0  0  0  0  0  0  0  0  0  0
    1.4643    1.0087   -1.7222 O   0  0  0  0  0  0  0  0  0  0  0  0
    1.3245   -1.1817   -2.2648 N   0  0  0  0  0  0  0  0  0  0  0  0
    1.0713   -2.1082   -1.9166 H   0  0  0  0  0  0  0  0  0  0  0  0
    1.8506   -1.0389   -3.6150 C   0  0  0  0  0  0  0  0  0  0  0  0
    1.2111   -0.3759   -4.2069 H   0  0  0  0  0  0  0  0  0  0  0  0
    2.8628   -0.6221   -3.5891 H   0  0  0  0  0  0  0  0  0  0  0  0
    1.8906   -2.0141   -4.1097 H   0  0  0  0  0  0  0  0  0  0  0  0
  1  2  1  0  0  0  0
  2  3  1  0  0  0  0
  2  4  1  0  0  0  0
  2  5  1  0  0  0  0
  5  6  2  0  0  0  0
  5  7  1  0  0  0  0
  7  8  1  0  0  0  0
  7  9  1  0  0  0  0
  9 10  1  0  0  0  0
  9 11  1  0  0  0  0
  9 12  1  0  0  0  0
 12 13  2  0  0  0  0
 12 14  1  0  0  0  0
 14 15  1  0  0  0  0
 14 16  1  0  0  0  0
 16 17  1  0  0  0  0
 16 18  1  0  0  0  0
 16 19  1  0  0  0  0
M  END
$$$$

  -OEChem-01062216083D

 19 18  0     0  0  0  0  0  0999 V2000
   -2.4025   -3.9846   -0.0169 H   0  0  0  0  0  0  0  0  0  0  0  0
   -2.3883   -2.9011    0.1316 C   0  0  0  0  0  0  0  0  0  0  0  0
   -2.7381   -2.6803    1.1431 H   0  0  0  0  0  0  0  0  0  0  0  0
   -3.0659   -2.4390   -0.5906 H   0  0  0  0  0  0  0  0  0  0  0  0
   -0.9810   -2.3661   -0.0586 C   0  0  0  0  0  0  0  0  0  0  0  0
   -0.0639   -3.1265   -0.3275 O   0  0  0  0  0  0  0  0  0  0  0  0
   -0.7425   -1.0075   -0.0161 N   0  0  0  0  0  0  0  0  0  0  0  0
   -1.5363   -0.4011    0.1742 H   0  0  0  0  0  0  0  0  0  0  0  0
    0.6079   -0.4157   -0.0100 C   0  0  0  0  0  0  0  0  0  0  0  0
    0.5888    0.5252    0.5478 H   0  0  0  0  0  0  0  0  0  0  0  0
    1.3130   -1.0785    0.5019 H   0  0  0  0  0  0  0  0  0  0  0  0
    1.1428   -0.1329   -1.4177 C   0  0  0  0  0  0  0  0  0  0  0  0
    1.6626    0.9444   -1.6702 O   0  0  0  0  0  0  0  0  0  0  0  0
    1.0043   -1.0882   -2.4049 N   0  0  0  0  0  0  0  0  0  0  0  0
    0.6804   -2.0061   -2.0958 H   0  0  0  0  0  0  0  0  0  0  0  0
    1.5566   -0.9433   -3.7444 C   0  0  0  0  0  0  0  0  0  0  0  0
    1.1433   -0.0562   -4.2357 H   0  0  0  0  0  0  0  0  0  0  0  0
    2.6464   -0.8470   -3.7007 H   0  0  0  0  0  0  0  0  0  0  0  0
    1.3093   -1.8197   -4.3508 H   0  0  0  0  0  0  0  0  0  0  0  0
  1  2  1  0  0  0  0
  2  3  1  0  0  0  0
  2  4  1  0  0  0  0
  2  5  1  0  0  0  0
  5  6  2  0  0  0  0
  5  7  1  0  0  0  0
  7  8  1  0  0  0  0
  7  9  1  0  0  0  0
  9 10  1  0  0  0  0
  9 11  1  0  0  0  0
  9 12  1  0  0  0  0
 12 13  2  0  0  0  0
 12 14  1  0  0  0  0
 14 15  1  0  0  0  0
 14 16  1  0  0  0  0
 16 17  1  0  0  0  0
 16 18  1  0  0  0  0
 16 19  1  0  0  0  0
M  END
$$$$

  -OEChem-01062216083D

 19 18  0     0  0  0  0  0  0999 V2000
   -2.4080   -4.0034    0.0696 H   0  0  0  0  0  0  0  0  0  0  0  0
   -2.3984   -2.9164    0.1914 C   0  0  0  0  0  0  0  0  0  0  0  0
   -2.7164   -2.6742    1.2085 H   0  0  0  0  0  0  0  0  0  0  0  0
   -3.1034   -2.4767   -0.5185 H   0  0  0  0  0  0  0  0  0  0  0  0
   -1.0029   -2.3752   -0.0584 C   0  0  0  0  0  0  0  0  0  0  0  0
   -0.0969   -3.1304   -0.3715 O   0  0  0  0  0  0  0  0  0  0  0  0
   -0.7675   -1.0160   -0.0230 N   0  0  0  0  0  0  0  0  0  0  0  0
   -1.5537   -0.4178    0.2181 H   0  0  0  0  0  0  0  0  0  0  0  0
    0.5827   -0.4203   -0.0354 C   0  0  0  0  0  0  0  0  0  0  0  0
    0.5664    0.5200    0.5235 H   0  0  0  0  0  0  0  0  0  0  0  0
    1.2919   -1.0832    0.4704 H   0  0  0  0  0  0  0  0  0  0  0  0
    1.1196   -0.1316   -1.4427 C   0  0  0  0  0  0  0  0  0  0  0  0
    1.8470    0.8339   -1.6249 O   0  0  0  0  0  0  0  0  0  0  0  0
    0.7318   -0.9181   -2.5102 N   0  0  0  0  0  0  0  0  0  0  0  0
    0.2922   -1.8038   -2.2616 H   0  0  0  0  0  0  0  0  0  0  0  0
    1.2786   -0.7600   -3.8513 C   0  0  0  0  0  0  0  0  0  0  0  0
    1.1312    0.2646   -4.2085 H   0  0  0  0  0  0  0  0  0  0  0  0
    2.3503   -0.9839   -3.8560 H   0  0  0  0  0  0  0  0  0  0  0  0
    0.7769   -1.4406   -4.5457 H   0  0  0  0  0  0  0  0  0  0  0  0
  1  2  1  0  0  0  0
  2  3  1  0  0  0  0
  2  4  1  0  0  0  0
  2  5  1  0  0  0  0
  5  6  2  0  0  0  0
  5  7  1  0  0  0  0
  7  8  1  0  0  0  0
  7  9  1  0  0  0  0
  9 10  1  0  0  0  0
  9 11  1  0  0  0  0
  9 12  1  0  0  0  0
 12 13  2  0  0  0  0
 12 14  1  0  0  0  0
 14 15  1  0  0  0  0
 14 16  1  0  0  0  0
 16 17  1  0  0  0  0
 16 18  1  0  0  0  0
 16 19  1  0  0  0  0
M  END
$$$$

  -OEChem-01062216083D

 19 18  0     0  0  0  0  0  0999 V2000
   -2.4209   -4.0066    0.0829 H   0  0  0  0  0  0  0  0  0  0  0  0
   -2.4035   -2.9203    0.2107 C   0  0  0  0  0  0  0  0  0  0  0  0
   -2.7194   -2.6816    1.2293 H   0  0  0  0  0  0  0  0  0  0  0  0
   -3.1058   -2.4718   -0.4962 H   0  0  0  0  0  0  0  0  0  0  0  0
   -1.0042   -2.3875   -0.0369 C   0  0  0  0  0  0  0  0  0  0  0  0
   -0.1016   -3.1507   -0.3362 O   0  0  0  0  0  0  0  0  0  0  0  0
   -0.7638   -1.0287   -0.0055 N   0  0  0  0  0  0  0  0  0  0  0  0
   -1.5466   -0.4275    0.2395 H   0  0  0  0  0  0  0  0  0  0  0  0
    0.5866   -0.4327   -0.0435 C   0  0  0  0  0  0  0  0  0  0  0  0
    0.5799    0.5059    0.5182 H   0  0  0  0  0  0  0  0  0  0  0  0
    1.3034   -1.0978    0.4491 H   0  0  0  0  0  0  0  0  0  0  0  0
    1.1101   -0.1363   -1.4553 C   0  0  0  0  0  0  0  0  0  0  0  0
    2.0158    0.6722   -1.5980 O   0  0  0  0  0  0  0  0  0  0  0  0
    0.5028   -0.6903   -2.5662 N   0  0  0  0  0  0  0  0  0  0  0  0
   -0.1021   -1.4865   -2.3804 H   0  0  0  0  0  0  0  0  0  0  0  0
    1.0091   -0.5005   -3.9193 C   0  0  0  0  0  0  0  0  0  0  0  0
    1.0234    0.5634   -4.1782 H   0  0  0  0  0  0  0  0  0  0  0  0
    2.0256   -0.8978   -4.0072 H   0  0  0  0  0  0  0  0  0  0  0  0
    0.3689   -1.0207   -4.6382 H   0  0  0  0  0  0  0  0  0  0  0  0
  1  2  1  0  0  0  0
  2  3  1  0  0  0  0
  2  4  1  0  0  0  0
  2  5  1  0  0  0  0
  5  6  2  0  0  0  0
  5  7  1  0  0  0  0
  7  8  1  0  0  0  0
  7  9  1  0  0  0  0
  9 10  1  0  0  0  0
  9 11  1  0  0  0  0
  9 12  1  0  0  0  0
 12 13  2  0  0  0  0
 12 14  1  0  0  0  0
 14 15  1  0  0  0  0
 14 16  1  0  0  0  0
 16 17  1  0  0  0  0
 16 18  1  0  0  0  0
 16 19  1  0  0  0  0
M  END
$$$$

  -OEChem-01062216083D

 19 18  0     0  0  0  0  0  0999 V2000
   -2.4073   -4.0210    0.0905 H   0  0  0  0  0  0  0  0  0  0  0  0
   -2.3932   -2.9343    0.2143 C   0  0  0  0  0  0  0  0  0  0  0  0
   -2.7077   -2.6934    1.2326 H   0  0  0  0  0  0  0  0  0  0  0  0
   -3.0987   -2.4909   -0.4925 H   0  0  0  0  0  0  0  0  0  0  0  0
   -0.9961   -2.3977   -0.0375 C   0  0  0  0  0  0  0  0  0  0  0  0
   -0.0901   -3.1620   -0.3216 O   0  0  0  0  0  0  0  0  0  0  0  0
   -0.7613   -1.0373    0.0008 N   0  0  0  0  0  0  0  0  0  0  0  0
   -1.5418   -0.4427    0.2680 H   0  0  0  0  0  0  0  0  0  0  0  0
    0.5875   -0.4381   -0.0504 C   0  0  0  0  0  0  0  0  0  0  0  0
    0.5855    0.4962    0.5176 H   0  0  0  0  0  0  0  0  0  0  0  0
    1.3111   -1.1050    0.4298 H   0  0  0  0  0  0  0  0  0  0  0  0
    1.0978   -0.1273   -1.4640 C   0  0  0  0  0  0  0  0  0  0  0  0
    2.1529    0.4752   -1.5963 O   0  0  0  0  0  0  0  0  0  0  0  0
    0.3250   -0.4041   -2.5760 N   0  0  0  0  0  0  0  0  0  0  0  0
   -0.4558   -1.0354   -2.4239 H   0  0  0  0  0  0  0  0  0  0  0  0
    0.7957   -0.1885   -3.9384 C   0  0  0  0  0  0  0  0  0  0  0  0
    1.0455    0.8659   -4.0963 H   0  0  0  0  0  0  0  0  0  0  0  0
    1.6857   -0.7949   -4.1367 H   0  0  0  0  0  0  0  0  0  0  0  0
    0.0179   -0.4682   -4.6553 H   0  0  0  0  0  0  0  0  0  0  0  0
  1  2  1  0  0  0  0
  2  3  1  0  0  0  0
  2  4  1  0  0  0  0
  2  5  1  0  0  0  0
  5  6  2  0  0  0  0
  5  7  1  0  0  0  0
  7  8  1  0  0  0  0
  7  9  1  0  0  0  0
  9 10  1  0  0  0  0
  9 11  1  0  0  0  0
  9 12  1  0  0  0  0
 12 13  2  0  0  0  0
 12 14  1  0  0  0  0
 14 15  1  0  0  0  0
 14 16  1  0  0  0  0
 16 17  1  0  0  0  0
 16 18  1  0  0  0  0
 16 19  1  0  0  0  0
M  END
$$$$

  -OEChem-01062216083D

 19 18  0     0  0  0  0  0  0999 V2000
   -2.3883   -4.0306    0.0801 H   0  0  0  0  0  0  0  0  0  0  0  0
   -2.3811   -2.9430    0.1972 C   0  0  0  0  0  0  0  0  0  0  0  0
   -2.7061   -2.6970    1.2110 H   0  0  0  0  0  0  0  0  0  0  0  0
   -3.0823   -2.5082   -0.5192 H   0  0  0  0  0  0  0  0  0  0  0  0
   -0.9843   -2.4016   -0.0458 C   0  0  0  0  0  0  0  0  0  0  0  0
   -0.0731   -3.1662   -0.3109 O   0  0  0  0  0  0  0  0  0  0  0  0
   -0.7551   -1.0399    0.0009 N   0  0  0  0  0  0  0  0  0  0  0  0
   -1.5336   -0.4520    0.2877 H   0  0  0  0  0  0  0  0  0  0  0  0
    0.5929   -0.4396   -0.0528 C   0  0  0  0  0  0  0  0  0  0  0  0
    0.5939    0.4921    0.5192 H   0  0  0  0  0  0  0  0  0  0  0  0
    1.3198   -1.1085    0.4202 H   0  0  0  0  0  0  0  0  0  0  0  0
    1.0916   -0.1206   -1.4682 C   0  0  0  0  0  0  0  0  0  0  0  0
    2.2453    0.2500   -1.6261 O   0  0  0  0  0  0  0  0  0  0  0  0
    0.2163   -0.0988   -2.5381 N   0  0  0  0  0  0  0  0  0  0  0  0
   -0.6886   -0.5314   -2.3831 H   0  0  0  0  0  0  0  0  0  0  0  0
    0.6473    0.1556   -3.9067 C   0  0  0  0  0  0  0  0  0  0  0  0
    1.1372    1.1323   -3.9798 H   0  0  0  0  0  0  0  0  0  0  0  0
    1.3504   -0.6170   -4.2354 H   0  0  0  0  0  0  0  0  0  0  0  0
   -0.2141    0.1523   -4.5814 H   0  0  0  0  0  0  0  0  0  0  0  0
  1  2  1  0  0  0  0
  2  3  1  0  0  0  0
  2  4  1  0  0  0  0
  2  5  1  0  0  0  0
  5  6  2  0  0  0  0
  5  7  1  0  0  0  0
  7  8  1  0  0  0  0
  7  9  1  0  0  0  0
  9 10  1  0  0  0  0
  9 11  1  0  0  0  0
  9 12  1  0  0  0  0
 12 13  2  0  0  0  0
 12 14  1  0  0  0  0
 14 15  1  0  0  0  0
 14 16  1  0  0  0  0
 16 17  1  0  0  0  0
 16 18  1  0  0  0  0
 16 19  1  0  0  0  0
M  END
$$$$

  -OEChem-01062216083D

 19 18  0     0  0  0  0  0  0999 V2000
   -2.3754   -4.0335    0.0824 H   0  0  0  0  0  0  0  0  0  0  0  0
   -2.3731   -2.9439    0.1795 C   0  0  0  0  0  0  0  0  0  0  0  0
   -2.7160   -2.6805    1.1830 H   0  0  0  0  0  0  0  0  0  0  0  0
   -3.0632   -2.5250   -0.5569 H   0  0  0  0  0  0  0  0  0  0  0  0
   -0.9739   -2.4027   -0.0509 C   0  0  0  0  0  0  0  0  0  0  0  0
   -0.0604   -3.1699   -0.2991 O   0  0  0  0  0  0  0  0  0  0  0  0
   -0.7449   -1.0407    0.0009 N   0  0  0  0  0  0  0  0  0  0  0  0
   -1.5222   -0.4565    0.2968 H   0  0  0  0  0  0  0  0  0  0  0  0
    0.6029   -0.4409   -0.0562 C   0  0  0  0  0  0  0  0  0  0  0  0
    0.6085    0.4886    0.5190 H   0  0  0  0  0  0  0  0  0  0  0  0
    1.3330   -1.1119    0.4098 H   0  0  0  0  0  0  0  0  0  0  0  0
    1.0877   -0.1189   -1.4757 C   0  0  0  0  0  0  0  0  0  0  0  0
    2.2839    0.0103   -1.6896 O   0  0  0  0  0  0  0  0  0  0  0  0
    0.1820    0.2073   -2.4684 N   0  0  0  0  0  0  0  0  0  0  0  0
   -0.7920   -0.0038   -2.2789 H   0  0  0  0  0  0  0  0  0  0  0  0
    0.5830    0.5118   -3.8364 C   0  0  0  0  0  0  0  0  0  0  0  0
    1.2665    1.3673   -3.8551 H   0  0  0  0  0  0  0  0  0  0  0  0
    1.0847   -0.3501   -4.2889 H   0  0  0  0  0  0  0  0  0  0  0  0
   -0.2942    0.7602   -4.4414 H   0  0  0  0  0  0  0  0  0  0  0  0
  1  2  1  0  0  0  0
  2  3  1  0  0  0  0
  2  4  1  0  0  0  0
  2  5  1  0  0  0  0
  5  6  2  0  0  0  0
  5  7  1  0  0  0  0
  7  8  1  0  0  0  0
  7  9  1  0  0  0  0
  9 10  1  0  0  0  0
  9 11  1  0  0  0  0
  9 12  1  0  0  0  0
 12 13  2  0  0  0  0
 12 14  1  0  0  0  0
 14 15  1  0  0  0  0
 14 16  1  0  0  0  0
 16 17  1  0  0  0  0
 16 18  1  0  0  0  0
 16 19  1  0  0  0  0
M  END
$$$$

  -OEChem-01062216083D

 19 18  0     0  0  0  0  0  0999 V2000
   -2.2484   -4.0983    0.1663 H   0  0  0  0  0  0  0  0  0  0  0  0
   -2.3095   -3.0065    0.1383 C   0  0  0  0  0  0  0  0  0  0  0  0
   -2.7662   -2.6567    1.0672 H   0  0  0  0  0  0  0  0  0  0  0  0
   -2.9391   -2.7114   -0.7045 H   0  0  0  0  0  0  0  0  0  0  0  0
   -0.9224   -2.4102   -0.0160 C   0  0  0  0  0  0  0  0  0  0  0  0
    0.0403   -3.1448   -0.1508 O   0  0  0  0  0  0  0  0  0  0  0  0
   -0.7612   -1.0374   -0.0071 N   0  0  0  0  0  0  0  0  0  0  0  0
   -1.5874   -0.4807    0.1919 H   0  0  0  0  0  0  0  0  0  0  0  0
    0.5539   -0.3681   -0.0358 C   0  0  0  0  0  0  0  0  0  0  0  0
    0.4913    0.5792    0.5060 H   0  0  0  0  0  0  0  0  0  0  0  0
    1.2992   -0.9834    0.4804 H   0  0  0  0  0  0  0  0  0  0  0  0
    1.0709   -0.0736   -1.4501 C   0  0  0  0  0  0  0  0  0  0  0  0
    2.2689   -0.1390   -1.6789 O   0  0  0  0  0  0  0  0  0  0  0  0
    0.2152    0.4640   -2.3965 N   0  0  0  0  0  0  0  0  0  0  0  0
   -0.7705    0.4774   -2.1583 H   0  0  0  0  0  0  0  0  0  0  0  0
    0.6065    0.8407   -3.7530 C   0  0  0  0  0  0  0  0  0  0  0  0
    1.6750    0.6831   -3.9328 H   0  0  0  0  0  0  0  0  0  0  0  0
    0.0514    0.2423   -4.4820 H   0  0  0  0  0  0  0  0  0  0  0  0
    0.3883    1.8990   -3.9254 H   0  0  0  0  0  0  0  0  0  0  0  0
  1  2  1  0  0  0  0
  2  3  1  0  0  0  0
  2  4  1  0  0  0  0
  2  5  1  0  0  0  0
  5  6  2  0  0  0  0
  5  7  1  0  0  0  0
  7  8  1  0  0  0  0
  7  9  1  0  0  0  0
  9 10  1  0  0  0  0
  9 11  1  0  0  0  0
  9 12  1  0  0  0  0
 12 13  2  0  0  0  0
 12 14  1  0  0  0  0
 14 15  1  0  0  0  0
 14 16  1  0  0  0  0
 16 17  1  0  0  0  0
 16 18  1  0  0  0  0
 16 19  1  0  0  0  0
M  END
$$$$

  -OEChem-01062216083D

 19 18  0     0  0  0  0  0  0999 V2000
   -2.2444   -4.0837    0.0790 H   0  0  0  0  0  0  0  0  0  0  0  0
   -2.2958   -2.9911    0.0671 C   0  0  0  0  0  0  0  0  0  0  0  0
   -2.8203   -2.6545    0.9646 H   0  0  0  0  0  0  0  0  0  0  0  0
   -2.8562   -2.6756   -0.8162 H   0  0  0  0  0  0  0  0  0  0  0  0
   -0.8966   -2.4041    0.0314 C   0  0  0  0  0  0  0  0  0  0  0  0
    0.0689   -3.1468    0.0036 O   0  0  0  0  0  0  0  0  0  0  0  0
   -0.7298   -1.0319    0.0371 N   0  0  0  0  0  0  0  0  0  0  0  0
   -1.5715   -0.4659    0.0889 H   0  0  0  0  0  0  0  0  0  0  0  0
    0.5834   -0.3615   -0.0119 C   0  0  0  0  0  0  0  0  0  0  0  0
    0.5322    0.5839    0.5340 H   0  0  0  0  0  0  0  0  0  0  0  0
    1.3387   -0.9769    0.4898 H   0  0  0  0  0  0  0  0  0  0  0  0
    1.0671   -0.0715   -1.4391 C   0  0  0  0  0  0  0  0  0  0  0  0
    2.1834   -0.4206   -1.7900 O   0  0  0  0  0  0  0  0  0  0  0  0
    0.3050    0.7361   -2.2670 N   0  0  0  0  0  0  0  0  0  0  0  0
   -0.6066    1.0159   -1.9223 H   0  0  0  0  0  0  0  0  0  0  0  0
    0.6862    1.1351   -3.6202 C   0  0  0  0  0  0  0  0  0  0  0  0
    1.6596    0.7273   -3.9119 H   0  0  0  0  0  0  0  0  0  0  0  0
   -0.0568    0.7761   -4.3388 H   0  0  0  0  0  0  0  0  0  0  0  0
    0.7439    2.2258   -3.6870 H   0  0  0  0  0  0  0  0  0  0  0  0
  1  2  1  0  0  0  0
  2  3  1  0  0  0  0
  2  4  1  0  0  0  0
  2  5  1  0  0  0  0
  5  6  2  0  0  0  0
  5  7  1  0  0  0  0
  7  8  1  0  0  0  0
  7  9  1  0  0  0  0
  9 10  1  0  0  0  0
  9 11  1  0  0  0  0
  9 12  1  0  0  0  0
 12 13  2  0  0  0  0
 12 14  1  0  0  0  0
 14 15  1  0  0  0  0
 14 16  1  0  0  0  0
 16 17  1  0  0  0  0
 16 18  1  0  0  0  0
 16 19  1  0  0  0  0
M  END
$$$$

  -OEChem-01062216083D

 19 18  0     0  0  0  0  0  0999 V2000
   -2.3550   -3.9822    0.0401 H   0  0  0  0  0  0  0  0  0  0  0  0
   -2.3397   -2.8890    0.0066 C   0  0  0  0  0  0  0  0  0  0  0  0
   -2.9178   -2.5041    0.8500 H   0  0  0  0  0  0  0  0  0  0  0  0
   -2.8029   -2.5601   -0.9268 H   0  0  0  0  0  0  0  0  0  0  0  0
   -0.9102   -2.3843    0.0825 C   0  0  0  0  0  0  0  0  0  0  0  0
    0.0084   -3.1833    0.1360 O   0  0  0  0  0  0  0  0  0  0  0  0
   -0.6686   -1.0233    0.1218 N   0  0  0  0  0  0  0  0  0  0  0  0
   -1.4782   -0.4202    0.0135 H   0  0  0  0  0  0  0  0  0  0  0  0
    0.6750   -0.4292   -0.0086 C   0  0  0  0  0  0  0  0  0  0  0  0
    0.7265    0.4936    0.5748 H   0  0  0  0  0  0  0  0  0  0  0  0
    1.4313   -1.1054    0.4052 H   0  0  0  0  0  0  0  0  0  0  0  0
    1.0540   -0.1160   -1.4621 C   0  0  0  0  0  0  0  0  0  0  0  0
    1.9042   -0.7701   -2.0454 O   0  0  0  0  0  0  0  0  0  0  0  0
    0.4885    0.9750   -2.0979 N   0  0  0  0  0  0  0  0  0  0  0  0
   -0.1794    1.5337   -1.5773 H   0  0  0  0  0  0  0  0  0  0  0  0
    0.8404    1.3768   -3.4548 C   0  0  0  0  0  0  0  0  0  0  0  0
    1.9066    1.6187   -3.5190 H   0  0  0  0  0  0  0  0  0  0  0  0
    0.6191    0.5709   -4.1626 H   0  0  0  0  0  0  0  0  0  0  0  0
    0.2673    2.2613   -3.7486 H   0  0  0  0  0  0  0  0  0  0  0  0
  1  2  1  0  0  0  0
  2  3  1  0  0  0  0
  2  4  1  0  0  0  0
  2  5  1  0  0  0  0
  5  6  2  0  0  0  0
  5  7  1  0  0  0  0
  7  8  1  0  0  0  0
  7  9  1  0  0  0  0
  9 10  1  0  0  0  0
  9 11  1  0  0  0  0
  9 12  1  0  0  0  0
 12 13  2  0  0  0  0
 12 14  1  0  0  0  0
 14 15  1  0  0  0  0
 14 16  1  0  0  0  0
 16 17  1  0  0  0  0
 16 18  1  0  0  0  0
 16 19  1  0  0  0  0
M  END
$$$$

  -OEChem-01062216083D

 19 18  0     0  0  0  0  0  0999 V2000
   -2.3370   -3.9656   -0.0108 H   0  0  0  0  0  0  0  0  0  0  0  0
   -2.3193   -2.8726   -0.0499 C   0  0  0  0  0  0  0  0  0  0  0  0
   -2.9507   -2.4827    0.7521 H   0  0  0  0  0  0  0  0  0  0  0  0
   -2.7210   -2.5497   -1.0133 H   0  0  0  0  0  0  0  0  0  0  0  0
   -0.8973   -2.3672    0.1138 C   0  0  0  0  0  0  0  0  0  0  0  0
    0.0134   -3.1672    0.2459 O   0  0  0  0  0  0  0  0  0  0  0  0
   -0.6582   -1.0057    0.1659 N   0  0  0  0  0  0  0  0  0  0  0  0
   -1.4586   -0.4112   -0.0281 H   0  0  0  0  0  0  0  0  0  0  0  0
    0.6879   -0.4219    0.0212 C   0  0  0  0  0  0  0  0  0  0  0  0
    0.7552    0.4912    0.6176 H   0  0  0  0  0  0  0  0  0  0  0  0
    1.4477   -1.1071    0.4122 H   0  0  0  0  0  0  0  0  0  0  0  0
    1.0455   -0.0962   -1.4353 C   0  0  0  0  0  0  0  0  0  0  0  0
    1.5761   -0.9267   -2.1556 O   0  0  0  0  0  0  0  0  0  0  0  0
    0.7422    1.1502   -1.9534 N   0  0  0  0  0  0  0  0  0  0  0  0
    0.3326    1.8367   -1.3281 H   0  0  0  0  0  0  0  0  0  0  0  0
    1.0743    1.5472   -3.3168 C   0  0  0  0  0  0  0  0  0  0  0  0
    2.1575    1.5083   -3.4738 H   0  0  0  0  0  0  0  0  0  0  0  0
    0.5895    0.8819   -4.0392 H   0  0  0  0  0  0  0  0  0  0  0  0
    0.7339    2.5696   -3.5071 H   0  0  0  0  0  0  0  0  0  0  0  0
  1  2  1  0  0  0  0
  2  3  1  0  0  0  0
  2  4  1  0  0  0  0
  2  5  1  0  0  0  0
  5  6  2  0  0  0  0
  5  7  1  0  0  0  0
  7  8  1  0  0  0  0
  7  9  1  0  0  0  0
  9 10  1  0  0  0  0
  9 11  1  0  0  0  0
  9 12  1  0  0  0  0
 12 13  2  0  0  0  0
 12 14  1  0  0  0  0
 14 15  1  0  0  0  0
 14 16  1  0  0  0  0
 16 17  1  0  0  0  0
 16 18  1  0  0  0  0
 16 19  1  0  0  0  0
M  END
$$$$

  -OEChem-01062216083D

 19 18  0     0  0  0  0  0  0999 V2000
   -2.3192   -3.9417   -0.0578 H   0  0  0  0  0  0  0  0  0  0  0  0
   -2.2895   -2.8503   -0.1220 C   0  0  0  0  0  0  0  0  0  0  0  0
   -2.9801   -2.4358    0.6160 H   0  0  0  0  0  0  0  0  0  0  0  0
   -2.6091   -2.5491   -1.1225 H   0  0  0  0  0  0  0  0  0  0  0  0
   -0.8814   -2.3495    0.1428 C   0  0  0  0  0  0  0  0  0  0  0  0
    0.0151   -3.1515    0.3479 O   0  0  0  0  0  0  0  0  0  0  0  0
   -0.6434   -0.9884    0.2114 N   0  0  0  0  0  0  0  0  0  0  0  0
   -1.4271   -0.4019   -0.0604 H   0  0  0  0  0  0  0  0  0  0  0  0
    0.7088   -0.4203    0.0672 C   0  0  0  0  0  0  0  0  0  0  0  0
    0.7855    0.4855    0.6736 H   0  0  0  0  0  0  0  0  0  0  0  0
    1.4647   -1.1162    0.4461 H   0  0  0  0  0  0  0  0  0  0  0  0
    1.0601   -0.0841   -1.3892 C   0  0  0  0  0  0  0  0  0  0  0  0
    1.2083   -0.9671   -2.2199 O   0  0  0  0  0  0  0  0  0  0  0  0
    1.0649    1.2348   -1.8067 N   0  0  0  0  0  0  0  0  0  0  0  0
    0.9333    1.9556   -1.1041 H   0  0  0  0  0  0  0  0  0  0  0  0
    1.3298    1.6350   -3.1837 C   0  0  0  0  0  0  0  0  0  0  0  0
    2.3316    1.3156   -3.4895 H   0  0  0  0  0  0  0  0  0  0  0  0
    0.5952    1.1882   -3.8619 H   0  0  0  0  0  0  0  0  0  0  0  0
    1.2695    2.7234   -3.2796 H   0  0  0  0  0  0  0  0  0  0  0  0
  1  2  1  0  0  0  0
  2  3  1  0  0  0  0
  2  4  1  0  0  0  0
  2  5  1  0  0  0  0
  5  6  2  0  0  0  0
  5  7  1  0  0  0  0
  7  8  1  0  0  0  0
  7  9  1  0  0  0  0
  9 10  1  0  0  0  0
  9 11  1  0  0  0  0
  9 12  1  0  0  0  0
 12 13  2  0  0  0  0
 12 14  1  0  0  0  0
 14 15  1  0  0  0  0
 14 16  1  0  0  0  0
 16 17  1  0  0  0  0
 16 18  1  0  0  0  0
 16 19  1  0  0  0  0
M  END
$$$$

  -OEChem-01062216083D

 19 18  0     0  0  0  0  0  0999 V2000
   -2.2958   -3.9375   -0.1044 H   0  0  0  0  0  0  0  0  0  0  0  0
   -2.2698   -2.8455   -0.1592 C   0  0  0  0  0  0  0  0  0  0  0  0
   -2.9919   -2.4397    0.5532 H   0  0  0  0  0  0  0  0  0  0  0  0
   -2.5495   -2.5384   -1.1699 H   0  0  0  0  0  0  0  0  0  0  0  0
   -0.8762   -2.3397    0.1653 C   0  0  0  0  0  0  0  0  0  0  0  0
    0.0153   -3.1385    0.4062 O   0  0  0  0  0  0  0  0  0  0  0  0
   -0.6440   -0.9782    0.2414 N   0  0  0  0  0  0  0  0  0  0  0  0
   -1.4158   -0.3999   -0.0784 H   0  0  0  0  0  0  0  0  0  0  0  0
    0.7118   -0.4183    0.0995 C   0  0  0  0  0  0  0  0  0  0  0  0
    0.7858    0.4861    0.7084 H   0  0  0  0  0  0  0  0  0  0  0  0
    1.4654   -1.1161    0.4786 H   0  0  0  0  0  0  0  0  0  0  0  0
    1.0681   -0.0775   -1.3560 C   0  0  0  0  0  0  0  0  0  0  0  0
    0.8901   -0.8911   -2.2508 O   0  0  0  0  0  0  0  0  0  0  0  0
    1.3886    1.2242   -1.6970 N   0  0  0  0  0  0  0  0  0  0  0  0
    1.5134    1.8945   -0.9446 H   0  0  0  0  0  0  0  0  0  0  0  0
    1.6405    1.6510   -3.0685 C   0  0  0  0  0  0  0  0  0  0  0  0
    2.4726    1.0847   -3.4998 H   0  0  0  0  0  0  0  0  0  0  0  0
    0.7507    1.4963   -3.6877 H   0  0  0  0  0  0  0  0  0  0  0  0
    1.8970    2.7143   -3.0924 H   0  0  0  0  0  0  0  0  0  0  0  0
  1  2  1  0  0  0  0
  2  3  1  0  0  0  0
  2  4  1  0  0  0  0
  2  5  1  0  0  0  0
  5  6  2  0  0  0  0
  5  7  1  0  0  0  0
  7  8  1  0  0  0  0
  7  9  1  0  0  0  0
  9 10  1  0  0  0  0
  9 11  1  0  0  0  0
  9 12  1  0  0  0  0
 12 13  2  0  0  0  0
 12 14  1  0  0  0  0
 14 15  1  0  0  0  0
 14 16  1  0  0  0  0
 16 17  1  0  0  0  0
 16 18  1  0  0  0  0
 16 19  1  0  0  0  0
M  END
$$$$

  -OEChem-01062216083D

 19 18  0     0  0  0  0  0  0999 V2000
   -2.2939   -3.9396   -0.1040 H   0  0  0  0  0  0  0  0  0  0  0  0
   -2.2675   -2.8480   -0.1648 C   0  0  0  0  0  0  0  0  0  0  0  0
   -2.9976   -2.4385    0.5371 H   0  0  0  0  0  0  0  0  0  0  0  0
   -2.5363   -2.5459   -1.1802 H   0  0  0  0  0  0  0  0  0  0  0  0
   -0.8777   -2.3396    0.1715 C   0  0  0  0  0  0  0  0  0  0  0  0
    0.0188   -3.1362    0.4033 O   0  0  0  0  0  0  0  0  0  0  0  0
   -0.6503   -0.9778    0.2538 N   0  0  0  0  0  0  0  0  0  0  0  0
   -1.4166   -0.4036   -0.0866 H   0  0  0  0  0  0  0  0  0  0  0  0
    0.7058   -0.4176    0.1176 C   0  0  0  0  0  0  0  0  0  0  0  0
    0.7715    0.4880    0.7257 H   0  0  0  0  0  0  0  0  0  0  0  0
    1.4584   -1.1132    0.5024 H   0  0  0  0  0  0  0  0  0  0  0  0
    1.0718   -0.0700   -1.3349 C   0  0  0  0  0  0  0  0  0  0  0  0
    0.6482   -0.7420   -2.2653 O   0  0  0  0  0  0  0  0  0  0  0  0
    1.6893    1.1353   -1.6159 N   0  0  0  0  0  0  0  0  0  0  0  0
    2.0218    1.6909   -0.8336 H   0  0  0  0  0  0  0  0  0  0  0  0
    1.9807    1.5859   -2.9719 C   0  0  0  0  0  0  0  0  0  0  0  0
    2.6355    0.8708   -3.4809 H   0  0  0  0  0  0  0  0  0  0  0  0
    1.0559    1.6894   -3.5491 H   0  0  0  0  0  0  0  0  0  0  0  0
    2.4826    2.5579   -2.9480 H   0  0  0  0  0  0  0  0  0  0  0  0
  1  2  1  0  0  0  0
  2  3  1  0  0  0  0
  2  4  1  0  0  0  0
  2  5  1  0  0  0  0
  5  6  2  0  0  0  0
  5  7  1  0  0  0  0
  7  8  1  0  0  0  0
  7  9  1  0  0  0  0
  9 10  1  0  0  0  0
  9 11  1  0  0  0  0
  9 12  1  0  0  0  0
 12 13  2  0  0  0  0
 12 14  1  0  0  0  0
 14 15  1  0  0  0  0
 14 16  1  0  0  0  0
 16 17  1  0  0  0  0
 16 18  1  0  0  0  0
 16 19  1  0  0  0  0
M  END
$$$$

  -OEChem-01062216083D

 19 18  0     0  0  0  0  0  0999 V2000
   -2.2968   -3.9393   -0.1099 H   0  0  0  0  0  0  0  0  0  0  0  0
   -2.2692   -2.8478   -0.1696 C   0  0  0  0  0  0  0  0  0  0  0  0
   -3.0013   -2.4380    0.5300 H   0  0  0  0  0  0  0  0  0  0  0  0
   -2.5345   -2.5440   -1.1853 H   0  0  0  0  0  0  0  0  0  0  0  0
   -0.8805   -2.3408    0.1720 C   0  0  0  0  0  0  0  0  0  0  0  0
    0.0196   -3.1375    0.3908 O   0  0  0  0  0  0  0  0  0  0  0  0
   -0.6543   -0.9799    0.2606 N   0  0  0  0  0  0  0  0  0  0  0  0
   -1.4144   -0.4075   -0.0972 H   0  0  0  0  0  0  0  0  0  0  0  0
    0.7022   -0.4183    0.1347 C   0  0  0  0  0  0  0  0  0  0  0  0
    0.7607    0.4885    0.7422 H   0  0  0  0  0  0  0  0  0  0  0  0
    1.4523   -1.1131    0.5258 H   0  0  0  0  0  0  0  0  0  0  0  0
    1.0795   -0.0646   -1.3137 C   0  0  0  0  0  0  0  0  0  0  0  0
    0.4710   -0.5529   -2.2574 O   0  0  0  0  0  0  0  0  0  0  0  0
    1.9608    0.9729   -1.5567 N   0  0  0  0  0  0  0  0  0  0  0  0
    2.4514    1.3729   -0.7625 H   0  0  0  0  0  0  0  0  0  0  0  0
    2.2999    1.4342   -2.8980 C   0  0  0  0  0  0  0  0  0  0  0  0
    2.7563    0.6246   -3.4773 H   0  0  0  0  0  0  0  0  0  0  0  0
    1.4032    1.7807   -3.4227 H   0  0  0  0  0  0  0  0  0  0  0  0
    3.0102    2.2648   -2.8446 H   0  0  0  0  0  0  0  0  0  0  0  0
  1  2  1  0  0  0  0
  2  3  1  0  0  0  0
  2  4  1  0  0  0  0
  2  5  1  0  0  0  0
  5  6  2  0  0  0  0
  5  7  1  0  0  0  0
  7  8  1  0  0  0  0
  7  9  1  0  0  0  0
  9 10  1  0  0  0  0
  9 11  1  0  0  0  0
  9 12  1  0  0  0  0
 12 13  2  0  0  0  0
 12 14  1  0  0  0  0
 14 15  1  0  0  0  0
 14 16  1  0  0  0  0
 16 17  1  0  0  0  0
 16 18  1  0  0  0  0
 16 19  1  0  0  0  0
M  END
$$$$

  -OEChem-01062216083D

 19 18  0     0  0  0  0  0  0999 V2000
   -2.2806   -3.9489   -0.1489 H   0  0  0  0  0  0  0  0  0  0  0  0
   -2.2709   -2.8555   -0.1677 C   0  0  0  0  0  0  0  0  0  0  0  0
   -2.9963   -2.4840    0.5598 H   0  0  0  0  0  0  0  0  0  0  0  0
   -2.5592   -2.5184   -1.1666 H   0  0  0  0  0  0  0  0  0  0  0  0
   -0.8845   -2.3386    0.1695 C   0  0  0  0  0  0  0  0  0  0  0  0
    0.0237   -3.1288    0.3786 O   0  0  0  0  0  0  0  0  0  0  0  0
   -0.6656   -0.9765    0.2541 N   0  0  0  0  0  0  0  0  0  0  0  0
   -1.4230   -0.4079   -0.1167 H   0  0  0  0  0  0  0  0  0  0  0  0
    0.6891   -0.4073    0.1465 C   0  0  0  0  0  0  0  0  0  0  0  0
    0.7338    0.5047    0.7471 H   0  0  0  0  0  0  0  0  0  0  0  0
    1.4348   -1.0964    0.5551 H   0  0  0  0  0  0  0  0  0  0  0  0
    1.0895   -0.0582   -1.2964 C   0  0  0  0  0  0  0  0  0  0  0  0
    0.3595   -0.3474   -2.2366 O   0  0  0  0  0  0  0  0  0  0  0  0
    2.1837    0.7554   -1.5240 N   0  0  0  0  0  0  0  0  0  0  0  0
    2.7810    0.9760   -0.7326 H   0  0  0  0  0  0  0  0  0  0  0  0
    2.5859    1.1990   -2.8536 C   0  0  0  0  0  0  0  0  0  0  0  0
    2.8181    0.3391   -3.4906 H   0  0  0  0  0  0  0  0  0  0  0  0
    1.7846    1.7794   -3.3230 H   0  0  0  0  0  0  0  0  0  0  0  0
    3.4761    1.8318   -2.7879 H   0  0  0  0  0  0  0  0  0  0  0  0
  1  2  1  0  0  0  0
  2  3  1  0  0  0  0
  2  4  1  0  0  0  0
  2  5  1  0  0  0  0
  5  6  2  0  0  0  0
  5  7  1  0  0  0  0
  7  8  1  0  0  0  0
  7  9  1  0  0  0  0
  9 10  1  0  0  0  0
  9 11  1  0  0  0  0
  9 12  1  0  0  0  0
 12 13  2  0  0  0  0
 12 14  1  0  0  0  0
 14 15  1  0  0  0  0
 14 16  1  0  0  0  0
 16 17  1  0  0  0  0
 16 18  1  0  0  0  0
 16 19  1  0  0  0  0
M  END
$$$$

  -OEChem-01062216083D

 19 18  0     0  0  0  0  0  0999 V2000
   -2.3349   -3.9396   -0.0857 H   0  0  0  0  0  0  0  0  0  0  0  0
   -2.3019   -2.8474   -0.1266 C   0  0  0  0  0  0  0  0  0  0  0  0
   -2.9902   -2.4464    0.6212 H   0  0  0  0  0  0  0  0  0  0  0  0
   -2.6223   -2.5220   -1.1194 H   0  0  0  0  0  0  0  0  0  0  0  0
   -0.8925   -2.3554    0.1465 C   0  0  0  0  0  0  0  0  0  0  0  0
    0.0146   -3.1616    0.2858 O   0  0  0  0  0  0  0  0  0  0  0  0
   -0.6499   -0.9982    0.2323 N   0  0  0  0  0  0  0  0  0  0  0  0
   -1.4098   -0.4095   -0.1037 H   0  0  0  0  0  0  0  0  0  0  0  0
    0.7019   -0.4219    0.1250 C   0  0  0  0  0  0  0  0  0  0  0  0
    0.8353    0.3206    0.9162 H   0  0  0  0  0  0  0  0  0  0  0  0
    1.4710   -1.1871    0.2681 H   0  0  0  0  0  0  0  0  0  0  0  0
    0.9483    0.2601   -1.2290 C   0  0  0  0  0  0  0  0  0  0  0  0
    0.0367    0.3783   -2.0393 O   0  0  0  0  0  0  0  0  0  0  0  0
    2.1693    0.8513   -1.4929 N   0  0  0  0  0  0  0  0  0  0  0  0
    2.9153    0.7188   -0.8161 H   0  0  0  0  0  0  0  0  0  0  0  0
    2.4655    1.5466   -2.7398 C   0  0  0  0  0  0  0  0  0  0  0  0
    2.3767    0.8625   -3.5903 H   0  0  0  0  0  0  0  0  0  0  0  0
    1.7738    2.3829   -2.8862 H   0  0  0  0  0  0  0  0  0  0  0  0
    3.4851    1.9432   -2.7191 H   0  0  0  0  0  0  0  0  0  0  0  0
  1  2  1  0  0  0  0
  2  3  1  0  0  0  0
  2  4  1  0  0  0  0
  2  5  1  0  0  0  0
  5  6  2  0  0  0  0
  5  7  1  0  0  0  0
  7  8  1  0  0  0  0
  7  9  1  0  0  0  0
  9 10  1  0  0  0  0
  9 11  1  0  0  0  0
  9 12  1  0  0  0  0
 12 13  2  0  0  0  0
 12 14  1  0  0  0  0
 14 15  1  0  0  0  0
 14 16  1  0  0  0  0
 16 17  1  0  0  0  0
 16 18  1  0  0  0  0
 16 19  1  0  0  0  0
M  END
$$$$

  -OEChem-01062216083D

 19 18  0     0  0  0  0  0  0999 V2000
   -2.3265   -3.9407   -0.1250 H   0  0  0  0  0  0  0  0  0  0  0  0
   -2.3043   -2.8473   -0.1233 C   0  0  0  0  0  0  0  0  0  0  0  0
   -2.9746   -2.4827    0.6589 H   0  0  0  0  0  0  0  0  0  0  0  0
   -2.6559   -2.4864   -1.0931 H   0  0  0  0  0  0  0  0  0  0  0  0
   -0.8925   -2.3525    0.1310 C   0  0  0  0  0  0  0  0  0  0  0  0
    0.0190   -3.1562    0.2557 O   0  0  0  0  0  0  0  0  0  0  0  0
   -0.6513   -0.9950    0.2134 N   0  0  0  0  0  0  0  0  0  0  0  0
   -1.4127   -0.4009   -0.1101 H   0  0  0  0  0  0  0  0  0  0  0  0
    0.6988   -0.4117    0.1360 C   0  0  0  0  0  0  0  0  0  0  0  0
    0.8114    0.3378    0.9239 H   0  0  0  0  0  0  0  0  0  0  0  0
    1.4665   -1.1730    0.3038 H   0  0  0  0  0  0  0  0  0  0  0  0
    0.9701    0.2614   -1.2167 C   0  0  0  0  0  0  0  0  0  0  0  0
    0.0375    0.5700   -1.9491 O   0  0  0  0  0  0  0  0  0  0  0  0
    2.2622    0.5839   -1.5854 N   0  0  0  0  0  0  0  0  0  0  0  0
    3.0167    0.2724   -0.9804 H   0  0  0  0  0  0  0  0  0  0  0  0
    2.5944    1.2136   -2.8576 C   0  0  0  0  0  0  0  0  0  0  0  0
    2.2998    0.5695   -3.6927 H   0  0  0  0  0  0  0  0  0  0  0  0
    2.0795    2.1750   -2.9555 H   0  0  0  0  0  0  0  0  0  0  0  0
    3.6721    1.3920   -2.9209 H   0  0  0  0  0  0  0  0  0  0  0  0
  1  2  1  0  0  0  0
  2  3  1  0  0  0  0
  2  4  1  0  0  0  0
  2  5  1  0  0  0  0
  5  6  2  0  0  0  0
  5  7  1  0  0  0  0
  7  8  1  0  0  0  0
  7  9  1  0  0  0  0
  9 10  1  0  0  0  0
  9 11  1  0  0  0  0
  9 12  1  0  0  0  0
 12 13  2  0  0  0  0
 12 14  1  0  0  0  0
 14 15  1  0  0  0  0
 14 16  1  0  0  0  0
 16 17  1  0  0  0  0
 16 18  1  0  0  0  0
 16 19  1  0  0  0  0
M  END
$$$$

  -OEChem-01062216083D

 19 18  0     0  0  0  0  0  0999 V2000
   -2.3333   -3.9300   -0.1200 H   0  0  0  0  0  0  0  0  0  0  0  0
   -2.3021   -2.8369   -0.1360 C   0  0  0  0  0  0  0  0  0  0  0  0
   -2.9771   -2.4542    0.6332 H   0  0  0  0  0  0  0  0  0  0  0  0
   -2.6415   -2.4887   -1.1147 H   0  0  0  0  0  0  0  0  0  0  0  0
   -0.8888   -2.3490    0.1234 C   0  0  0  0  0  0  0  0  0  0  0  0
    0.0212   -3.1558    0.2389 O   0  0  0  0  0  0  0  0  0  0  0  0
   -0.6412   -0.9930    0.2064 N   0  0  0  0  0  0  0  0  0  0  0  0
   -1.4024   -0.3886   -0.0985 H   0  0  0  0  0  0  0  0  0  0  0  0
    0.7101   -0.4113    0.1528 C   0  0  0  0  0  0  0  0  0  0  0  0
    0.8116    0.3419    0.9386 H   0  0  0  0  0  0  0  0  0  0  0  0
    1.4731   -1.1731    0.3381 H   0  0  0  0  0  0  0  0  0  0  0  0
    0.9969    0.2549   -1.1991 C   0  0  0  0  0  0  0  0  0  0  0  0
    0.0796    0.7574   -1.8370 O   0  0  0  0  0  0  0  0  0  0  0  0
    2.2845    0.3031   -1.6986 N   0  0  0  0  0  0  0  0  0  0  0  0
    3.0071   -0.1930   -1.1847 H   0  0  0  0  0  0  0  0  0  0  0  0
    2.6124    0.8717   -3.0003 C   0  0  0  0  0  0  0  0  0  0  0  0
    2.1196    0.3082   -3.7994 H   0  0  0  0  0  0  0  0  0  0  0  0
    2.2896    1.9166   -3.0556 H   0  0  0  0  0  0  0  0  0  0  0  0
    3.6934    0.8367   -3.1666 H   0  0  0  0  0  0  0  0  0  0  0  0
  1  2  1  0  0  0  0
  2  3  1  0  0  0  0
  2  4  1  0  0  0  0
  2  5  1  0  0  0  0
  5  6  2  0  0  0  0
  5  7  1  0  0  0  0
  7  8  1  0  0  0  0
  7  9  1  0  0  0  0
  9 10  1  0  0  0  0
  9 11  1  0  0  0  0
  9 12  1  0  0  0  0
 12 13  2  0  0  0  0
 12 14  1  0  0  0  0
 14 15  1  0  0  0  0
 14 16  1  0  0  0  0
 16 17  1  0  0  0  0
 16 18  1  0  0  0  0
 16 19  1  0  0  0  0
M  END
$$$$

  -OEChem-01062216083D

 19 18  0     0  0  0  0  0  0999 V2000
   -2.1991   -4.0251   -0.1240 H   0  0  0  0  0  0  0  0  0  0  0  0
   -2.2474   -2.9328   -0.1044 C   0  0  0  0  0  0  0  0  0  0  0  0
   -2.9217   -2.6242    0.6980 H   0  0  0  0  0  0  0  0  0  0  0  0
   -2.6444   -2.5812   -1.0599 H   0  0  0  0  0  0  0  0  0  0  0  0
   -0.8649   -2.3520    0.1285 C   0  0  0  0  0  0  0  0  0  0  0  0
    0.0885   -3.0980    0.2921 O   0  0  0  0  0  0  0  0  0  0  0  0
   -0.6907   -0.9822    0.1336 N   0  0  0  0  0  0  0  0  0  0  0  0
   -1.4793   -0.4276   -0.1950 H   0  0  0  0  0  0  0  0  0  0  0  0
    0.6272   -0.3275    0.1206 C   0  0  0  0  0  0  0  0  0  0  0  0
    0.6372    0.4834    0.8540 H   0  0  0  0  0  0  0  0  0  0  0  0
    1.4182   -1.0268    0.4078 H   0  0  0  0  0  0  0  0  0  0  0  0
    0.9550    0.2622   -1.2559 C   0  0  0  0  0  0  0  0  0  0  0  0
    0.0893    0.8823   -1.8601 O   0  0  0  0  0  0  0  0  0  0  0  0
    2.2072    0.0759   -1.8135 N   0  0  0  0  0  0  0  0  0  0  0  0
    2.8564   -0.5117   -1.2974 H   0  0  0  0  0  0  0  0  0  0  0  0
    2.6058    0.5469   -3.1374 C   0  0  0  0  0  0  0  0  0  0  0  0
    1.7870    1.0539   -3.6583 H   0  0  0  0  0  0  0  0  0  0  0  0
    3.4383    1.2516   -3.0489 H   0  0  0  0  0  0  0  0  0  0  0  0
    2.9238   -0.2990   -3.7546 H   0  0  0  0  0  0  0  0  0  0  0  0
  1  2  1  0  0  0  0
  2  3  1  0  0  0  0
  2  4  1  0  0  0  0
  2  5  1  0  0  0  0
  5  6  2  0  0  0  0
  5  7  1  0  0  0  0
  7  8  1  0  0  0  0
  7  9  1  0  0  0  0
  9 10  1  0  0  0  0
  9 11  1  0  0  0  0
  9 12  1  0  0  0  0
 12 13  2  0  0  0  0
 12 14  1  0  0  0  0
 14 15  1  0  0  0  0
 14 16  1  0  0  0  0
 16 17  1  0  0  0  0
 16 18  1  0  0  0  0
 16 19  1  0  0  0  0
M  END
$$$$

  -OEChem-01062216083D

 19 18  0     0  0  0  0  0  0999 V2000
   -2.0953   -4.0987   -0.0002 H   0  0  0  0  0  0  0  0  0  0  0  0
   -2.1791   -3.0124   -0.0952 C   0  0  0  0  0  0  0  0  0  0  0  0
   -2.8942   -2.6486    0.6467 H   0  0  0  0  0  0  0  0  0  0  0  0
   -2.5485   -2.7735   -1.0955 H   0  0  0  0  0  0  0  0  0  0  0  0
   -0.8263   -2.3613    0.1250 C   0  0  0  0  0  0  0  0  0  0  0  0
    0.1609   -3.0554    0.3142 O   0  0  0  0  0  0  0  0  0  0  0  0
   -0.7132   -0.9861    0.0753 N   0  0  0  0  0  0  0  0  0  0  0  0
   -1.5306   -0.4707   -0.2456 H   0  0  0  0  0  0  0  0  0  0  0  0
    0.5701   -0.2674    0.0962 C   0  0  0  0  0  0  0  0  0  0  0  0
    0.5027    0.5762    0.7886 H   0  0  0  0  0  0  0  0  0  0  0  0
    1.3792   -0.9093    0.4566 H   0  0  0  0  0  0  0  0  0  0  0  0
    0.9356    0.2743   -1.2887 C   0  0  0  0  0  0  0  0  0  0  0  0
    0.1619    1.0299   -1.8617 O   0  0  0  0  0  0  0  0  0  0  0  0
    2.1006   -0.1258   -1.9142 N   0  0  0  0  0  0  0  0  0  0  0  0
    2.6446   -0.8556   -1.4612 H   0  0  0  0  0  0  0  0  0  0  0  0
    2.4506    0.2712   -3.2722 C   0  0  0  0  0  0  0  0  0  0  0  0
    2.5130    1.3619   -3.3485 H   0  0  0  0  0  0  0  0  0  0  0  0
    3.4217   -0.1495   -3.5501 H   0  0  0  0  0  0  0  0  0  0  0  0
    1.6997   -0.0897   -3.9828 H   0  0  0  0  0  0  0  0  0  0  0  0
  1  2  1  0  0  0  0
  2  3  1  0  0  0  0
  2  4  1  0  0  0  0
  2  5  1  0  0  0  0
  5  6  2  0  0  0  0
  5  7  1  0  0  0  0
  7  8  1  0  0  0  0
  7  9  1  0  0  0  0
  9 10  1  0  0  0  0
  9 11  1  0  0  0  0
  9 12  1  0  0  0  0
 12 13  2  0  0  0  0
 12 14  1  0  0  0  0
 14 15  1  0  0  0  0
 14 16  1  0  0  0  0
 16 17  1  0  0  0  0
 16 18  1  0  0  0  0
 16 19  1  0  0  0  0
M  END
$$$$

  -OEChem-01062216083D

 19 18  0     0  0  0  0  0  0999 V2000
   -2.1001   -4.1088    0.0567 H   0  0  0  0  0  0  0  0  0  0  0  0
   -2.1901   -3.0246   -0.0554 C   0  0  0  0  0  0  0  0  0  0  0  0
   -2.8676   -2.6468    0.7142 H   0  0  0  0  0  0  0  0  0  0  0  0
   -2.6096   -2.8055   -1.0404 H   0  0  0  0  0  0  0  0  0  0  0  0
   -0.8287   -2.3694    0.0849 C   0  0  0  0  0  0  0  0  0  0  0  0
    0.1720   -3.0596    0.2058 O   0  0  0  0  0  0  0  0  0  0  0  0
   -0.7209   -0.9941    0.0323 N   0  0  0  0  0  0  0  0  0  0  0  0
   -1.5603   -0.4689   -0.2035 H   0  0  0  0  0  0  0  0  0  0  0  0
    0.5567   -0.2669    0.0655 C   0  0  0  0  0  0  0  0  0  0  0  0
    0.4746    0.5792    0.7537 H   0  0  0  0  0  0  0  0  0  0  0  0
    1.3681   -0.8990    0.4389 H   0  0  0  0  0  0  0  0  0  0  0  0
    0.9317    0.2706   -1.3167 C   0  0  0  0  0  0  0  0  0  0  0  0
    0.3111    1.2146   -1.7859 O   0  0  0  0  0  0  0  0  0  0  0  0
    1.9242   -0.3440   -2.0547 N   0  0  0  0  0  0  0  0  0  0  0  0
    2.3098   -1.2086   -1.6817 H   0  0  0  0  0  0  0  0  0  0  0  0
    2.2576    0.0459   -3.4186 C   0  0  0  0  0  0  0  0  0  0  0  0
    2.5939    1.0877   -3.4468 H   0  0  0  0  0  0  0  0  0  0  0  0
    3.0618   -0.5867   -3.8062 H   0  0  0  0  0  0  0  0  0  0  0  0
    1.3858   -0.0616   -4.0724 H   0  0  0  0  0  0  0  0  0  0  0  0
  1  2  1  0  0  0  0
  2  3  1  0  0  0  0
  2  4  1  0  0  0  0
  2  5  1  0  0  0  0
  5  6  2  0  0  0  0
  5  7  1  0  0  0  0
  7  8  1  0  0  0  0
  7  9  1  0  0  0  0
  9 10  1  0  0  0  0
  9 11  1  0  0  0  0
  9 12  1  0  0  0  0
 12 13  2  0  0  0  0
 12 14  1  0  0  0  0
 14 15  1  0  0  0  0
 14 16  1  0  0  0  0
 16 17  1  0  0  0  0
 16 18  1  0  0  0  0
 16 19  1  0  0  0  0
M  END
$$$$

  -OEChem-01062216083D

 19 18  0     0  0  0  0  0  0999 V2000
   -2.2198   -4.0541    0.0035 H   0  0  0  0  0  0  0  0  0  0  0  0
   -2.2759   -2.9619    0.0069 C   0  0  0  0  0  0  0  0  0  0  0  0
   -2.8291   -2.6413    0.8930 H   0  0  0  0  0  0  0  0  0  0  0  0
   -2.8119   -2.6345   -0.8873 H   0  0  0  0  0  0  0  0  0  0  0  0
   -0.8800   -2.3664    0.0233 C   0  0  0  0  0  0  0  0  0  0  0  0
    0.0975   -3.0984   -0.0028 O   0  0  0  0  0  0  0  0  0  0  0  0
   -0.7145   -0.9957    0.0172 N   0  0  0  0  0  0  0  0  0  0  0  0
   -1.5507   -0.4201   -0.0535 H   0  0  0  0  0  0  0  0  0  0  0  0
    0.5940   -0.3237    0.0396 C   0  0  0  0  0  0  0  0  0  0  0  0
    0.5671    0.4972    0.7620 H   0  0  0  0  0  0  0  0  0  0  0  0
    1.3882   -1.0026    0.3654 H   0  0  0  0  0  0  0  0  0  0  0  0
    0.9572    0.2492   -1.3310 C   0  0  0  0  0  0  0  0  0  0  0  0
    0.6022    1.3815   -1.6252 O   0  0  0  0  0  0  0  0  0  0  0  0
    1.6556   -0.5357   -2.2294 N   0  0  0  0  0  0  0  0  0  0  0  0
    1.8355   -1.4967   -1.9453 H   0  0  0  0  0  0  0  0  0  0  0  0
    2.0267   -0.1281   -3.5813 C   0  0  0  0  0  0  0  0  0  0  0  0
    1.6971    0.8911   -3.8076 H   0  0  0  0  0  0  0  0  0  0  0  0
    3.1143   -0.1654   -3.6974 H   0  0  0  0  0  0  0  0  0  0  0  0
    1.5706   -0.8012   -4.3137 H   0  0  0  0  0  0  0  0  0  0  0  0
  1  2  1  0  0  0  0
  2  3  1  0  0  0  0
  2  4  1  0  0  0  0
  2  5  1  0  0  0  0
  5  6  2  0  0  0  0
  5  7  1  0  0  0  0
  7  8  1  0  0  0  0
  7  9  1  0  0  0  0
  9 10  1  0  0  0  0
  9 11  1  0  0  0  0
  9 12  1  0  0  0  0
 12 13  2  0  0  0  0
 12 14  1  0  0  0  0
 14 15  1  0  0  0  0
 14 16  1  0  0  0  0
 16 17  1  0  0  0  0
 16 18  1  0  0  0  0
 16 19  1  0  0  0  0
M  END
$$$$

  -OEChem-01062216083D

 19 18  0     0  0  0  0  0  0999 V2000
   -2.0976   -4.1268    0.0660 H   0  0  0  0  0  0  0  0  0  0  0  0
   -2.2155   -3.0398    0.0361 C   0  0  0  0  0  0  0  0  0  0  0  0
   -2.7824   -2.7234    0.9151 H   0  0  0  0  0  0  0  0  0  0  0  0
   -2.7726   -2.7711   -0.8647 H   0  0  0  0  0  0  0  0  0  0  0  0
   -0.8555   -2.3670    0.0251 C   0  0  0  0  0  0  0  0  0  0  0  0
    0.1615   -3.0431    0.0091 O   0  0  0  0  0  0  0  0  0  0  0  0
   -0.7654   -0.9914   -0.0427 N   0  0  0  0  0  0  0  0  0  0  0  0
   -1.6338   -0.4645   -0.0989 H   0  0  0  0  0  0  0  0  0  0  0  0
    0.5033   -0.2466    0.0045 C   0  0  0  0  0  0  0  0  0  0  0  0
    0.4013    0.6042    0.6848 H   0  0  0  0  0  0  0  0  0  0  0  0
    1.3181   -0.8656    0.3931 H   0  0  0  0  0  0  0  0  0  0  0  0
    0.8950    0.2758   -1.3776 C   0  0  0  0  0  0  0  0  0  0  0  0
    0.7301    1.4536   -1.6612 O   0  0  0  0  0  0  0  0  0  0  0  0
    1.3954   -0.6067   -2.3142 N   0  0  0  0  0  0  0  0  0  0  0  0
    1.4426   -1.5880   -2.0441 H   0  0  0  0  0  0  0  0  0  0  0  0
    1.7336   -0.2246   -3.6787 C   0  0  0  0  0  0  0  0  0  0  0  0
    2.5175    0.5400   -3.6790 H   0  0  0  0  0  0  0  0  0  0  0  0
    2.0988   -1.0934   -4.2347 H   0  0  0  0  0  0  0  0  0  0  0  0
    0.8532    0.1724   -4.1947 H   0  0  0  0  0  0  0  0  0  0  0  0
  1  2  1  0  0  0  0
  2  3  1  0  0  0  0
  2  4  1  0  0  0  0
  2  5  1  0  0  0  0
  5  6  2  0  0  0  0
  5  7  1  0  0  0  0
  7  8  1  0  0  0  0
  7  9  1  0  0  0  0
  9 10  1  0  0  0  0
  9 11  1  0  0  0  0
  9 12  1  0  0  0  0
 12 13  2  0  0  0  0
 12 14  1  0  0  0  0
 14 15  1  0  0  0  0
 14 16  1  0  0  0  0
 16 17  1  0  0  0  0
 16 18  1  0  0  0  0
 16 19  1  0  0  0  0
M  END
$$$$

  -OEChem-01062216083D

 19 18  0     0  0  0  0  0  0999 V2000
   -2.2329   -4.0718    0.0936 H   0  0  0  0  0  0  0  0  0  0  0  0
   -2.2976   -2.9799    0.0914 C   0  0  0  0  0  0  0  0  0  0  0  0
   -2.7646   -2.6543    1.0241 H   0  0  0  0  0  0  0  0  0  0  0  0
   -2.9208   -2.6656   -0.7494 H   0  0  0  0  0  0  0  0  0  0  0  0
   -0.9114   -2.3750   -0.0347 C   0  0  0  0  0  0  0  0  0  0  0  0
    0.0584   -3.0961   -0.2079 O   0  0  0  0  0  0  0  0  0  0  0  0
   -0.7510   -1.0042   -0.0352 N   0  0  0  0  0  0  0  0  0  0  0  0
   -1.5885   -0.4364    0.0686 H   0  0  0  0  0  0  0  0  0  0  0  0
    0.5582   -0.3286   -0.0021 C   0  0  0  0  0  0  0  0  0  0  0  0
    0.5286    0.4853    0.7286 H   0  0  0  0  0  0  0  0  0  0  0  0
    1.3503   -1.0132    0.3174 H   0  0  0  0  0  0  0  0  0  0  0  0
    0.9358    0.2511   -1.3665 C   0  0  0  0  0  0  0  0  0  0  0  0
    1.0964    1.4559   -1.4946 O   0  0  0  0  0  0  0  0  0  0  0  0
    1.0532   -0.6041   -2.4462 N   0  0  0  0  0  0  0  0  0  0  0  0
    0.9120   -1.5945   -2.2516 H   0  0  0  0  0  0  0  0  0  0  0  0
    1.4018   -0.1970   -3.8040 C   0  0  0  0  0  0  0  0  0  0  0  0
    1.5778    0.8814   -3.8755 H   0  0  0  0  0  0  0  0  0  0  0  0
    2.3136   -0.7098   -4.1256 H   0  0  0  0  0  0  0  0  0  0  0  0
    0.5907   -0.4543   -4.4921 H   0  0  0  0  0  0  0  0  0  0  0  0
  1  2  1  0  0  0  0
  2  3  1  0  0  0  0
  2  4  1  0  0  0  0
  2  5  1  0  0  0  0
  5  6  2  0  0  0  0
  5  7  1  0  0  0  0
  7  8  1  0  0  0  0
  7  9  1  0  0  0  0
  9 10  1  0  0  0  0
  9 11  1  0  0  0  0
  9 12  1  0  0  0  0
 12 13  2  0  0  0  0
 12 14  1  0  0  0  0
 14 15  1  0  0  0  0
 14 16  1  0  0  0  0
 16 17  1  0  0  0  0
 16 18  1  0  0  0  0
 16 19  1  0  0  0  0
M  END
$$$$

  -OEChem-01062216083D

 19 18  0     0  0  0  0  0  0999 V2000
   -2.3757   -4.0084    0.0802 H   0  0  0  0  0  0  0  0  0  0  0  0
   -2.3729   -2.9165    0.1458 C   0  0  0  0  0  0  0  0  0  0  0  0
   -2.7573   -2.6227    1.1256 H   0  0  0  0  0  0  0  0  0  0  0  0
   -3.0290   -2.5156   -0.6307 H   0  0  0  0  0  0  0  0  0  0  0  0
   -0.9631   -2.3859   -0.0394 C   0  0  0  0  0  0  0  0  0  0  0  0
   -0.0482   -3.1538   -0.2891 O   0  0  0  0  0  0  0  0  0  0  0  0
   -0.7260   -1.0264   -0.0095 N   0  0  0  0  0  0  0  0  0  0  0  0
   -1.5238   -0.4204    0.1662 H   0  0  0  0  0  0  0  0  0  0  0  0
    0.6186   -0.4202   -0.0254 C   0  0  0  0  0  0  0  0  0  0  0  0
    0.6707    0.3676    0.7321 H   0  0  0  0  0  0  0  0  0  0  0  0
    1.3847   -1.1590    0.2296 H   0  0  0  0  0  0  0  0  0  0  0  0
    0.9712    0.1864   -1.3860 C   0  0  0  0  0  0  0  0  0  0  0  0
    1.4464    1.3105   -1.4520 O   0  0  0  0  0  0  0  0  0  0  0  0
    0.7044   -0.5244   -2.5396 N   0  0  0  0  0  0  0  0  0  0  0  0
    0.4086   -1.4910   -2.4169 H   0  0  0  0  0  0  0  0  0  0  0  0
    1.0570   -0.0516   -3.8717 C   0  0  0  0  0  0  0  0  0  0  0  0
    0.5708    0.9074   -4.0789 H   0  0  0  0  0  0  0  0  0  0  0  0
    2.1410    0.0766   -3.9580 H   0  0  0  0  0  0  0  0  0  0  0  0
    0.7311   -0.7732   -4.6270 H   0  0  0  0  0  0  0  0  0  0  0  0
  1  2  1  0  0  0  0
  2  3  1  0  0  0  0
  2  4  1  0  0  0  0
  2  5  1  0  0  0  0
  5  6  2  0  0  0  0
  5  7  1  0  0  0  0
  7  8  1  0  0  0  0
  7  9  1  0  0  0  0
  9 10  1  0  0  0  0
  9 11  1  0  0  0  0
  9 12  1  0  0  0  0
 12 13  2  0  0  0  0
 12 14  1  0  0  0  0
 14 15  1  0  0  0  0
 14 16  1  0  0  0  0
 16 17  1  0  0  0  0
 16 18  1  0  0  0  0
 16 19  1  0  0  0  0
M  END
$$$$

  -OEChem-01062216083D

 19 18  0     0  0  0  0  0  0999 V2000
   -2.3826   -4.0243    0.0818 H   0  0  0  0  0  0  0  0  0  0  0  0
   -2.3737   -2.9362    0.1925 C   0  0  0  0  0  0  0  0  0  0  0  0
   -2.7143   -2.6830    1.1995 H   0  0  0  0  0  0  0  0  0  0  0  0
   -3.0615   -2.5029   -0.5376 H   0  0  0  0  0  0  0  0  0  0  0  0
   -0.9721   -2.3991   -0.0311 C   0  0  0  0  0  0  0  0  0  0  0  0
   -0.0600   -3.1636   -0.2970 O   0  0  0  0  0  0  0  0  0  0  0  0
   -0.7437   -1.0377   -0.0085 N   0  0  0  0  0  0  0  0  0  0  0  0
   -1.5397   -0.4405    0.2018 H   0  0  0  0  0  0  0  0  0  0  0  0
    0.5965   -0.4198   -0.0476 C   0  0  0  0  0  0  0  0  0  0  0  0
    0.6519    0.3677    0.7098 H   0  0  0  0  0  0  0  0  0  0  0  0
    1.3697   -1.1543    0.1991 H   0  0  0  0  0  0  0  0  0  0  0  0
    0.9427    0.1940   -1.4085 C   0  0  0  0  0  0  0  0  0  0  0  0
    1.6438    1.1936   -1.4617 O   0  0  0  0  0  0  0  0  0  0  0  0
    0.4145   -0.3415   -2.5673 N   0  0  0  0  0  0  0  0  0  0  0  0
   -0.0407   -1.2463   -2.4739 H   0  0  0  0  0  0  0  0  0  0  0  0
    0.7651    0.1382   -3.8976 C   0  0  0  0  0  0  0  0  0  0  0  0
    0.5294    1.2031   -3.9961 H   0  0  0  0  0  0  0  0  0  0  0  0
    1.8339   -0.0054   -4.0868 H   0  0  0  0  0  0  0  0  0  0  0  0
    0.2007   -0.4106   -4.6573 H   0  0  0  0  0  0  0  0  0  0  0  0
  1  2  1  0  0  0  0
  2  3  1  0  0  0  0
  2  4  1  0  0  0  0
  2  5  1  0  0  0  0
  5  6  2  0  0  0  0
  5  7  1  0  0  0  0
  7  8  1  0  0  0  0
  7  9  1  0  0  0  0
  9 10  1  0  0  0  0
  9 11  1  0  0  0  0
  9 12  1  0  0  0  0
 12 13  2  0  0  0  0
 12 14  1  0  0  0  0
 14 15  1  0  0  0  0
 14 16  1  0  0  0  0
 16 17  1  0  0  0  0
 16 18  1  0  0  0  0
 16 19  1  0  0  0  0
M  END
$$$$

  -OEChem-01062216083D

 19 18  0     0  0  0  0  0  0999 V2000
   -2.3792   -4.0413    0.1024 H   0  0  0  0  0  0  0  0  0  0  0  0
   -2.3699   -2.9544    0.2251 C   0  0  0  0  0  0  0  0  0  0  0  0
   -2.6840   -2.7133    1.2436 H   0  0  0  0  0  0  0  0  0  0  0  0
   -3.0782   -2.5154   -0.4818 H   0  0  0  0  0  0  0  0  0  0  0  0
   -0.9754   -2.4115   -0.0279 C   0  0  0  0  0  0  0  0  0  0  0  0
   -0.0633   -3.1760   -0.2922 O   0  0  0  0  0  0  0  0  0  0  0  0
   -0.7529   -1.0483   -0.0064 N   0  0  0  0  0  0  0  0  0  0  0  0
   -1.5451   -0.4569    0.2326 H   0  0  0  0  0  0  0  0  0  0  0  0
    0.5853   -0.4254   -0.0648 C   0  0  0  0  0  0  0  0  0  0  0  0
    0.6484    0.3590    0.6950 H   0  0  0  0  0  0  0  0  0  0  0  0
    1.3624   -1.1597    0.1705 H   0  0  0  0  0  0  0  0  0  0  0  0
    0.9255    0.1981   -1.4239 C   0  0  0  0  0  0  0  0  0  0  0  0
    1.8196    1.0279   -1.4955 O   0  0  0  0  0  0  0  0  0  0  0  0
    0.1797   -0.1043   -2.5477 N   0  0  0  0  0  0  0  0  0  0  0  0
   -0.4525   -0.8952   -2.4645 H   0  0  0  0  0  0  0  0  0  0  0  0
    0.5051    0.4006   -3.8756 C   0  0  0  0  0  0  0  0  0  0  0  0
    0.4958    1.4956   -3.8830 H   0  0  0  0  0  0  0  0  0  0  0  0
    1.4973    0.0549   -4.1841 H   0  0  0  0  0  0  0  0  0  0  0  0
   -0.2289    0.0459   -4.6053 H   0  0  0  0  0  0  0  0  0  0  0  0
  1  2  1  0  0  0  0
  2  3  1  0  0  0  0
  2  4  1  0  0  0  0
  2  5  1  0  0  0  0
  5  6  2  0  0  0  0
  5  7  1  0  0  0  0
  7  8  1  0  0  0  0
  7  9  1  0  0  0  0
  9 10  1  0  0  0  0
  9 11  1  0  0  0  0
  9 12  1  0  0  0  0
 12 13  2  0  0  0  0
 12 14  1  0  0  0  0
 14 15  1  0  0  0  0
 14 16  1  0  0  0  0
 16 17  1  0  0  0  0
 16 18  1  0  0  0  0
 16 19  1  0  0  0  0
M  END
$$$$

  -OEChem-01062216083D

 19 18  0     0  0  0  0  0  0999 V2000
   -2.3611   -4.0539    0.1353 H   0  0  0  0  0  0  0  0  0  0  0  0
   -2.3629   -2.9629    0.2153 C   0  0  0  0  0  0  0  0  0  0  0  0
   -2.7018   -2.6854    1.2163 H   0  0  0  0  0  0  0  0  0  0  0  0
   -3.0584   -2.5578   -0.5236 H   0  0  0  0  0  0  0  0  0  0  0  0
   -0.9674   -2.4189   -0.0298 C   0  0  0  0  0  0  0  0  0  0  0  0
   -0.0549   -3.1837   -0.2905 O   0  0  0  0  0  0  0  0  0  0  0  0
   -0.7475   -1.0551   -0.0007 N   0  0  0  0  0  0  0  0  0  0  0  0
   -1.5351   -0.4700    0.2667 H   0  0  0  0  0  0  0  0  0  0  0  0
    0.5901   -0.4310   -0.0706 C   0  0  0  0  0  0  0  0  0  0  0  0
    0.6609    0.3482    0.6935 H   0  0  0  0  0  0  0  0  0  0  0  0
    1.3702   -1.1666    0.1515 H   0  0  0  0  0  0  0  0  0  0  0  0
    0.9173    0.2041   -1.4281 C   0  0  0  0  0  0  0  0  0  0  0  0
    1.9547    0.8359   -1.5591 O   0  0  0  0  0  0  0  0  0  0  0  0
    0.0050    0.1671   -2.4661 N   0  0  0  0  0  0  0  0  0  0  0  0
   -0.7744   -0.4734   -2.3532 H   0  0  0  0  0  0  0  0  0  0  0  0
    0.2889    0.7042   -3.7911 C   0  0  0  0  0  0  0  0  0  0  0  0
    0.5132    1.7744   -3.7317 H   0  0  0  0  0  0  0  0  0  0  0  0
    1.1456    0.1886   -4.2376 H   0  0  0  0  0  0  0  0  0  0  0  0
   -0.5768    0.5708   -4.4466 H   0  0  0  0  0  0  0  0  0  0  0  0
  1  2  1  0  0  0  0
  2  3  1  0  0  0  0
  2  4  1  0  0  0  0
  2  5  1  0  0  0  0
  5  6  2  0  0  0  0
  5  7  1  0  0  0  0
  7  8  1  0  0  0  0
  7  9  1  0  0  0  0
  9 10  1  0  0  0  0
  9 11  1  0  0  0  0
  9 12  1  0  0  0  0
 12 13  2  0  0  0  0
 12 14  1  0  0  0  0
 14 15  1  0  0  0  0
 14 16  1  0  0  0  0
 16 17  1  0  0  0  0
 16 18  1  0  0  0  0
 16 19  1  0  0  0  0
M  END
$$$$

  -OEChem-01062216083D

 19 18  0     0  0  0  0  0  0999 V2000
   -2.3567   -4.0629    0.1129 H   0  0  0  0  0  0  0  0  0  0  0  0
   -2.3552   -2.9746    0.2237 C   0  0  0  0  0  0  0  0  0  0  0  0
   -2.6666   -2.7251    1.2410 H   0  0  0  0  0  0  0  0  0  0  0  0
   -3.0699   -2.5490   -0.4846 H   0  0  0  0  0  0  0  0  0  0  0  0
   -0.9662   -2.4240   -0.0437 C   0  0  0  0  0  0  0  0  0  0  0  0
   -0.0526   -3.1872   -0.3046 O   0  0  0  0  0  0  0  0  0  0  0  0
   -0.7517   -1.0588   -0.0106 N   0  0  0  0  0  0  0  0  0  0  0  0
   -1.5349   -0.4825    0.2857 H   0  0  0  0  0  0  0  0  0  0  0  0
    0.5848   -0.4325   -0.0835 C   0  0  0  0  0  0  0  0  0  0  0  0
    0.6567    0.3451    0.6817 H   0  0  0  0  0  0  0  0  0  0  0  0
    1.3669   -1.1672    0.1355 H   0  0  0  0  0  0  0  0  0  0  0  0
    0.9081    0.2084   -1.4391 C   0  0  0  0  0  0  0  0  0  0  0  0
    2.0360    0.6279   -1.6501 O   0  0  0  0  0  0  0  0  0  0  0  0
   -0.0910    0.4512   -2.3637 N   0  0  0  0  0  0  0  0  0  0  0  0
   -0.9789   -0.0120   -2.2005 H   0  0  0  0  0  0  0  0  0  0  0  0
    0.1660    1.0400   -3.6722 C   0  0  0  0  0  0  0  0  0  0  0  0
    0.6240    2.0290   -3.5643 H   0  0  0  0  0  0  0  0  0  0  0  0
    0.8392    0.4014   -4.2537 H   0  0  0  0  0  0  0  0  0  0  0  0
   -0.7706    1.1535   -4.2264 H   0  0  0  0  0  0  0  0  0  0  0  0
  1  2  1  0  0  0  0
  2  3  1  0  0  0  0
  2  4  1  0  0  0  0
  2  5  1  0  0  0  0
  5  6  2  0  0  0  0
  5  7  1  0  0  0  0
  7  8  1  0  0  0  0
  7  9  1  0  0  0  0
  9 10  1  0  0  0  0
  9 11  1  0  0  0  0
  9 12  1  0  0  0  0
 12 13  2  0  0  0  0
 12 14  1  0  0  0  0
 14 15  1  0  0  0  0
 14 16  1  0  0  0  0
 16 17  1  0  0  0  0
 16 18  1  0  0  0  0
 16 19  1  0  0  0  0
M  END
$$$$

  -OEChem-01062216083D

 19 18  0     0  0  0  0  0  0999 V2000
   -2.3412   -4.0645    0.1156 H   0  0  0  0  0  0  0  0  0  0  0  0
   -2.3477   -2.9737    0.1971 C   0  0  0  0  0  0  0  0  0  0  0  0
   -2.6858   -2.6988    1.1991 H   0  0  0  0  0  0  0  0  0  0  0  0
   -3.0461   -2.5709   -0.5406 H   0  0  0  0  0  0  0  0  0  0  0  0
   -0.9548   -2.4239   -0.0506 C   0  0  0  0  0  0  0  0  0  0  0  0
   -0.0383   -3.1888   -0.2957 O   0  0  0  0  0  0  0  0  0  0  0  0
   -0.7408   -1.0587   -0.0089 N   0  0  0  0  0  0  0  0  0  0  0  0
   -1.5242   -0.4864    0.2933 H   0  0  0  0  0  0  0  0  0  0  0  0
    0.5945   -0.4315   -0.0859 C   0  0  0  0  0  0  0  0  0  0  0  0
    0.6730    0.3408    0.6836 H   0  0  0  0  0  0  0  0  0  0  0  0
    1.3789   -1.1673    0.1216 H   0  0  0  0  0  0  0  0  0  0  0  0
    0.9011    0.2171   -1.4416 C   0  0  0  0  0  0  0  0  0  0  0  0
    2.0618    0.4082   -1.7715 O   0  0  0  0  0  0  0  0  0  0  0  0
   -0.1177    0.7408   -2.2163 N   0  0  0  0  0  0  0  0  0  0  0  0
   -1.0639    0.4781   -1.9627 H   0  0  0  0  0  0  0  0  0  0  0  0
    0.1150    1.3691   -3.5111 C   0  0  0  0  0  0  0  0  0  0  0  0
    0.7859    2.2282   -3.4053 H   0  0  0  0  0  0  0  0  0  0  0  0
    0.5648    0.6542   -4.2082 H   0  0  0  0  0  0  0  0  0  0  0  0
   -0.8298    1.7212   -3.9361 H   0  0  0  0  0  0  0  0  0  0  0  0
  1  2  1  0  0  0  0
  2  3  1  0  0  0  0
  2  4  1  0  0  0  0
  2  5  1  0  0  0  0
  5  6  2  0  0  0  0
  5  7  1  0  0  0  0
  7  8  1  0  0  0  0
  7  9  1  0  0  0  0
  9 10  1  0  0  0  0
  9 11  1  0  0  0  0
  9 12  1  0  0  0  0
 12 13  2  0  0  0  0
 12 14  1  0  0  0  0
 14 15  1  0  0  0  0
 14 16  1  0  0  0  0
 16 17  1  0  0  0  0
 16 18  1  0  0  0  0
 16 19  1  0  0  0  0
M  END
$$$$

  -OEChem-01062216083D

 19 18  0     0  0  0  0  0  0999 V2000
   -2.2276   -4.1181    0.1379 H   0  0  0  0  0  0  0  0  0  0  0  0
   -2.2914   -3.0262    0.1159 C   0  0  0  0  0  0  0  0  0  0  0  0
   -2.7707   -2.6843    1.0364 H   0  0  0  0  0  0  0  0  0  0  0  0
   -2.9026   -2.7277   -0.7393 H   0  0  0  0  0  0  0  0  0  0  0  0
   -0.9027   -2.4250   -0.0038 C   0  0  0  0  0  0  0  0  0  0  0  0
    0.0647   -3.1593   -0.1035 O   0  0  0  0  0  0  0  0  0  0  0  0
   -0.7503   -1.0507    0.0027 N   0  0  0  0  0  0  0  0  0  0  0  0
   -1.5883   -0.5009    0.1663 H   0  0  0  0  0  0  0  0  0  0  0  0
    0.5556   -0.3616   -0.0343 C   0  0  0  0  0  0  0  0  0  0  0  0
    0.5636    0.4354    0.7137 H   0  0  0  0  0  0  0  0  0  0  0  0
    1.3633   -1.0529    0.2310 H   0  0  0  0  0  0  0  0  0  0  0  0
    0.8891    0.2586   -1.3977 C   0  0  0  0  0  0  0  0  0  0  0  0
    2.0402    0.2375   -1.8051 O   0  0  0  0  0  0  0  0  0  0  0  0
   -0.0734    0.9785   -2.0860 N   0  0  0  0  0  0  0  0  0  0  0  0
   -1.0138    0.9610   -1.7081 H   0  0  0  0  0  0  0  0  0  0  0  0
    0.1487    1.6582   -3.3604 C   0  0  0  0  0  0  0  0  0  0  0  0
    1.1855    1.5687   -3.7008 H   0  0  0  0  0  0  0  0  0  0  0  0
   -0.4966    1.2272   -4.1320 H   0  0  0  0  0  0  0  0  0  0  0  0
   -0.0823    2.7233   -3.2614 H   0  0  0  0  0  0  0  0  0  0  0  0
  1  2  1  0  0  0  0
  2  3  1  0  0  0  0
  2  4  1  0  0  0  0
  2  5  1  0  0  0  0
  5  6  2  0  0  0  0
  5  7  1  0  0  0  0
  7  8  1  0  0  0  0
  7  9  1  0  0  0  0
  9 10  1  0  0  0  0
  9 11  1  0  0  0  0
  9 12  1  0  0  0  0
 12 13  2  0  0  0  0
 12 14  1  0  0  0  0
 14 15  1  0  0  0  0
 14 16  1  0  0  0  0
 16 17  1  0  0  0  0
 16 18  1  0  0  0  0
 16 19  1  0  0  0  0
M  END
$$$$

  -OEChem-01062216083D

 19 18  0     0  0  0  0  0  0999 V2000
   -2.2318   -4.0810    0.0110 H   0  0  0  0  0  0  0  0  0  0  0  0
   -2.2788   -2.9883    0.0199 C   0  0  0  0  0  0  0  0  0  0  0  0
   -2.8477   -2.6688    0.8963 H   0  0  0  0  0  0  0  0  0  0  0  0
   -2.7921   -2.6524   -0.8844 H   0  0  0  0  0  0  0  0  0  0  0  0
   -0.8778   -2.4061    0.0686 C   0  0  0  0  0  0  0  0  0  0  0  0
    0.0828   -3.1546    0.1200 O   0  0  0  0  0  0  0  0  0  0  0  0
   -0.7101   -1.0334    0.0707 N   0  0  0  0  0  0  0  0  0  0  0  0
   -1.5537   -0.4743   -0.0094 H   0  0  0  0  0  0  0  0  0  0  0  0
    0.6010   -0.3586   -0.0006 C   0  0  0  0  0  0  0  0  0  0  0  0
    0.6410    0.4366    0.7482 H   0  0  0  0  0  0  0  0  0  0  0  0
    1.4110   -1.0569    0.2376 H   0  0  0  0  0  0  0  0  0  0  0  0
    0.8878    0.2530   -1.3779 C   0  0  0  0  0  0  0  0  0  0  0  0
    1.8937   -0.0630   -1.9935 O   0  0  0  0  0  0  0  0  0  0  0  0
    0.0391    1.2219   -1.8875 N   0  0  0  0  0  0  0  0  0  0  0  0
   -0.7543    1.4885   -1.3149 H   0  0  0  0  0  0  0  0  0  0  0  0
    0.2252    1.8980   -3.1696 C   0  0  0  0  0  0  0  0  0  0  0  0
    1.1464    1.5848   -3.6719 H   0  0  0  0  0  0  0  0  0  0  0  0
   -0.6142    1.6747   -3.8352 H   0  0  0  0  0  0  0  0  0  0  0  0
    0.2769    2.9805   -3.0177 H   0  0  0  0  0  0  0  0  0  0  0  0
  1  2  1  0  0  0  0
  2  3  1  0  0  0  0
  2  4  1  0  0  0  0
  2  5  1  0  0  0  0
  5  6  2  0  0  0  0
  5  7  1  0  0  0  0
  7  8  1  0  0  0  0
  7  9  1  0  0  0  0
  9 10  1  0  0  0  0
  9 11  1  0  0  0  0
  9 12  1  0  0  0  0
 12 13  2  0  0  0  0
 12 14  1  0  0  0  0
 14 15  1  0  0  0  0
 14 16  1  0  0  0  0
 16 17  1  0  0  0  0
 16 18  1  0  0  0  0
 16 19  1  0  0  0  0
M  END
$$$$

  -OEChem-01062216083D

 19 18  0     0  0  0  0  0  0999 V2000
   -2.3299   -3.9946    0.0125 H   0  0  0  0  0  0  0  0  0  0  0  0
   -2.3260   -2.9007    0.0156 C   0  0  0  0  0  0  0  0  0  0  0  0
   -2.9033   -2.5497    0.8744 H   0  0  0  0  0  0  0  0  0  0  0  0
   -2.7974   -2.5464   -0.9043 H   0  0  0  0  0  0  0  0  0  0  0  0
   -0.9009   -2.3850    0.1007 C   0  0  0  0  0  0  0  0  0  0  0  0
    0.0214   -3.1793    0.1716 O   0  0  0  0  0  0  0  0  0  0  0  0
   -0.6694   -1.0216    0.1281 N   0  0  0  0  0  0  0  0  0  0  0  0
   -1.4832   -0.4306   -0.0143 H   0  0  0  0  0  0  0  0  0  0  0  0
    0.6671   -0.4173   -0.0312 C   0  0  0  0  0  0  0  0  0  0  0  0
    0.8161    0.3479    0.7349 H   0  0  0  0  0  0  0  0  0  0  0  0
    1.4555   -1.1639    0.1134 H   0  0  0  0  0  0  0  0  0  0  0  0
    0.8629    0.2172   -1.4132 C   0  0  0  0  0  0  0  0  0  0  0  0
    1.5528   -0.3275   -2.2606 O   0  0  0  0  0  0  0  0  0  0  0  0
    0.2551    1.4245   -1.7079 N   0  0  0  0  0  0  0  0  0  0  0  0
   -0.2517    1.8930   -0.9637 H   0  0  0  0  0  0  0  0  0  0  0  0
    0.4312    2.1116   -2.9824 C   0  0  0  0  0  0  0  0  0  0  0  0
    1.4859    2.3598   -3.1415 H   0  0  0  0  0  0  0  0  0  0  0  0
    0.0897    1.4796   -3.8093 H   0  0  0  0  0  0  0  0  0  0  0  0
   -0.1485    3.0396   -2.9957 H   0  0  0  0  0  0  0  0  0  0  0  0
  1  2  1  0  0  0  0
  2  3  1  0  0  0  0
  2  4  1  0  0  0  0
  2  5  1  0  0  0  0
  5  6  2  0  0  0  0
  5  7  1  0  0  0  0
  7  8  1  0  0  0  0
  7  9  1  0  0  0  0
  9 10  1  0  0  0  0
  9 11  1  0  0  0  0
  9 12  1  0  0  0  0
 12 13  2  0  0  0  0
 12 14  1  0  0  0  0
 14 15  1  0  0  0  0
 14 16  1  0  0  0  0
 16 17  1  0  0  0  0
 16 18  1  0  0  0  0
 16 19  1  0  0  0  0
M  END
$$$$

  -OEChem-01062216083D

 19 18  0     0  0  0  0  0  0999 V2000
   -2.3359   -3.9674    0.0195 H   0  0  0  0  0  0  0  0  0  0  0  0
   -2.3144   -2.8752   -0.0362 C   0  0  0  0  0  0  0  0  0  0  0  0
   -2.9427   -2.4706    0.7608 H   0  0  0  0  0  0  0  0  0  0  0  0
   -2.7170   -2.5655   -1.0037 H   0  0  0  0  0  0  0  0  0  0  0  0
   -0.8902   -2.3726    0.1168 C   0  0  0  0  0  0  0  0  0  0  0  0
    0.0214   -3.1748    0.2342 O   0  0  0  0  0  0  0  0  0  0  0  0
   -0.6500   -1.0112    0.1654 N   0  0  0  0  0  0  0  0  0  0  0  0
   -1.4526   -0.4194   -0.0296 H   0  0  0  0  0  0  0  0  0  0  0  0
    0.6912   -0.4225   -0.0055 C   0  0  0  0  0  0  0  0  0  0  0  0
    0.8640    0.3240    0.7737 H   0  0  0  0  0  0  0  0  0  0  0  0
    1.4730   -1.1812    0.1079 H   0  0  0  0  0  0  0  0  0  0  0  0
    0.8684    0.2325   -1.3808 C   0  0  0  0  0  0  0  0  0  0  0  0
    1.2206   -0.4268   -2.3464 O   0  0  0  0  0  0  0  0  0  0  0  0
    0.5482    1.5671   -1.5538 N   0  0  0  0  0  0  0  0  0  0  0  0
    0.2802    2.1006   -0.7324 H   0  0  0  0  0  0  0  0  0  0  0  0
    0.6778    2.2578   -2.8320 C   0  0  0  0  0  0  0  0  0  0  0  0
    1.7213    2.2564   -3.1645 H   0  0  0  0  0  0  0  0  0  0  0  0
    0.0640    1.7694   -3.5963 H   0  0  0  0  0  0  0  0  0  0  0  0
    0.3464    3.2962   -2.7367 H   0  0  0  0  0  0  0  0  0  0  0  0
  1  2  1  0  0  0  0
  2  3  1  0  0  0  0
  2  4  1  0  0  0  0
  2  5  1  0  0  0  0
  5  6  2  0  0  0  0
  5  7  1  0  0  0  0
  7  8  1  0  0  0  0
  7  9  1  0  0  0  0
  9 10  1  0  0  0  0
  9 11  1  0  0  0  0
  9 12  1  0  0  0  0
 12 13  2  0  0  0  0
 12 14  1  0  0  0  0
 14 15  1  0  0  0  0
 14 16  1  0  0  0  0
 16 17  1  0  0  0  0
 16 18  1  0  0  0  0
 16 19  1  0  0  0  0
M  END
$$$$

  -OEChem-01062216083D

 19 18  0     0  0  0  0  0  0999 V2000
   -2.3294   -3.9486   -0.0263 H   0  0  0  0  0  0  0  0  0  0  0  0
   -2.3005   -2.8567   -0.0816 C   0  0  0  0  0  0  0  0  0  0  0  0
   -2.9636   -2.4483    0.6847 H   0  0  0  0  0  0  0  0  0  0  0  0
   -2.6554   -2.5456   -1.0672 H   0  0  0  0  0  0  0  0  0  0  0  0
   -0.8833   -2.3595    0.1366 C   0  0  0  0  0  0  0  0  0  0  0  0
    0.0203   -3.1648    0.2939 O   0  0  0  0  0  0  0  0  0  0  0  0
   -0.6412   -0.9993    0.1973 N   0  0  0  0  0  0  0  0  0  0  0  0
   -1.4320   -0.4110   -0.0500 H   0  0  0  0  0  0  0  0  0  0  0  0
    0.7050   -0.4226    0.0298 C   0  0  0  0  0  0  0  0  0  0  0  0
    0.8810    0.3167    0.8152 H   0  0  0  0  0  0  0  0  0  0  0  0
    1.4818   -1.1869    0.1365 H   0  0  0  0  0  0  0  0  0  0  0  0
    0.8852    0.2409   -1.3417 C   0  0  0  0  0  0  0  0  0  0  0  0
    0.8839   -0.4317   -2.3615 O   0  0  0  0  0  0  0  0  0  0  0  0
    0.8830    1.6199   -1.4464 N   0  0  0  0  0  0  0  0  0  0  0  0
    0.8689    2.1609   -0.5872 H   0  0  0  0  0  0  0  0  0  0  0  0
    0.9740    2.3235   -2.7205 C   0  0  0  0  0  0  0  0  0  0  0  0
    1.9090    2.0714   -3.2317 H   0  0  0  0  0  0  0  0  0  0  0  0
    0.1339    2.0530   -3.3687 H   0  0  0  0  0  0  0  0  0  0  0  0
    0.9494    3.4052   -2.5580 H   0  0  0  0  0  0  0  0  0  0  0  0
  1  2  1  0  0  0  0
  2  3  1  0  0  0  0
  2  4  1  0  0  0  0
  2  5  1  0  0  0  0
  5  6  2  0  0  0  0
  5  7  1  0  0  0  0
  7  8  1  0  0  0  0
  7  9  1  0  0  0  0
  9 10  1  0  0  0  0
  9 11  1  0  0  0  0
  9 12  1  0  0  0  0
 12 13  2  0  0  0  0
 12 14  1  0  0  0  0
 14 15  1  0  0  0  0
 14 16  1  0  0  0  0
 16 17  1  0  0  0  0
 16 18  1  0  0  0  0
 16 19  1  0  0  0  0
M  END
$$$$

  -OEChem-01062216083D

 19 18  0     0  0  0  0  0  0999 V2000
   -2.3256   -3.9479   -0.0395 H   0  0  0  0  0  0  0  0  0  0  0  0
   -2.2971   -2.8558   -0.0936 C   0  0  0  0  0  0  0  0  0  0  0  0
   -2.9701   -2.4483    0.6646 H   0  0  0  0  0  0  0  0  0  0  0  0
   -2.6400   -2.5437   -1.0833 H   0  0  0  0  0  0  0  0  0  0  0  0
   -0.8830   -2.3576    0.1430 C   0  0  0  0  0  0  0  0  0  0  0  0
    0.0208   -3.1623    0.3057 O   0  0  0  0  0  0  0  0  0  0  0  0
   -0.6434   -0.9977    0.2146 N   0  0  0  0  0  0  0  0  0  0  0  0
   -1.4274   -0.4135   -0.0633 H   0  0  0  0  0  0  0  0  0  0  0  0
    0.7044   -0.4244    0.0492 C   0  0  0  0  0  0  0  0  0  0  0  0
    0.8773    0.3084    0.8413 H   0  0  0  0  0  0  0  0  0  0  0  0
    1.4799   -1.1902    0.1511 H   0  0  0  0  0  0  0  0  0  0  0  0
    0.8904    0.2506   -1.3168 C   0  0  0  0  0  0  0  0  0  0  0  0
    0.5902   -0.3398   -2.3444 O   0  0  0  0  0  0  0  0  0  0  0  0
    1.2062    1.5952   -1.3865 N   0  0  0  0  0  0  0  0  0  0  0  0
    1.4321    2.0751   -0.5204 H   0  0  0  0  0  0  0  0  0  0  0  0
    1.3205    2.3235   -2.6447 C   0  0  0  0  0  0  0  0  0  0  0  0
    2.1100    1.8902   -3.2678 H   0  0  0  0  0  0  0  0  0  0  0  0
    0.3755    2.2867   -3.1970 H   0  0  0  0  0  0  0  0  0  0  0  0
    1.5669    3.3723   -2.4535 H   0  0  0  0  0  0  0  0  0  0  0  0
  1  2  1  0  0  0  0
  2  3  1  0  0  0  0
  2  4  1  0  0  0  0
  2  5  1  0  0  0  0
  5  6  2  0  0  0  0
  5  7  1  0  0  0  0
  7  8  1  0  0  0  0
  7  9  1  0  0  0  0
  9 10  1  0  0  0  0
  9 11  1  0  0  0  0
  9 12  1  0  0  0  0
 12 13  2  0  0  0  0
 12 14  1  0  0  0  0
 14 15  1  0  0  0  0
 14 16  1  0  0  0  0
 16 17  1  0  0  0  0
 16 18  1  0  0  0  0
 16 19  1  0  0  0  0
M  END
$$$$

  -OEChem-01062216083D

 19 18  0     0  0  0  0  0  0999 V2000
   -2.3120   -3.9475   -0.1024 H   0  0  0  0  0  0  0  0  0  0  0  0
   -2.2929   -2.8540   -0.1081 C   0  0  0  0  0  0  0  0  0  0  0  0
   -2.9729   -2.4857    0.6636 H   0  0  0  0  0  0  0  0  0  0  0  0
   -2.6338   -2.5020   -1.0848 H   0  0  0  0  0  0  0  0  0  0  0  0
   -0.8850   -2.3539    0.1574 C   0  0  0  0  0  0  0  0  0  0  0  0
    0.0188   -3.1567    0.3318 O   0  0  0  0  0  0  0  0  0  0  0  0
   -0.6485   -0.9938    0.2294 N   0  0  0  0  0  0  0  0  0  0  0  0
   -1.4234   -0.4156   -0.0856 H   0  0  0  0  0  0  0  0  0  0  0  0
    0.7010   -0.4220    0.0738 C   0  0  0  0  0  0  0  0  0  0  0  0
    0.8608    0.3162    0.8638 H   0  0  0  0  0  0  0  0  0  0  0  0
    1.4763   -1.1856    0.1894 H   0  0  0  0  0  0  0  0  0  0  0  0
    0.9034    0.2523   -1.2915 C   0  0  0  0  0  0  0  0  0  0  0  0
    0.3637   -0.1998   -2.2923 O   0  0  0  0  0  0  0  0  0  0  0  0
    1.5171    1.4894   -1.3658 N   0  0  0  0  0  0  0  0  0  0  0  0
    1.9440    1.8581   -0.5211 H   0  0  0  0  0  0  0  0  0  0  0  0
    1.6634    2.2350   -2.6106 C   0  0  0  0  0  0  0  0  0  0  0  0
    2.2315    1.6512   -3.3426 H   0  0  0  0  0  0  0  0  0  0  0  0
    0.6816    2.4716   -3.0339 H   0  0  0  0  0  0  0  0  0  0  0  0
    2.1958    3.1735   -2.4291 H   0  0  0  0  0  0  0  0  0  0  0  0
  1  2  1  0  0  0  0
  2  3  1  0  0  0  0
  2  4  1  0  0  0  0
  2  5  1  0  0  0  0
  5  6  2  0  0  0  0
  5  7  1  0  0  0  0
  7  8  1  0  0  0  0
  7  9  1  0  0  0  0
  9 10  1  0  0  0  0
  9 11  1  0  0  0  0
  9 12  1  0  0  0  0
 12 13  2  0  0  0  0
 12 14  1  0  0  0  0
 14 15  1  0  0  0  0
 14 16  1  0  0  0  0
 16 17  1  0  0  0  0
 16 18  1  0  0  0  0
 16 19  1  0  0  0  0
M  END
$$$$

  -OEChem-01062216083D

 19 18  0     0  0  0  0  0  0999 V2000
   -2.3179   -3.9477   -0.1030 H   0  0  0  0  0  0  0  0  0  0  0  0
   -2.2968   -2.8543   -0.1117 C   0  0  0  0  0  0  0  0  0  0  0  0
   -2.9783   -2.4828    0.6571 H   0  0  0  0  0  0  0  0  0  0  0  0
   -2.6348   -2.5039   -1.0902 H   0  0  0  0  0  0  0  0  0  0  0  0
   -0.8885   -2.3556    0.1565 C   0  0  0  0  0  0  0  0  0  0  0  0
    0.0168   -3.1593    0.3194 O   0  0  0  0  0  0  0  0  0  0  0  0
   -0.6504   -0.9964    0.2351 N   0  0  0  0  0  0  0  0  0  0  0  0
   -1.4199   -0.4163   -0.0908 H   0  0  0  0  0  0  0  0  0  0  0  0
    0.7002   -0.4242    0.0884 C   0  0  0  0  0  0  0  0  0  0  0  0
    0.8537    0.3141    0.8798 H   0  0  0  0  0  0  0  0  0  0  0  0
    1.4740   -1.1884    0.2090 H   0  0  0  0  0  0  0  0  0  0  0  0
    0.9144    0.2570   -1.2723 C   0  0  0  0  0  0  0  0  0  0  0  0
    0.1959   -0.0173   -2.2252 O   0  0  0  0  0  0  0  0  0  0  0  0
    1.7889    1.3228   -1.3785 N   0  0  0  0  0  0  0  0  0  0  0  0
    2.3714    1.5391   -0.5750 H   0  0  0  0  0  0  0  0  0  0  0  0
    1.9870    2.0741   -2.6126 C   0  0  0  0  0  0  0  0  0  0  0  0
    2.3418    1.4136   -3.4108 H   0  0  0  0  0  0  0  0  0  0  0  0
    1.0494    2.5414   -2.9320 H   0  0  0  0  0  0  0  0  0  0  0  0
    2.7305    2.8624   -2.4599 H   0  0  0  0  0  0  0  0  0  0  0  0
  1  2  1  0  0  0  0
  2  3  1  0  0  0  0
  2  4  1  0  0  0  0
  2  5  1  0  0  0  0
  5  6  2  0  0  0  0
  5  7  1  0  0  0  0
  7  8  1  0  0  0  0
  7  9  1  0  0  0  0
  9 10  1  0  0  0  0
  9 11  1  0  0  0  0
  9 12  1  0  0  0  0
 12 13  2  0  0  0  0
 12 14  1  0  0  0  0
 14 15  1  0  0  0  0
 14 16  1  0  0  0  0
 16 17  1  0  0  0  0
 16 18  1  0  0  0  0
 16 19  1  0  0  0  0
M  END
$$$$

  -OEChem-01062216083D

 19 18  0     0  0  0  0  0  0999 V2000
   -2.3279   -3.9446   -0.0884 H   0  0  0  0  0  0  0  0  0  0  0  0
   -2.2999   -2.8518   -0.1182 C   0  0  0  0  0  0  0  0  0  0  0  0
   -2.9845   -2.4615    0.6385 H   0  0  0  0  0  0  0  0  0  0  0  0
   -2.6287   -2.5177   -1.1054 H   0  0  0  0  0  0  0  0  0  0  0  0
   -0.8906   -2.3570    0.1504 C   0  0  0  0  0  0  0  0  0  0  0  0
    0.0160   -3.1624    0.2980 O   0  0  0  0  0  0  0  0  0  0  0  0
   -0.6504   -0.9990    0.2368 N   0  0  0  0  0  0  0  0  0  0  0  0
   -1.4153   -0.4149   -0.0943 H   0  0  0  0  0  0  0  0  0  0  0  0
    0.7005   -0.4251    0.1051 C   0  0  0  0  0  0  0  0  0  0  0  0
    0.8468    0.3119    0.8989 H   0  0  0  0  0  0  0  0  0  0  0  0
    1.4723   -1.1905    0.2304 H   0  0  0  0  0  0  0  0  0  0  0  0
    0.9272    0.2625   -1.2501 C   0  0  0  0  0  0  0  0  0  0  0  0
    0.0848    0.1859   -2.1361 O   0  0  0  0  0  0  0  0  0  0  0  0
    2.0079    1.1075   -1.4203 N   0  0  0  0  0  0  0  0  0  0  0  0
    2.6961    1.1515   -0.6745 H   0  0  0  0  0  0  0  0  0  0  0  0
    2.2619    1.8391   -2.6559 C   0  0  0  0  0  0  0  0  0  0  0  0
    2.3953    1.1444   -3.4918 H   0  0  0  0  0  0  0  0  0  0  0  0
    1.4262    2.5091   -2.8840 H   0  0  0  0  0  0  0  0  0  0  0  0
    3.1699    2.4419   -2.5587 H   0  0  0  0  0  0  0  0  0  0  0  0
  1  2  1  0  0  0  0
  2  3  1  0  0  0  0
  2  4  1  0  0  0  0
  2  5  1  0  0  0  0
  5  6  2  0  0  0  0
  5  7  1  0  0  0  0
  7  8  1  0  0  0  0
  7  9  1  0  0  0  0
  9 10  1  0  0  0  0
  9 11  1  0  0  0  0
  9 12  1  0  0  0  0
 12 13  2  0  0  0  0
 12 14  1  0  0  0  0
 14 15  1  0  0  0  0
 14 16  1  0  0  0  0
 16 17  1  0  0  0  0
 16 18  1  0  0  0  0
 16 19  1  0  0  0  0
M  END
$$$$

  -OEChem-01062216083D

 19 18  0     0  0  0  0  0  0999 V2000
   -2.3509   -3.9487   -0.0730 H   0  0  0  0  0  0  0  0  0  0  0  0
   -2.3220   -2.8556   -0.0695 C   0  0  0  0  0  0  0  0  0  0  0  0
   -2.9550   -2.4894    0.7423 H   0  0  0  0  0  0  0  0  0  0  0  0
   -2.7138   -2.4898   -1.0218 H   0  0  0  0  0  0  0  0  0  0  0  0
   -0.8975   -2.3696    0.1244 C   0  0  0  0  0  0  0  0  0  0  0  0
    0.0133   -3.1787    0.2134 O   0  0  0  0  0  0  0  0  0  0  0  0
   -0.6457   -1.0143    0.2041 N   0  0  0  0  0  0  0  0  0  0  0  0
   -1.4183   -0.4121   -0.0772 H   0  0  0  0  0  0  0  0  0  0  0  0
    0.6999   -0.4298    0.0744 C   0  0  0  0  0  0  0  0  0  0  0  0
    0.9504    0.0989    0.9978 H   0  0  0  0  0  0  0  0  0  0  0  0
    1.4557   -1.2069   -0.0736 H   0  0  0  0  0  0  0  0  0  0  0  0
    0.8016    0.5536   -1.1002 C   0  0  0  0  0  0  0  0  0  0  0  0
   -0.1934    0.8385   -1.7566 O   0  0  0  0  0  0  0  0  0  0  0  0
    1.9978    1.1929   -1.3656 N   0  0  0  0  0  0  0  0  0  0  0  0
    2.8097    0.9245   -0.8168 H   0  0  0  0  0  0  0  0  0  0  0  0
    2.1673    2.1492   -2.4530 C   0  0  0  0  0  0  0  0  0  0  0  0
    1.9640    1.6724   -3.4176 H   0  0  0  0  0  0  0  0  0  0  0  0
    1.4861    2.9975   -2.3281 H   0  0  0  0  0  0  0  0  0  0  0  0
    3.1930    2.5301   -2.4649 H   0  0  0  0  0  0  0  0  0  0  0  0
  1  2  1  0  0  0  0
  2  3  1  0  0  0  0
  2  4  1  0  0  0  0
  2  5  1  0  0  0  0
  5  6  2  0  0  0  0
  5  7  1  0  0  0  0
  7  8  1  0  0  0  0
  7  9  1  0  0  0  0
  9 10  1  0  0  0  0
  9 11  1  0  0  0  0
  9 12  1  0  0  0  0
 12 13  2  0  0  0  0
 12 14  1  0  0  0  0
 14 15  1  0  0  0  0
 14 16  1  0  0  0  0
 16 17  1  0  0  0  0
 16 18  1  0  0  0  0
 16 19  1  0  0  0  0
M  END
$$$$

  -OEChem-01062216083D

 19 18  0     0  0  0  0  0  0999 V2000
   -2.3554   -3.9432   -0.0823 H   0  0  0  0  0  0  0  0  0  0  0  0
   -2.3251   -2.8499   -0.0744 C   0  0  0  0  0  0  0  0  0  0  0  0
   -2.9562   -2.4862    0.7402 H   0  0  0  0  0  0  0  0  0  0  0  0
   -2.7184   -2.4795   -1.0243 H   0  0  0  0  0  0  0  0  0  0  0  0
   -0.8994   -2.3664    0.1178 C   0  0  0  0  0  0  0  0  0  0  0  0
    0.0106   -3.1769    0.2014 O   0  0  0  0  0  0  0  0  0  0  0  0
   -0.6432   -1.0117    0.1908 N   0  0  0  0  0  0  0  0  0  0  0  0
   -1.4150   -0.4012   -0.0753 H   0  0  0  0  0  0  0  0  0  0  0  0
    0.7040   -0.4263    0.0901 C   0  0  0  0  0  0  0  0  0  0  0  0
    0.9338    0.1137    1.0124 H   0  0  0  0  0  0  0  0  0  0  0  0
    1.4625   -1.2055   -0.0311 H   0  0  0  0  0  0  0  0  0  0  0  0
    0.8281    0.5449   -1.0916 C   0  0  0  0  0  0  0  0  0  0  0  0
   -0.1782    0.9929   -1.6284 O   0  0  0  0  0  0  0  0  0  0  0  0
    2.0742    0.9484   -1.5317 N   0  0  0  0  0  0  0  0  0  0  0  0
    2.8890    0.5319   -1.0903 H   0  0  0  0  0  0  0  0  0  0  0  0
    2.2692    1.8556   -2.6561 C   0  0  0  0  0  0  0  0  0  0  0  0
    1.8541    1.4243   -3.5731 H   0  0  0  0  0  0  0  0  0  0  0  0
    1.7786    2.8157   -2.4643 H   0  0  0  0  0  0  0  0  0  0  0  0
    3.3365    2.0391   -2.8125 H   0  0  0  0  0  0  0  0  0  0  0  0
  1  2  1  0  0  0  0
  2  3  1  0  0  0  0
  2  4  1  0  0  0  0
  2  5  1  0  0  0  0
  5  6  2  0  0  0  0
  5  7  1  0  0  0  0
  7  8  1  0  0  0  0
  7  9  1  0  0  0  0
  9 10  1  0  0  0  0
  9 11  1  0  0  0  0
  9 12  1  0  0  0  0
 12 13  2  0  0  0  0
 12 14  1  0  0  0  0
 14 15  1  0  0  0  0
 14 16  1  0  0  0  0
 16 17  1  0  0  0  0
 16 18  1  0  0  0  0
 16 19  1  0  0  0  0
M  END
$$$$

  -OEChem-01062216083D

 19 18  0     0  0  0  0  0  0999 V2000
   -2.3659   -3.9373   -0.0765 H   0  0  0  0  0  0  0  0  0  0  0  0
   -2.3318   -2.8444   -0.0695 C   0  0  0  0  0  0  0  0  0  0  0  0
   -2.9480   -2.4783    0.7552 H   0  0  0  0  0  0  0  0  0  0  0  0
   -2.7401   -2.4731   -1.0125 H   0  0  0  0  0  0  0  0  0  0  0  0
   -0.9016   -2.3655    0.0999 C   0  0  0  0  0  0  0  0  0  0  0  0
    0.0073   -3.1780    0.1736 O   0  0  0  0  0  0  0  0  0  0  0  0
   -0.6389   -1.0118    0.1646 N   0  0  0  0  0  0  0  0  0  0  0  0
   -1.4120   -0.3913   -0.0726 H   0  0  0  0  0  0  0  0  0  0  0  0
    0.7097   -0.4258    0.0962 C   0  0  0  0  0  0  0  0  0  0  0  0
    0.9135    0.1270    1.0172 H   0  0  0  0  0  0  0  0  0  0  0  0
    1.4721   -1.2056    0.0086 H   0  0  0  0  0  0  0  0  0  0  0  0
    0.8585    0.5306   -1.0939 C   0  0  0  0  0  0  0  0  0  0  0  0
   -0.1191    1.1408   -1.5096 O   0  0  0  0  0  0  0  0  0  0  0  0
    2.0834    0.7006   -1.7107 N   0  0  0  0  0  0  0  0  0  0  0  0
    2.8620    0.1383   -1.3787 H   0  0  0  0  0  0  0  0  0  0  0  0
    2.2789    1.5600   -2.8719 C   0  0  0  0  0  0  0  0  0  0  0  0
    1.6744    1.2087   -3.7147 H   0  0  0  0  0  0  0  0  0  0  0  0
    1.9927    2.5909   -2.6384 H   0  0  0  0  0  0  0  0  0  0  0  0
    3.3306    1.5544   -3.1740 H   0  0  0  0  0  0  0  0  0  0  0  0
  1  2  1  0  0  0  0
  2  3  1  0  0  0  0
  2  4  1  0  0  0  0
  2  5  1  0  0  0  0
  5  6  2  0  0  0  0
  5  7  1  0  0  0  0
  7  8  1  0  0  0  0
  7  9  1  0  0  0  0
  9 10  1  0  0  0  0
  9 11  1  0  0  0  0
  9 12  1  0  0  0  0
 12 13  2  0  0  0  0
 12 14  1  0  0  0  0
 14 15  1  0  0  0  0
 14 16  1  0  0  0  0
 16 17  1  0  0  0  0
 16 18  1  0  0  0  0
 16 19  1  0  0  0  0
M  END
$$$$

  -OEChem-01062216083D

 19 18  0     0  0  0  0  0  0999 V2000
   -2.2445   -4.0241   -0.0920 H   0  0  0  0  0  0  0  0  0  0  0  0
   -2.2740   -2.9310   -0.0783 C   0  0  0  0  0  0  0  0  0  0  0  0
   -2.9139   -2.6061    0.7455 H   0  0  0  0  0  0  0  0  0  0  0  0
   -2.6988   -2.5787   -1.0214 H   0  0  0  0  0  0  0  0  0  0  0  0
   -0.8751   -2.3708    0.1021 C   0  0  0  0  0  0  0  0  0  0  0  0
    0.0723   -3.1304    0.2333 O   0  0  0  0  0  0  0  0  0  0  0  0
   -0.6828   -1.0037    0.1074 N   0  0  0  0  0  0  0  0  0  0  0  0
   -1.4831   -0.4276   -0.1495 H   0  0  0  0  0  0  0  0  0  0  0  0
    0.6339   -0.3466    0.0993 C   0  0  0  0  0  0  0  0  0  0  0  0
    0.7409    0.2688    0.9968 H   0  0  0  0  0  0  0  0  0  0  0  0
    1.4416   -1.0842    0.1144 H   0  0  0  0  0  0  0  0  0  0  0  0
    0.8118    0.5495   -1.1316 C   0  0  0  0  0  0  0  0  0  0  0  0
   -0.1199    1.2567   -1.4932 O   0  0  0  0  0  0  0  0  0  0  0  0
    1.9906    0.5152   -1.8551 N   0  0  0  0  0  0  0  0  0  0  0  0
    2.7026   -0.1401   -1.5442 H   0  0  0  0  0  0  0  0  0  0  0  0
    2.2379    1.2743   -3.0784 C   0  0  0  0  0  0  0  0  0  0  0  0
    1.3826    1.8990   -3.3559 H   0  0  0  0  0  0  0  0  0  0  0  0
    3.1041    1.9292   -2.9437 H   0  0  0  0  0  0  0  0  0  0  0  0
    2.4385    0.5901   -3.9085 H   0  0  0  0  0  0  0  0  0  0  0  0
  1  2  1  0  0  0  0
  2  3  1  0  0  0  0
  2  4  1  0  0  0  0
  2  5  1  0  0  0  0
  5  6  2  0  0  0  0
  5  7  1  0  0  0  0
  7  8  1  0  0  0  0
  7  9  1  0  0  0  0
  9 10  1  0  0  0  0
  9 11  1  0  0  0  0
  9 12  1  0  0  0  0
 12 13  2  0  0  0  0
 12 14  1  0  0  0  0
 14 15  1  0  0  0  0
 14 16  1  0  0  0  0
 16 17  1  0  0  0  0
 16 18  1  0  0  0  0
 16 19  1  0  0  0  0
M  END
$$$$

  -OEChem-01062216083D

 19 18  0     0  0  0  0  0  0999 V2000
   -2.1403   -4.0901   -0.0118 H   0  0  0  0  0  0  0  0  0  0  0  0
   -2.2100   -3.0019   -0.0953 C   0  0  0  0  0  0  0  0  0  0  0  0
   -2.9009   -2.6341    0.6672 H   0  0  0  0  0  0  0  0  0  0  0  0
   -2.6006   -2.7487   -1.0840 H   0  0  0  0  0  0  0  0  0  0  0  0
   -0.8423   -2.3732    0.0979 C   0  0  0  0  0  0  0  0  0  0  0  0
    0.1354   -3.0840    0.2720 O   0  0  0  0  0  0  0  0  0  0  0  0
   -0.7088   -0.9999    0.0517 N   0  0  0  0  0  0  0  0  0  0  0  0
   -1.5326   -0.4622   -0.2128 H   0  0  0  0  0  0  0  0  0  0  0  0
    0.5744   -0.2821    0.0979 C   0  0  0  0  0  0  0  0  0  0  0  0
    0.5921    0.3795    0.9685 H   0  0  0  0  0  0  0  0  0  0  0  0
    1.4142   -0.9750    0.2042 H   0  0  0  0  0  0  0  0  0  0  0  0
    0.7872    0.5630   -1.1612 C   0  0  0  0  0  0  0  0  0  0  0  0
   -0.0566    1.3909   -1.4777 O   0  0  0  0  0  0  0  0  0  0  0  0
    1.8729    0.3369   -1.9853 N   0  0  0  0  0  0  0  0  0  0  0  0
    2.4906   -0.4341   -1.7458 H   0  0  0  0  0  0  0  0  0  0  0  0
    2.0660    1.0257   -3.2553 C   0  0  0  0  0  0  0  0  0  0  0  0
    2.1346    2.1073   -3.0978 H   0  0  0  0  0  0  0  0  0  0  0  0
    2.9913    0.6876   -3.7317 H   0  0  0  0  0  0  0  0  0  0  0  0
    1.2315    0.8202   -3.9341 H   0  0  0  0  0  0  0  0  0  0  0  0
  1  2  1  0  0  0  0
  2  3  1  0  0  0  0
  2  4  1  0  0  0  0
  2  5  1  0  0  0  0
  5  6  2  0  0  0  0
  5  7  1  0  0  0  0
  7  8  1  0  0  0  0
  7  9  1  0  0  0  0
  9 10  1  0  0  0  0
  9 11  1  0  0  0  0
  9 12  1  0  0  0  0
 12 13  2  0  0  0  0
 12 14  1  0  0  0  0
 14 15  1  0  0  0  0
 14 16  1  0  0  0  0
 16 17  1  0  0  0  0
 16 18  1  0  0  0  0
 16 19  1  0  0  0  0
M  END
$$$$

  -OEChem-01062216083D

 19 18  0     0  0  0  0  0  0999 V2000
   -2.1399   -4.1135    0.0535 H   0  0  0  0  0  0  0  0  0  0  0  0
   -2.2235   -3.0268   -0.0353 C   0  0  0  0  0  0  0  0  0  0  0  0
   -2.8607   -2.6565    0.7714 H   0  0  0  0  0  0  0  0  0  0  0  0
   -2.6860   -2.7863   -0.9956 H   0  0  0  0  0  0  0  0  0  0  0  0
   -0.8502   -2.3874    0.0538 C   0  0  0  0  0  0  0  0  0  0  0  0
    0.1435   -3.0904    0.1513 O   0  0  0  0  0  0  0  0  0  0  0  0
   -0.7288   -1.0131    0.0011 N   0  0  0  0  0  0  0  0  0  0  0  0
   -1.5779   -0.4730   -0.1539 H   0  0  0  0  0  0  0  0  0  0  0  0
    0.5468   -0.2817    0.0546 C   0  0  0  0  0  0  0  0  0  0  0  0
    0.5486    0.3843    0.9222 H   0  0  0  0  0  0  0  0  0  0  0  0
    1.3942   -0.9632    0.1752 H   0  0  0  0  0  0  0  0  0  0  0  0
    0.7687    0.5596   -1.2040 C   0  0  0  0  0  0  0  0  0  0  0  0
    0.0910    1.5613   -1.3868 O   0  0  0  0  0  0  0  0  0  0  0  0
    1.6719    0.1506   -2.1660 N   0  0  0  0  0  0  0  0  0  0  0  0
    2.1361   -0.7425   -2.0215 H   0  0  0  0  0  0  0  0  0  0  0  0
    1.8733    0.8563   -3.4249 C   0  0  0  0  0  0  0  0  0  0  0  0
    2.2136    1.8803   -3.2388 H   0  0  0  0  0  0  0  0  0  0  0  0
    2.6303    0.3452   -4.0274 H   0  0  0  0  0  0  0  0  0  0  0  0
    0.9410    0.8929   -3.9980 H   0  0  0  0  0  0  0  0  0  0  0  0
  1  2  1  0  0  0  0
  2  3  1  0  0  0  0
  2  4  1  0  0  0  0
  2  5  1  0  0  0  0
  5  6  2  0  0  0  0
  5  7  1  0  0  0  0
  7  8  1  0  0  0  0
  7  9  1  0  0  0  0
  9 10  1  0  0  0  0
  9 11  1  0  0  0  0
  9 12  1  0  0  0  0
 12 13  2  0  0  0  0
 12 14  1  0  0  0  0
 14 15  1  0  0  0  0
 14 16  1  0  0  0  0
 16 17  1  0  0  0  0
 16 18  1  0  0  0  0
 16 19  1  0  0  0  0
M  END
$$$$

  -OEChem-01062216083D

 19 18  0     0  0  0  0  0  0999 V2000
   -2.1329   -4.1145   -0.0034 H   0  0  0  0  0  0  0  0  0  0  0  0
   -2.2270   -3.0250   -0.0157 C   0  0  0  0  0  0  0  0  0  0  0  0
   -2.8193   -2.7133    0.8480 H   0  0  0  0  0  0  0  0  0  0  0  0
   -2.7447   -2.7272   -0.9308 H   0  0  0  0  0  0  0  0  0  0  0  0
   -0.8541   -2.3806    0.0375 C   0  0  0  0  0  0  0  0  0  0  0  0
    0.1454   -3.0793    0.0967 O   0  0  0  0  0  0  0  0  0  0  0  0
   -0.7395   -1.0061   -0.0210 N   0  0  0  0  0  0  0  0  0  0  0  0
   -1.5977   -0.4683   -0.1221 H   0  0  0  0  0  0  0  0  0  0  0  0
    0.5319   -0.2680    0.0442 C   0  0  0  0  0  0  0  0  0  0  0  0
    0.5202    0.4024    0.9085 H   0  0  0  0  0  0  0  0  0  0  0  0
    1.3831   -0.9425    0.1772 H   0  0  0  0  0  0  0  0  0  0  0  0
    0.7603    0.5649   -1.2174 C   0  0  0  0  0  0  0  0  0  0  0  0
    0.2855    1.6887   -1.2976 O   0  0  0  0  0  0  0  0  0  0  0  0
    1.4268    0.0147   -2.2947 N   0  0  0  0  0  0  0  0  0  0  0  0
    1.7122   -0.9586   -2.2170 H   0  0  0  0  0  0  0  0  0  0  0  0
    1.5897    0.7015   -3.5696 C   0  0  0  0  0  0  0  0  0  0  0  0
    2.1041    1.6577   -3.4270 H   0  0  0  0  0  0  0  0  0  0  0  0
    2.1840    0.0898   -4.2551 H   0  0  0  0  0  0  0  0  0  0  0  0
    0.6143    0.8908   -4.0297 H   0  0  0  0  0  0  0  0  0  0  0  0
  1  2  1  0  0  0  0
  2  3  1  0  0  0  0
  2  4  1  0  0  0  0
  2  5  1  0  0  0  0
  5  6  2  0  0  0  0
  5  7  1  0  0  0  0
  7  8  1  0  0  0  0
  7  9  1  0  0  0  0
  9 10  1  0  0  0  0
  9 11  1  0  0  0  0
  9 12  1  0  0  0  0
 12 13  2  0  0  0  0
 12 14  1  0  0  0  0
 14 15  1  0  0  0  0
 14 16  1  0  0  0  0
 16 17  1  0  0  0  0
 16 18  1  0  0  0  0
 16 19  1  0  0  0  0
M  END
$$$$

  -OEChem-01062216083D

 19 18  0     0  0  0  0  0  0999 V2000
   -2.1196   -4.1351    0.0553 H   0  0  0  0  0  0  0  0  0  0  0  0
   -2.2292   -3.0470    0.0360 C   0  0  0  0  0  0  0  0  0  0  0  0
   -2.7887   -2.7346    0.9211 H   0  0  0  0  0  0  0  0  0  0  0  0
   -2.7892   -2.7657   -0.8591 H   0  0  0  0  0  0  0  0  0  0  0  0
   -0.8642   -2.3837    0.0242 C   0  0  0  0  0  0  0  0  0  0  0  0
    0.1462   -3.0683    0.0337 O   0  0  0  0  0  0  0  0  0  0  0  0
   -0.7698   -1.0081   -0.0454 N   0  0  0  0  0  0  0  0  0  0  0  0
   -1.6403   -0.4824   -0.0825 H   0  0  0  0  0  0  0  0  0  0  0  0
    0.4923   -0.2519    0.0197 C   0  0  0  0  0  0  0  0  0  0  0  0
    0.4687    0.4221    0.8813 H   0  0  0  0  0  0  0  0  0  0  0  0
    1.3524   -0.9140    0.1586 H   0  0  0  0  0  0  0  0  0  0  0  0
    0.7191    0.5746   -1.2466 C   0  0  0  0  0  0  0  0  0  0  0  0
    0.4991    1.7769   -1.2413 O   0  0  0  0  0  0  0  0  0  0  0  0
    1.1123   -0.0548   -2.4112 N   0  0  0  0  0  0  0  0  0  0  0  0
    1.2388   -1.0638   -2.3746 H   0  0  0  0  0  0  0  0  0  0  0  0
    1.2979    0.6416   -3.6773 C   0  0  0  0  0  0  0  0  0  0  0  0
    2.0786    1.4037   -3.5840 H   0  0  0  0  0  0  0  0  0  0  0  0
    1.5964   -0.0653   -4.4573 H   0  0  0  0  0  0  0  0  0  0  0  0
    0.3668    1.1267   -3.9882 H   0  0  0  0  0  0  0  0  0  0  0  0
  1  2  1  0  0  0  0
  2  3  1  0  0  0  0
  2  4  1  0  0  0  0
  2  5  1  0  0  0  0
  5  6  2  0  0  0  0
  5  7  1  0  0  0  0
  7  8  1  0  0  0  0
  7  9  1  0  0  0  0
  9 10  1  0  0  0  0
  9 11  1  0  0  0  0
  9 12  1  0  0  0  0
 12 13  2  0  0  0  0
 12 14  1  0  0  0  0
 14 15  1  0  0  0  0
 14 16  1  0  0  0  0
 16 17  1  0  0  0  0
 16 18  1  0  0  0  0
 16 19  1  0  0  0  0
M  END
$$$$

  -OEChem-01062216083D

 19 18  0     0  0  0  0  0  0999 V2000
   -2.1125   -4.1549    0.0891 H   0  0  0  0  0  0  0  0  0  0  0  0
   -2.2311   -3.0675    0.0787 C   0  0  0  0  0  0  0  0  0  0  0  0
   -2.7562   -2.7625    0.9873 H   0  0  0  0  0  0  0  0  0  0  0  0
   -2.8296   -2.7870   -0.7916 H   0  0  0  0  0  0  0  0  0  0  0  0
   -0.8725   -2.3943    0.0142 C   0  0  0  0  0  0  0  0  0  0  0  0
    0.1415   -3.0717   -0.0313 O   0  0  0  0  0  0  0  0  0  0  0  0
   -0.7910   -1.0174   -0.0494 N   0  0  0  0  0  0  0  0  0  0  0  0
   -1.6669   -0.5006   -0.0211 H   0  0  0  0  0  0  0  0  0  0  0  0
    0.4664   -0.2498    0.0046 C   0  0  0  0  0  0  0  0  0  0  0  0
    0.4493    0.4163    0.8725 H   0  0  0  0  0  0  0  0  0  0  0  0
    1.3326   -0.9077    0.1254 H   0  0  0  0  0  0  0  0  0  0  0  0
    0.6787    0.5883   -1.2574 C   0  0  0  0  0  0  0  0  0  0  0  0
    0.7373    1.8068   -1.1844 O   0  0  0  0  0  0  0  0  0  0  0  0
    0.7590   -0.0381   -2.4856 N   0  0  0  0  0  0  0  0  0  0  0  0
    0.7266   -1.0550   -2.4889 H   0  0  0  0  0  0  0  0  0  0  0  0
    0.9756    0.6738   -3.7381 C   0  0  0  0  0  0  0  0  0  0  0  0
    1.9341    1.2027   -3.7165 H   0  0  0  0  0  0  0  0  0  0  0  0
    0.9870   -0.0302   -4.5757 H   0  0  0  0  0  0  0  0  0  0  0  0
    0.1751    1.4010   -3.9090 H   0  0  0  0  0  0  0  0  0  0  0  0
  1  2  1  0  0  0  0
  2  3  1  0  0  0  0
  2  4  1  0  0  0  0
  2  5  1  0  0  0  0
  5  6  2  0  0  0  0
  5  7  1  0  0  0  0
  7  8  1  0  0  0  0
  7  9  1  0  0  0  0
  9 10  1  0  0  0  0
  9 11  1  0  0  0  0
  9 12  1  0  0  0  0
 12 13  2  0  0  0  0
 12 14  1  0  0  0  0
 14 15  1  0  0  0  0
 14 16  1  0  0  0  0
 16 17  1  0  0  0  0
 16 18  1  0  0  0  0
 16 19  1  0  0  0  0
M  END
$$$$

  -OEChem-01062216083D

 19 18  0     0  0  0  0  0  0999 V2000
   -2.2335   -4.0959    0.1342 H   0  0  0  0  0  0  0  0  0  0  0  0
   -2.2962   -3.0039    0.1181 C   0  0  0  0  0  0  0  0  0  0  0  0
   -2.7633   -2.6660    1.0464 H   0  0  0  0  0  0  0  0  0  0  0  0
   -2.9182   -2.6998   -0.7273 H   0  0  0  0  0  0  0  0  0  0  0  0
   -0.9089   -2.4025   -0.0147 C   0  0  0  0  0  0  0  0  0  0  0  0
    0.0579   -3.1312   -0.1630 O   0  0  0  0  0  0  0  0  0  0  0  0
   -0.7529   -1.0302   -0.0247 N   0  0  0  0  0  0  0  0  0  0  0  0
   -1.5931   -0.4711    0.1033 H   0  0  0  0  0  0  0  0  0  0  0  0
    0.5485   -0.3343   -0.0114 C   0  0  0  0  0  0  0  0  0  0  0  0
    0.6180    0.2876    0.8863 H   0  0  0  0  0  0  0  0  0  0  0  0
    1.3785   -1.0464    0.0286 H   0  0  0  0  0  0  0  0  0  0  0  0
    0.7510    0.5527   -1.2429 C   0  0  0  0  0  0  0  0  0  0  0  0
    1.1463    1.7003   -1.1036 O   0  0  0  0  0  0  0  0  0  0  0  0
    0.4305    0.0623   -2.4955 N   0  0  0  0  0  0  0  0  0  0  0  0
    0.1511   -0.9147   -2.5361 H   0  0  0  0  0  0  0  0  0  0  0  0
    0.5881    0.7973   -3.7470 C   0  0  0  0  0  0  0  0  0  0  0  0
    1.0070    1.7962   -3.5869 H   0  0  0  0  0  0  0  0  0  0  0  0
    1.2613    0.2531   -4.4163 H   0  0  0  0  0  0  0  0  0  0  0  0
   -0.3825    0.9120   -4.2391 H   0  0  0  0  0  0  0  0  0  0  0  0
  1  2  1  0  0  0  0
  2  3  1  0  0  0  0
  2  4  1  0  0  0  0
  2  5  1  0  0  0  0
  5  6  2  0  0  0  0
  5  7  1  0  0  0  0
  7  8  1  0  0  0  0
  7  9  1  0  0  0  0
  9 10  1  0  0  0  0
  9 11  1  0  0  0  0
  9 12  1  0  0  0  0
 12 13  2  0  0  0  0
 12 14  1  0  0  0  0
 14 15  1  0  0  0  0
 14 16  1  0  0  0  0
 16 17  1  0  0  0  0
 16 18  1  0  0  0  0
 16 19  1  0  0  0  0
M  END
$$$$

  -OEChem-01062216083D

 19 18  0     0  0  0  0  0  0999 V2000
   -2.3438   -4.0567    0.1289 H   0  0  0  0  0  0  0  0  0  0  0  0
   -2.3490   -2.9652    0.2013 C   0  0  0  0  0  0  0  0  0  0  0  0
   -2.7033   -2.6811    1.1953 H   0  0  0  0  0  0  0  0  0  0  0  0
   -3.0345   -2.5666   -0.5505 H   0  0  0  0  0  0  0  0  0  0  0  0
   -0.9508   -2.4203   -0.0267 C   0  0  0  0  0  0  0  0  0  0  0  0
   -0.0315   -3.1869   -0.2585 O   0  0  0  0  0  0  0  0  0  0  0  0
   -0.7352   -1.0557   -0.0142 N   0  0  0  0  0  0  0  0  0  0  0  0
   -1.5362   -0.4673    0.2017 H   0  0  0  0  0  0  0  0  0  0  0  0
    0.5951   -0.4167   -0.0705 C   0  0  0  0  0  0  0  0  0  0  0  0
    0.7493    0.1753    0.8365 H   0  0  0  0  0  0  0  0  0  0  0  0
    1.3905   -1.1676   -0.1015 H   0  0  0  0  0  0  0  0  0  0  0  0
    0.7748    0.4985   -1.2861 C   0  0  0  0  0  0  0  0  0  0  0  0
    1.4719    1.4978   -1.1950 O   0  0  0  0  0  0  0  0  0  0  0  0
    0.1052    0.2323   -2.4652 N   0  0  0  0  0  0  0  0  0  0  0  0
   -0.3678   -0.6653   -2.5250 H   0  0  0  0  0  0  0  0  0  0  0  0
    0.2755    1.0254   -3.6759 C   0  0  0  0  0  0  0  0  0  0  0  0
    0.0240    2.0743   -3.4863 H   0  0  0  0  0  0  0  0  0  0  0  0
    1.3110    0.9692   -4.0276 H   0  0  0  0  0  0  0  0  0  0  0  0
   -0.3815    0.6524   -4.4675 H   0  0  0  0  0  0  0  0  0  0  0  0
  1  2  1  0  0  0  0
  2  3  1  0  0  0  0
  2  4  1  0  0  0  0
  2  5  1  0  0  0  0
  5  6  2  0  0  0  0
  5  7  1  0  0  0  0
  7  8  1  0  0  0  0
  7  9  1  0  0  0  0
  9 10  1  0  0  0  0
  9 11  1  0  0  0  0
  9 12  1  0  0  0  0
 12 13  2  0  0  0  0
 12 14  1  0  0  0  0
 14 15  1  0  0  0  0
 14 16  1  0  0  0  0
 16 17  1  0  0  0  0
 16 18  1  0  0  0  0
 16 19  1  0  0  0  0
M  END
$$$$

  -OEChem-01062216083D

 19 18  0     0  0  0  0  0  0999 V2000
   -2.3373   -4.0734    0.1229 H   0  0  0  0  0  0  0  0  0  0  0  0
   -2.3410   -2.9849    0.2312 C   0  0  0  0  0  0  0  0  0  0  0  0
   -2.6589   -2.7339    1.2462 H   0  0  0  0  0  0  0  0  0  0  0  0
   -3.0540   -2.5641   -0.4818 H   0  0  0  0  0  0  0  0  0  0  0  0
   -0.9528   -2.4291   -0.0293 C   0  0  0  0  0  0  0  0  0  0  0  0
   -0.0318   -3.1900   -0.2721 O   0  0  0  0  0  0  0  0  0  0  0  0
   -0.7489   -1.0623   -0.0160 N   0  0  0  0  0  0  0  0  0  0  0  0
   -1.5461   -0.4854    0.2408 H   0  0  0  0  0  0  0  0  0  0  0  0
    0.5772   -0.4141   -0.0859 C   0  0  0  0  0  0  0  0  0  0  0  0
    0.7366    0.1751    0.8219 H   0  0  0  0  0  0  0  0  0  0  0  0
    1.3757   -1.1618   -0.1261 H   0  0  0  0  0  0  0  0  0  0  0  0
    0.7520    0.5093   -1.2975 C   0  0  0  0  0  0  0  0  0  0  0  0
    1.6367    1.3517   -1.2890 O   0  0  0  0  0  0  0  0  0  0  0  0
   -0.1275    0.4524   -2.3626 N   0  0  0  0  0  0  0  0  0  0  0  0
   -0.7650   -0.3382   -2.3797 H   0  0  0  0  0  0  0  0  0  0  0  0
    0.0296    1.2594   -3.5663 C   0  0  0  0  0  0  0  0  0  0  0  0
    0.0116    2.3260   -3.3183 H   0  0  0  0  0  0  0  0  0  0  0  0
    0.9792    1.0287   -4.0604 H   0  0  0  0  0  0  0  0  0  0  0  0
   -0.7850    1.0553   -4.2679 H   0  0  0  0  0  0  0  0  0  0  0  0
  1  2  1  0  0  0  0
  2  3  1  0  0  0  0
  2  4  1  0  0  0  0
  2  5  1  0  0  0  0
  5  6  2  0  0  0  0
  5  7  1  0  0  0  0
  7  8  1  0  0  0  0
  7  9  1  0  0  0  0
  9 10  1  0  0  0  0
  9 11  1  0  0  0  0
  9 12  1  0  0  0  0
 12 13  2  0  0  0  0
 12 14  1  0  0  0  0
 14 15  1  0  0  0  0
 14 16  1  0  0  0  0
 16 17  1  0  0  0  0
 16 18  1  0  0  0  0
 16 19  1  0  0  0  0
M  END
$$$$

  -OEChem-01062216083D

 19 18  0     0  0  0  0  0  0999 V2000
   -2.3149   -4.0876    0.1771 H   0  0  0  0  0  0  0  0  0  0  0  0
   -2.3352   -2.9948    0.2210 C   0  0  0  0  0  0  0  0  0  0  0  0
   -2.6830   -2.6898    1.2110 H   0  0  0  0  0  0  0  0  0  0  0  0
   -3.0340   -2.6261   -0.5339 H   0  0  0  0  0  0  0  0  0  0  0  0
   -0.9475   -2.4365   -0.0372 C   0  0  0  0  0  0  0  0  0  0  0  0
   -0.0271   -3.1962   -0.2853 O   0  0  0  0  0  0  0  0  0  0  0  0
   -0.7461   -1.0690   -0.0138 N   0  0  0  0  0  0  0  0  0  0  0  0
   -1.5371   -0.4988    0.2744 H   0  0  0  0  0  0  0  0  0  0  0  0
    0.5795   -0.4200   -0.0952 C   0  0  0  0  0  0  0  0  0  0  0  0
    0.7504    0.1616    0.8152 H   0  0  0  0  0  0  0  0  0  0  0  0
    1.3773   -1.1675   -0.1515 H   0  0  0  0  0  0  0  0  0  0  0  0
    0.7423    0.5156   -1.2996 C   0  0  0  0  0  0  0  0  0  0  0  0
    1.7626    1.1778   -1.4115 O   0  0  0  0  0  0  0  0  0  0  0  0
   -0.2906    0.6984   -2.2005 N   0  0  0  0  0  0  0  0  0  0  0  0
   -1.0589    0.0372   -2.1452 H   0  0  0  0  0  0  0  0  0  0  0  0
   -0.1686    1.5381   -3.3857 C   0  0  0  0  0  0  0  0  0  0  0  0
    0.0554    2.5718   -3.1015 H   0  0  0  0  0  0  0  0  0  0  0  0
    0.6326    1.1695   -4.0349 H   0  0  0  0  0  0  0  0  0  0  0  0
   -1.1049    1.5321   -3.9519 H   0  0  0  0  0  0  0  0  0  0  0  0
  1  2  1  0  0  0  0
  2  3  1  0  0  0  0
  2  4  1  0  0  0  0
  2  5  1  0  0  0  0
  5  6  2  0  0  0  0
  5  7  1  0  0  0  0
  7  8  1  0  0  0  0
  7  9  1  0  0  0  0
  9 10  1  0  0  0  0
  9 11  1  0  0  0  0
  9 12  1  0  0  0  0
 12 13  2  0  0  0  0
 12 14  1  0  0  0  0
 14 15  1  0  0  0  0
 14 16  1  0  0  0  0
 16 17  1  0  0  0  0
 16 18  1  0  0  0  0
 16 19  1  0  0  0  0
M  END
$$$$

  -OEChem-01062216083D

 19 18  0     0  0  0  0  0  0999 V2000
   -2.3058   -4.0997    0.1663 H   0  0  0  0  0  0  0  0  0  0  0  0
   -2.3268   -3.0081    0.2353 C   0  0  0  0  0  0  0  0  0  0  0  0
   -2.6481   -2.7269    1.2410 H   0  0  0  0  0  0  0  0  0  0  0  0
   -3.0465   -2.6245   -0.4919 H   0  0  0  0  0  0  0  0  0  0  0  0
   -0.9478   -2.4405   -0.0478 C   0  0  0  0  0  0  0  0  0  0  0  0
   -0.0261   -3.1962   -0.3031 O   0  0  0  0  0  0  0  0  0  0  0  0
   -0.7548   -1.0713   -0.0234 N   0  0  0  0  0  0  0  0  0  0  0  0
   -1.5402   -0.5128    0.2999 H   0  0  0  0  0  0  0  0  0  0  0  0
    0.5689   -0.4183   -0.1102 C   0  0  0  0  0  0  0  0  0  0  0  0
    0.7411    0.1626    0.8000 H   0  0  0  0  0  0  0  0  0  0  0  0
    1.3684   -1.1641   -0.1680 H   0  0  0  0  0  0  0  0  0  0  0  0
    0.7304    0.5207   -1.3125 C   0  0  0  0  0  0  0  0  0  0  0  0
    1.8286    0.9956   -1.5590 O   0  0  0  0  0  0  0  0  0  0  0  0
   -0.3700    0.9490   -2.0327 N   0  0  0  0  0  0  0  0  0  0  0  0
   -1.2366    0.4440   -1.8807 H   0  0  0  0  0  0  0  0  0  0  0  0
   -0.2662    1.8373   -3.1844 C   0  0  0  0  0  0  0  0  0  0  0  0
    0.1947    2.7876   -2.8947 H   0  0  0  0  0  0  0  0  0  0  0  0
    0.3414    1.3770   -3.9707 H   0  0  0  0  0  0  0  0  0  0  0  0
   -1.2601    2.0473   -3.5912 H   0  0  0  0  0  0  0  0  0  0  0  0
  1  2  1  0  0  0  0
  2  3  1  0  0  0  0
  2  4  1  0  0  0  0
  2  5  1  0  0  0  0
  5  6  2  0  0  0  0
  5  7  1  0  0  0  0
  7  8  1  0  0  0  0
  7  9  1  0  0  0  0
  9 10  1  0  0  0  0
  9 11  1  0  0  0  0
  9 12  1  0  0  0  0
 12 13  2  0  0  0  0
 12 14  1  0  0  0  0
 14 15  1  0  0  0  0
 14 16  1  0  0  0  0
 16 17  1  0  0  0  0
 16 18  1  0  0  0  0
 16 19  1  0  0  0  0
M  END
$$$$

  -OEChem-01062216083D

 19 18  0     0  0  0  0  0  0999 V2000
   -2.2950   -4.1041    0.1489 H   0  0  0  0  0  0  0  0  0  0  0  0
   -2.3194   -3.0127    0.2170 C   0  0  0  0  0  0  0  0  0  0  0  0
   -2.6486   -2.7315    1.2203 H   0  0  0  0  0  0  0  0  0  0  0  0
   -3.0345   -2.6313   -0.5159 H   0  0  0  0  0  0  0  0  0  0  0  0
   -0.9399   -2.4421   -0.0565 C   0  0  0  0  0  0  0  0  0  0  0  0
   -0.0133   -3.1968   -0.2965 O   0  0  0  0  0  0  0  0  0  0  0  0
   -0.7505   -1.0725   -0.0248 N   0  0  0  0  0  0  0  0  0  0  0  0
   -1.5404   -0.5188    0.2935 H   0  0  0  0  0  0  0  0  0  0  0  0
    0.5703   -0.4155   -0.1154 C   0  0  0  0  0  0  0  0  0  0  0  0
    0.7477    0.1600    0.7970 H   0  0  0  0  0  0  0  0  0  0  0  0
    1.3711   -1.1597   -0.1827 H   0  0  0  0  0  0  0  0  0  0  0  0
    0.7193    0.5309   -1.3138 C   0  0  0  0  0  0  0  0  0  0  0  0
    1.8344    0.8062   -1.7296 O   0  0  0  0  0  0  0  0  0  0  0  0
   -0.3763    1.2004   -1.8294 N   0  0  0  0  0  0  0  0  0  0  0  0
   -1.2921    0.8830   -1.5324 H   0  0  0  0  0  0  0  0  0  0  0  0
   -0.2829    2.1278   -2.9509 C   0  0  0  0  0  0  0  0  0  0  0  0
    0.3955    2.9533   -2.7103 H   0  0  0  0  0  0  0  0  0  0  0  0
    0.0904    1.6140   -3.8430 H   0  0  0  0  0  0  0  0  0  0  0  0
   -1.2673    2.5476   -3.1786 H   0  0  0  0  0  0  0  0  0  0  0  0
  1  2  1  0  0  0  0
  2  3  1  0  0  0  0
  2  4  1  0  0  0  0
  2  5  1  0  0  0  0
  5  6  2  0  0  0  0
  5  7  1  0  0  0  0
  7  8  1  0  0  0  0
  7  9  1  0  0  0  0
  9 10  1  0  0  0  0
  9 11  1  0  0  0  0
  9 12  1  0  0  0  0
 12 13  2  0  0  0  0
 12 14  1  0  0  0  0
 14 15  1  0  0  0  0
 14 16  1  0  0  0  0
 16 17  1  0  0  0  0
 16 18  1  0  0  0  0
 16 19  1  0  0  0  0
M  END
$$$$

  -OEChem-01062216083D

 19 18  0     0  0  0  0  0  0999 V2000
   -2.3114   -4.0672    0.0720 H   0  0  0  0  0  0  0  0  0  0  0  0
   -2.3221   -2.9746    0.1229 C   0  0  0  0  0  0  0  0  0  0  0  0
   -2.7798   -2.6712    1.0675 H   0  0  0  0  0  0  0  0  0  0  0  0
   -2.9217   -2.5911   -0.7063 H   0  0  0  0  0  0  0  0  0  0  0  0
   -0.9063   -2.4345    0.0336 C   0  0  0  0  0  0  0  0  0  0  0  0
    0.0305   -3.2112   -0.0391 O   0  0  0  0  0  0  0  0  0  0  0  0
   -0.6976   -1.0677    0.0475 N   0  0  0  0  0  0  0  0  0  0  0  0
   -1.5253   -0.4837    0.1086 H   0  0  0  0  0  0  0  0  0  0  0  0
    0.6222   -0.4222   -0.1077 C   0  0  0  0  0  0  0  0  0  0  0  0
    0.8502    0.1552    0.7921 H   0  0  0  0  0  0  0  0  0  0  0  0
    1.4126   -1.1733   -0.2132 H   0  0  0  0  0  0  0  0  0  0  0  0
    0.7065    0.5140   -1.3204 C   0  0  0  0  0  0  0  0  0  0  0  0
    1.7072    0.5227   -2.0203 O   0  0  0  0  0  0  0  0  0  0  0  0
   -0.3136    1.4092   -1.5924 N   0  0  0  0  0  0  0  0  0  0  0  0
   -1.0980    1.4424   -0.9517 H   0  0  0  0  0  0  0  0  0  0  0  0
   -0.2640    2.3610   -2.6960 C   0  0  0  0  0  0  0  0  0  0  0  0
    0.5706    3.0576   -2.5648 H   0  0  0  0  0  0  0  0  0  0  0  0
   -0.1380    1.8359   -3.6488 H   0  0  0  0  0  0  0  0  0  0  0  0
   -1.1927    2.9377   -2.7412 H   0  0  0  0  0  0  0  0  0  0  0  0
  1  2  1  0  0  0  0
  2  3  1  0  0  0  0
  2  4  1  0  0  0  0
  2  5  1  0  0  0  0
  5  6  2  0  0  0  0
  5  7  1  0  0  0  0
  7  8  1  0  0  0  0
  7  9  1  0  0  0  0
  9 10  1  0  0  0  0
  9 11  1  0  0  0  0
  9 12  1  0  0  0  0
 12 13  2  0  0  0  0
 12 14  1  0  0  0  0
 14 15  1  0  0  0  0
 14 16  1  0  0  0  0
 16 17  1  0  0  0  0
 16 18  1  0  0  0  0
 16 19  1  0  0  0  0
M  END
$$$$

  -OEChem-01062216083D

 19 18  0     0  0  0  0  0  0999 V2000
   -2.3126   -4.0256    0.1631 H   0  0  0  0  0  0  0  0  0  0  0  0
   -2.3158   -2.9367    0.0591 C   0  0  0  0  0  0  0  0  0  0  0  0
   -2.9019   -2.5085    0.8756 H   0  0  0  0  0  0  0  0  0  0  0  0
   -2.7830   -2.6759   -0.8936 H   0  0  0  0  0  0  0  0  0  0  0  0
   -0.8950   -2.4045    0.1019 C   0  0  0  0  0  0  0  0  0  0  0  0
    0.0387   -3.1872    0.1544 O   0  0  0  0  0  0  0  0  0  0  0  0
   -0.6782   -1.0387    0.1068 N   0  0  0  0  0  0  0  0  0  0  0  0
   -1.5015   -0.4609   -0.0351 H   0  0  0  0  0  0  0  0  0  0  0  0
    0.6469   -0.4189   -0.0920 C   0  0  0  0  0  0  0  0  0  0  0  0
    0.9184    0.1576    0.7960 H   0  0  0  0  0  0  0  0  0  0  0  0
    1.4219   -1.1813   -0.2277 H   0  0  0  0  0  0  0  0  0  0  0  0
    0.6832    0.5061   -1.3134 C   0  0  0  0  0  0  0  0  0  0  0  0
    1.4570    0.2943   -2.2338 O   0  0  0  0  0  0  0  0  0  0  0  0
   -0.1627    1.5994   -1.3729 N   0  0  0  0  0  0  0  0  0  0  0  0
   -0.7037    1.8188   -0.5427 H   0  0  0  0  0  0  0  0  0  0  0  0
   -0.1332    2.5637   -2.4664 C   0  0  0  0  0  0  0  0  0  0  0  0
    0.8410    3.0619   -2.5116 H   0  0  0  0  0  0  0  0  0  0  0  0
   -0.3176    2.0647   -3.4238 H   0  0  0  0  0  0  0  0  0  0  0  0
   -0.9060    3.3245   -2.3211 H   0  0  0  0  0  0  0  0  0  0  0  0
  1  2  1  0  0  0  0
  2  3  1  0  0  0  0
  2  4  1  0  0  0  0
  2  5  1  0  0  0  0
  5  6  2  0  0  0  0
  5  7  1  0  0  0  0
  7  8  1  0  0  0  0
  7  9  1  0  0  0  0
  9 10  1  0  0  0  0
  9 11  1  0  0  0  0
  9 12  1  0  0  0  0
 12 13  2  0  0  0  0
 12 14  1  0  0  0  0
 14 15  1  0  0  0  0
 14 16  1  0  0  0  0
 16 17  1  0  0  0  0
 16 18  1  0  0  0  0
 16 19  1  0  0  0  0
M  END
$$$$

  -OEChem-01062216083D

 19 18  0     0  0  0  0  0  0999 V2000
   -2.3096   -4.0138    0.0622 H   0  0  0  0  0  0  0  0  0  0  0  0
   -2.3129   -2.9204    0.0324 C   0  0  0  0  0  0  0  0  0  0  0  0
   -2.8949   -2.5480    0.8787 H   0  0  0  0  0  0  0  0  0  0  0  0
   -2.7845   -2.5962   -0.8984 H   0  0  0  0  0  0  0  0  0  0  0  0
   -0.8923   -2.3912    0.1051 C   0  0  0  0  0  0  0  0  0  0  0  0
    0.0393   -3.1753    0.1775 O   0  0  0  0  0  0  0  0  0  0  0  0
   -0.6746   -1.0258    0.1255 N   0  0  0  0  0  0  0  0  0  0  0  0
   -1.4944   -0.4468   -0.0340 H   0  0  0  0  0  0  0  0  0  0  0  0
    0.6515   -0.4087   -0.0651 C   0  0  0  0  0  0  0  0  0  0  0  0
    0.9267    0.1550    0.8300 H   0  0  0  0  0  0  0  0  0  0  0  0
    1.4245   -1.1707   -0.2126 H   0  0  0  0  0  0  0  0  0  0  0  0
    0.6847    0.5276   -1.2773 C   0  0  0  0  0  0  0  0  0  0  0  0
    1.2064    0.1766   -2.3240 O   0  0  0  0  0  0  0  0  0  0  0  0
    0.0848    1.7713   -1.1993 N   0  0  0  0  0  0  0  0  0  0  0  0
   -0.2813    2.0625   -0.2981 H   0  0  0  0  0  0  0  0  0  0  0  0
    0.1044    2.7320   -2.2963 C   0  0  0  0  0  0  0  0  0  0  0  0
    1.1343    3.0086   -2.5452 H   0  0  0  0  0  0  0  0  0  0  0  0
   -0.3704    2.3069   -3.1870 H   0  0  0  0  0  0  0  0  0  0  0  0
   -0.4396    3.6389   -2.0155 H   0  0  0  0  0  0  0  0  0  0  0  0
  1  2  1  0  0  0  0
  2  3  1  0  0  0  0
  2  4  1  0  0  0  0
  2  5  1  0  0  0  0
  5  6  2  0  0  0  0
  5  7  1  0  0  0  0
  7  8  1  0  0  0  0
  7  9  1  0  0  0  0
  9 10  1  0  0  0  0
  9 11  1  0  0  0  0
  9 12  1  0  0  0  0
 12 13  2  0  0  0  0
 12 14  1  0  0  0  0
 14 15  1  0  0  0  0
 14 16  1  0  0  0  0
 16 17  1  0  0  0  0
 16 18  1  0  0  0  0
 16 19  1  0  0  0  0
M  END
$$$$

  -OEChem-01062216083D

 19 18  0     0  0  0  0  0  0999 V2000
   -2.3116   -3.9920    0.0334 H   0  0  0  0  0  0  0  0  0  0  0  0
   -2.3077   -2.8991   -0.0050 C   0  0  0  0  0  0  0  0  0  0  0  0
   -2.9207   -2.5165    0.8144 H   0  0  0  0  0  0  0  0  0  0  0  0
   -2.7403   -2.5797   -0.9562 H   0  0  0  0  0  0  0  0  0  0  0  0
   -0.8879   -2.3775    0.1190 C   0  0  0  0  0  0  0  0  0  0  0  0
    0.0376   -3.1664    0.2200 O   0  0  0  0  0  0  0  0  0  0  0  0
   -0.6635   -1.0138    0.1564 N   0  0  0  0  0  0  0  0  0  0  0  0
   -1.4747   -0.4330   -0.0379 H   0  0  0  0  0  0  0  0  0  0  0  0
    0.6670   -0.4094   -0.0383 C   0  0  0  0  0  0  0  0  0  0  0  0
    0.9580    0.1352    0.8635 H   0  0  0  0  0  0  0  0  0  0  0  0
    1.4303   -1.1763   -0.2082 H   0  0  0  0  0  0  0  0  0  0  0  0
    0.6967    0.5416   -1.2393 C   0  0  0  0  0  0  0  0  0  0  0  0
    0.8830    0.1119   -2.3673 O   0  0  0  0  0  0  0  0  0  0  0  0
    0.4012    1.8809   -1.0641 N   0  0  0  0  0  0  0  0  0  0  0  0
    0.2634    2.2149   -0.1149 H   0  0  0  0  0  0  0  0  0  0  0  0
    0.3841    2.8427   -2.1602 C   0  0  0  0  0  0  0  0  0  0  0  0
    1.3677    2.8953   -2.6390 H   0  0  0  0  0  0  0  0  0  0  0  0
   -0.3585    2.5543   -2.9116 H   0  0  0  0  0  0  0  0  0  0  0  0
    0.1278    3.8385   -1.7860 H   0  0  0  0  0  0  0  0  0  0  0  0
  1  2  1  0  0  0  0
  2  3  1  0  0  0  0
  2  4  1  0  0  0  0
  2  5  1  0  0  0  0
  5  6  2  0  0  0  0
  5  7  1  0  0  0  0
  7  8  1  0  0  0  0
  7  9  1  0  0  0  0
  9 10  1  0  0  0  0
  9 11  1  0  0  0  0
  9 12  1  0  0  0  0
 12 13  2  0  0  0  0
 12 14  1  0  0  0  0
 14 15  1  0  0  0  0
 14 16  1  0  0  0  0
 16 17  1  0  0  0  0
 16 18  1  0  0  0  0
 16 19  1  0  0  0  0
M  END
$$$$

  -OEChem-01062216083D

 19 18  0     0  0  0  0  0  0999 V2000
   -2.3209   -3.9733    0.0187 H   0  0  0  0  0  0  0  0  0  0  0  0
   -2.3049   -2.8811   -0.0366 C   0  0  0  0  0  0  0  0  0  0  0  0
   -2.9422   -2.4797    0.7549 H   0  0  0  0  0  0  0  0  0  0  0  0
   -2.7007   -2.5727   -1.0074 H   0  0  0  0  0  0  0  0  0  0  0  0
   -0.8853   -2.3700    0.1280 C   0  0  0  0  0  0  0  0  0  0  0  0
    0.0328   -3.1657    0.2469 O   0  0  0  0  0  0  0  0  0  0  0  0
   -0.6527   -1.0084    0.1804 N   0  0  0  0  0  0  0  0  0  0  0  0
   -1.4536   -0.4256   -0.0493 H   0  0  0  0  0  0  0  0  0  0  0  0
    0.6830   -0.4166   -0.0146 C   0  0  0  0  0  0  0  0  0  0  0  0
    0.9803    0.1139    0.8934 H   0  0  0  0  0  0  0  0  0  0  0  0
    1.4384   -1.1881   -0.1971 H   0  0  0  0  0  0  0  0  0  0  0  0
    0.7168    0.5476   -1.2057 C   0  0  0  0  0  0  0  0  0  0  0  0
    0.5585    0.1277   -2.3422 O   0  0  0  0  0  0  0  0  0  0  0  0
    0.7485    1.9130   -0.9900 N   0  0  0  0  0  0  0  0  0  0  0  0
    0.8544    2.2399   -0.0343 H   0  0  0  0  0  0  0  0  0  0  0  0
    0.7025    2.8928   -2.0690 C   0  0  0  0  0  0  0  0  0  0  0  0
    1.5497    2.7543   -2.7490 H   0  0  0  0  0  0  0  0  0  0  0  0
   -0.2272    2.7922   -2.6391 H   0  0  0  0  0  0  0  0  0  0  0  0
    0.7491    3.9072   -1.6611 H   0  0  0  0  0  0  0  0  0  0  0  0
  1  2  1  0  0  0  0
  2  3  1  0  0  0  0
  2  4  1  0  0  0  0
  2  5  1  0  0  0  0
  5  6  2  0  0  0  0
  5  7  1  0  0  0  0
  7  8  1  0  0  0  0
  7  9  1  0  0  0  0
  9 10  1  0  0  0  0
  9 11  1  0  0  0  0
  9 12  1  0  0  0  0
 12 13  2  0  0  0  0
 12 14  1  0  0  0  0
 14 15  1  0  0  0  0
 14 16  1  0  0  0  0
 16 17  1  0  0  0  0
 16 18  1  0  0  0  0
 16 19  1  0  0  0  0
M  END
$$$$

  -OEChem-01062216083D

 19 18  0     0  0  0  0  0  0999 V2000
   -2.3279   -3.9558   -0.0167 H   0  0  0  0  0  0  0  0  0  0  0  0
   -2.3027   -2.8633   -0.0606 C   0  0  0  0  0  0  0  0  0  0  0  0
   -2.9577   -2.4645    0.7176 H   0  0  0  0  0  0  0  0  0  0  0  0
   -2.6700   -2.5421   -1.0385 H   0  0  0  0  0  0  0  0  0  0  0  0
   -0.8848   -2.3636    0.1466 C   0  0  0  0  0  0  0  0  0  0  0  0
    0.0258   -3.1654    0.2852 O   0  0  0  0  0  0  0  0  0  0  0  0
   -0.6451   -1.0041    0.2068 N   0  0  0  0  0  0  0  0  0  0  0  0
   -1.4334   -0.4224   -0.0669 H   0  0  0  0  0  0  0  0  0  0  0  0
    0.6955   -0.4255    0.0098 C   0  0  0  0  0  0  0  0  0  0  0  0
    0.9960    0.0985    0.9206 H   0  0  0  0  0  0  0  0  0  0  0  0
    1.4439   -1.2020   -0.1781 H   0  0  0  0  0  0  0  0  0  0  0  0
    0.7330    0.5452   -1.1773 C   0  0  0  0  0  0  0  0  0  0  0  0
    0.2706    0.2092   -2.2584 O   0  0  0  0  0  0  0  0  0  0  0  0
    1.0882    1.8670   -0.9819 N   0  0  0  0  0  0  0  0  0  0  0  0
    1.4403    2.1333   -0.0671 H   0  0  0  0  0  0  0  0  0  0  0  0
    1.0390    2.8717   -2.0376 C   0  0  0  0  0  0  0  0  0  0  0  0
    1.7106    2.5984   -2.8582 H   0  0  0  0  0  0  0  0  0  0  0  0
    0.0215    2.9654   -2.4314 H   0  0  0  0  0  0  0  0  0  0  0  0
    1.3482    3.8461   -1.6475 H   0  0  0  0  0  0  0  0  0  0  0  0
  1  2  1  0  0  0  0
  2  3  1  0  0  0  0
  2  4  1  0  0  0  0
  2  5  1  0  0  0  0
  5  6  2  0  0  0  0
  5  7  1  0  0  0  0
  7  8  1  0  0  0  0
  7  9  1  0  0  0  0
  9 10  1  0  0  0  0
  9 11  1  0  0  0  0
  9 12  1  0  0  0  0
 12 13  2  0  0  0  0
 12 14  1  0  0  0  0
 14 15  1  0  0  0  0
 14 16  1  0  0  0  0
 16 17  1  0  0  0  0
 16 18  1  0  0  0  0
 16 19  1  0  0  0  0
M  END
$$$$

  -OEChem-01062216083D

 19 18  0     0  0  0  0  0  0999 V2000
   -2.3251   -3.9572   -0.0414 H   0  0  0  0  0  0  0  0  0  0  0  0
   -2.3025   -2.8641   -0.0712 C   0  0  0  0  0  0  0  0  0  0  0  0
   -2.9650   -2.4768    0.7065 H   0  0  0  0  0  0  0  0  0  0  0  0
   -2.6632   -2.5314   -1.0478 H   0  0  0  0  0  0  0  0  0  0  0  0
   -0.8875   -2.3637    0.1540 C   0  0  0  0  0  0  0  0  0  0  0  0
    0.0233   -3.1655    0.2935 O   0  0  0  0  0  0  0  0  0  0  0  0
   -0.6480   -1.0047    0.2204 N   0  0  0  0  0  0  0  0  0  0  0  0
   -1.4294   -0.4249   -0.0779 H   0  0  0  0  0  0  0  0  0  0  0  0
    0.6943   -0.4272    0.0299 C   0  0  0  0  0  0  0  0  0  0  0  0
    0.9870    0.0961    0.9437 H   0  0  0  0  0  0  0  0  0  0  0  0
    1.4430   -1.2042   -0.1536 H   0  0  0  0  0  0  0  0  0  0  0  0
    0.7432    0.5495   -1.1533 C   0  0  0  0  0  0  0  0  0  0  0  0
    0.0600    0.3444   -2.1476 O   0  0  0  0  0  0  0  0  0  0  0  0
    1.3881    1.7655   -1.0228 N   0  0  0  0  0  0  0  0  0  0  0  0
    1.9271    1.9279   -0.1773 H   0  0  0  0  0  0  0  0  0  0  0  0
    1.3886    2.7857   -2.0649 C   0  0  0  0  0  0  0  0  0  0  0  0
    1.8194    2.3890   -2.9902 H   0  0  0  0  0  0  0  0  0  0  0  0
    0.3679    3.1258   -2.2691 H   0  0  0  0  0  0  0  0  0  0  0  0
    1.9834    3.6484   -1.7497 H   0  0  0  0  0  0  0  0  0  0  0  0
  1  2  1  0  0  0  0
  2  3  1  0  0  0  0
  2  4  1  0  0  0  0
  2  5  1  0  0  0  0
  5  6  2  0  0  0  0
  5  7  1  0  0  0  0
  7  8  1  0  0  0  0
  7  9  1  0  0  0  0
  9 10  1  0  0  0  0
  9 11  1  0  0  0  0
  9 12  1  0  0  0  0
 12 13  2  0  0  0  0
 12 14  1  0  0  0  0
 14 15  1  0  0  0  0
 14 16  1  0  0  0  0
 16 17  1  0  0  0  0
 16 18  1  0  0  0  0
 16 19  1  0  0  0  0
M  END
$$$$

  -OEChem-01062216083D

 19 18  0     0  0  0  0  0  0999 V2000
   -2.3367   -3.9517   -0.0419 H   0  0  0  0  0  0  0  0  0  0  0  0
   -2.3066   -2.8591   -0.0756 C   0  0  0  0  0  0  0  0  0  0  0  0
   -2.9698   -2.4644    0.6978 H   0  0  0  0  0  0  0  0  0  0  0  0
   -2.6608   -2.5270   -1.0547 H   0  0  0  0  0  0  0  0  0  0  0  0
   -0.8896   -2.3667    0.1539 C   0  0  0  0  0  0  0  0  0  0  0  0
    0.0196   -3.1720    0.2845 O   0  0  0  0  0  0  0  0  0  0  0  0
   -0.6452   -1.0092    0.2244 N   0  0  0  0  0  0  0  0  0  0  0  0
   -1.4215   -0.4241   -0.0789 H   0  0  0  0  0  0  0  0  0  0  0  0
    0.6982   -0.4311    0.0470 C   0  0  0  0  0  0  0  0  0  0  0  0
    0.9791    0.0939    0.9637 H   0  0  0  0  0  0  0  0  0  0  0  0
    1.4487   -1.2083   -0.1282 H   0  0  0  0  0  0  0  0  0  0  0  0
    0.7605    0.5492   -1.1334 C   0  0  0  0  0  0  0  0  0  0  0  0
   -0.0790    0.4972   -2.0237 O   0  0  0  0  0  0  0  0  0  0  0  0
    1.6491    1.6077   -1.1085 N   0  0  0  0  0  0  0  0  0  0  0  0
    2.3226    1.6438   -0.3489 H   0  0  0  0  0  0  0  0  0  0  0  0
    1.7035    2.6296   -2.1474 C   0  0  0  0  0  0  0  0  0  0  0  0
    1.9132    2.1756   -3.1216 H   0  0  0  0  0  0  0  0  0  0  0  0
    0.7511    3.1668   -2.2066 H   0  0  0  0  0  0  0  0  0  0  0  0
    2.4943    3.3526   -1.9259 H   0  0  0  0  0  0  0  0  0  0  0  0
  1  2  1  0  0  0  0
  2  3  1  0  0  0  0
  2  4  1  0  0  0  0
  2  5  1  0  0  0  0
  5  6  2  0  0  0  0
  5  7  1  0  0  0  0
  7  8  1  0  0  0  0
  7  9  1  0  0  0  0
  9 10  1  0  0  0  0
  9 11  1  0  0  0  0
  9 12  1  0  0  0  0
 12 13  2  0  0  0  0
 12 14  1  0  0  0  0
 14 15  1  0  0  0  0
 14 16  1  0  0  0  0
 16 17  1  0  0  0  0
 16 18  1  0  0  0  0
 16 19  1  0  0  0  0
M  END
$$$$

  -OEChem-01062216083D

 19 18  0     0  0  0  0  0  0999 V2000
   -2.3511   -3.9471   -0.0372 H   0  0  0  0  0  0  0  0  0  0  0  0
   -2.3160   -2.8547   -0.0724 C   0  0  0  0  0  0  0  0  0  0  0  0
   -2.9678   -2.4563    0.7089 H   0  0  0  0  0  0  0  0  0  0  0  0
   -2.6805   -2.5213   -1.0473 H   0  0  0  0  0  0  0  0  0  0  0  0
   -0.8939   -2.3692    0.1397 C   0  0  0  0  0  0  0  0  0  0  0  0
    0.0150   -3.1788    0.2425 O   0  0  0  0  0  0  0  0  0  0  0  0
   -0.6432   -1.0136    0.2205 N   0  0  0  0  0  0  0  0  0  0  0  0
   -1.4167   -0.4180   -0.0712 H   0  0  0  0  0  0  0  0  0  0  0  0
    0.7019   -0.4352    0.0596 C   0  0  0  0  0  0  0  0  0  0  0  0
    0.9765    0.0864    0.9803 H   0  0  0  0  0  0  0  0  0  0  0  0
    1.4516   -1.2135   -0.1124 H   0  0  0  0  0  0  0  0  0  0  0  0
    0.7779    0.5529   -1.1135 C   0  0  0  0  0  0  0  0  0  0  0  0
   -0.1654    0.6707   -1.8866 O   0  0  0  0  0  0  0  0  0  0  0  0
    1.8544    1.4127   -1.2245 N   0  0  0  0  0  0  0  0  0  0  0  0
    2.6249    1.2941   -0.5730 H   0  0  0  0  0  0  0  0  0  0  0  0
    1.9699    2.4147   -2.2776 C   0  0  0  0  0  0  0  0  0  0  0  0
    1.9979    1.9342   -3.2612 H   0  0  0  0  0  0  0  0  0  0  0  0
    1.1199    3.1047   -2.2462 H   0  0  0  0  0  0  0  0  0  0  0  0
    2.8888    2.9948   -2.1490 H   0  0  0  0  0  0  0  0  0  0  0  0
  1  2  1  0  0  0  0
  2  3  1  0  0  0  0
  2  4  1  0  0  0  0
  2  5  1  0  0  0  0
  5  6  2  0  0  0  0
  5  7  1  0  0  0  0
  7  8  1  0  0  0  0
  7  9  1  0  0  0  0
  9 10  1  0  0  0  0
  9 11  1  0  0  0  0
  9 12  1  0  0  0  0
 12 13  2  0  0  0  0
 12 14  1  0  0  0  0
 14 15  1  0  0  0  0
 14 16  1  0  0  0  0
 16 17  1  0  0  0  0
 16 18  1  0  0  0  0
 16 19  1  0  0  0  0
M  END
$$$$

  -OEChem-01062216083D

 19 18  0     0  0  0  0  0  0999 V2000
   -2.3533   -3.9679    0.0025 H   0  0  0  0  0  0  0  0  0  0  0  0
   -2.3301   -2.8748   -0.0174 C   0  0  0  0  0  0  0  0  0  0  0  0
   -2.9244   -2.4954    0.8173 H   0  0  0  0  0  0  0  0  0  0  0  0
   -2.7702   -2.5292   -0.9560 H   0  0  0  0  0  0  0  0  0  0  0  0
   -0.9005   -2.3795    0.0973 C   0  0  0  0  0  0  0  0  0  0  0  0
    0.0216   -3.1800    0.1310 O   0  0  0  0  0  0  0  0  0  0  0  0
   -0.6506   -1.0246    0.1741 N   0  0  0  0  0  0  0  0  0  0  0  0
   -1.4374   -0.4106   -0.0367 H   0  0  0  0  0  0  0  0  0  0  0  0
    0.6874   -0.4320    0.0202 C   0  0  0  0  0  0  0  0  0  0  0  0
    1.0712   -0.1444    1.0028 H   0  0  0  0  0  0  0  0  0  0  0  0
    1.3844   -1.1568   -0.4121 H   0  0  0  0  0  0  0  0  0  0  0  0
    0.6760    0.8024   -0.8920 C   0  0  0  0  0  0  0  0  0  0  0  0
   -0.3798    1.2200   -1.3535 O   0  0  0  0  0  0  0  0  0  0  0  0
    1.8493    1.4859   -1.1485 N   0  0  0  0  0  0  0  0  0  0  0  0
    2.7108    1.1099   -0.7626 H   0  0  0  0  0  0  0  0  0  0  0  0
    1.9137    2.6720   -1.9938 C   0  0  0  0  0  0  0  0  0  0  0  0
    1.5888    2.4346   -3.0122 H   0  0  0  0  0  0  0  0  0  0  0  0
    1.2709    3.4635   -1.5943 H   0  0  0  0  0  0  0  0  0  0  0  0
    2.9395    3.0503   -2.0374 H   0  0  0  0  0  0  0  0  0  0  0  0
  1  2  1  0  0  0  0
  2  3  1  0  0  0  0
  2  4  1  0  0  0  0
  2  5  1  0  0  0  0
  5  6  2  0  0  0  0
  5  7  1  0  0  0  0
  7  8  1  0  0  0  0
  7  9  1  0  0  0  0
  9 10  1  0  0  0  0
  9 11  1  0  0  0  0
  9 12  1  0  0  0  0
 12 13  2  0  0  0  0
 12 14  1  0  0  0  0
 14 15  1  0  0  0  0
 14 16  1  0  0  0  0
 16 17  1  0  0  0  0
 16 18  1  0  0  0  0
 16 19  1  0  0  0  0
M  END
$$$$

  -OEChem-01062216083D

 19 18  0     0  0  0  0  0  0999 V2000
   -2.3625   -3.9611   -0.0305 H   0  0  0  0  0  0  0  0  0  0  0  0
   -2.3375   -2.8680   -0.0164 C   0  0  0  0  0  0  0  0  0  0  0  0
   -2.9155   -2.5136    0.8404 H   0  0  0  0  0  0  0  0  0  0  0  0
   -2.7945   -2.4934   -0.9355 H   0  0  0  0  0  0  0  0  0  0  0  0
   -0.9049   -2.3782    0.0878 C   0  0  0  0  0  0  0  0  0  0  0  0
    0.0139   -3.1825    0.1150 O   0  0  0  0  0  0  0  0  0  0  0  0
   -0.6473   -1.0242    0.1541 N   0  0  0  0  0  0  0  0  0  0  0  0
   -1.4332   -0.4002   -0.0279 H   0  0  0  0  0  0  0  0  0  0  0  0
    0.6942   -0.4323    0.0349 C   0  0  0  0  0  0  0  0  0  0  0  0
    1.0484   -0.1290    1.0238 H   0  0  0  0  0  0  0  0  0  0  0  0
    1.4038   -1.1639   -0.3638 H   0  0  0  0  0  0  0  0  0  0  0  0
    0.7067    0.7899   -0.8935 C   0  0  0  0  0  0  0  0  0  0  0  0
   -0.3456    1.3340   -1.2073 O   0  0  0  0  0  0  0  0  0  0  0  0
    1.9026    1.2893   -1.3735 N   0  0  0  0  0  0  0  0  0  0  0  0
    2.7562    0.7998   -1.1200 H   0  0  0  0  0  0  0  0  0  0  0  0
    1.9871    2.4352   -2.2714 C   0  0  0  0  0  0  0  0  0  0  0  0
    1.4532    2.2311   -3.2055 H   0  0  0  0  0  0  0  0  0  0  0  0
    1.5505    3.3234   -1.8025 H   0  0  0  0  0  0  0  0  0  0  0  0
    3.0327    2.6510   -2.5112 H   0  0  0  0  0  0  0  0  0  0  0  0
  1  2  1  0  0  0  0
  2  3  1  0  0  0  0
  2  4  1  0  0  0  0
  2  5  1  0  0  0  0
  5  6  2  0  0  0  0
  5  7  1  0  0  0  0
  7  8  1  0  0  0  0
  7  9  1  0  0  0  0
  9 10  1  0  0  0  0
  9 11  1  0  0  0  0
  9 12  1  0  0  0  0
 12 13  2  0  0  0  0
 12 14  1  0  0  0  0
 14 15  1  0  0  0  0
 14 16  1  0  0  0  0
 16 17  1  0  0  0  0
 16 18  1  0  0  0  0
 16 19  1  0  0  0  0
M  END
$$$$

  -OEChem-01062216083D

 19 18  0     0  0  0  0  0  0999 V2000
   -2.3706   -3.9541   -0.0280 H   0  0  0  0  0  0  0  0  0  0  0  0
   -2.3425   -2.8611   -0.0096 C   0  0  0  0  0  0  0  0  0  0  0  0
   -2.9062   -2.5092    0.8578 H   0  0  0  0  0  0  0  0  0  0  0  0
   -2.8129   -2.4814   -0.9198 H   0  0  0  0  0  0  0  0  0  0  0  0
   -0.9070   -2.3759    0.0733 C   0  0  0  0  0  0  0  0  0  0  0  0
    0.0092   -3.1834    0.0847 O   0  0  0  0  0  0  0  0  0  0  0  0
   -0.6425   -1.0226    0.1314 N   0  0  0  0  0  0  0  0  0  0  0  0
   -1.4291   -0.3891   -0.0094 H   0  0  0  0  0  0  0  0  0  0  0  0
    0.7022   -0.4331    0.0404 C   0  0  0  0  0  0  0  0  0  0  0  0
    1.0337   -0.1176    1.0334 H   0  0  0  0  0  0  0  0  0  0  0  0
    1.4206   -1.1706   -0.3302 H   0  0  0  0  0  0  0  0  0  0  0  0
    0.7345    0.7780   -0.9006 C   0  0  0  0  0  0  0  0  0  0  0  0
   -0.2758    1.4523   -1.0603 O   0  0  0  0  0  0  0  0  0  0  0  0
    1.8834    1.0911   -1.6021 N   0  0  0  0  0  0  0  0  0  0  0  0
    2.6888    0.4821   -1.4879 H   0  0  0  0  0  0  0  0  0  0  0  0
    1.9631    2.1951   -2.5511 C   0  0  0  0  0  0  0  0  0  0  0  0
    1.2617    2.0411   -3.3779 H   0  0  0  0  0  0  0  0  0  0  0  0
    1.7241    3.1430   -2.0576 H   0  0  0  0  0  0  0  0  0  0  0  0
    2.9740    2.2671   -2.9638 H   0  0  0  0  0  0  0  0  0  0  0  0
  1  2  1  0  0  0  0
  2  3  1  0  0  0  0
  2  4  1  0  0  0  0
  2  5  1  0  0  0  0
  5  6  2  0  0  0  0
  5  7  1  0  0  0  0
  7  8  1  0  0  0  0
  7  9  1  0  0  0  0
  9 10  1  0  0  0  0
  9 11  1  0  0  0  0
  9 12  1  0  0  0  0
 12 13  2  0  0  0  0
 12 14  1  0  0  0  0
 14 15  1  0  0  0  0
 14 16  1  0  0  0  0
 16 17  1  0  0  0  0
 16 18  1  0  0  0  0
 16 19  1  0  0  0  0
M  END
$$$$

  -OEChem-01062216083D

 19 18  0     0  0  0  0  0  0999 V2000
   -2.1737   -4.0854   -0.0054 H   0  0  0  0  0  0  0  0  0  0  0  0
   -2.2306   -2.9978   -0.1053 C   0  0  0  0  0  0  0  0  0  0  0  0
   -2.9280   -2.6117    0.6421 H   0  0  0  0  0  0  0  0  0  0  0  0
   -2.6048   -2.7545   -1.1028 H   0  0  0  0  0  0  0  0  0  0  0  0
   -0.8589   -2.3809    0.0979 C   0  0  0  0  0  0  0  0  0  0  0  0
    0.1102   -3.0980    0.2928 O   0  0  0  0  0  0  0  0  0  0  0  0
   -0.7121   -1.0094    0.0516 N   0  0  0  0  0  0  0  0  0  0  0  0
   -1.5304   -0.4589   -0.2064 H   0  0  0  0  0  0  0  0  0  0  0  0
    0.5763   -0.3020    0.1059 C   0  0  0  0  0  0  0  0  0  0  0  0
    0.7145    0.1396    1.0968 H   0  0  0  0  0  0  0  0  0  0  0  0
    1.4052   -0.9956   -0.0648 H   0  0  0  0  0  0  0  0  0  0  0  0
    0.6528    0.8109   -0.9455 C   0  0  0  0  0  0  0  0  0  0  0  0
   -0.3282    1.5140   -1.1521 O   0  0  0  0  0  0  0  0  0  0  0  0
    1.7860    0.9724   -1.7199 N   0  0  0  0  0  0  0  0  0  0  0  0
    2.5557    0.3258   -1.5716 H   0  0  0  0  0  0  0  0  0  0  0  0
    1.8880    1.9575   -2.7898 C   0  0  0  0  0  0  0  0  0  0  0  0
    1.7872    2.9712   -2.3878 H   0  0  0  0  0  0  0  0  0  0  0  0
    2.8603    1.8775   -3.2853 H   0  0  0  0  0  0  0  0  0  0  0  0
    1.1048    1.7949   -3.5378 H   0  0  0  0  0  0  0  0  0  0  0  0
  1  2  1  0  0  0  0
  2  3  1  0  0  0  0
  2  4  1  0  0  0  0
  2  5  1  0  0  0  0
  5  6  2  0  0  0  0
  5  7  1  0  0  0  0
  7  8  1  0  0  0  0
  7  9  1  0  0  0  0
  9 10  1  0  0  0  0
  9 11  1  0  0  0  0
  9 12  1  0  0  0  0
 12 13  2  0  0  0  0
 12 14  1  0  0  0  0
 14 15  1  0  0  0  0
 14 16  1  0  0  0  0
 16 17  1  0  0  0  0
 16 18  1  0  0  0  0
 16 19  1  0  0  0  0
M  END
$$$$

  -OEChem-01062216083D

 19 18  0     0  0  0  0  0  0999 V2000
   -2.1746   -4.0913   -0.0092 H   0  0  0  0  0  0  0  0  0  0  0  0
   -2.2395   -3.0015   -0.0733 C   0  0  0  0  0  0  0  0  0  0  0  0
   -2.8858   -2.6397    0.7300 H   0  0  0  0  0  0  0  0  0  0  0  0
   -2.6800   -2.7309   -1.0360 H   0  0  0  0  0  0  0  0  0  0  0  0
   -0.8583   -2.3864    0.0564 C   0  0  0  0  0  0  0  0  0  0  0  0
    0.1197   -3.1054    0.1895 O   0  0  0  0  0  0  0  0  0  0  0  0
   -0.7133   -1.0147    0.0147 N   0  0  0  0  0  0  0  0  0  0  0  0
   -1.5493   -0.4569   -0.1535 H   0  0  0  0  0  0  0  0  0  0  0  0
    0.5711   -0.3021    0.0849 C   0  0  0  0  0  0  0  0  0  0  0  0
    0.6933    0.1405    1.0773 H   0  0  0  0  0  0  0  0  0  0  0  0
    1.4081   -0.9893   -0.0718 H   0  0  0  0  0  0  0  0  0  0  0  0
    0.6533    0.8113   -0.9633 C   0  0  0  0  0  0  0  0  0  0  0  0
   -0.2252    1.6623   -1.0041 O   0  0  0  0  0  0  0  0  0  0  0  0
    1.6426    0.7999   -1.9282 N   0  0  0  0  0  0  0  0  0  0  0  0
    2.2988    0.0239   -1.9206 H   0  0  0  0  0  0  0  0  0  0  0  0
    1.7075    1.7676   -3.0165 C   0  0  0  0  0  0  0  0  0  0  0  0
    1.7715    2.7865   -2.6202 H   0  0  0  0  0  0  0  0  0  0  0  0
    2.5912    1.5829   -3.6350 H   0  0  0  0  0  0  0  0  0  0  0  0
    0.8181    1.6911   -3.6507 H   0  0  0  0  0  0  0  0  0  0  0  0
  1  2  1  0  0  0  0
  2  3  1  0  0  0  0
  2  4  1  0  0  0  0
  2  5  1  0  0  0  0
  5  6  2  0  0  0  0
  5  7  1  0  0  0  0
  7  8  1  0  0  0  0
  7  9  1  0  0  0  0
  9 10  1  0  0  0  0
  9 11  1  0  0  0  0
  9 12  1  0  0  0  0
 12 13  2  0  0  0  0
 12 14  1  0  0  0  0
 14 15  1  0  0  0  0
 14 16  1  0  0  0  0
 16 17  1  0  0  0  0
 16 18  1  0  0  0  0
 16 19  1  0  0  0  0
M  END
$$$$

  -OEChem-01062216083D

 19 18  0     0  0  0  0  0  0999 V2000
   -2.1610   -4.1050   -0.0055 H   0  0  0  0  0  0  0  0  0  0  0  0
   -2.2389   -3.0148   -0.0452 C   0  0  0  0  0  0  0  0  0  0  0  0
   -2.8537   -2.6751    0.7918 H   0  0  0  0  0  0  0  0  0  0  0  0
   -2.7225   -2.7305   -0.9829 H   0  0  0  0  0  0  0  0  0  0  0  0
   -0.8596   -2.3876    0.0376 C   0  0  0  0  0  0  0  0  0  0  0  0
    0.1290   -3.0980    0.1305 O   0  0  0  0  0  0  0  0  0  0  0  0
   -0.7278   -1.0146   -0.0131 N   0  0  0  0  0  0  0  0  0  0  0  0
   -1.5782   -0.4630   -0.1106 H   0  0  0  0  0  0  0  0  0  0  0  0
    0.5500   -0.2906    0.0666 C   0  0  0  0  0  0  0  0  0  0  0  0
    0.6558    0.1615    1.0570 H   0  0  0  0  0  0  0  0  0  0  0  0
    1.3976   -0.9684   -0.0722 H   0  0  0  0  0  0  0  0  0  0  0  0
    0.6345    0.8142   -0.9887 C   0  0  0  0  0  0  0  0  0  0  0  0
   -0.0775    1.8030   -0.8822 O   0  0  0  0  0  0  0  0  0  0  0  0
    1.4232    0.6506   -2.1113 N   0  0  0  0  0  0  0  0  0  0  0  0
    1.9220   -0.2297   -2.2102 H   0  0  0  0  0  0  0  0  0  0  0  0
    1.4686    1.6145   -3.2035 C   0  0  0  0  0  0  0  0  0  0  0  0
    1.7820    2.5969   -2.8347 H   0  0  0  0  0  0  0  0  0  0  0  0
    2.1833    1.2889   -3.9655 H   0  0  0  0  0  0  0  0  0  0  0  0
    0.4830    1.7110   -3.6709 H   0  0  0  0  0  0  0  0  0  0  0  0
  1  2  1  0  0  0  0
  2  3  1  0  0  0  0
  2  4  1  0  0  0  0
  2  5  1  0  0  0  0
  5  6  2  0  0  0  0
  5  7  1  0  0  0  0
  7  8  1  0  0  0  0
  7  9  1  0  0  0  0
  9 10  1  0  0  0  0
  9 11  1  0  0  0  0
  9 12  1  0  0  0  0
 12 13  2  0  0  0  0
 12 14  1  0  0  0  0
 14 15  1  0  0  0  0
 14 16  1  0  0  0  0
 16 17  1  0  0  0  0
 16 18  1  0  0  0  0
 16 19  1  0  0  0  0
M  END
$$$$

  -OEChem-01062216083D

 19 18  0     0  0  0  0  0  0999 V2000
   -2.1458   -4.1278   -0.0095 H   0  0  0  0  0  0  0  0  0  0  0  0
   -2.2413   -3.0383    0.0031 C   0  0  0  0  0  0  0  0  0  0  0  0
   -2.8012   -2.7442    0.8942 H   0  0  0  0  0  0  0  0  0  0  0  0
   -2.7928   -2.7234   -0.8862 H   0  0  0  0  0  0  0  0  0  0  0  0
   -0.8680   -2.3925    0.0185 C   0  0  0  0  0  0  0  0  0  0  0  0
    0.1324   -3.0900    0.0705 O   0  0  0  0  0  0  0  0  0  0  0  0
   -0.7559   -1.0178   -0.0436 N   0  0  0  0  0  0  0  0  0  0  0  0
   -1.6189   -0.4789   -0.0784 H   0  0  0  0  0  0  0  0  0  0  0  0
    0.5123   -0.2763    0.0430 C   0  0  0  0  0  0  0  0  0  0  0  0
    0.6013    0.1830    1.0319 H   0  0  0  0  0  0  0  0  0  0  0  0
    1.3715   -0.9424   -0.0812 H   0  0  0  0  0  0  0  0  0  0  0  0
    0.5998    0.8212   -1.0190 C   0  0  0  0  0  0  0  0  0  0  0  0
    0.1097    1.9188   -0.7967 O   0  0  0  0  0  0  0  0  0  0  0  0
    1.1438    0.5468   -2.2587 N   0  0  0  0  0  0  0  0  0  0  0  0
    1.4683   -0.4018   -2.4279 H   0  0  0  0  0  0  0  0  0  0  0  0
    1.1993    1.5199   -3.3422 C   0  0  0  0  0  0  0  0  0  0  0  0
    1.7478    2.4138   -3.0272 H   0  0  0  0  0  0  0  0  0  0  0  0
    1.7097    1.0910   -4.2098 H   0  0  0  0  0  0  0  0  0  0  0  0
    0.1891    1.8146   -3.6446 H   0  0  0  0  0  0  0  0  0  0  0  0
  1  2  1  0  0  0  0
  2  3  1  0  0  0  0
  2  4  1  0  0  0  0
  2  5  1  0  0  0  0
  5  6  2  0  0  0  0
  5  7  1  0  0  0  0
  7  8  1  0  0  0  0
  7  9  1  0  0  0  0
  9 10  1  0  0  0  0
  9 11  1  0  0  0  0
  9 12  1  0  0  0  0
 12 13  2  0  0  0  0
 12 14  1  0  0  0  0
 14 15  1  0  0  0  0
 14 16  1  0  0  0  0
 16 17  1  0  0  0  0
 16 18  1  0  0  0  0
 16 19  1  0  0  0  0
M  END
$$$$

  -OEChem-01062216083D

 19 18  0     0  0  0  0  0  0999 V2000
   -2.1320   -4.1402    0.0288 H   0  0  0  0  0  0  0  0  0  0  0  0
   -2.2374   -3.0515    0.0199 C   0  0  0  0  0  0  0  0  0  0  0  0
   -2.7968   -2.7456    0.9074 H   0  0  0  0  0  0  0  0  0  0  0  0
   -2.7956   -2.7598   -0.8730 H   0  0  0  0  0  0  0  0  0  0  0  0
   -0.8694   -2.3935    0.0162 C   0  0  0  0  0  0  0  0  0  0  0  0
    0.1372   -3.0828    0.0437 O   0  0  0  0  0  0  0  0  0  0  0  0
   -0.7694   -1.0178   -0.0464 N   0  0  0  0  0  0  0  0  0  0  0  0
   -1.6386   -0.4884   -0.0463 H   0  0  0  0  0  0  0  0  0  0  0  0
    0.4942   -0.2662    0.0405 C   0  0  0  0  0  0  0  0  0  0  0  0
    0.5809    0.1909    1.0310 H   0  0  0  0  0  0  0  0  0  0  0  0
    1.3589   -0.9245   -0.0879 H   0  0  0  0  0  0  0  0  0  0  0  0
    0.5740    0.8314   -1.0218 C   0  0  0  0  0  0  0  0  0  0  0  0
    0.3470    1.9930   -0.7176 O   0  0  0  0  0  0  0  0  0  0  0  0
    0.8243    0.4988   -2.3390 N   0  0  0  0  0  0  0  0  0  0  0  0
    0.9674   -0.4848   -2.5534 H   0  0  0  0  0  0  0  0  0  0  0  0
    0.8630    1.4760   -3.4197 C   0  0  0  0  0  0  0  0  0  0  0  0
    1.6405    2.2239   -3.2320 H   0  0  0  0  0  0  0  0  0  0  0  0
    1.0830    0.9809   -4.3706 H   0  0  0  0  0  0  0  0  0  0  0  0
   -0.1020    1.9856   -3.5102 H   0  0  0  0  0  0  0  0  0  0  0  0
  1  2  1  0  0  0  0
  2  3  1  0  0  0  0
  2  4  1  0  0  0  0
  2  5  1  0  0  0  0
  5  6  2  0  0  0  0
  5  7  1  0  0  0  0
  7  8  1  0  0  0  0
  7  9  1  0  0  0  0
  9 10  1  0  0  0  0
  9 11  1  0  0  0  0
  9 12  1  0  0  0  0
 12 13  2  0  0  0  0
 12 14  1  0  0  0  0
 14 15  1  0  0  0  0
 14 16  1  0  0  0  0
 16 17  1  0  0  0  0
 16 18  1  0  0  0  0
 16 19  1  0  0  0  0
M  END
$$$$

  -OEChem-01062216083D

 19 18  0     0  0  0  0  0  0999 V2000
   -2.1094   -4.1618    0.0656 H   0  0  0  0  0  0  0  0  0  0  0  0
   -2.2292   -3.0747    0.0453 C   0  0  0  0  0  0  0  0  0  0  0  0
   -2.7778   -2.7651    0.9382 H   0  0  0  0  0  0  0  0  0  0  0  0
   -2.8055   -2.8015   -0.8420 H   0  0  0  0  0  0  0  0  0  0  0  0
   -0.8704   -2.3996    0.0110 C   0  0  0  0  0  0  0  0  0  0  0  0
    0.1443   -3.0769    0.0032 O   0  0  0  0  0  0  0  0  0  0  0  0
   -0.7891   -1.0222   -0.0465 N   0  0  0  0  0  0  0  0  0  0  0  0
   -1.6650   -0.5061   -0.0035 H   0  0  0  0  0  0  0  0  0  0  0  0
    0.4675   -0.2563    0.0374 C   0  0  0  0  0  0  0  0  0  0  0  0
    0.5558    0.1944    1.0307 H   0  0  0  0  0  0  0  0  0  0  0  0
    1.3378   -0.9051   -0.1022 H   0  0  0  0  0  0  0  0  0  0  0  0
    0.5352    0.8485   -1.0190 C   0  0  0  0  0  0  0  0  0  0  0  0
    0.5940    2.0206   -0.6791 O   0  0  0  0  0  0  0  0  0  0  0  0
    0.4730    0.5196   -2.3592 N   0  0  0  0  0  0  0  0  0  0  0  0
    0.4423   -0.4694   -2.5935 H   0  0  0  0  0  0  0  0  0  0  0  0
    0.5270    1.5045   -3.4317 C   0  0  0  0  0  0  0  0  0  0  0  0
    1.4800    2.0432   -3.4091 H   0  0  0  0  0  0  0  0  0  0  0  0
    0.4312    1.0105   -4.4033 H   0  0  0  0  0  0  0  0  0  0  0  0
   -0.2893    2.2272   -3.3303 H   0  0  0  0  0  0  0  0  0  0  0  0
  1  2  1  0  0  0  0
  2  3  1  0  0  0  0
  2  4  1  0  0  0  0
  2  5  1  0  0  0  0
  5  6  2  0  0  0  0
  5  7  1  0  0  0  0
  7  8  1  0  0  0  0
  7  9  1  0  0  0  0
  9 10  1  0  0  0  0
  9 11  1  0  0  0  0
  9 12  1  0  0  0  0
 12 13  2  0  0  0  0
 12 14  1  0  0  0  0
 14 15  1  0  0  0  0
 14 16  1  0  0  0  0
 16 17  1  0  0  0  0
 16 18  1  0  0  0  0
 16 19  1  0  0  0  0
M  END
$$$$

  -OEChem-01062216083D

 19 18  0     0  0  0  0  0  0999 V2000
   -2.0960   -4.1869    0.0487 H   0  0  0  0  0  0  0  0  0  0  0  0
   -2.2233   -3.1008    0.0718 C   0  0  0  0  0  0  0  0  0  0  0  0
   -2.7329   -2.8269    0.9986 H   0  0  0  0  0  0  0  0  0  0  0  0
   -2.8412   -2.8019   -0.7784 H   0  0  0  0  0  0  0  0  0  0  0  0
   -0.8716   -2.4139    0.0013 C   0  0  0  0  0  0  0  0  0  0  0  0
    0.1474   -3.0827   -0.0427 O   0  0  0  0  0  0  0  0  0  0  0  0
   -0.8044   -1.0348   -0.0412 N   0  0  0  0  0  0  0  0  0  0  0  0
   -1.6837   -0.5299    0.0427 H   0  0  0  0  0  0  0  0  0  0  0  0
    0.4472   -0.2570    0.0339 C   0  0  0  0  0  0  0  0  0  0  0  0
    0.5468    0.1793    1.0326 H   0  0  0  0  0  0  0  0  0  0  0  0
    1.3191   -0.8981   -0.1284 H   0  0  0  0  0  0  0  0  0  0  0  0
    0.5022    0.8652   -1.0064 C   0  0  0  0  0  0  0  0  0  0  0  0
    0.8456    1.9902   -0.6766 O   0  0  0  0  0  0  0  0  0  0  0  0
    0.1250    0.6144   -2.3118 N   0  0  0  0  0  0  0  0  0  0  0  0
   -0.0869   -0.3505   -2.5514 H   0  0  0  0  0  0  0  0  0  0  0  0
    0.2049    1.6096   -3.3736 C   0  0  0  0  0  0  0  0  0  0  0  0
    1.2425    1.9251   -3.5247 H   0  0  0  0  0  0  0  0  0  0  0  0
   -0.1711    1.1920   -4.3126 H   0  0  0  0  0  0  0  0  0  0  0  0
   -0.3975    2.4888   -3.1218 H   0  0  0  0  0  0  0  0  0  0  0  0
  1  2  1  0  0  0  0
  2  3  1  0  0  0  0
  2  4  1  0  0  0  0
  2  5  1  0  0  0  0
  5  6  2  0  0  0  0
  5  7  1  0  0  0  0
  7  8  1  0  0  0  0
  7  9  1  0  0  0  0
  9 10  1  0  0  0  0
  9 11  1  0  0  0  0
  9 12  1  0  0  0  0
 12 13  2  0  0  0  0
 12 14  1  0  0  0  0
 14 15  1  0  0  0  0
 14 16  1  0  0  0  0
 16 17  1  0  0  0  0
 16 18  1  0  0  0  0
 16 19  1  0  0  0  0
M  END
$$$$

  -OEChem-01062216083D

 19 18  0     0  0  0  0  0  0999 V2000
   -2.1992   -4.1319    0.1558 H   0  0  0  0  0  0  0  0  0  0  0  0
   -2.2769   -3.0413    0.1286 C   0  0  0  0  0  0  0  0  0  0  0  0
   -2.7406   -2.7000    1.0573 H   0  0  0  0  0  0  0  0  0  0  0  0
   -2.9102   -2.7549   -0.7144 H   0  0  0  0  0  0  0  0  0  0  0  0
   -0.8991   -2.4229   -0.0222 C   0  0  0  0  0  0  0  0  0  0  0  0
    0.0770   -3.1419   -0.1524 O   0  0  0  0  0  0  0  0  0  0  0  0
   -0.7638   -1.0478   -0.0314 N   0  0  0  0  0  0  0  0  0  0  0  0
   -1.6059   -0.5050    0.1453 H   0  0  0  0  0  0  0  0  0  0  0  0
    0.5303   -0.3367   -0.0167 C   0  0  0  0  0  0  0  0  0  0  0  0
    0.7166    0.0595    0.9862 H   0  0  0  0  0  0  0  0  0  0  0  0
    1.3526   -1.0185   -0.2546 H   0  0  0  0  0  0  0  0  0  0  0  0
    0.5929    0.8170   -1.0230 C   0  0  0  0  0  0  0  0  0  0  0  0
    1.2427    1.8152   -0.7531 O   0  0  0  0  0  0  0  0  0  0  0  0
   -0.1382    0.7503   -2.1958 N   0  0  0  0  0  0  0  0  0  0  0  0
   -0.6081   -0.1313   -2.3811 H   0  0  0  0  0  0  0  0  0  0  0  0
   -0.1558    1.7824   -3.2289 C   0  0  0  0  0  0  0  0  0  0  0  0
    0.4939    2.6271   -2.9772 H   0  0  0  0  0  0  0  0  0  0  0  0
    0.1881    1.3651   -4.1803 H   0  0  0  0  0  0  0  0  0  0  0  0
   -1.1728    2.1649   -3.3583 H   0  0  0  0  0  0  0  0  0  0  0  0
  1  2  1  0  0  0  0
  2  3  1  0  0  0  0
  2  4  1  0  0  0  0
  2  5  1  0  0  0  0
  5  6  2  0  0  0  0
  5  7  1  0  0  0  0
  7  8  1  0  0  0  0
  7  9  1  0  0  0  0
  9 10  1  0  0  0  0
  9 11  1  0  0  0  0
  9 12  1  0  0  0  0
 12 13  2  0  0  0  0
 12 14  1  0  0  0  0
 14 15  1  0  0  0  0
 14 16  1  0  0  0  0
 16 17  1  0  0  0  0
 16 18  1  0  0  0  0
 16 19  1  0  0  0  0
M  END
$$$$

  -OEChem-01062216083D

 19 18  0     0  0  0  0  0  0999 V2000
   -2.1837   -4.1546    0.1584 H   0  0  0  0  0  0  0  0  0  0  0  0
   -2.2690   -3.0641    0.1457 C   0  0  0  0  0  0  0  0  0  0  0  0
   -2.7158   -2.7369    1.0877 H   0  0  0  0  0  0  0  0  0  0  0  0
   -2.9217   -2.7726   -0.6808 H   0  0  0  0  0  0  0  0  0  0  0  0
   -0.8986   -2.4343   -0.0272 C   0  0  0  0  0  0  0  0  0  0  0  0
    0.0794   -3.1465   -0.1788 O   0  0  0  0  0  0  0  0  0  0  0  0
   -0.7743   -1.0576   -0.0279 N   0  0  0  0  0  0  0  0  0  0  0  0
   -1.6120   -0.5273    0.1991 H   0  0  0  0  0  0  0  0  0  0  0  0
    0.5175   -0.3396   -0.0265 C   0  0  0  0  0  0  0  0  0  0  0  0
    0.7147    0.0484    0.9771 H   0  0  0  0  0  0  0  0  0  0  0  0
    1.3387   -1.0178   -0.2795 H   0  0  0  0  0  0  0  0  0  0  0  0
    0.5764    0.8262   -1.0208 C   0  0  0  0  0  0  0  0  0  0  0  0
    1.4258    1.6913   -0.8757 O   0  0  0  0  0  0  0  0  0  0  0  0
   -0.3716    0.9383   -2.0230 N   0  0  0  0  0  0  0  0  0  0  0  0
   -0.9919    0.1427   -2.1397 H   0  0  0  0  0  0  0  0  0  0  0  0
   -0.3903    1.9897   -3.0370 C   0  0  0  0  0  0  0  0  0  0  0  0
    0.4154    2.7168   -2.8914 H   0  0  0  0  0  0  0  0  0  0  0  0
   -0.2714    1.5507   -4.0323 H   0  0  0  0  0  0  0  0  0  0  0  0
   -1.3419    2.5287   -3.0002 H   0  0  0  0  0  0  0  0  0  0  0  0
  1  2  1  0  0  0  0
  2  3  1  0  0  0  0
  2  4  1  0  0  0  0
  2  5  1  0  0  0  0
  5  6  2  0  0  0  0
  5  7  1  0  0  0  0
  7  8  1  0  0  0  0
  7  9  1  0  0  0  0
  9 10  1  0  0  0  0
  9 11  1  0  0  0  0
  9 12  1  0  0  0  0
 12 13  2  0  0  0  0
 12 14  1  0  0  0  0
 14 15  1  0  0  0  0
 14 16  1  0  0  0  0
 16 17  1  0  0  0  0
 16 18  1  0  0  0  0
 16 19  1  0  0  0  0
M  END
$$$$

  -OEChem-01062216083D

 19 18  0     0  0  0  0  0  0999 V2000
   -2.1670   -4.1695    0.1870 H   0  0  0  0  0  0  0  0  0  0  0  0
   -2.2619   -3.0804    0.1502 C   0  0  0  0  0  0  0  0  0  0  0  0
   -2.7128   -2.7366    1.0842 H   0  0  0  0  0  0  0  0  0  0  0  0
   -2.9156   -2.8128   -0.6834 H   0  0  0  0  0  0  0  0  0  0  0  0
   -0.8969   -2.4431   -0.0351 C   0  0  0  0  0  0  0  0  0  0  0  0
    0.0830   -3.1514   -0.1909 O   0  0  0  0  0  0  0  0  0  0  0  0
   -0.7802   -1.0654   -0.0329 N   0  0  0  0  0  0  0  0  0  0  0  0
   -1.6140   -0.5446    0.2263 H   0  0  0  0  0  0  0  0  0  0  0  0
    0.5103   -0.3440   -0.0337 C   0  0  0  0  0  0  0  0  0  0  0  0
    0.7090    0.0412    0.9705 H   0  0  0  0  0  0  0  0  0  0  0  0
    1.3315   -1.0214   -0.2895 H   0  0  0  0  0  0  0  0  0  0  0  0
    0.5733    0.8270   -1.0229 C   0  0  0  0  0  0  0  0  0  0  0  0
    1.5586    1.5482   -1.0250 O   0  0  0  0  0  0  0  0  0  0  0  0
   -0.5150    1.1339   -1.8222 N   0  0  0  0  0  0  0  0  0  0  0  0
   -1.2590    0.4442   -1.8458 H   0  0  0  0  0  0  0  0  0  0  0  0
   -0.5555    2.2294   -2.7881 C   0  0  0  0  0  0  0  0  0  0  0  0
    0.3745    2.8072   -2.7961 H   0  0  0  0  0  0  0  0  0  0  0  0
   -0.7134    1.8334   -3.7959 H   0  0  0  0  0  0  0  0  0  0  0  0
   -1.3751    2.9124   -2.5450 H   0  0  0  0  0  0  0  0  0  0  0  0
  1  2  1  0  0  0  0
  2  3  1  0  0  0  0
  2  4  1  0  0  0  0
  2  5  1  0  0  0  0
  5  6  2  0  0  0  0
  5  7  1  0  0  0  0
  7  8  1  0  0  0  0
  7  9  1  0  0  0  0
  9 10  1  0  0  0  0
  9 11  1  0  0  0  0
  9 12  1  0  0  0  0
 12 13  2  0  0  0  0
 12 14  1  0  0  0  0
 14 15  1  0  0  0  0
 14 16  1  0  0  0  0
 16 17  1  0  0  0  0
 16 18  1  0  0  0  0
 16 19  1  0  0  0  0
M  END
$$$$

  -OEChem-01062216083D

 19 18  0     0  0  0  0  0  0999 V2000
   -2.2412   -4.1441    0.1739 H   0  0  0  0  0  0  0  0  0  0  0  0
   -2.2902   -3.0530    0.2342 C   0  0  0  0  0  0  0  0  0  0  0  0
   -2.6108   -2.7716    1.2402 H   0  0  0  0  0  0  0  0  0  0  0  0
   -3.0252   -2.6946   -0.4904 H   0  0  0  0  0  0  0  0  0  0  0  0
   -0.9285   -2.4524   -0.0650 C   0  0  0  0  0  0  0  0  0  0  0  0
    0.0111   -3.1875   -0.3160 O   0  0  0  0  0  0  0  0  0  0  0  0
   -0.7678   -1.0789   -0.0414 N   0  0  0  0  0  0  0  0  0  0  0  0
   -1.5568   -0.5444    0.3109 H   0  0  0  0  0  0  0  0  0  0  0  0
    0.5424   -0.3998   -0.1332 C   0  0  0  0  0  0  0  0  0  0  0  0
    0.8345   -0.0461    0.8595 H   0  0  0  0  0  0  0  0  0  0  0  0
    1.3165   -1.0978   -0.4689 H   0  0  0  0  0  0  0  0  0  0  0  0
    0.5699    0.7940   -1.0965 C   0  0  0  0  0  0  0  0  0  0  0  0
    1.6371    1.3267   -1.3592 O   0  0  0  0  0  0  0  0  0  0  0  0
   -0.6018    1.3615   -1.5648 N   0  0  0  0  0  0  0  0  0  0  0  0
   -1.4519    0.8229   -1.4406 H   0  0  0  0  0  0  0  0  0  0  0  0
   -0.6207    2.5027   -2.4722 C   0  0  0  0  0  0  0  0  0  0  0  0
   -0.1458    3.3714   -2.0039 H   0  0  0  0  0  0  0  0  0  0  0  0
   -0.0864    2.2661   -3.3984 H   0  0  0  0  0  0  0  0  0  0  0  0
   -1.6515    2.7689   -2.7248 H   0  0  0  0  0  0  0  0  0  0  0  0
  1  2  1  0  0  0  0
  2  3  1  0  0  0  0
  2  4  1  0  0  0  0
  2  5  1  0  0  0  0
  5  6  2  0  0  0  0
  5  7  1  0  0  0  0
  7  8  1  0  0  0  0
  7  9  1  0  0  0  0
  9 10  1  0  0  0  0
  9 11  1  0  0  0  0
  9 12  1  0  0  0  0
 12 13  2  0  0  0  0
 12 14  1  0  0  0  0
 14 15  1  0  0  0  0
 14 16  1  0  0  0  0
 16 17  1  0  0  0  0
 16 18  1  0  0  0  0
 16 19  1  0  0  0  0
M  END
$$$$

  -OEChem-01062216083D

 19 18  0     0  0  0  0  0  0999 V2000
   -2.2546   -4.1332    0.0779 H   0  0  0  0  0  0  0  0  0  0  0  0
   -2.2914   -3.0457    0.1902 C   0  0  0  0  0  0  0  0  0  0  0  0
   -2.6330   -2.8083    1.2005 H   0  0  0  0  0  0  0  0  0  0  0  0
   -3.0041   -2.6433   -0.5336 H   0  0  0  0  0  0  0  0  0  0  0  0
   -0.9158   -2.4493   -0.0473 C   0  0  0  0  0  0  0  0  0  0  0  0
    0.0336   -3.1868   -0.2492 O   0  0  0  0  0  0  0  0  0  0  0  0
   -0.7545   -1.0761   -0.0195 N   0  0  0  0  0  0  0  0  0  0  0  0
   -1.5616   -0.5363    0.2760 H   0  0  0  0  0  0  0  0  0  0  0  0
    0.5524   -0.3934   -0.1248 C   0  0  0  0  0  0  0  0  0  0  0  0
    0.8585   -0.0455    0.8656 H   0  0  0  0  0  0  0  0  0  0  0  0
    1.3221   -1.0896   -0.4749 H   0  0  0  0  0  0  0  0  0  0  0  0
    0.5625    0.8054   -1.0832 C   0  0  0  0  0  0  0  0  0  0  0  0
    1.6138    1.1596   -1.5943 O   0  0  0  0  0  0  0  0  0  0  0  0
   -0.5758    1.5639   -1.2939 N   0  0  0  0  0  0  0  0  0  0  0  0
   -1.4472    1.2185   -0.9096 H   0  0  0  0  0  0  0  0  0  0  0  0
   -0.6096    2.7137   -2.1901 C   0  0  0  0  0  0  0  0  0  0  0  0
    0.0956    3.4818   -1.8556 H   0  0  0  0  0  0  0  0  0  0  0  0
   -0.3454    2.4130   -3.2095 H   0  0  0  0  0  0  0  0  0  0  0  0
   -1.6125    3.1508   -2.2070 H   0  0  0  0  0  0  0  0  0  0  0  0
  1  2  1  0  0  0  0
  2  3  1  0  0  0  0
  2  4  1  0  0  0  0
  2  5  1  0  0  0  0
  5  6  2  0  0  0  0
  5  7  1  0  0  0  0
  7  8  1  0  0  0  0
  7  9  1  0  0  0  0
  9 10  1  0  0  0  0
  9 11  1  0  0  0  0
  9 12  1  0  0  0  0
 12 13  2  0  0  0  0
 12 14  1  0  0  0  0
 14 15  1  0  0  0  0
 14 16  1  0  0  0  0
 16 17  1  0  0  0  0
 16 18  1  0  0  0  0
 16 19  1  0  0  0  0
M  END
$$$$

  -OEChem-01062216083D

 19 18  0     0  0  0  0  0  0999 V2000
   -2.2518   -4.0841    0.1713 H   0  0  0  0  0  0  0  0  0  0  0  0
   -2.2922   -2.9940    0.0890 C   0  0  0  0  0  0  0  0  0  0  0  0
   -2.8734   -2.6007    0.9266 H   0  0  0  0  0  0  0  0  0  0  0  0
   -2.7890   -2.7309   -0.8480 H   0  0  0  0  0  0  0  0  0  0  0  0
   -0.8882   -2.4170    0.1126 C   0  0  0  0  0  0  0  0  0  0  0  0
    0.0715   -3.1676    0.1679 O   0  0  0  0  0  0  0  0  0  0  0  0
   -0.7105   -1.0460    0.0955 N   0  0  0  0  0  0  0  0  0  0  0  0
   -1.5479   -0.4952   -0.0694 H   0  0  0  0  0  0  0  0  0  0  0  0
    0.5993   -0.4029   -0.1312 C   0  0  0  0  0  0  0  0  0  0  0  0
    0.9952   -0.0362    0.8196 H   0  0  0  0  0  0  0  0  0  0  0  0
    1.3212   -1.1246   -0.5293 H   0  0  0  0  0  0  0  0  0  0  0  0
    0.5280    0.7677   -1.1186 C   0  0  0  0  0  0  0  0  0  0  0  0
    1.3605    0.8799   -2.0046 O   0  0  0  0  0  0  0  0  0  0  0  0
   -0.4859    1.7042   -1.0146 N   0  0  0  0  0  0  0  0  0  0  0  0
   -1.0566    1.6780   -0.1761 H   0  0  0  0  0  0  0  0  0  0  0  0
   -0.5615    2.8813   -1.8726 C   0  0  0  0  0  0  0  0  0  0  0  0
    0.3138    3.5224   -1.7234 H   0  0  0  0  0  0  0  0  0  0  0  0
   -0.6054    2.5861   -2.9263 H   0  0  0  0  0  0  0  0  0  0  0  0
   -1.4599    3.4611   -1.6408 H   0  0  0  0  0  0  0  0  0  0  0  0
  1  2  1  0  0  0  0
  2  3  1  0  0  0  0
  2  4  1  0  0  0  0
  2  5  1  0  0  0  0
  5  6  2  0  0  0  0
  5  7  1  0  0  0  0
  7  8  1  0  0  0  0
  7  9  1  0  0  0  0
  9 10  1  0  0  0  0
  9 11  1  0  0  0  0
  9 12  1  0  0  0  0
 12 13  2  0  0  0  0
 12 14  1  0  0  0  0
 14 15  1  0  0  0  0
 14 16  1  0  0  0  0
 16 17  1  0  0  0  0
 16 18  1  0  0  0  0
 16 19  1  0  0  0  0
M  END
$$$$

  -OEChem-01062216083D

 19 18  0     0  0  0  0  0  0999 V2000
   -2.2630   -4.0580    0.1427 H   0  0  0  0  0  0  0  0  0  0  0  0
   -2.2924   -2.9678    0.0587 C   0  0  0  0  0  0  0  0  0  0  0  0
   -2.8895   -2.5685    0.8819 H   0  0  0  0  0  0  0  0  0  0  0  0
   -2.7650   -2.7014   -0.8899 H   0  0  0  0  0  0  0  0  0  0  0  0
   -0.8852   -2.4014    0.1135 C   0  0  0  0  0  0  0  0  0  0  0  0
    0.0695   -3.1578    0.1803 O   0  0  0  0  0  0  0  0  0  0  0  0
   -0.6992   -1.0317    0.1119 N   0  0  0  0  0  0  0  0  0  0  0  0
   -1.5316   -0.4740   -0.0590 H   0  0  0  0  0  0  0  0  0  0  0  0
    0.6127   -0.3959   -0.1136 C   0  0  0  0  0  0  0  0  0  0  0  0
    1.0206   -0.0431    0.8373 H   0  0  0  0  0  0  0  0  0  0  0  0
    1.3275   -1.1154   -0.5285 H   0  0  0  0  0  0  0  0  0  0  0  0
    0.5246    0.7828   -1.0880 C   0  0  0  0  0  0  0  0  0  0  0  0
    1.1368    0.7657   -2.1444 O   0  0  0  0  0  0  0  0  0  0  0  0
   -0.2819    1.8643   -0.7828 N   0  0  0  0  0  0  0  0  0  0  0  0
   -0.6881    1.8962    0.1473 H   0  0  0  0  0  0  0  0  0  0  0  0
   -0.3801    3.0448   -1.6333 C   0  0  0  0  0  0  0  0  0  0  0  0
    0.5983    3.5261   -1.7356 H   0  0  0  0  0  0  0  0  0  0  0  0
   -0.7437    2.7710   -2.6294 H   0  0  0  0  0  0  0  0  0  0  0  0
   -1.0780    3.7673   -1.1992 H   0  0  0  0  0  0  0  0  0  0  0  0
  1  2  1  0  0  0  0
  2  3  1  0  0  0  0
  2  4  1  0  0  0  0
  2  5  1  0  0  0  0
  5  6  2  0  0  0  0
  5  7  1  0  0  0  0
  7  8  1  0  0  0  0
  7  9  1  0  0  0  0
  9 10  1  0  0  0  0
  9 11  1  0  0  0  0
  9 12  1  0  0  0  0
 12 13  2  0  0  0  0
 12 14  1  0  0  0  0
 14 15  1  0  0  0  0
 14 16  1  0  0  0  0
 16 17  1  0  0  0  0
 16 18  1  0  0  0  0
 16 19  1  0  0  0  0
M  END
$$$$

  -OEChem-01062216083D

 19 18  0     0  0  0  0  0  0999 V2000
   -2.2666   -4.0450    0.0749 H   0  0  0  0  0  0  0  0  0  0  0  0
   -2.2951   -2.9521    0.0442 C   0  0  0  0  0  0  0  0  0  0  0  0
   -2.8826   -2.5920    0.8920 H   0  0  0  0  0  0  0  0  0  0  0  0
   -2.7770   -2.6396   -0.8854 H   0  0  0  0  0  0  0  0  0  0  0  0
   -0.8866   -2.3912    0.1114 C   0  0  0  0  0  0  0  0  0  0  0  0
    0.0649   -3.1520    0.1763 O   0  0  0  0  0  0  0  0  0  0  0  0
   -0.6950   -1.0226    0.1279 N   0  0  0  0  0  0  0  0  0  0  0  0
   -1.5237   -0.4585   -0.0415 H   0  0  0  0  0  0  0  0  0  0  0  0
    0.6189   -0.3916   -0.0918 C   0  0  0  0  0  0  0  0  0  0  0  0
    1.0333   -0.0563    0.8625 H   0  0  0  0  0  0  0  0  0  0  0  0
    1.3280   -1.1083   -0.5210 H   0  0  0  0  0  0  0  0  0  0  0  0
    0.5309    0.7994   -1.0508 C   0  0  0  0  0  0  0  0  0  0  0  0
    0.8695    0.6845   -2.2185 O   0  0  0  0  0  0  0  0  0  0  0  0
   -0.0046    1.9959   -0.6107 N   0  0  0  0  0  0  0  0  0  0  0  0
   -0.2301    2.0760    0.3765 H   0  0  0  0  0  0  0  0  0  0  0  0
   -0.1154    3.1776   -1.4580 C   0  0  0  0  0  0  0  0  0  0  0  0
    0.8752    3.5040   -1.7921 H   0  0  0  0  0  0  0  0  0  0  0  0
   -0.7304    2.9616   -2.3381 H   0  0  0  0  0  0  0  0  0  0  0  0
   -0.5819    3.9981   -0.9045 H   0  0  0  0  0  0  0  0  0  0  0  0
  1  2  1  0  0  0  0
  2  3  1  0  0  0  0
  2  4  1  0  0  0  0
  2  5  1  0  0  0  0
  5  6  2  0  0  0  0
  5  7  1  0  0  0  0
  7  8  1  0  0  0  0
  7  9  1  0  0  0  0
  9 10  1  0  0  0  0
  9 11  1  0  0  0  0
  9 12  1  0  0  0  0
 12 13  2  0  0  0  0
 12 14  1  0  0  0  0
 14 15  1  0  0  0  0
 14 16  1  0  0  0  0
 16 17  1  0  0  0  0
 16 18  1  0  0  0  0
 16 19  1  0  0  0  0
M  END
$$$$

  -OEChem-01062216083D

 19 18  0     0  0  0  0  0  0999 V2000
   -2.2784   -4.0198    0.0537 H   0  0  0  0  0  0  0  0  0  0  0  0
   -2.2938   -2.9272    0.0077 C   0  0  0  0  0  0  0  0  0  0  0  0
   -2.9106   -2.5492    0.8266 H   0  0  0  0  0  0  0  0  0  0  0  0
   -2.7349   -2.6219   -0.9443 H   0  0  0  0  0  0  0  0  0  0  0  0
   -0.8833   -2.3789    0.1231 C   0  0  0  0  0  0  0  0  0  0  0  0
    0.0611   -3.1471    0.2112 O   0  0  0  0  0  0  0  0  0  0  0  0
   -0.6822   -1.0124    0.1562 N   0  0  0  0  0  0  0  0  0  0  0  0
   -1.5015   -0.4453   -0.0468 H   0  0  0  0  0  0  0  0  0  0  0  0
    0.6369   -0.3952   -0.0651 C   0  0  0  0  0  0  0  0  0  0  0  0
    1.0636   -0.0816    0.8912 H   0  0  0  0  0  0  0  0  0  0  0  0
    1.3335   -1.1123   -0.5129 H   0  0  0  0  0  0  0  0  0  0  0  0
    0.5526    0.8079   -1.0092 C   0  0  0  0  0  0  0  0  0  0  0  0
    0.5508    0.6430   -2.2195 O   0  0  0  0  0  0  0  0  0  0  0  0
    0.3346    2.0731   -0.4964 N   0  0  0  0  0  0  0  0  0  0  0  0
    0.3238    2.1791    0.5138 H   0  0  0  0  0  0  0  0  0  0  0  0
    0.1820    3.2573   -1.3334 C   0  0  0  0  0  0  0  0  0  0  0  0
    1.0655    3.3967   -1.9653 H   0  0  0  0  0  0  0  0  0  0  0  0
   -0.6995    3.1607   -1.9760 H   0  0  0  0  0  0  0  0  0  0  0  0
    0.0597    4.1486   -0.7104 H   0  0  0  0  0  0  0  0  0  0  0  0
  1  2  1  0  0  0  0
  2  3  1  0  0  0  0
  2  4  1  0  0  0  0
  2  5  1  0  0  0  0
  5  6  2  0  0  0  0
  5  7  1  0  0  0  0
  7  8  1  0  0  0  0
  7  9  1  0  0  0  0
  9 10  1  0  0  0  0
  9 11  1  0  0  0  0
  9 12  1  0  0  0  0
 12 13  2  0  0  0  0
 12 14  1  0  0  0  0
 14 15  1  0  0  0  0
 14 16  1  0  0  0  0
 16 17  1  0  0  0  0
 16 18  1  0  0  0  0
 16 19  1  0  0  0  0
M  END
$$$$

  -OEChem-01062216083D

 19 18  0     0  0  0  0  0  0999 V2000
   -2.2906   -4.0062    0.0525 H   0  0  0  0  0  0  0  0  0  0  0  0
   -2.2978   -2.9139   -0.0002 C   0  0  0  0  0  0  0  0  0  0  0  0
   -2.9199   -2.5268    0.8104 H   0  0  0  0  0  0  0  0  0  0  0  0
   -2.7277   -2.6107   -0.9581 H   0  0  0  0  0  0  0  0  0  0  0  0
   -0.8848   -2.3748    0.1257 C   0  0  0  0  0  0  0  0  0  0  0  0
    0.0554   -3.1489    0.2126 O   0  0  0  0  0  0  0  0  0  0  0  0
   -0.6760   -1.0102    0.1719 N   0  0  0  0  0  0  0  0  0  0  0  0
   -1.4883   -0.4399   -0.0518 H   0  0  0  0  0  0  0  0  0  0  0  0
    0.6461   -0.4016   -0.0517 C   0  0  0  0  0  0  0  0  0  0  0  0
    1.0790   -0.1026    0.9065 H   0  0  0  0  0  0  0  0  0  0  0  0
    1.3347   -1.1185   -0.5118 H   0  0  0  0  0  0  0  0  0  0  0  0
    0.5651    0.8121   -0.9833 C   0  0  0  0  0  0  0  0  0  0  0  0
    0.2462    0.6642   -2.1537 O   0  0  0  0  0  0  0  0  0  0  0  0
    0.6731    2.0906   -0.4684 N   0  0  0  0  0  0  0  0  0  0  0  0
    0.9050    2.1863    0.5160 H   0  0  0  0  0  0  0  0  0  0  0  0
    0.5266    3.2942   -1.2789 C   0  0  0  0  0  0  0  0  0  0  0  0
    1.2952    3.3265   -2.0585 H   0  0  0  0  0  0  0  0  0  0  0  0
   -0.4595    3.3196   -1.7549 H   0  0  0  0  0  0  0  0  0  0  0  0
    0.6303    4.1864   -0.6537 H   0  0  0  0  0  0  0  0  0  0  0  0
  1  2  1  0  0  0  0
  2  3  1  0  0  0  0
  2  4  1  0  0  0  0
  2  5  1  0  0  0  0
  5  6  2  0  0  0  0
  5  7  1  0  0  0  0
  7  8  1  0  0  0  0
  7  9  1  0  0  0  0
  9 10  1  0  0  0  0
  9 11  1  0  0  0  0
  9 12  1  0  0  0  0
 12 13  2  0  0  0  0
 12 14  1  0  0  0  0
 14 15  1  0  0  0  0
 14 16  1  0  0  0  0
 16 17  1  0  0  0  0
 16 18  1  0  0  0  0
 16 19  1  0  0  0  0
M  END
$$$$

  -OEChem-01062216083D

 19 18  0     0  0  0  0  0  0999 V2000
   -2.2968   -3.9959    0.0222 H   0  0  0  0  0  0  0  0  0  0  0  0
   -2.3000   -2.9029   -0.0151 C   0  0  0  0  0  0  0  0  0  0  0  0
   -2.9311   -2.5252    0.7929 H   0  0  0  0  0  0  0  0  0  0  0  0
   -2.7171   -2.5848   -0.9737 H   0  0  0  0  0  0  0  0  0  0  0  0
   -0.8868   -2.3704    0.1361 C   0  0  0  0  0  0  0  0  0  0  0  0
    0.0493   -3.1491    0.2298 O   0  0  0  0  0  0  0  0  0  0  0  0
   -0.6708   -1.0075    0.1907 N   0  0  0  0  0  0  0  0  0  0  0  0
   -1.4736   -0.4346   -0.0607 H   0  0  0  0  0  0  0  0  0  0  0  0
    0.6553   -0.4084   -0.0333 C   0  0  0  0  0  0  0  0  0  0  0  0
    1.0875   -0.1168    0.9273 H   0  0  0  0  0  0  0  0  0  0  0  0
    1.3388   -1.1271   -0.4969 H   0  0  0  0  0  0  0  0  0  0  0  0
    0.5826    0.8124   -0.9577 C   0  0  0  0  0  0  0  0  0  0  0  0
   -0.0148    0.7355   -2.0221 O   0  0  0  0  0  0  0  0  0  0  0  0
    1.0048    2.0504   -0.5101 N   0  0  0  0  0  0  0  0  0  0  0  0
    1.4634    2.0959    0.3952 H   0  0  0  0  0  0  0  0  0  0  0  0
    0.8745    3.2716   -1.2962 C   0  0  0  0  0  0  0  0  0  0  0  0
    1.4406    3.1879   -2.2298 H   0  0  0  0  0  0  0  0  0  0  0  0
   -0.1767    3.4631   -1.5367 H   0  0  0  0  0  0  0  0  0  0  0  0
    1.2603    4.1271   -0.7334 H   0  0  0  0  0  0  0  0  0  0  0  0
  1  2  1  0  0  0  0
  2  3  1  0  0  0  0
  2  4  1  0  0  0  0
  2  5  1  0  0  0  0
  5  6  2  0  0  0  0
  5  7  1  0  0  0  0
  7  8  1  0  0  0  0
  7  9  1  0  0  0  0
  9 10  1  0  0  0  0
  9 11  1  0  0  0  0
  9 12  1  0  0  0  0
 12 13  2  0  0  0  0
 12 14  1  0  0  0  0
 14 15  1  0  0  0  0
 14 16  1  0  0  0  0
 16 17  1  0  0  0  0
 16 18  1  0  0  0  0
 16 19  1  0  0  0  0
M  END
$$$$

  -OEChem-01062216083D

 19 18  0     0  0  0  0  0  0999 V2000
   -2.3071   -3.9866    0.0036 H   0  0  0  0  0  0  0  0  0  0  0  0
   -2.3043   -2.8933   -0.0238 C   0  0  0  0  0  0  0  0  0  0  0  0
   -2.9375   -2.5193    0.7844 H   0  0  0  0  0  0  0  0  0  0  0  0
   -2.7143   -2.5641   -0.9818 H   0  0  0  0  0  0  0  0  0  0  0  0
   -0.8892   -2.3698    0.1399 C   0  0  0  0  0  0  0  0  0  0  0  0
    0.0426   -3.1536    0.2351 O   0  0  0  0  0  0  0  0  0  0  0  0
   -0.6665   -1.0084    0.1977 N   0  0  0  0  0  0  0  0  0  0  0  0
   -1.4606   -0.4314   -0.0741 H   0  0  0  0  0  0  0  0  0  0  0  0
    0.6636   -0.4150   -0.0152 C   0  0  0  0  0  0  0  0  0  0  0  0
    1.0847   -0.1239    0.9507 H   0  0  0  0  0  0  0  0  0  0  0  0
    1.3482   -1.1370   -0.4715 H   0  0  0  0  0  0  0  0  0  0  0  0
    0.6065    0.8085   -0.9389 C   0  0  0  0  0  0  0  0  0  0  0  0
   -0.1917    0.8364   -1.8664 O   0  0  0  0  0  0  0  0  0  0  0  0
    1.3029    1.9576   -0.6146 N   0  0  0  0  0  0  0  0  0  0  0  0
    1.9301    1.9227    0.1837 H   0  0  0  0  0  0  0  0  0  0  0  0
    1.2079    3.1933   -1.3826 C   0  0  0  0  0  0  0  0  0  0  0  0
    1.5243    3.0262   -2.4175 H   0  0  0  0  0  0  0  0  0  0  0  0
    0.1780    3.5653   -1.3843 H   0  0  0  0  0  0  0  0  0  0  0  0
    1.8517    3.9618   -0.9441 H   0  0  0  0  0  0  0  0  0  0  0  0
  1  2  1  0  0  0  0
  2  3  1  0  0  0  0
  2  4  1  0  0  0  0
  2  5  1  0  0  0  0
  5  6  2  0  0  0  0
  5  7  1  0  0  0  0
  7  8  1  0  0  0  0
  7  9  1  0  0  0  0
  9 10  1  0  0  0  0
  9 11  1  0  0  0  0
  9 12  1  0  0  0  0
 12 13  2  0  0  0  0
 12 14  1  0  0  0  0
 14 15  1  0  0  0  0
 14 16  1  0  0  0  0
 16 17  1  0  0  0  0
 16 18  1  0  0  0  0
 16 19  1  0  0  0  0
M  END
$$$$

  -OEChem-01062216083D

 19 18  0     0  0  0  0  0  0999 V2000
   -2.3237   -3.9799    0.0079 H   0  0  0  0  0  0  0  0  0  0  0  0
   -2.3113   -2.8869   -0.0231 C   0  0  0  0  0  0  0  0  0  0  0  0
   -2.9370   -2.5047    0.7870 H   0  0  0  0  0  0  0  0  0  0  0  0
   -2.7233   -2.5566   -0.9798 H   0  0  0  0  0  0  0  0  0  0  0  0
   -0.8914   -2.3744    0.1315 C   0  0  0  0  0  0  0  0  0  0  0  0
    0.0375   -3.1641    0.2057 O   0  0  0  0  0  0  0  0  0  0  0  0
   -0.6599   -1.0152    0.1972 N   0  0  0  0  0  0  0  0  0  0  0  0
   -1.4505   -0.4271   -0.0636 H   0  0  0  0  0  0  0  0  0  0  0  0
    0.6718   -0.4218   -0.0036 C   0  0  0  0  0  0  0  0  0  0  0  0
    1.0834   -0.1326    0.9670 H   0  0  0  0  0  0  0  0  0  0  0  0
    1.3598   -1.1431   -0.4560 H   0  0  0  0  0  0  0  0  0  0  0  0
    0.6244    0.8078   -0.9208 C   0  0  0  0  0  0  0  0  0  0  0  0
   -0.3103    0.9594   -1.6978 O   0  0  0  0  0  0  0  0  0  0  0  0
    1.5438    1.8273   -0.7619 N   0  0  0  0  0  0  0  0  0  0  0  0
    2.2938    1.6888   -0.0908 H   0  0  0  0  0  0  0  0  0  0  0  0
    1.5082    3.0630   -1.5348 C   0  0  0  0  0  0  0  0  0  0  0  0
    1.5985    2.8485   -2.6048 H   0  0  0  0  0  0  0  0  0  0  0  0
    0.5684    3.5973   -1.3603 H   0  0  0  0  0  0  0  0  0  0  0  0
    2.3359    3.7161   -1.2424 H   0  0  0  0  0  0  0  0  0  0  0  0
  1  2  1  0  0  0  0
  2  3  1  0  0  0  0
  2  4  1  0  0  0  0
  2  5  1  0  0  0  0
  5  6  2  0  0  0  0
  5  7  1  0  0  0  0
  7  8  1  0  0  0  0
  7  9  1  0  0  0  0
  9 10  1  0  0  0  0
  9 11  1  0  0  0  0
  9 12  1  0  0  0  0
 12 13  2  0  0  0  0
 12 14  1  0  0  0  0
 14 15  1  0  0  0  0
 14 16  1  0  0  0  0
 16 17  1  0  0  0  0
 16 18  1  0  0  0  0
 16 19  1  0  0  0  0
M  END
$$$$

  -OEChem-01062216083D

 19 18  0     0  0  0  0  0  0999 V2000
   -2.3395   -3.9740    0.0166 H   0  0  0  0  0  0  0  0  0  0  0  0
   -2.3200   -2.8814   -0.0228 C   0  0  0  0  0  0  0  0  0  0  0  0
   -2.9377   -2.4890    0.7885 H   0  0  0  0  0  0  0  0  0  0  0  0
   -2.7365   -2.5554   -0.9791 H   0  0  0  0  0  0  0  0  0  0  0  0
   -0.8957   -2.3776    0.1193 C   0  0  0  0  0  0  0  0  0  0  0  0
    0.0297   -3.1731    0.1731 O   0  0  0  0  0  0  0  0  0  0  0  0
   -0.6543   -1.0207    0.1928 N   0  0  0  0  0  0  0  0  0  0  0  0
   -1.4425   -0.4194   -0.0462 H   0  0  0  0  0  0  0  0  0  0  0  0
    0.6803   -0.4286    0.0083 C   0  0  0  0  0  0  0  0  0  0  0  0
    1.0838   -0.1433    0.9835 H   0  0  0  0  0  0  0  0  0  0  0  0
    1.3693   -1.1515   -0.4399 H   0  0  0  0  0  0  0  0  0  0  0  0
    0.6480    0.8064   -0.9030 C   0  0  0  0  0  0  0  0  0  0  0  0
   -0.3728    1.0932   -1.5173 O   0  0  0  0  0  0  0  0  0  0  0  0
    1.7292    1.6663   -0.9454 N   0  0  0  0  0  0  0  0  0  0  0  0
    2.5599    1.4099   -0.4197 H   0  0  0  0  0  0  0  0  0  0  0  0
    1.7482    2.8868   -1.7429 C   0  0  0  0  0  0  0  0  0  0  0  0
    1.6232    2.6523   -2.8053 H   0  0  0  0  0  0  0  0  0  0  0  0
    0.9420    3.5601   -1.4332 H   0  0  0  0  0  0  0  0  0  0  0  0
    2.7013    3.4085   -1.6139 H   0  0  0  0  0  0  0  0  0  0  0  0
  1  2  1  0  0  0  0
  2  3  1  0  0  0  0
  2  4  1  0  0  0  0
  2  5  1  0  0  0  0
  5  6  2  0  0  0  0
  5  7  1  0  0  0  0
  7  8  1  0  0  0  0
  7  9  1  0  0  0  0
  9 10  1  0  0  0  0
  9 11  1  0  0  0  0
  9 12  1  0  0  0  0
 12 13  2  0  0  0  0
 12 14  1  0  0  0  0
 14 15  1  0  0  0  0
 14 16  1  0  0  0  0
 16 17  1  0  0  0  0
 16 18  1  0  0  0  0
 16 19  1  0  0  0  0
M  END
$$$$

  -OEChem-01062216083D

 19 18  0     0  0  0  0  0  0999 V2000
   -2.3279   -4.0012    0.0563 H   0  0  0  0  0  0  0  0  0  0  0  0
   -2.3245   -2.9081    0.0298 C   0  0  0  0  0  0  0  0  0  0  0  0
   -2.8805   -2.5335    0.8926 H   0  0  0  0  0  0  0  0  0  0  0  0
   -2.8193   -2.5758   -0.8859 H   0  0  0  0  0  0  0  0  0  0  0  0
   -0.8995   -2.3876    0.0655 C   0  0  0  0  0  0  0  0  0  0  0  0
    0.0396   -3.1680    0.0344 O   0  0  0  0  0  0  0  0  0  0  0  0
   -0.6663   -1.0303    0.1354 N   0  0  0  0  0  0  0  0  0  0  0  0
   -1.4699   -0.4128    0.0172 H   0  0  0  0  0  0  0  0  0  0  0  0
    0.6597   -0.4184   -0.0303 C   0  0  0  0  0  0  0  0  0  0  0  0
    1.1609   -0.3670    0.9401 H   0  0  0  0  0  0  0  0  0  0  0  0
    1.2764   -1.0287   -0.6978 H   0  0  0  0  0  0  0  0  0  0  0  0
    0.5782    0.9937   -0.6261 C   0  0  0  0  0  0  0  0  0  0  0  0
   -0.5115    1.4954   -0.8774 O   0  0  0  0  0  0  0  0  0  0  0  0
    1.7312    1.7209   -0.8520 N   0  0  0  0  0  0  0  0  0  0  0  0
    2.6205    1.2811   -0.6325 H   0  0  0  0  0  0  0  0  0  0  0  0
    1.7277    3.0716   -1.4009 C   0  0  0  0  0  0  0  0  0  0  0  0
    1.2639    3.0815   -2.3929 H   0  0  0  0  0  0  0  0  0  0  0  0
    1.1720    3.7502   -0.7453 H   0  0  0  0  0  0  0  0  0  0  0  0
    2.7521    3.4443   -1.4953 H   0  0  0  0  0  0  0  0  0  0  0  0
  1  2  1  0  0  0  0
  2  3  1  0  0  0  0
  2  4  1  0  0  0  0
  2  5  1  0  0  0  0
  5  6  2  0  0  0  0
  5  7  1  0  0  0  0
  7  8  1  0  0  0  0
  7  9  1  0  0  0  0
  9 10  1  0  0  0  0
  9 11  1  0  0  0  0
  9 12  1  0  0  0  0
 12 13  2  0  0  0  0
 12 14  1  0  0  0  0
 14 15  1  0  0  0  0
 14 16  1  0  0  0  0
 16 17  1  0  0  0  0
 16 18  1  0  0  0  0
 16 19  1  0  0  0  0
M  END
$$$$

  -OEChem-01062216083D

 19 18  0     0  0  0  0  0  0999 V2000
   -2.3437   -3.9903    0.0434 H   0  0  0  0  0  0  0  0  0  0  0  0
   -2.3327   -2.8968    0.0318 C   0  0  0  0  0  0  0  0  0  0  0  0
   -2.8710   -2.5302    0.9092 H   0  0  0  0  0  0  0  0  0  0  0  0
   -2.8408   -2.5481   -0.8706 H   0  0  0  0  0  0  0  0  0  0  0  0
   -0.9034   -2.3875    0.0495 C   0  0  0  0  0  0  0  0  0  0  0  0
    0.0287   -3.1749   -0.0038 O   0  0  0  0  0  0  0  0  0  0  0  0
   -0.6579   -1.0323    0.1183 N   0  0  0  0  0  0  0  0  0  0  0  0
   -1.4585   -0.4034    0.0539 H   0  0  0  0  0  0  0  0  0  0  0  0
    0.6736   -0.4262   -0.0210 C   0  0  0  0  0  0  0  0  0  0  0  0
    1.1567   -0.3709    0.9584 H   0  0  0  0  0  0  0  0  0  0  0  0
    1.2999   -1.0435   -0.6727 H   0  0  0  0  0  0  0  0  0  0  0  0
    0.6088    0.9833   -0.6238 C   0  0  0  0  0  0  0  0  0  0  0  0
   -0.4622    1.5754   -0.6900 O   0  0  0  0  0  0  0  0  0  0  0  0
    1.7523    1.5848   -1.1137 N   0  0  0  0  0  0  0  0  0  0  0  0
    2.6209    1.0595   -1.0687 H   0  0  0  0  0  0  0  0  0  0  0  0
    1.7575    2.9063   -1.7295 C   0  0  0  0  0  0  0  0  0  0  0  0
    1.1002    2.9235   -2.6054 H   0  0  0  0  0  0  0  0  0  0  0  0
    1.4140    3.6628   -1.0161 H   0  0  0  0  0  0  0  0  0  0  0  0
    2.7696    3.1695   -2.0519 H   0  0  0  0  0  0  0  0  0  0  0  0
  1  2  1  0  0  0  0
  2  3  1  0  0  0  0
  2  4  1  0  0  0  0
  2  5  1  0  0  0  0
  5  6  2  0  0  0  0
  5  7  1  0  0  0  0
  7  8  1  0  0  0  0
  7  9  1  0  0  0  0
  9 10  1  0  0  0  0
  9 11  1  0  0  0  0
  9 12  1  0  0  0  0
 12 13  2  0  0  0  0
 12 14  1  0  0  0  0
 14 15  1  0  0  0  0
 14 16  1  0  0  0  0
 16 17  1  0  0  0  0
 16 18  1  0  0  0  0
 16 19  1  0  0  0  0
M  END
$$$$

  -OEChem-01062216083D

 19 18  0     0  0  0  0  0  0999 V2000
   -2.2630   -4.0489   -0.0354 H   0  0  0  0  0  0  0  0  0  0  0  0
   -2.2971   -2.9560   -0.0215 C   0  0  0  0  0  0  0  0  0  0  0  0
   -2.8793   -2.6328    0.8449 H   0  0  0  0  0  0  0  0  0  0  0  0
   -2.7890   -2.6077   -0.9330 H   0  0  0  0  0  0  0  0  0  0  0  0
   -0.8917   -2.3891    0.0580 C   0  0  0  0  0  0  0  0  0  0  0  0
    0.0696   -3.1403    0.1155 O   0  0  0  0  0  0  0  0  0  0  0  0
   -0.7003   -1.0234    0.0621 N   0  0  0  0  0  0  0  0  0  0  0  0
   -1.5190   -0.4259   -0.0523 H   0  0  0  0  0  0  0  0  0  0  0  0
    0.6148   -0.3681    0.0416 C   0  0  0  0  0  0  0  0  0  0  0  0
    0.9732   -0.2264    1.0648 H   0  0  0  0  0  0  0  0  0  0  0  0
    1.3384   -0.9990   -0.4839 H   0  0  0  0  0  0  0  0  0  0  0  0
    0.5694    0.9949   -0.6609 C   0  0  0  0  0  0  0  0  0  0  0  0
   -0.4772    1.6311   -0.6763 O   0  0  0  0  0  0  0  0  0  0  0  0
    1.6875    1.4713   -1.3223 N   0  0  0  0  0  0  0  0  0  0  0  0
    2.5175    0.8853   -1.3082 H   0  0  0  0  0  0  0  0  0  0  0  0
    1.7457    2.7333   -2.0564 C   0  0  0  0  0  0  0  0  0  0  0  0
    0.7914    3.2695   -2.0310 H   0  0  0  0  0  0  0  0  0  0  0  0
    2.5097    3.3846   -1.6208 H   0  0  0  0  0  0  0  0  0  0  0  0
    1.9983    2.5453   -3.1044 H   0  0  0  0  0  0  0  0  0  0  0  0
  1  2  1  0  0  0  0
  2  3  1  0  0  0  0
  2  4  1  0  0  0  0
  2  5  1  0  0  0  0
  5  6  2  0  0  0  0
  5  7  1  0  0  0  0
  7  8  1  0  0  0  0
  7  9  1  0  0  0  0
  9 10  1  0  0  0  0
  9 11  1  0  0  0  0
  9 12  1  0  0  0  0
 12 13  2  0  0  0  0
 12 14  1  0  0  0  0
 14 15  1  0  0  0  0
 14 16  1  0  0  0  0
 16 17  1  0  0  0  0
 16 18  1  0  0  0  0
 16 19  1  0  0  0  0
M  END
$$$$

  -OEChem-01062216083D

 19 18  0     0  0  0  0  0  0999 V2000
   -2.1839   -4.0938   -0.0398 H   0  0  0  0  0  0  0  0  0  0  0  0
   -2.2516   -3.0030   -0.0795 C   0  0  0  0  0  0  0  0  0  0  0  0
   -2.8933   -2.6600    0.7357 H   0  0  0  0  0  0  0  0  0  0  0  0
   -2.6992   -2.7125   -1.0332 H   0  0  0  0  0  0  0  0  0  0  0  0
   -0.8708   -2.3872    0.0539 C   0  0  0  0  0  0  0  0  0  0  0  0
    0.1074   -3.1035    0.2003 O   0  0  0  0  0  0  0  0  0  0  0  0
   -0.7213   -1.0168    0.0062 N   0  0  0  0  0  0  0  0  0  0  0  0
   -1.5550   -0.4494   -0.1438 H   0  0  0  0  0  0  0  0  0  0  0  0
    0.5667   -0.3146    0.0902 C   0  0  0  0  0  0  0  0  0  0  0  0
    0.8087   -0.1057    1.1360 H   0  0  0  0  0  0  0  0  0  0  0  0
    1.3645   -0.9423   -0.3186 H   0  0  0  0  0  0  0  0  0  0  0  0
    0.5448    1.0069   -0.6862 C   0  0  0  0  0  0  0  0  0  0  0  0
   -0.4542    1.7140   -0.6471 O   0  0  0  0  0  0  0  0  0  0  0  0
    1.5980    1.3563   -1.5101 N   0  0  0  0  0  0  0  0  0  0  0  0
    2.3862    0.7175   -1.5679 H   0  0  0  0  0  0  0  0  0  0  0  0
    1.6017    2.5587   -2.3344 C   0  0  0  0  0  0  0  0  0  0  0  0
    1.5126    3.4526   -1.7081 H   0  0  0  0  0  0  0  0  0  0  0  0
    2.5355    2.6260   -2.9009 H   0  0  0  0  0  0  0  0  0  0  0  0
    0.7676    2.5401   -3.0438 H   0  0  0  0  0  0  0  0  0  0  0  0
  1  2  1  0  0  0  0
  2  3  1  0  0  0  0
  2  4  1  0  0  0  0
  2  5  1  0  0  0  0
  5  6  2  0  0  0  0
  5  7  1  0  0  0  0
  7  8  1  0  0  0  0
  7  9  1  0  0  0  0
  9 10  1  0  0  0  0
  9 11  1  0  0  0  0
  9 12  1  0  0  0  0
 12 13  2  0  0  0  0
 12 14  1  0  0  0  0
 14 15  1  0  0  0  0
 14 16  1  0  0  0  0
 16 17  1  0  0  0  0
 16 18  1  0  0  0  0
 16 19  1  0  0  0  0
M  END
$$$$

  -OEChem-01062216083D

 19 18  0     0  0  0  0  0  0999 V2000
   -2.1777   -4.0985   -0.0432 H   0  0  0  0  0  0  0  0  0  0  0  0
   -2.2522   -3.0075   -0.0573 C   0  0  0  0  0  0  0  0  0  0  0  0
   -2.8581   -2.6849    0.7929 H   0  0  0  0  0  0  0  0  0  0  0  0
   -2.7438   -2.7003   -0.9835 H   0  0  0  0  0  0  0  0  0  0  0  0
   -0.8696   -2.3874    0.0269 C   0  0  0  0  0  0  0  0  0  0  0  0
    0.1154   -3.1009    0.1342 O   0  0  0  0  0  0  0  0  0  0  0  0
   -0.7271   -1.0160   -0.0219 N   0  0  0  0  0  0  0  0  0  0  0  0
   -1.5716   -0.4510   -0.1002 H   0  0  0  0  0  0  0  0  0  0  0  0
    0.5567   -0.3079    0.0800 C   0  0  0  0  0  0  0  0  0  0  0  0
    0.7793   -0.0915    1.1287 H   0  0  0  0  0  0  0  0  0  0  0  0
    1.3679   -0.9308   -0.3091 H   0  0  0  0  0  0  0  0  0  0  0  0
    0.5362    1.0097   -0.7007 C   0  0  0  0  0  0  0  0  0  0  0  0
   -0.3497    1.8245   -0.4800 O   0  0  0  0  0  0  0  0  0  0  0  0
    1.4271    1.2307   -1.7339 N   0  0  0  0  0  0  0  0  0  0  0  0
    2.0993    0.4977   -1.9426 H   0  0  0  0  0  0  0  0  0  0  0  0
    1.3892    2.4163   -2.5814 C   0  0  0  0  0  0  0  0  0  0  0  0
    1.5065    3.3224   -1.9776 H   0  0  0  0  0  0  0  0  0  0  0  0
    2.2009    2.3832   -3.3146 H   0  0  0  0  0  0  0  0  0  0  0  0
    0.4376    2.4722   -3.1205 H   0  0  0  0  0  0  0  0  0  0  0  0
  1  2  1  0  0  0  0
  2  3  1  0  0  0  0
  2  4  1  0  0  0  0
  2  5  1  0  0  0  0
  5  6  2  0  0  0  0
  5  7  1  0  0  0  0
  7  8  1  0  0  0  0
  7  9  1  0  0  0  0
  9 10  1  0  0  0  0
  9 11  1  0  0  0  0
  9 12  1  0  0  0  0
 12 13  2  0  0  0  0
 12 14  1  0  0  0  0
 14 15  1  0  0  0  0
 14 16  1  0  0  0  0
 16 17  1  0  0  0  0
 16 18  1  0  0  0  0
 16 19  1  0  0  0  0
M  END
$$$$

  -OEChem-01062216083D

 19 18  0     0  0  0  0  0  0999 V2000
   -2.1669   -4.1110   -0.0094 H   0  0  0  0  0  0  0  0  0  0  0  0
   -2.2508   -3.0207   -0.0327 C   0  0  0  0  0  0  0  0  0  0  0  0
   -2.8368   -2.6945    0.8301 H   0  0  0  0  0  0  0  0  0  0  0  0
   -2.7689   -2.7272   -0.9489 H   0  0  0  0  0  0  0  0  0  0  0  0
   -0.8712   -2.3891    0.0087 C   0  0  0  0  0  0  0  0  0  0  0  0
    0.1220   -3.0955    0.0811 O   0  0  0  0  0  0  0  0  0  0  0  0
   -0.7414   -1.0162   -0.0438 N   0  0  0  0  0  0  0  0  0  0  0  0
   -1.5950   -0.4608   -0.0641 H   0  0  0  0  0  0  0  0  0  0  0  0
    0.5374   -0.2993    0.0669 C   0  0  0  0  0  0  0  0  0  0  0  0
    0.7491   -0.0781    1.1172 H   0  0  0  0  0  0  0  0  0  0  0  0
    1.3589   -0.9155   -0.3111 H   0  0  0  0  0  0  0  0  0  0  0  0
    0.5157    1.0146   -0.7177 C   0  0  0  0  0  0  0  0  0  0  0  0
   -0.1953    1.9321   -0.3328 O   0  0  0  0  0  0  0  0  0  0  0  0
    1.1857    1.1243   -1.9212 N   0  0  0  0  0  0  0  0  0  0  0  0
    1.6976    0.3104   -2.2505 H   0  0  0  0  0  0  0  0  0  0  0  0
    1.1236    2.3102   -2.7662 C   0  0  0  0  0  0  0  0  0  0  0  0
    1.4646    3.1925   -2.2144 H   0  0  0  0  0  0  0  0  0  0  0  0
    1.7656    2.1833   -3.6430 H   0  0  0  0  0  0  0  0  0  0  0  0
    0.0983    2.4834   -3.1093 H   0  0  0  0  0  0  0  0  0  0  0  0
  1  2  1  0  0  0  0
  2  3  1  0  0  0  0
  2  4  1  0  0  0  0
  2  5  1  0  0  0  0
  5  6  2  0  0  0  0
  5  7  1  0  0  0  0
  7  8  1  0  0  0  0
  7  9  1  0  0  0  0
  9 10  1  0  0  0  0
  9 11  1  0  0  0  0
  9 12  1  0  0  0  0
 12 13  2  0  0  0  0
 12 14  1  0  0  0  0
 14 15  1  0  0  0  0
 14 16  1  0  0  0  0
 16 17  1  0  0  0  0
 16 18  1  0  0  0  0
 16 19  1  0  0  0  0
M  END
$$$$

  -OEChem-01062216083D

 19 18  0     0  0  0  0  0  0999 V2000
   -2.1465   -4.1301   -0.0259 H   0  0  0  0  0  0  0  0  0  0  0  0
   -2.2447   -3.0408   -0.0101 C   0  0  0  0  0  0  0  0  0  0  0  0
   -2.8005   -2.7505    0.8849 H   0  0  0  0  0  0  0  0  0  0  0  0
   -2.8021   -2.7256   -0.8955 H   0  0  0  0  0  0  0  0  0  0  0  0
   -0.8727   -2.3917   -0.0009 C   0  0  0  0  0  0  0  0  0  0  0  0
    0.1303   -3.0857    0.0469 O   0  0  0  0  0  0  0  0  0  0  0  0
   -0.7619   -1.0170   -0.0585 N   0  0  0  0  0  0  0  0  0  0  0  0
   -1.6248   -0.4773   -0.0353 H   0  0  0  0  0  0  0  0  0  0  0  0
    0.5085   -0.2854    0.0610 C   0  0  0  0  0  0  0  0  0  0  0  0
    0.7074   -0.0598    1.1130 H   0  0  0  0  0  0  0  0  0  0  0  0
    1.3424   -0.8911   -0.3071 H   0  0  0  0  0  0  0  0  0  0  0  0
    0.4826    1.0249   -0.7285 C   0  0  0  0  0  0  0  0  0  0  0  0
    0.0033    2.0282   -0.2207 O   0  0  0  0  0  0  0  0  0  0  0  0
    0.8906    1.0498   -2.0482 N   0  0  0  0  0  0  0  0  0  0  0  0
    1.2208    0.1782   -2.4538 H   0  0  0  0  0  0  0  0  0  0  0  0
    0.8191    2.2397   -2.8870 C   0  0  0  0  0  0  0  0  0  0  0  0
    1.4198    3.0481   -2.4569 H   0  0  0  0  0  0  0  0  0  0  0  0
    1.2024    2.0200   -3.8881 H   0  0  0  0  0  0  0  0  0  0  0  0
   -0.2171    2.5815   -2.9805 H   0  0  0  0  0  0  0  0  0  0  0  0
  1  2  1  0  0  0  0
  2  3  1  0  0  0  0
  2  4  1  0  0  0  0
  2  5  1  0  0  0  0
  5  6  2  0  0  0  0
  5  7  1  0  0  0  0
  7  8  1  0  0  0  0
  7  9  1  0  0  0  0
  9 10  1  0  0  0  0
  9 11  1  0  0  0  0
  9 12  1  0  0  0  0
 12 13  2  0  0  0  0
 12 14  1  0  0  0  0
 14 15  1  0  0  0  0
 14 16  1  0  0  0  0
 16 17  1  0  0  0  0
 16 18  1  0  0  0  0
 16 19  1  0  0  0  0
M  END
$$$$

  -OEChem-01062216083D

 19 18  0     0  0  0  0  0  0999 V2000
   -2.1284   -4.1484    0.0164 H   0  0  0  0  0  0  0  0  0  0  0  0
   -2.2381   -3.0603    0.0066 C   0  0  0  0  0  0  0  0  0  0  0  0
   -2.7955   -2.7554    0.8955 H   0  0  0  0  0  0  0  0  0  0  0  0
   -2.8003   -2.7721   -0.8850 H   0  0  0  0  0  0  0  0  0  0  0  0
   -0.8732   -2.3966   -0.0028 C   0  0  0  0  0  0  0  0  0  0  0  0
    0.1374   -3.0801    0.0218 O   0  0  0  0  0  0  0  0  0  0  0  0
   -0.7788   -1.0205   -0.0588 N   0  0  0  0  0  0  0  0  0  0  0  0
   -1.6479   -0.4938   -0.0041 H   0  0  0  0  0  0  0  0  0  0  0  0
    0.4857   -0.2766    0.0601 C   0  0  0  0  0  0  0  0  0  0  0  0
    0.6852   -0.0539    1.1128 H   0  0  0  0  0  0  0  0  0  0  0  0
    1.3248   -0.8722   -0.3130 H   0  0  0  0  0  0  0  0  0  0  0  0
    0.4499    1.0355   -0.7262 C   0  0  0  0  0  0  0  0  0  0  0  0
    0.2544    2.0920   -0.1443 O   0  0  0  0  0  0  0  0  0  0  0  0
    0.5543    1.0169   -2.1037 N   0  0  0  0  0  0  0  0  0  0  0  0
    0.6801    0.1128   -2.5511 H   0  0  0  0  0  0  0  0  0  0  0  0
    0.4840    2.2155   -2.9300 C   0  0  0  0  0  0  0  0  0  0  0  0
    1.2898    2.9092   -2.6677 H   0  0  0  0  0  0  0  0  0  0  0  0
    0.5853    1.9517   -3.9872 H   0  0  0  0  0  0  0  0  0  0  0  0
   -0.4768    2.7222   -2.7905 H   0  0  0  0  0  0  0  0  0  0  0  0
  1  2  1  0  0  0  0
  2  3  1  0  0  0  0
  2  4  1  0  0  0  0
  2  5  1  0  0  0  0
  5  6  2  0  0  0  0
  5  7  1  0  0  0  0
  7  8  1  0  0  0  0
  7  9  1  0  0  0  0
  9 10  1  0  0  0  0
  9 11  1  0  0  0  0
  9 12  1  0  0  0  0
 12 13  2  0  0  0  0
 12 14  1  0  0  0  0
 14 15  1  0  0  0  0
 14 16  1  0  0  0  0
 16 17  1  0  0  0  0
 16 18  1  0  0  0  0
 16 19  1  0  0  0  0
M  END
$$$$

  -OEChem-01062216083D

 19 18  0     0  0  0  0  0  0999 V2000
   -2.0996   -4.1760   -0.0223 H   0  0  0  0  0  0  0  0  0  0  0  0
   -2.2256   -3.0906    0.0259 C   0  0  0  0  0  0  0  0  0  0  0  0
   -2.7508   -2.8383    0.9502 H   0  0  0  0  0  0  0  0  0  0  0  0
   -2.8276   -2.7693   -0.8274 H   0  0  0  0  0  0  0  0  0  0  0  0
   -0.8716   -2.4053   -0.0050 C   0  0  0  0  0  0  0  0  0  0  0  0
    0.1492   -3.0735   -0.0036 O   0  0  0  0  0  0  0  0  0  0  0  0
   -0.7996   -1.0271   -0.0541 N   0  0  0  0  0  0  0  0  0  0  0  0
   -1.6764   -0.5166    0.0244 H   0  0  0  0  0  0  0  0  0  0  0  0
    0.4561   -0.2656    0.0640 C   0  0  0  0  0  0  0  0  0  0  0  0
    0.6584   -0.0506    1.1179 H   0  0  0  0  0  0  0  0  0  0  0  0
    1.3003   -0.8466   -0.3203 H   0  0  0  0  0  0  0  0  0  0  0  0
    0.4062    1.0520   -0.7129 C   0  0  0  0  0  0  0  0  0  0  0  0
    0.5069    2.1175   -0.1237 O   0  0  0  0  0  0  0  0  0  0  0  0
    0.1959    1.0371   -2.0784 N   0  0  0  0  0  0  0  0  0  0  0  0
    0.1389    0.1282   -2.5300 H   0  0  0  0  0  0  0  0  0  0  0  0
    0.1531    2.2426   -2.8966 C   0  0  0  0  0  0  0  0  0  0  0  0
    1.1154    2.7640   -2.8601 H   0  0  0  0  0  0  0  0  0  0  0  0
   -0.0625    1.9855   -3.9382 H   0  0  0  0  0  0  0  0  0  0  0  0
   -0.6292    2.9209   -2.5400 H   0  0  0  0  0  0  0  0  0  0  0  0
  1  2  1  0  0  0  0
  2  3  1  0  0  0  0
  2  4  1  0  0  0  0
  2  5  1  0  0  0  0
  5  6  2  0  0  0  0
  5  7  1  0  0  0  0
  7  8  1  0  0  0  0
  7  9  1  0  0  0  0
  9 10  1  0  0  0  0
  9 11  1  0  0  0  0
  9 12  1  0  0  0  0
 12 13  2  0  0  0  0
 12 14  1  0  0  0  0
 14 15  1  0  0  0  0
 14 16  1  0  0  0  0
 16 17  1  0  0  0  0
 16 18  1  0  0  0  0
 16 19  1  0  0  0  0
M  END
$$$$

  -OEChem-01062216083D

 19 18  0     0  0  0  0  0  0999 V2000
   -2.0854   -4.1926    0.0486 H   0  0  0  0  0  0  0  0  0  0  0  0
   -2.2186   -3.1069    0.0338 C   0  0  0  0  0  0  0  0  0  0  0  0
   -2.7660   -2.8081    0.9312 H   0  0  0  0  0  0  0  0  0  0  0  0
   -2.8030   -2.8366   -0.8491 H   0  0  0  0  0  0  0  0  0  0  0  0
   -0.8683   -2.4151   -0.0053 C   0  0  0  0  0  0  0  0  0  0  0  0
    0.1552   -3.0785   -0.0170 O   0  0  0  0  0  0  0  0  0  0  0  0
   -0.8049   -1.0360   -0.0416 N   0  0  0  0  0  0  0  0  0  0  0  0
   -1.6838   -0.5327    0.0548 H   0  0  0  0  0  0  0  0  0  0  0  0
    0.4490   -0.2684    0.0679 C   0  0  0  0  0  0  0  0  0  0  0  0
    0.6660   -0.0671    1.1215 H   0  0  0  0  0  0  0  0  0  0  0  0
    1.2881   -0.8426   -0.3376 H   0  0  0  0  0  0  0  0  0  0  0  0
    0.3919    1.0597   -0.6919 C   0  0  0  0  0  0  0  0  0  0  0  0
    0.7704    2.0898   -0.1556 O   0  0  0  0  0  0  0  0  0  0  0  0
   -0.1301    1.1021   -1.9709 N   0  0  0  0  0  0  0  0  0  0  0  0
   -0.3698    0.2132   -2.4011 H   0  0  0  0  0  0  0  0  0  0  0  0
   -0.1784    2.3168   -2.7751 C   0  0  0  0  0  0  0  0  0  0  0  0
    0.8333    2.6895   -2.9666 H   0  0  0  0  0  0  0  0  0  0  0  0
   -0.6616    2.1150   -3.7359 H   0  0  0  0  0  0  0  0  0  0  0  0
   -0.7493    3.0963   -2.2595 H   0  0  0  0  0  0  0  0  0  0  0  0
  1  2  1  0  0  0  0
  2  3  1  0  0  0  0
  2  4  1  0  0  0  0
  2  5  1  0  0  0  0
  5  6  2  0  0  0  0
  5  7  1  0  0  0  0
  7  8  1  0  0  0  0
  7  9  1  0  0  0  0
  9 10  1  0  0  0  0
  9 11  1  0  0  0  0
  9 12  1  0  0  0  0
 12 13  2  0  0  0  0
 12 14  1  0  0  0  0
 14 15  1  0  0  0  0
 14 16  1  0  0  0  0
 16 17  1  0  0  0  0
 16 18  1  0  0  0  0
 16 19  1  0  0  0  0
M  END
$$$$

  -OEChem-01062216083D

 19 18  0     0  0  0  0  0  0999 V2000
   -2.0639   -4.2154    0.0483 H   0  0  0  0  0  0  0  0  0  0  0  0
   -2.2075   -3.1311    0.0395 C   0  0  0  0  0  0  0  0  0  0  0  0
   -2.7436   -2.8411    0.9464 H   0  0  0  0  0  0  0  0  0  0  0  0
   -2.8080   -2.8637   -0.8333 H   0  0  0  0  0  0  0  0  0  0  0  0
   -0.8645   -2.4261   -0.0173 C   0  0  0  0  0  0  0  0  0  0  0  0
    0.1638   -3.0806   -0.0524 O   0  0  0  0  0  0  0  0  0  0  0  0
   -0.8148   -1.0457   -0.0373 N   0  0  0  0  0  0  0  0  0  0  0  0
   -1.6953   -0.5546    0.0987 H   0  0  0  0  0  0  0  0  0  0  0  0
    0.4350   -0.2694    0.0755 C   0  0  0  0  0  0  0  0  0  0  0  0
    0.6560   -0.0815    1.1306 H   0  0  0  0  0  0  0  0  0  0  0  0
    1.2747   -0.8341   -0.3423 H   0  0  0  0  0  0  0  0  0  0  0  0
    0.3772    1.0711   -0.6642 C   0  0  0  0  0  0  0  0  0  0  0  0
    0.9903    2.0339   -0.2297 O   0  0  0  0  0  0  0  0  0  0  0  0
   -0.4085    1.2107   -1.7932 N   0  0  0  0  0  0  0  0  0  0  0  0
   -0.8070    0.3597   -2.1795 H   0  0  0  0  0  0  0  0  0  0  0  0
   -0.4568    2.4354   -2.5824 C   0  0  0  0  0  0  0  0  0  0  0  0
    0.5254    2.6491   -3.0168 H   0  0  0  0  0  0  0  0  0  0  0  0
   -1.1819    2.3329   -3.3955 H   0  0  0  0  0  0  0  0  0  0  0  0
   -0.7580    3.2835   -1.9583 H   0  0  0  0  0  0  0  0  0  0  0  0
  1  2  1  0  0  0  0
  2  3  1  0  0  0  0
  2  4  1  0  0  0  0
  2  5  1  0  0  0  0
  5  6  2  0  0  0  0
  5  7  1  0  0  0  0
  7  8  1  0  0  0  0
  7  9  1  0  0  0  0
  9 10  1  0  0  0  0
  9 11  1  0  0  0  0
  9 12  1  0  0  0  0
 12 13  2  0  0  0  0
 12 14  1  0  0  0  0
 14 15  1  0  0  0  0
 14 16  1  0  0  0  0
 16 17  1  0  0  0  0
 16 18  1  0  0  0  0
 16 19  1  0  0  0  0
M  END
$$$$

  -OEChem-01062216083D

 19 18  0     0  0  0  0  0  0999 V2000
   -2.1361   -4.1838    0.1635 H   0  0  0  0  0  0  0  0  0  0  0  0
   -2.2464   -3.0960    0.1295 C   0  0  0  0  0  0  0  0  0  0  0  0
   -2.7018   -2.7613    1.0648 H   0  0  0  0  0  0  0  0  0  0  0  0
   -2.9040   -2.8352   -0.7031 H   0  0  0  0  0  0  0  0  0  0  0  0
   -0.8907   -2.4386   -0.0543 C   0  0  0  0  0  0  0  0  0  0  0  0
    0.1025   -3.1304   -0.2022 O   0  0  0  0  0  0  0  0  0  0  0  0
   -0.7917   -1.0600   -0.0528 N   0  0  0  0  0  0  0  0  0  0  0  0
   -1.6299   -0.5490    0.2129 H   0  0  0  0  0  0  0  0  0  0  0  0
    0.4956   -0.3367   -0.0176 C   0  0  0  0  0  0  0  0  0  0  0  0
    0.7996   -0.1841    1.0223 H   0  0  0  0  0  0  0  0  0  0  0  0
    1.2767   -0.9286   -0.5057 H   0  0  0  0  0  0  0  0  0  0  0  0
    0.4603    1.0248   -0.7224 C   0  0  0  0  0  0  0  0  0  0  0  0
    1.3181    1.8536   -0.4613 O   0  0  0  0  0  0  0  0  0  0  0  0
   -0.5826    1.3450   -1.5750 N   0  0  0  0  0  0  0  0  0  0  0  0
   -1.2084    0.5844   -1.8217 H   0  0  0  0  0  0  0  0  0  0  0  0
   -0.7153    2.6133   -2.2884 C   0  0  0  0  0  0  0  0  0  0  0  0
    0.1291    3.2838   -2.0978 H   0  0  0  0  0  0  0  0  0  0  0  0
   -0.7628    2.4324   -3.3666 H   0  0  0  0  0  0  0  0  0  0  0  0
   -1.6308    3.1246   -1.9757 H   0  0  0  0  0  0  0  0  0  0  0  0
  1  2  1  0  0  0  0
  2  3  1  0  0  0  0
  2  4  1  0  0  0  0
  2  5  1  0  0  0  0
  5  6  2  0  0  0  0
  5  7  1  0  0  0  0
  7  8  1  0  0  0  0
  7  9  1  0  0  0  0
  9 10  1  0  0  0  0
  9 11  1  0  0  0  0
  9 12  1  0  0  0  0
 12 13  2  0  0  0  0
 12 14  1  0  0  0  0
 14 15  1  0  0  0  0
 14 16  1  0  0  0  0
 16 17  1  0  0  0  0
 16 18  1  0  0  0  0
 16 19  1  0  0  0  0
M  END
$$$$

  -OEChem-01062216083D

 19 18  0     0  0  0  0  0  0999 V2000
   -2.1203   -4.1995    0.1548 H   0  0  0  0  0  0  0  0  0  0  0  0
   -2.2375   -3.1123    0.1256 C   0  0  0  0  0  0  0  0  0  0  0  0
   -2.6915   -2.7837    1.0636 H   0  0  0  0  0  0  0  0  0  0  0  0
   -2.8996   -2.8528   -0.7041 H   0  0  0  0  0  0  0  0  0  0  0  0
   -0.8864   -2.4465   -0.0613 C   0  0  0  0  0  0  0  0  0  0  0  0
    0.1097   -3.1326   -0.2157 O   0  0  0  0  0  0  0  0  0  0  0  0
   -0.7968   -1.0671   -0.0519 N   0  0  0  0  0  0  0  0  0  0  0  0
   -1.6306   -0.5696    0.2486 H   0  0  0  0  0  0  0  0  0  0  0  0
    0.4884   -0.3389   -0.0236 C   0  0  0  0  0  0  0  0  0  0  0  0
    0.8001   -0.1926    1.0147 H   0  0  0  0  0  0  0  0  0  0  0  0
    1.2667   -0.9269   -0.5213 H   0  0  0  0  0  0  0  0  0  0  0  0
    0.4533    1.0292   -0.7172 C   0  0  0  0  0  0  0  0  0  0  0  0
    1.4372    1.7494   -0.6557 O   0  0  0  0  0  0  0  0  0  0  0  0
   -0.7110    1.4933   -1.3065 N   0  0  0  0  0  0  0  0  0  0  0  0
   -1.4554    0.8139   -1.4223 H   0  0  0  0  0  0  0  0  0  0  0  0
   -0.8445    2.7848   -1.9768 C   0  0  0  0  0  0  0  0  0  0  0  0
    0.0937    3.3492   -1.9767 H   0  0  0  0  0  0  0  0  0  0  0  0
   -1.1455    2.6355   -3.0182 H   0  0  0  0  0  0  0  0  0  0  0  0
   -1.6040    3.3908   -1.4735 H   0  0  0  0  0  0  0  0  0  0  0  0
  1  2  1  0  0  0  0
  2  3  1  0  0  0  0
  2  4  1  0  0  0  0
  2  5  1  0  0  0  0
  5  6  2  0  0  0  0
  5  7  1  0  0  0  0
  7  8  1  0  0  0  0
  7  9  1  0  0  0  0
  9 10  1  0  0  0  0
  9 11  1  0  0  0  0
  9 12  1  0  0  0  0
 12 13  2  0  0  0  0
 12 14  1  0  0  0  0
 14 15  1  0  0  0  0
 14 16  1  0  0  0  0
 16 17  1  0  0  0  0
 16 18  1  0  0  0  0
 16 19  1  0  0  0  0
M  END
$$$$

  -OEChem-01062216083D

 19 18  0     0  0  0  0  0  0999 V2000
   -2.1719   -4.1880    0.1397 H   0  0  0  0  0  0  0  0  0  0  0  0
   -2.2540   -3.0994    0.2093 C   0  0  0  0  0  0  0  0  0  0  0  0
   -2.5855   -2.8361    1.2166 H   0  0  0  0  0  0  0  0  0  0  0  0
   -2.9976   -2.7574   -0.5145 H   0  0  0  0  0  0  0  0  0  0  0  0
   -0.9111   -2.4551   -0.0828 C   0  0  0  0  0  0  0  0  0  0  0  0
    0.0539   -3.1572   -0.3329 O   0  0  0  0  0  0  0  0  0  0  0  0
   -0.7921   -1.0780   -0.0516 N   0  0  0  0  0  0  0  0  0  0  0  0
   -1.5852   -0.5735    0.3328 H   0  0  0  0  0  0  0  0  0  0  0  0
    0.5051   -0.3759   -0.1377 C   0  0  0  0  0  0  0  0  0  0  0  0
    0.9237   -0.2631    0.8663 H   0  0  0  0  0  0  0  0  0  0  0  0
    1.2144   -0.9687   -0.7250 H   0  0  0  0  0  0  0  0  0  0  0  0
    0.4394    1.0106   -0.7925 C   0  0  0  0  0  0  0  0  0  0  0  0
    1.4782    1.5950   -1.0585 O   0  0  0  0  0  0  0  0  0  0  0  0
   -0.7671    1.6629   -0.9779 N   0  0  0  0  0  0  0  0  0  0  0  0
   -1.6094    1.1075   -0.8827 H   0  0  0  0  0  0  0  0  0  0  0  0
   -0.8650    2.9781   -1.6006 C   0  0  0  0  0  0  0  0  0  0  0  0
   -0.3076    3.7199   -1.0187 H   0  0  0  0  0  0  0  0  0  0  0  0
   -0.4607    2.9526   -2.6180 H   0  0  0  0  0  0  0  0  0  0  0  0
   -1.9107    3.2961   -1.6509 H   0  0  0  0  0  0  0  0  0  0  0  0
  1  2  1  0  0  0  0
  2  3  1  0  0  0  0
  2  4  1  0  0  0  0
  2  5  1  0  0  0  0
  5  6  2  0  0  0  0
  5  7  1  0  0  0  0
  7  8  1  0  0  0  0
  7  9  1  0  0  0  0
  9 10  1  0  0  0  0
  9 11  1  0  0  0  0
  9 12  1  0  0  0  0
 12 13  2  0  0  0  0
 12 14  1  0  0  0  0
 14 15  1  0  0  0  0
 14 16  1  0  0  0  0
 16 17  1  0  0  0  0
 16 18  1  0  0  0  0
 16 19  1  0  0  0  0
M  END
$$$$

  -OEChem-01062216083D

 19 18  0     0  0  0  0  0  0999 V2000
   -2.1789   -4.1437    0.1732 H   0  0  0  0  0  0  0  0  0  0  0  0
   -2.2583   -3.0557    0.0928 C   0  0  0  0  0  0  0  0  0  0  0  0
   -2.8557   -2.6848    0.9291 H   0  0  0  0  0  0  0  0  0  0  0  0
   -2.7613   -2.8088   -0.8452 H   0  0  0  0  0  0  0  0  0  0  0  0
   -0.8768   -2.4279    0.1220 C   0  0  0  0  0  0  0  0  0  0  0  0
    0.1124   -3.1390    0.1797 O   0  0  0  0  0  0  0  0  0  0  0  0
   -0.7478   -1.0523    0.0941 N   0  0  0  0  0  0  0  0  0  0  0  0
   -1.5987   -0.5362   -0.1090 H   0  0  0  0  0  0  0  0  0  0  0  0
    0.5444   -0.3838   -0.1548 C   0  0  0  0  0  0  0  0  0  0  0  0
    1.0688   -0.2409    0.7943 H   0  0  0  0  0  0  0  0  0  0  0  0
    1.1766   -1.0121   -0.7922 H   0  0  0  0  0  0  0  0  0  0  0  0
    0.4076    0.9787   -0.8454 C   0  0  0  0  0  0  0  0  0  0  0  0
    1.2800    1.3662   -1.6068 O   0  0  0  0  0  0  0  0  0  0  0  0
   -0.7155    1.7627   -0.6434 N   0  0  0  0  0  0  0  0  0  0  0  0
   -1.3207    1.5077    0.1300 H   0  0  0  0  0  0  0  0  0  0  0  0
   -0.8611    3.0902   -1.2301 C   0  0  0  0  0  0  0  0  0  0  0  0
   -0.0826    3.7629   -0.8555 H   0  0  0  0  0  0  0  0  0  0  0  0
   -0.7849    3.0383   -2.3214 H   0  0  0  0  0  0  0  0  0  0  0  0
   -1.8376    3.5122   -0.9746 H   0  0  0  0  0  0  0  0  0  0  0  0
  1  2  1  0  0  0  0
  2  3  1  0  0  0  0
  2  4  1  0  0  0  0
  2  5  1  0  0  0  0
  5  6  2  0  0  0  0
  5  7  1  0  0  0  0
  7  8  1  0  0  0  0
  7  9  1  0  0  0  0
  9 10  1  0  0  0  0
  9 11  1  0  0  0  0
  9 12  1  0  0  0  0
 12 13  2  0  0  0  0
 12 14  1  0  0  0  0
 14 15  1  0  0  0  0
 14 16  1  0  0  0  0
 16 17  1  0  0  0  0
 16 18  1  0  0  0  0
 16 19  1  0  0  0  0
M  END
$$$$

  -OEChem-01062216083D

 19 18  0     0  0  0  0  0  0999 V2000
   -2.1908   -4.1206    0.1468 H   0  0  0  0  0  0  0  0  0  0  0  0
   -2.2645   -3.0317    0.0748 C   0  0  0  0  0  0  0  0  0  0  0  0
   -2.8660   -2.6645    0.9097 H   0  0  0  0  0  0  0  0  0  0  0  0
   -2.7595   -2.7746   -0.8648 H   0  0  0  0  0  0  0  0  0  0  0  0
   -0.8799   -2.4116    0.1179 C   0  0  0  0  0  0  0  0  0  0  0  0
    0.1052   -3.1286    0.1771 O   0  0  0  0  0  0  0  0  0  0  0  0
   -0.7411   -1.0369    0.1014 N   0  0  0  0  0  0  0  0  0  0  0  0
   -1.5881   -0.5089   -0.0919 H   0  0  0  0  0  0  0  0  0  0  0  0
    0.5535   -0.3759   -0.1483 C   0  0  0  0  0  0  0  0  0  0  0  0
    1.0867   -0.2414    0.7968 H   0  0  0  0  0  0  0  0  0  0  0  0
    1.1792   -1.0002   -0.7961 H   0  0  0  0  0  0  0  0  0  0  0  0
    0.3977    0.9896   -0.8257 C   0  0  0  0  0  0  0  0  0  0  0  0
    1.0888    1.2851   -1.7880 O   0  0  0  0  0  0  0  0  0  0  0  0
   -0.5579    1.8804   -0.3701 N   0  0  0  0  0  0  0  0  0  0  0  0
   -1.0072    1.6634    0.5144 H   0  0  0  0  0  0  0  0  0  0  0  0
   -0.7195    3.2182   -0.9275 C   0  0  0  0  0  0  0  0  0  0  0  0
    0.1897    3.8094   -0.7755 H   0  0  0  0  0  0  0  0  0  0  0  0
   -0.9285    3.1642   -2.0012 H   0  0  0  0  0  0  0  0  0  0  0  0
   -1.5538    3.7324   -0.4410 H   0  0  0  0  0  0  0  0  0  0  0  0
  1  2  1  0  0  0  0
  2  3  1  0  0  0  0
  2  4  1  0  0  0  0
  2  5  1  0  0  0  0
  5  6  2  0  0  0  0
  5  7  1  0  0  0  0
  7  8  1  0  0  0  0
  7  9  1  0  0  0  0
  9 10  1  0  0  0  0
  9 11  1  0  0  0  0
  9 12  1  0  0  0  0
 12 13  2  0  0  0  0
 12 14  1  0  0  0  0
 14 15  1  0  0  0  0
 14 16  1  0  0  0  0
 16 17  1  0  0  0  0
 16 18  1  0  0  0  0
 16 19  1  0  0  0  0
M  END
$$$$

  -OEChem-01062216083D

 19 18  0     0  0  0  0  0  0999 V2000
   -2.2040   -4.1026    0.1459 H   0  0  0  0  0  0  0  0  0  0  0  0
   -2.2693   -3.0142    0.0589 C   0  0  0  0  0  0  0  0  0  0  0  0
   -2.8718   -2.6319    0.8864 H   0  0  0  0  0  0  0  0  0  0  0  0
   -2.7587   -2.7661   -0.8861 H   0  0  0  0  0  0  0  0  0  0  0  0
   -0.8805   -2.4030    0.0998 C   0  0  0  0  0  0  0  0  0  0  0  0
    0.1009   -3.1261    0.1471 O   0  0  0  0  0  0  0  0  0  0  0  0
   -0.7338   -1.0293    0.1048 N   0  0  0  0  0  0  0  0  0  0  0  0
   -1.5785   -0.4903   -0.0689 H   0  0  0  0  0  0  0  0  0  0  0  0
    0.5626   -0.3685   -0.1277 C   0  0  0  0  0  0  0  0  0  0  0  0
    1.0951   -0.2511    0.8203 H   0  0  0  0  0  0  0  0  0  0  0  0
    1.1894   -0.9816   -0.7848 H   0  0  0  0  0  0  0  0  0  0  0  0
    0.4020    1.0058   -0.7842 C   0  0  0  0  0  0  0  0  0  0  0  0
    0.8687    1.2243   -1.8913 O   0  0  0  0  0  0  0  0  0  0  0  0
   -0.3229    1.9922   -0.1409 N   0  0  0  0  0  0  0  0  0  0  0  0
   -0.6274    1.8043    0.8099 H   0  0  0  0  0  0  0  0  0  0  0  0
   -0.4969    3.3335   -0.6861 C   0  0  0  0  0  0  0  0  0  0  0  0
    0.4743    3.8196   -0.8270 H   0  0  0  0  0  0  0  0  0  0  0  0
   -1.0124    3.2906   -1.6514 H   0  0  0  0  0  0  0  0  0  0  0  0
   -1.0943    3.9453   -0.0033 H   0  0  0  0  0  0  0  0  0  0  0  0
  1  2  1  0  0  0  0
  2  3  1  0  0  0  0
  2  4  1  0  0  0  0
  2  5  1  0  0  0  0
  5  6  2  0  0  0  0
  5  7  1  0  0  0  0
  7  8  1  0  0  0  0
  7  9  1  0  0  0  0
  9 10  1  0  0  0  0
  9 11  1  0  0  0  0
  9 12  1  0  0  0  0
 12 13  2  0  0  0  0
 12 14  1  0  0  0  0
 14 15  1  0  0  0  0
 14 16  1  0  0  0  0
 16 17  1  0  0  0  0
 16 18  1  0  0  0  0
 16 19  1  0  0  0  0
M  END
$$$$

  -OEChem-01062216083D

 19 18  0     0  0  0  0  0  0999 V2000
   -2.2102   -4.0917    0.1084 H   0  0  0  0  0  0  0  0  0  0  0  0
   -2.2731   -3.0011    0.0530 C   0  0  0  0  0  0  0  0  0  0  0  0
   -2.8683   -2.6403    0.8951 H   0  0  0  0  0  0  0  0  0  0  0  0
   -2.7682   -2.7246   -0.8811 H   0  0  0  0  0  0  0  0  0  0  0  0
   -0.8826   -2.3947    0.1010 C   0  0  0  0  0  0  0  0  0  0  0  0
    0.0970   -3.1213    0.1394 O   0  0  0  0  0  0  0  0  0  0  0  0
   -0.7307   -1.0220    0.1222 N   0  0  0  0  0  0  0  0  0  0  0  0
   -1.5734   -0.4776   -0.0455 H   0  0  0  0  0  0  0  0  0  0  0  0
    0.5663   -0.3659   -0.1144 C   0  0  0  0  0  0  0  0  0  0  0  0
    1.1107   -0.2667    0.8286 H   0  0  0  0  0  0  0  0  0  0  0  0
    1.1817   -0.9730   -0.7878 H   0  0  0  0  0  0  0  0  0  0  0  0
    0.4052    1.0167   -0.7520 C   0  0  0  0  0  0  0  0  0  0  0  0
    0.5805    1.1702   -1.9508 O   0  0  0  0  0  0  0  0  0  0  0  0
   -0.0259    2.0816    0.0168 N   0  0  0  0  0  0  0  0  0  0  0  0
   -0.1316    1.9283    1.0156 H   0  0  0  0  0  0  0  0  0  0  0  0
   -0.2044    3.4277   -0.5147 C   0  0  0  0  0  0  0  0  0  0  0  0
    0.7478    3.8226   -0.8843 H   0  0  0  0  0  0  0  0  0  0  0  0
   -0.9268    3.4229   -1.3377 H   0  0  0  0  0  0  0  0  0  0  0  0
   -0.5773    4.0969    0.2667 H   0  0  0  0  0  0  0  0  0  0  0  0
  1  2  1  0  0  0  0
  2  3  1  0  0  0  0
  2  4  1  0  0  0  0
  2  5  1  0  0  0  0
  5  6  2  0  0  0  0
  5  7  1  0  0  0  0
  7  8  1  0  0  0  0
  7  9  1  0  0  0  0
  9 10  1  0  0  0  0
  9 11  1  0  0  0  0
  9 12  1  0  0  0  0
 12 13  2  0  0  0  0
 12 14  1  0  0  0  0
 14 15  1  0  0  0  0
 14 16  1  0  0  0  0
 16 17  1  0  0  0  0
 16 18  1  0  0  0  0
 16 19  1  0  0  0  0
M  END
$$$$

  -OEChem-01062216083D

 19 18  0     0  0  0  0  0  0999 V2000
   -2.2260   -4.0680    0.0729 H   0  0  0  0  0  0  0  0  0  0  0  0
   -2.2775   -2.9765    0.0276 C   0  0  0  0  0  0  0  0  0  0  0  0
   -2.8859   -2.6182    0.8615 H   0  0  0  0  0  0  0  0  0  0  0  0
   -2.7516   -2.6858   -0.9130 H   0  0  0  0  0  0  0  0  0  0  0  0
   -0.8825   -2.3841    0.1089 C   0  0  0  0  0  0  0  0  0  0  0  0
    0.0900   -3.1199    0.1615 O   0  0  0  0  0  0  0  0  0  0  0  0
   -0.7189   -1.0134    0.1434 N   0  0  0  0  0  0  0  0  0  0  0  0
   -1.5530   -0.4628   -0.0471 H   0  0  0  0  0  0  0  0  0  0  0  0
    0.5841   -0.3696   -0.0872 C   0  0  0  0  0  0  0  0  0  0  0  0
    1.1307   -0.2884    0.8561 H   0  0  0  0  0  0  0  0  0  0  0  0
    1.1924   -0.9741   -0.7691 H   0  0  0  0  0  0  0  0  0  0  0  0
    0.4336    1.0200   -0.7119 C   0  0  0  0  0  0  0  0  0  0  0  0
    0.2876    1.1371   -1.9191 O   0  0  0  0  0  0  0  0  0  0  0  0
    0.3198    2.1338    0.0986 N   0  0  0  0  0  0  0  0  0  0  0  0
    0.4170    2.0002    1.1010 H   0  0  0  0  0  0  0  0  0  0  0  0
    0.1132    3.4811   -0.4190 C   0  0  0  0  0  0  0  0  0  0  0  0
    0.9251    3.7587   -1.0996 H   0  0  0  0  0  0  0  0  0  0  0  0
   -0.8369    3.5427   -0.9600 H   0  0  0  0  0  0  0  0  0  0  0  0
    0.0906    4.2027    0.4032 H   0  0  0  0  0  0  0  0  0  0  0  0
  1  2  1  0  0  0  0
  2  3  1  0  0  0  0
  2  4  1  0  0  0  0
  2  5  1  0  0  0  0
  5  6  2  0  0  0  0
  5  7  1  0  0  0  0
  7  8  1  0  0  0  0
  7  9  1  0  0  0  0
  9 10  1  0  0  0  0
  9 11  1  0  0  0  0
  9 12  1  0  0  0  0
 12 13  2  0  0  0  0
 12 14  1  0  0  0  0
 14 15  1  0  0  0  0
 14 16  1  0  0  0  0
 16 17  1  0  0  0  0
 16 18  1  0  0  0  0
 16 19  1  0  0  0  0
M  END
$$$$

  -OEChem-01062216083D

 19 18  0     0  0  0  0  0  0999 V2000
   -2.2433   -4.0465    0.0480 H   0  0  0  0  0  0  0  0  0  0  0  0
   -2.2839   -2.9540    0.0166 C   0  0  0  0  0  0  0  0  0  0  0  0
   -2.8957   -2.6006    0.8500 H   0  0  0  0  0  0  0  0  0  0  0  0
   -2.7472   -2.6458   -0.9239 H   0  0  0  0  0  0  0  0  0  0  0  0
   -0.8845   -2.3757    0.1174 C   0  0  0  0  0  0  0  0  0  0  0  0
    0.0811   -3.1204    0.1779 O   0  0  0  0  0  0  0  0  0  0  0  0
   -0.7084   -1.0072    0.1600 N   0  0  0  0  0  0  0  0  0  0  0  0
   -1.5314   -0.4511   -0.0624 H   0  0  0  0  0  0  0  0  0  0  0  0
    0.6008   -0.3780   -0.0710 C   0  0  0  0  0  0  0  0  0  0  0  0
    1.1492   -0.3106    0.8724 H   0  0  0  0  0  0  0  0  0  0  0  0
    1.2002   -0.9833   -0.7594 H   0  0  0  0  0  0  0  0  0  0  0  0
    0.4613    1.0169   -0.6872 C   0  0  0  0  0  0  0  0  0  0  0  0
    0.0011    1.1400   -1.8128 O   0  0  0  0  0  0  0  0  0  0  0  0
    0.6713    2.1432    0.0860 N   0  0  0  0  0  0  0  0  0  0  0  0
    0.9969    2.0090    1.0389 H   0  0  0  0  0  0  0  0  0  0  0  0
    0.4543    3.5001   -0.4014 C   0  0  0  0  0  0  0  0  0  0  0  0
    1.0880    3.7006   -1.2718 H   0  0  0  0  0  0  0  0  0  0  0  0
   -0.5932    3.6420   -0.6877 H   0  0  0  0  0  0  0  0  0  0  0  0
    0.7004    4.2263    0.3793 H   0  0  0  0  0  0  0  0  0  0  0  0
  1  2  1  0  0  0  0
  2  3  1  0  0  0  0
  2  4  1  0  0  0  0
  2  5  1  0  0  0  0
  5  6  2  0  0  0  0
  5  7  1  0  0  0  0
  7  8  1  0  0  0  0
  7  9  1  0  0  0  0
  9 10  1  0  0  0  0
  9 11  1  0  0  0  0
  9 12  1  0  0  0  0
 12 13  2  0  0  0  0
 12 14  1  0  0  0  0
 14 15  1  0  0  0  0
 14 16  1  0  0  0  0
 16 17  1  0  0  0  0
 16 18  1  0  0  0  0
 16 19  1  0  0  0  0
M  END
$$$$

  -OEChem-01062216083D

 19 18  0     0  0  0  0  0  0999 V2000
   -2.2535   -4.0367    0.0211 H   0  0  0  0  0  0  0  0  0  0  0  0
   -2.2883   -2.9438    0.0053 C   0  0  0  0  0  0  0  0  0  0  0  0
   -2.9033   -2.5991    0.8401 H   0  0  0  0  0  0  0  0  0  0  0  0
   -2.7443   -2.6197   -0.9334 H   0  0  0  0  0  0  0  0  0  0  0  0
   -0.8867   -2.3738    0.1232 C   0  0  0  0  0  0  0  0  0  0  0  0
    0.0751   -3.1240    0.1841 O   0  0  0  0  0  0  0  0  0  0  0  0
   -0.7025   -1.0068    0.1718 N   0  0  0  0  0  0  0  0  0  0  0  0
   -1.5179   -0.4441   -0.0653 H   0  0  0  0  0  0  0  0  0  0  0  0
    0.6107   -0.3846   -0.0536 C   0  0  0  0  0  0  0  0  0  0  0  0
    1.1525   -0.3234    0.8941 H   0  0  0  0  0  0  0  0  0  0  0  0
    1.2097   -0.9909   -0.7413 H   0  0  0  0  0  0  0  0  0  0  0  0
    0.4811    1.0147   -0.6649 C   0  0  0  0  0  0  0  0  0  0  0  0
   -0.2223    1.1802   -1.6520 O   0  0  0  0  0  0  0  0  0  0  0  0
    0.9860    2.1172   -0.0013 N   0  0  0  0  0  0  0  0  0  0  0  0
    1.5146    1.9559    0.8511 H   0  0  0  0  0  0  0  0  0  0  0  0
    0.8002    3.4860   -0.4677 C   0  0  0  0  0  0  0  0  0  0  0  0
    1.1888    3.6006   -1.4851 H   0  0  0  0  0  0  0  0  0  0  0  0
   -0.2622    3.7513   -0.4640 H   0  0  0  0  0  0  0  0  0  0  0  0
    1.3334    4.1834    0.1856 H   0  0  0  0  0  0  0  0  0  0  0  0
  1  2  1  0  0  0  0
  2  3  1  0  0  0  0
  2  4  1  0  0  0  0
  2  5  1  0  0  0  0
  5  6  2  0  0  0  0
  5  7  1  0  0  0  0
  7  8  1  0  0  0  0
  7  9  1  0  0  0  0
  9 10  1  0  0  0  0
  9 11  1  0  0  0  0
  9 12  1  0  0  0  0
 12 13  2  0  0  0  0
 12 14  1  0  0  0  0
 14 15  1  0  0  0  0
 14 16  1  0  0  0  0
 16 17  1  0  0  0  0
 16 18  1  0  0  0  0
 16 19  1  0  0  0  0
M  END
$$$$

  -OEChem-01062216083D

 19 18  0     0  0  0  0  0  0999 V2000
   -2.2726   -4.0256    0.0397 H   0  0  0  0  0  0  0  0  0  0  0  0
   -2.2963   -2.9325    0.0124 C   0  0  0  0  0  0  0  0  0  0  0  0
   -2.9014   -2.5723    0.8479 H   0  0  0  0  0  0  0  0  0  0  0  0
   -2.7561   -2.6135   -0.9262 H   0  0  0  0  0  0  0  0  0  0  0  0
   -0.8884   -2.3756    0.1134 C   0  0  0  0  0  0  0  0  0  0  0  0
    0.0682   -3.1339    0.1546 O   0  0  0  0  0  0  0  0  0  0  0  0
   -0.6923   -1.0110    0.1692 N   0  0  0  0  0  0  0  0  0  0  0  0
   -1.5028   -0.4362   -0.0578 H   0  0  0  0  0  0  0  0  0  0  0  0
    0.6234   -0.3931   -0.0497 C   0  0  0  0  0  0  0  0  0  0  0  0
    1.1583   -0.3373    0.9023 H   0  0  0  0  0  0  0  0  0  0  0  0
    1.2235   -0.9984   -0.7369 H   0  0  0  0  0  0  0  0  0  0  0  0
    0.5019    1.0111   -0.6535 C   0  0  0  0  0  0  0  0  0  0  0  0
   -0.3815    1.2483   -1.4673 O   0  0  0  0  0  0  0  0  0  0  0  0
    1.2623    2.0529   -0.1568 N   0  0  0  0  0  0  0  0  0  0  0  0
    1.9535    1.8376    0.5560 H   0  0  0  0  0  0  0  0  0  0  0  0
    1.1200    3.4320   -0.6077 C   0  0  0  0  0  0  0  0  0  0  0  0
    1.3062    3.5041   -1.6844 H   0  0  0  0  0  0  0  0  0  0  0  0
    0.1105    3.8017   -0.3985 H   0  0  0  0  0  0  0  0  0  0  0  0
    1.8380    4.0750   -0.0897 H   0  0  0  0  0  0  0  0  0  0  0  0
  1  2  1  0  0  0  0
  2  3  1  0  0  0  0
  2  4  1  0  0  0  0
  2  5  1  0  0  0  0
  5  6  2  0  0  0  0
  5  7  1  0  0  0  0
  7  8  1  0  0  0  0
  7  9  1  0  0  0  0
  9 10  1  0  0  0  0
  9 11  1  0  0  0  0
  9 12  1  0  0  0  0
 12 13  2  0  0  0  0
 12 14  1  0  0  0  0
 14 15  1  0  0  0  0
 14 16  1  0  0  0  0
 16 17  1  0  0  0  0
 16 18  1  0  0  0  0
 16 19  1  0  0  0  0
M  END
$$$$

  -OEChem-01062216083D

 19 18  0     0  0  0  0  0  0999 V2000
   -2.2891   -4.0204    0.0447 H   0  0  0  0  0  0  0  0  0  0  0  0
   -2.3052   -2.9273    0.0157 C   0  0  0  0  0  0  0  0  0  0  0  0
   -2.8990   -2.5617    0.8571 H   0  0  0  0  0  0  0  0  0  0  0  0
   -2.7730   -2.6063   -0.9182 H   0  0  0  0  0  0  0  0  0  0  0  0
   -0.8921   -2.3801    0.1012 C   0  0  0  0  0  0  0  0  0  0  0  0
    0.0603   -3.1445    0.1241 O   0  0  0  0  0  0  0  0  0  0  0  0
   -0.6857   -1.0175    0.1613 N   0  0  0  0  0  0  0  0  0  0  0  0
   -1.4935   -0.4308   -0.0467 H   0  0  0  0  0  0  0  0  0  0  0  0
    0.6328   -0.3997   -0.0421 C   0  0  0  0  0  0  0  0  0  0  0  0
    1.1556   -0.3443    0.9166 H   0  0  0  0  0  0  0  0  0  0  0  0
    1.2395   -1.0062   -0.7222 H   0  0  0  0  0  0  0  0  0  0  0  0
    0.5247    1.0077   -0.6432 C   0  0  0  0  0  0  0  0  0  0  0  0
   -0.4750    1.3285   -1.2742 O   0  0  0  0  0  0  0  0  0  0  0  0
    1.4828    1.9623   -0.3585 N   0  0  0  0  0  0  0  0  0  0  0  0
    2.2829    1.6794    0.1999 H   0  0  0  0  0  0  0  0  0  0  0  0
    1.3975    3.3430   -0.8192 C   0  0  0  0  0  0  0  0  0  0  0  0
    1.3313    3.3799   -1.9116 H   0  0  0  0  0  0  0  0  0  0  0  0
    0.5153    3.8343   -0.3958 H   0  0  0  0  0  0  0  0  0  0  0  0
    2.2860    3.9009   -0.5086 H   0  0  0  0  0  0  0  0  0  0  0  0
  1  2  1  0  0  0  0
  2  3  1  0  0  0  0
  2  4  1  0  0  0  0
  2  5  1  0  0  0  0
  5  6  2  0  0  0  0
  5  7  1  0  0  0  0
  7  8  1  0  0  0  0
  7  9  1  0  0  0  0
  9 10  1  0  0  0  0
  9 11  1  0  0  0  0
  9 12  1  0  0  0  0
 12 13  2  0  0  0  0
 12 14  1  0  0  0  0
 14 15  1  0  0  0  0
 14 16  1  0  0  0  0
 16 17  1  0  0  0  0
 16 18  1  0  0  0  0
 16 19  1  0  0  0  0
M  END
$$$$

  -OEChem-01062216083D

 19 18  0     0  0  0  0  0  0999 V2000
   -2.3003   -4.0180    0.0632 H   0  0  0  0  0  0  0  0  0  0  0  0
   -2.3126   -2.9252    0.0222 C   0  0  0  0  0  0  0  0  0  0  0  0
   -2.8946   -2.5482    0.8666 H   0  0  0  0  0  0  0  0  0  0  0  0
   -2.7904   -2.6123   -0.9094 H   0  0  0  0  0  0  0  0  0  0  0  0
   -0.8961   -2.3836    0.0845 C   0  0  0  0  0  0  0  0  0  0  0  0
    0.0533   -3.1521    0.0798 O   0  0  0  0  0  0  0  0  0  0  0  0
   -0.6809   -1.0226    0.1500 N   0  0  0  0  0  0  0  0  0  0  0  0
   -1.4887   -0.4218   -0.0155 H   0  0  0  0  0  0  0  0  0  0  0  0
    0.6400   -0.4049   -0.0371 C   0  0  0  0  0  0  0  0  0  0  0  0
    1.1523   -0.3510    0.9275 H   0  0  0  0  0  0  0  0  0  0  0  0
    1.2521   -1.0127   -0.7111 H   0  0  0  0  0  0  0  0  0  0  0  0
    0.5462    1.0056   -0.6348 C   0  0  0  0  0  0  0  0  0  0  0  0
   -0.5198    1.4182   -1.0765 O   0  0  0  0  0  0  0  0  0  0  0  0
    1.6395    1.8500   -0.5950 N   0  0  0  0  0  0  0  0  0  0  0  0
    2.5045    1.4869   -0.2050 H   0  0  0  0  0  0  0  0  0  0  0  0
    1.6094    3.2215   -1.0887 C   0  0  0  0  0  0  0  0  0  0  0  0
    1.3255    3.2431   -2.1461 H   0  0  0  0  0  0  0  0  0  0  0  0
    0.8903    3.8185   -0.5182 H   0  0  0  0  0  0  0  0  0  0  0  0
    2.5973    3.6810   -0.9877 H   0  0  0  0  0  0  0  0  0  0  0  0
  1  2  1  0  0  0  0
  2  3  1  0  0  0  0
  2  4  1  0  0  0  0
  2  5  1  0  0  0  0
  5  6  2  0  0  0  0
  5  7  1  0  0  0  0
  7  8  1  0  0  0  0
  7  9  1  0  0  0  0
  9 10  1  0  0  0  0
  9 11  1  0  0  0  0
  9 12  1  0  0  0  0
 12 13  2  0  0  0  0
 12 14  1  0  0  0  0
 14 15  1  0  0  0  0
 14 16  1  0  0  0  0
 16 17  1  0  0  0  0
 16 18  1  0  0  0  0
 16 19  1  0  0  0  0
M  END
$$$$

  -OEChem-01062216083D

 19 18  0     0  0  0  0  0  0999 V2000
   -2.2841   -4.0429    0.0450 H   0  0  0  0  0  0  0  0  0  0  0  0
   -2.3108   -2.9499    0.0698 C   0  0  0  0  0  0  0  0  0  0  0  0
   -2.8072   -2.6307    0.9894 H   0  0  0  0  0  0  0  0  0  0  0  0
   -2.8839   -2.5915   -0.7887 H   0  0  0  0  0  0  0  0  0  0  0  0
   -0.9008   -2.3911    0.0212 C   0  0  0  0  0  0  0  0  0  0  0  0
    0.0562   -3.1447   -0.0682 O   0  0  0  0  0  0  0  0  0  0  0  0
   -0.6958   -1.0291    0.0807 N   0  0  0  0  0  0  0  0  0  0  0  0
   -1.5134   -0.4187    0.0753 H   0  0  0  0  0  0  0  0  0  0  0  0
    0.6183   -0.3900   -0.0664 C   0  0  0  0  0  0  0  0  0  0  0  0
    1.2058   -0.5522    0.8418 H   0  0  0  0  0  0  0  0  0  0  0  0
    1.1569   -0.8421   -0.9052 H   0  0  0  0  0  0  0  0  0  0  0  0
    0.5116    1.1196   -0.3238 C   0  0  0  0  0  0  0  0  0  0  0  0
   -0.5866    1.6616   -0.3716 O   0  0  0  0  0  0  0  0  0  0  0  0
    1.6540    1.8801   -0.4872 N   0  0  0  0  0  0  0  0  0  0  0  0
    2.5511    1.4051   -0.4416 H   0  0  0  0  0  0  0  0  0  0  0  0
    1.6289    3.3197   -0.7178 C   0  0  0  0  0  0  0  0  0  0  0  0
    1.0787    3.5517   -1.6358 H   0  0  0  0  0  0  0  0  0  0  0  0
    1.1480    3.8339    0.1211 H   0  0  0  0  0  0  0  0  0  0  0  0
    2.6482    3.7045   -0.8198 H   0  0  0  0  0  0  0  0  0  0  0  0
  1  2  1  0  0  0  0
  2  3  1  0  0  0  0
  2  4  1  0  0  0  0
  2  5  1  0  0  0  0
  5  6  2  0  0  0  0
  5  7  1  0  0  0  0
  7  8  1  0  0  0  0
  7  9  1  0  0  0  0
  9 10  1  0  0  0  0
  9 11  1  0  0  0  0
  9 12  1  0  0  0  0
 12 13  2  0  0  0  0
 12 14  1  0  0  0  0
 14 15  1  0  0  0  0
 14 16  1  0  0  0  0
 16 17  1  0  0  0  0
 16 18  1  0  0  0  0
 16 19  1  0  0  0  0
M  END
$$$$

  -OEChem-01062216083D

 19 18  0     0  0  0  0  0  0999 V2000
   -2.2449   -4.0739   -0.0085 H   0  0  0  0  0  0  0  0  0  0  0  0
   -2.2943   -2.9814   -0.0022 C   0  0  0  0  0  0  0  0  0  0  0  0
   -2.8514   -2.6587    0.8806 H   0  0  0  0  0  0  0  0  0  0  0  0
   -2.8214   -2.6470   -0.8991 H   0  0  0  0  0  0  0  0  0  0  0  0
   -0.8952   -2.3942    0.0262 C   0  0  0  0  0  0  0  0  0  0  0  0
    0.0799   -3.1294    0.0482 O   0  0  0  0  0  0  0  0  0  0  0  0
   -0.7204   -1.0268    0.0311 N   0  0  0  0  0  0  0  0  0  0  0  0
   -1.5474   -0.4320   -0.0257 H   0  0  0  0  0  0  0  0  0  0  0  0
    0.5896   -0.3632    0.0140 C   0  0  0  0  0  0  0  0  0  0  0  0
    1.0633   -0.4593    0.9951 H   0  0  0  0  0  0  0  0  0  0  0  0
    1.2356   -0.8497   -0.7234 H   0  0  0  0  0  0  0  0  0  0  0  0
    0.4894    1.1264   -0.3428 C   0  0  0  0  0  0  0  0  0  0  0  0
   -0.6022    1.6827   -0.3341 O   0  0  0  0  0  0  0  0  0  0  0  0
    1.6271    1.8250   -0.7059 N   0  0  0  0  0  0  0  0  0  0  0  0
    2.5037    1.3112   -0.7077 H   0  0  0  0  0  0  0  0  0  0  0  0
    1.6532    3.2358   -1.0856 C   0  0  0  0  0  0  0  0  0  0  0  0
    0.6563    3.6880   -1.0627 H   0  0  0  0  0  0  0  0  0  0  0  0
    2.2933    3.7966   -0.3976 H   0  0  0  0  0  0  0  0  0  0  0  0
    2.0479    3.3426   -2.1006 H   0  0  0  0  0  0  0  0  0  0  0  0
  1  2  1  0  0  0  0
  2  3  1  0  0  0  0
  2  4  1  0  0  0  0
  2  5  1  0  0  0  0
  5  6  2  0  0  0  0
  5  7  1  0  0  0  0
  7  8  1  0  0  0  0
  7  9  1  0  0  0  0
  9 10  1  0  0  0  0
  9 11  1  0  0  0  0
  9 12  1  0  0  0  0
 12 13  2  0  0  0  0
 12 14  1  0  0  0  0
 14 15  1  0  0  0  0
 14 16  1  0  0  0  0
 16 17  1  0  0  0  0
 16 18  1  0  0  0  0
 16 19  1  0  0  0  0
M  END
$$$$

  -OEChem-01062216083D

 19 18  0     0  0  0  0  0  0999 V2000
   -2.1927   -4.0969   -0.0595 H   0  0  0  0  0  0  0  0  0  0  0  0
   -2.2654   -3.0057   -0.0729 C   0  0  0  0  0  0  0  0  0  0  0  0
   -2.8830   -2.6830    0.7688 H   0  0  0  0  0  0  0  0  0  0  0  0
   -2.7426   -2.6962   -1.0060 H   0  0  0  0  0  0  0  0  0  0  0  0
   -0.8830   -2.3884    0.0329 C   0  0  0  0  0  0  0  0  0  0  0  0
    0.0990   -3.1016    0.1697 O   0  0  0  0  0  0  0  0  0  0  0  0
   -0.7311   -1.0192   -0.0237 N   0  0  0  0  0  0  0  0  0  0  0  0
   -1.5660   -0.4428   -0.1288 H   0  0  0  0  0  0  0  0  0  0  0  0
    0.5592   -0.3271    0.0898 C   0  0  0  0  0  0  0  0  0  0  0  0
    0.9023   -0.3495    1.1282 H   0  0  0  0  0  0  0  0  0  0  0  0
    1.3052   -0.8416   -0.5237 H   0  0  0  0  0  0  0  0  0  0  0  0
    0.4762    1.1339   -0.3699 C   0  0  0  0  0  0  0  0  0  0  0  0
   -0.5912    1.7323   -0.3131 O   0  0  0  0  0  0  0  0  0  0  0  0
    1.5796    1.7576   -0.9209 N   0  0  0  0  0  0  0  0  0  0  0  0
    2.4388    1.2206   -0.9962 H   0  0  0  0  0  0  0  0  0  0  0  0
    1.5547    3.1244   -1.4277 C   0  0  0  0  0  0  0  0  0  0  0  0
    1.2673    3.8227   -0.6345 H   0  0  0  0  0  0  0  0  0  0  0  0
    2.5450    3.4096   -1.7958 H   0  0  0  0  0  0  0  0  0  0  0  0
    0.8402    3.2146   -2.2525 H   0  0  0  0  0  0  0  0  0  0  0  0
  1  2  1  0  0  0  0
  2  3  1  0  0  0  0
  2  4  1  0  0  0  0
  2  5  1  0  0  0  0
  5  6  2  0  0  0  0
  5  7  1  0  0  0  0
  7  8  1  0  0  0  0
  7  9  1  0  0  0  0
  9 10  1  0  0  0  0
  9 11  1  0  0  0  0
  9 12  1  0  0  0  0
 12 13  2  0  0  0  0
 12 14  1  0  0  0  0
 14 15  1  0  0  0  0
 14 16  1  0  0  0  0
 16 17  1  0  0  0  0
 16 18  1  0  0  0  0
 16 19  1  0  0  0  0
M  END
$$$$

  -OEChem-01062216083D

 19 18  0     0  0  0  0  0  0999 V2000
   -2.1937   -4.0963   -0.0182 H   0  0  0  0  0  0  0  0  0  0  0  0
   -2.2650   -3.0056   -0.0584 C   0  0  0  0  0  0  0  0  0  0  0  0
   -2.8662   -2.6607    0.7865 H   0  0  0  0  0  0  0  0  0  0  0  0
   -2.7596   -2.7193   -0.9898 H   0  0  0  0  0  0  0  0  0  0  0  0
   -0.8800   -2.3880    0.0050 C   0  0  0  0  0  0  0  0  0  0  0  0
    0.1063   -3.1017    0.1008 O   0  0  0  0  0  0  0  0  0  0  0  0
   -0.7316   -1.0180   -0.0455 N   0  0  0  0  0  0  0  0  0  0  0  0
   -1.5735   -0.4436   -0.0736 H   0  0  0  0  0  0  0  0  0  0  0  0
    0.5572   -0.3254    0.0819 C   0  0  0  0  0  0  0  0  0  0  0  0
    0.8904   -0.3471    1.1235 H   0  0  0  0  0  0  0  0  0  0  0  0
    1.3120   -0.8369   -0.5231 H   0  0  0  0  0  0  0  0  0  0  0  0
    0.4685    1.1351   -0.3749 C   0  0  0  0  0  0  0  0  0  0  0  0
   -0.5268    1.7940   -0.1022 O   0  0  0  0  0  0  0  0  0  0  0  0
    1.4460    1.6793   -1.1866 N   0  0  0  0  0  0  0  0  0  0  0  0
    2.2286    1.0862   -1.4476 H   0  0  0  0  0  0  0  0  0  0  0  0
    1.3751    3.0319   -1.7265 C   0  0  0  0  0  0  0  0  0  0  0  0
    1.2914    3.7645   -0.9167 H   0  0  0  0  0  0  0  0  0  0  0  0
    2.2781    3.2568   -2.3023 H   0  0  0  0  0  0  0  0  0  0  0  0
    0.5080    3.1363   -2.3872 H   0  0  0  0  0  0  0  0  0  0  0  0
  1  2  1  0  0  0  0
  2  3  1  0  0  0  0
  2  4  1  0  0  0  0
  2  5  1  0  0  0  0
  5  6  2  0  0  0  0
  5  7  1  0  0  0  0
  7  8  1  0  0  0  0
  7  9  1  0  0  0  0
  9 10  1  0  0  0  0
  9 11  1  0  0  0  0
  9 12  1  0  0  0  0
 12 13  2  0  0  0  0
 12 14  1  0  0  0  0
 14 15  1  0  0  0  0
 14 16  1  0  0  0  0
 16 17  1  0  0  0  0
 16 18  1  0  0  0  0
 16 19  1  0  0  0  0
M  END
$$$$

  -OEChem-01062216083D

 19 18  0     0  0  0  0  0  0999 V2000
   -2.1845   -4.0984   -0.0563 H   0  0  0  0  0  0  0  0  0  0  0  0
   -2.2620   -3.0074   -0.0482 C   0  0  0  0  0  0  0  0  0  0  0  0
   -2.8340   -2.7010    0.8310 H   0  0  0  0  0  0  0  0  0  0  0  0
   -2.7910   -2.6861   -0.9489 H   0  0  0  0  0  0  0  0  0  0  0  0
   -0.8784   -2.3845   -0.0091 C   0  0  0  0  0  0  0  0  0  0  0  0
    0.1123   -3.0952    0.0593 O   0  0  0  0  0  0  0  0  0  0  0  0
   -0.7374   -1.0133   -0.0590 N   0  0  0  0  0  0  0  0  0  0  0  0
   -1.5842   -0.4469   -0.0336 H   0  0  0  0  0  0  0  0  0  0  0  0
    0.5489   -0.3183    0.0821 C   0  0  0  0  0  0  0  0  0  0  0  0
    0.8703   -0.3367    1.1276 H   0  0  0  0  0  0  0  0  0  0  0  0
    1.3144   -0.8277   -0.5110 H   0  0  0  0  0  0  0  0  0  0  0  0
    0.4577    1.1402   -0.3770 C   0  0  0  0  0  0  0  0  0  0  0  0
   -0.4144    1.8624    0.0867 O   0  0  0  0  0  0  0  0  0  0  0  0
    1.2503    1.6037   -1.4100 N   0  0  0  0  0  0  0  0  0  0  0  0
    1.9063    0.9516   -1.8307 H   0  0  0  0  0  0  0  0  0  0  0  0
    1.1266    2.9424   -1.9742 C   0  0  0  0  0  0  0  0  0  0  0  0
    1.2706    3.7013   -1.1979 H   0  0  0  0  0  0  0  0  0  0  0  0
    1.8825    3.0969   -2.7502 H   0  0  0  0  0  0  0  0  0  0  0  0
    0.1368    3.0792   -2.4223 H   0  0  0  0  0  0  0  0  0  0  0  0
  1  2  1  0  0  0  0
  2  3  1  0  0  0  0
  2  4  1  0  0  0  0
  2  5  1  0  0  0  0
  5  6  2  0  0  0  0
  5  7  1  0  0  0  0
  7  8  1  0  0  0  0
  7  9  1  0  0  0  0
  9 10  1  0  0  0  0
  9 11  1  0  0  0  0
  9 12  1  0  0  0  0
 12 13  2  0  0  0  0
 12 14  1  0  0  0  0
 14 15  1  0  0  0  0
 14 16  1  0  0  0  0
 16 17  1  0  0  0  0
 16 18  1  0  0  0  0
 16 19  1  0  0  0  0
M  END
$$$$

  -OEChem-01062216083D

 19 18  0     0  0  0  0  0  0999 V2000
   -2.1613   -4.1179   -0.0661 H   0  0  0  0  0  0  0  0  0  0  0  0
   -2.2545   -3.0289   -0.0224 C   0  0  0  0  0  0  0  0  0  0  0  0
   -2.7900   -2.7575    0.8908 H   0  0  0  0  0  0  0  0  0  0  0  0
   -2.8291   -2.6905   -0.8880 H   0  0  0  0  0  0  0  0  0  0  0  0
   -0.8792   -2.3866   -0.0274 C   0  0  0  0  0  0  0  0  0  0  0  0
    0.1219   -3.0843    0.0144 O   0  0  0  0  0  0  0  0  0  0  0  0
   -0.7579   -1.0133   -0.0828 N   0  0  0  0  0  0  0  0  0  0  0  0
   -1.6123   -0.4633   -0.0120 H   0  0  0  0  0  0  0  0  0  0  0  0
    0.5210   -0.3069    0.0726 C   0  0  0  0  0  0  0  0  0  0  0  0
    0.8259   -0.3177    1.1234 H   0  0  0  0  0  0  0  0  0  0  0  0
    1.3029   -0.8105   -0.5040 H   0  0  0  0  0  0  0  0  0  0  0  0
    0.4257    1.1479   -0.3933 C   0  0  0  0  0  0  0  0  0  0  0  0
   -0.2611    1.9374    0.2392 O   0  0  0  0  0  0  0  0  0  0  0  0
    0.9853    1.5382   -1.5951 N   0  0  0  0  0  0  0  0  0  0  0  0
    1.4766    0.8330   -2.1374 H   0  0  0  0  0  0  0  0  0  0  0  0
    0.8452    2.8815   -2.1441 C   0  0  0  0  0  0  0  0  0  0  0  0
    1.2342    3.6257   -1.4410 H   0  0  0  0  0  0  0  0  0  0  0  0
    1.4045    2.9673   -3.0807 H   0  0  0  0  0  0  0  0  0  0  0  0
   -0.2074    3.1048   -2.3472 H   0  0  0  0  0  0  0  0  0  0  0  0
  1  2  1  0  0  0  0
  2  3  1  0  0  0  0
  2  4  1  0  0  0  0
  2  5  1  0  0  0  0
  5  6  2  0  0  0  0
  5  7  1  0  0  0  0
  7  8  1  0  0  0  0
  7  9  1  0  0  0  0
  9 10  1  0  0  0  0
  9 11  1  0  0  0  0
  9 12  1  0  0  0  0
 12 13  2  0  0  0  0
 12 14  1  0  0  0  0
 14 15  1  0  0  0  0
 14 16  1  0  0  0  0
 16 17  1  0  0  0  0
 16 18  1  0  0  0  0
 16 19  1  0  0  0  0
M  END
$$$$

  -OEChem-01062216083D

 19 18  0     0  0  0  0  0  0999 V2000
   -2.1489   -4.1298   -0.0163 H   0  0  0  0  0  0  0  0  0  0  0  0
   -2.2494   -3.0407   -0.0158 C   0  0  0  0  0  0  0  0  0  0  0  0
   -2.7951   -2.7384    0.8815 H   0  0  0  0  0  0  0  0  0  0  0  0
   -2.8180   -2.7393   -0.8990 H   0  0  0  0  0  0  0  0  0  0  0  0
   -0.8786   -2.3895   -0.0333 C   0  0  0  0  0  0  0  0  0  0  0  0
    0.1274   -3.0805   -0.0097 O   0  0  0  0  0  0  0  0  0  0  0  0
   -0.7686   -1.0149   -0.0847 N   0  0  0  0  0  0  0  0  0  0  0  0
   -1.6276   -0.4761    0.0060 H   0  0  0  0  0  0  0  0  0  0  0  0
    0.5068   -0.3016    0.0745 C   0  0  0  0  0  0  0  0  0  0  0  0
    0.8114   -0.3158    1.1257 H   0  0  0  0  0  0  0  0  0  0  0  0
    1.2940   -0.7953   -0.5038 H   0  0  0  0  0  0  0  0  0  0  0  0
    0.4033    1.1535   -0.3871 C   0  0  0  0  0  0  0  0  0  0  0  0
   -0.0380    2.0006    0.3755 O   0  0  0  0  0  0  0  0  0  0  0  0
    0.6776    1.4887   -1.6992 N   0  0  0  0  0  0  0  0  0  0  0  0
    0.9799    0.7441   -2.3214 H   0  0  0  0  0  0  0  0  0  0  0  0
    0.5096    2.8345   -2.2336 C   0  0  0  0  0  0  0  0  0  0  0  0
    1.1426    3.5441   -1.6903 H   0  0  0  0  0  0  0  0  0  0  0  0
    0.7917    2.8598   -3.2905 H   0  0  0  0  0  0  0  0  0  0  0  0
   -0.5342    3.1543   -2.1466 H   0  0  0  0  0  0  0  0  0  0  0  0
  1  2  1  0  0  0  0
  2  3  1  0  0  0  0
  2  4  1  0  0  0  0
  2  5  1  0  0  0  0
  5  6  2  0  0  0  0
  5  7  1  0  0  0  0
  7  8  1  0  0  0  0
  7  9  1  0  0  0  0
  9 10  1  0  0  0  0
  9 11  1  0  0  0  0
  9 12  1  0  0  0  0
 12 13  2  0  0  0  0
 12 14  1  0  0  0  0
 14 15  1  0  0  0  0
 14 16  1  0  0  0  0
 16 17  1  0  0  0  0
 16 18  1  0  0  0  0
 16 19  1  0  0  0  0
M  END
$$$$

  -OEChem-01062216083D

 19 18  0     0  0  0  0  0  0999 V2000
   -2.1256   -4.1495    0.0021 H   0  0  0  0  0  0  0  0  0  0  0  0
   -2.2387   -3.0616   -0.0088 C   0  0  0  0  0  0  0  0  0  0  0  0
   -2.7885   -2.7562    0.8849 H   0  0  0  0  0  0  0  0  0  0  0  0
   -2.8099   -2.7766   -0.8958 H   0  0  0  0  0  0  0  0  0  0  0  0
   -0.8755   -2.3949   -0.0321 C   0  0  0  0  0  0  0  0  0  0  0  0
    0.1380   -3.0745   -0.0200 O   0  0  0  0  0  0  0  0  0  0  0  0
   -0.7827   -1.0187   -0.0791 N   0  0  0  0  0  0  0  0  0  0  0  0
   -1.6486   -0.4939    0.0248 H   0  0  0  0  0  0  0  0  0  0  0  0
    0.4864   -0.2925    0.0811 C   0  0  0  0  0  0  0  0  0  0  0  0
    0.7942   -0.3113    1.1314 H   0  0  0  0  0  0  0  0  0  0  0  0
    1.2768   -0.7736   -0.5034 H   0  0  0  0  0  0  0  0  0  0  0  0
    0.3711    1.1634   -0.3741 C   0  0  0  0  0  0  0  0  0  0  0  0
    0.2223    2.0530    0.4501 O   0  0  0  0  0  0  0  0  0  0  0  0
    0.3342    1.4621   -1.7224 N   0  0  0  0  0  0  0  0  0  0  0  0
    0.4250    0.6891   -2.3760 H   0  0  0  0  0  0  0  0  0  0  0  0
    0.1668    2.8143   -2.2398 C   0  0  0  0  0  0  0  0  0  0  0  0
    0.9911    3.4554   -1.9101 H   0  0  0  0  0  0  0  0  0  0  0  0
    0.1548    2.8016   -3.3340 H   0  0  0  0  0  0  0  0  0  0  0  0
   -0.7770    3.2446   -1.8889 H   0  0  0  0  0  0  0  0  0  0  0  0
  1  2  1  0  0  0  0
  2  3  1  0  0  0  0
  2  4  1  0  0  0  0
  2  5  1  0  0  0  0
  5  6  2  0  0  0  0
  5  7  1  0  0  0  0
  7  8  1  0  0  0  0
  7  9  1  0  0  0  0
  9 10  1  0  0  0  0
  9 11  1  0  0  0  0
  9 12  1  0  0  0  0
 12 13  2  0  0  0  0
 12 14  1  0  0  0  0
 14 15  1  0  0  0  0
 14 16  1  0  0  0  0
 16 17  1  0  0  0  0
 16 18  1  0  0  0  0
 16 19  1  0  0  0  0
M  END
$$$$

  -OEChem-01062216083D

 19 18  0     0  0  0  0  0  0999 V2000
   -2.0950   -4.1810   -0.0658 H   0  0  0  0  0  0  0  0  0  0  0  0
   -2.2247   -3.0971    0.0036 C   0  0  0  0  0  0  0  0  0  0  0  0
   -2.7396   -2.8638    0.9388 H   0  0  0  0  0  0  0  0  0  0  0  0
   -2.8385   -2.7629   -0.8362 H   0  0  0  0  0  0  0  0  0  0  0  0
   -0.8736   -2.4060   -0.0307 C   0  0  0  0  0  0  0  0  0  0  0  0
    0.1510   -3.0684   -0.0307 O   0  0  0  0  0  0  0  0  0  0  0  0
   -0.8049   -1.0276   -0.0704 N   0  0  0  0  0  0  0  0  0  0  0  0
   -1.6795   -0.5210    0.0471 H   0  0  0  0  0  0  0  0  0  0  0  0
    0.4538   -0.2816    0.0929 C   0  0  0  0  0  0  0  0  0  0  0  0
    0.7639   -0.3055    1.1425 H   0  0  0  0  0  0  0  0  0  0  0  0
    1.2493   -0.7462   -0.4980 H   0  0  0  0  0  0  0  0  0  0  0  0
    0.3248    1.1771   -0.3519 C   0  0  0  0  0  0  0  0  0  0  0  0
    0.4748    2.0824    0.4543 O   0  0  0  0  0  0  0  0  0  0  0  0
   -0.0235    1.4693   -1.6567 N   0  0  0  0  0  0  0  0  0  0  0  0
   -0.1090    0.6887   -2.3018 H   0  0  0  0  0  0  0  0  0  0  0  0
   -0.1522    2.8292   -2.1657 C   0  0  0  0  0  0  0  0  0  0  0  0
    0.8065    3.3544   -2.1006 H   0  0  0  0  0  0  0  0  0  0  0  0
   -0.4684    2.8129   -3.2132 H   0  0  0  0  0  0  0  0  0  0  0  0
   -0.8987    3.3858   -1.5894 H   0  0  0  0  0  0  0  0  0  0  0  0
  1  2  1  0  0  0  0
  2  3  1  0  0  0  0
  2  4  1  0  0  0  0
  2  5  1  0  0  0  0
  5  6  2  0  0  0  0
  5  7  1  0  0  0  0
  7  8  1  0  0  0  0
  7  9  1  0  0  0  0
  9 10  1  0  0  0  0
  9 11  1  0  0  0  0
  9 12  1  0  0  0  0
 12 13  2  0  0  0  0
 12 14  1  0  0  0  0
 14 15  1  0  0  0  0
 14 16  1  0  0  0  0
 16 17  1  0  0  0  0
 16 18  1  0  0  0  0
 16 19  1  0  0  0  0
M  END
$$$$

  -OEChem-01062216083D

 19 18  0     0  0  0  0  0  0999 V2000
   -2.0798   -4.1961   -0.0147 H   0  0  0  0  0  0  0  0  0  0  0  0
   -2.2157   -3.1109    0.0037 C   0  0  0  0  0  0  0  0  0  0  0  0
   -2.7500   -2.8390    0.9174 H   0  0  0  0  0  0  0  0  0  0  0  0
   -2.8140   -2.8170   -0.8621 H   0  0  0  0  0  0  0  0  0  0  0  0
   -0.8679   -2.4145   -0.0353 C   0  0  0  0  0  0  0  0  0  0  0  0
    0.1592   -3.0724   -0.0561 O   0  0  0  0  0  0  0  0  0  0  0  0
   -0.8072   -1.0354   -0.0579 N   0  0  0  0  0  0  0  0  0  0  0  0
   -1.6828   -0.5366    0.0822 H   0  0  0  0  0  0  0  0  0  0  0  0
    0.4505   -0.2850    0.1011 C   0  0  0  0  0  0  0  0  0  0  0  0
    0.7739   -0.3239    1.1461 H   0  0  0  0  0  0  0  0  0  0  0  0
    1.2388   -0.7379   -0.5083 H   0  0  0  0  0  0  0  0  0  0  0  0
    0.3154    1.1803   -0.3217 C   0  0  0  0  0  0  0  0  0  0  0  0
    0.7430    2.0707    0.3965 O   0  0  0  0  0  0  0  0  0  0  0  0
   -0.3354    1.4996   -1.4985 N   0  0  0  0  0  0  0  0  0  0  0  0
   -0.6088    0.7270   -2.0993 H   0  0  0  0  0  0  0  0  0  0  0  0
   -0.4698    2.8642   -1.9929 C   0  0  0  0  0  0  0  0  0  0  0  0
    0.5161    3.3022   -2.1805 H   0  0  0  0  0  0  0  0  0  0  0  0
   -1.0372    2.8731   -2.9285 H   0  0  0  0  0  0  0  0  0  0  0  0
   -0.9988    3.4865   -1.2634 H   0  0  0  0  0  0  0  0  0  0  0  0
  1  2  1  0  0  0  0
  2  3  1  0  0  0  0
  2  4  1  0  0  0  0
  2  5  1  0  0  0  0
  5  6  2  0  0  0  0
  5  7  1  0  0  0  0
  7  8  1  0  0  0  0
  7  9  1  0  0  0  0
  9 10  1  0  0  0  0
  9 11  1  0  0  0  0
  9 12  1  0  0  0  0
 12 13  2  0  0  0  0
 12 14  1  0  0  0  0
 14 15  1  0  0  0  0
 14 16  1  0  0  0  0
 16 17  1  0  0  0  0
 16 18  1  0  0  0  0
 16 19  1  0  0  0  0
M  END
$$$$

  -OEChem-01062216083D

 19 18  0     0  0  0  0  0  0999 V2000
   -2.0575   -4.2210   -0.0024 H   0  0  0  0  0  0  0  0  0  0  0  0
   -2.2059   -3.1372    0.0040 C   0  0  0  0  0  0  0  0  0  0  0  0
   -2.7434   -2.8622    0.9148 H   0  0  0  0  0  0  0  0  0  0  0  0
   -2.8074   -2.8600   -0.8651 H   0  0  0  0  0  0  0  0  0  0  0  0
   -0.8656   -2.4265   -0.0433 C   0  0  0  0  0  0  0  0  0  0  0  0
    0.1668   -3.0751   -0.0741 O   0  0  0  0  0  0  0  0  0  0  0  0
   -0.8180   -1.0461   -0.0530 N   0  0  0  0  0  0  0  0  0  0  0  0
   -1.6950   -0.5597    0.1173 H   0  0  0  0  0  0  0  0  0  0  0  0
    0.4365   -0.2885    0.1104 C   0  0  0  0  0  0  0  0  0  0  0  0
    0.7631   -0.3386    1.1539 H   0  0  0  0  0  0  0  0  0  0  0  0
    1.2238   -0.7330   -0.5069 H   0  0  0  0  0  0  0  0  0  0  0  0
    0.3082    1.1840   -0.2937 C   0  0  0  0  0  0  0  0  0  0  0  0
    0.9615    2.0361    0.2881 O   0  0  0  0  0  0  0  0  0  0  0  0
   -0.5866    1.5606   -1.2786 N   0  0  0  0  0  0  0  0  0  0  0  0
   -1.0111    0.8134   -1.8203 H   0  0  0  0  0  0  0  0  0  0  0  0
   -0.7207    2.9349   -1.7463 C   0  0  0  0  0  0  0  0  0  0  0  0
    0.2158    3.2793   -2.1975 H   0  0  0  0  0  0  0  0  0  0  0  0
   -1.5141    3.0030   -2.4967 H   0  0  0  0  0  0  0  0  0  0  0  0
   -0.9763    3.6002   -0.9147 H   0  0  0  0  0  0  0  0  0  0  0  0
  1  2  1  0  0  0  0
  2  3  1  0  0  0  0
  2  4  1  0  0  0  0
  2  5  1  0  0  0  0
  5  6  2  0  0  0  0
  5  7  1  0  0  0  0
  7  8  1  0  0  0  0
  7  9  1  0  0  0  0
  9 10  1  0  0  0  0
  9 11  1  0  0  0  0
  9 12  1  0  0  0  0
 12 13  2  0  0  0  0
 12 14  1  0  0  0  0
 14 15  1  0  0  0  0
 14 16  1  0  0  0  0
 16 17  1  0  0  0  0
 16 18  1  0  0  0  0
 16 19  1  0  0  0  0
M  END
$$$$

  -OEChem-01062216083D

 19 18  0     0  0  0  0  0  0999 V2000
   -2.0353   -4.2439   -0.0335 H   0  0  0  0  0  0  0  0  0  0  0  0
   -2.1944   -3.1623    0.0029 C   0  0  0  0  0  0  0  0  0  0  0  0
   -2.7123   -2.9153    0.9328 H   0  0  0  0  0  0  0  0  0  0  0  0
   -2.8195   -2.8712   -0.8446 H   0  0  0  0  0  0  0  0  0  0  0  0
   -0.8623   -2.4373   -0.0589 C   0  0  0  0  0  0  0  0  0  0  0  0
    0.1751   -3.0766   -0.1072 O   0  0  0  0  0  0  0  0  0  0  0  0
   -0.8284   -1.0560   -0.0540 N   0  0  0  0  0  0  0  0  0  0  0  0
   -1.7047   -0.5864    0.1592 H   0  0  0  0  0  0  0  0  0  0  0  0
    0.4233   -0.2939    0.1192 C   0  0  0  0  0  0  0  0  0  0  0  0
    0.7488   -0.3575    1.1621 H   0  0  0  0  0  0  0  0  0  0  0  0
    1.2118   -0.7303   -0.5027 H   0  0  0  0  0  0  0  0  0  0  0  0
    0.3063    1.1860   -0.2643 C   0  0  0  0  0  0  0  0  0  0  0  0
    1.1356    1.9831    0.1456 O   0  0  0  0  0  0  0  0  0  0  0  0
   -0.7694    1.6413   -1.0060 N   0  0  0  0  0  0  0  0  0  0  0  0
   -1.3374    0.9337   -1.4615 H   0  0  0  0  0  0  0  0  0  0  0  0
   -0.8954    3.0268   -1.4430 C   0  0  0  0  0  0  0  0  0  0  0  0
   -0.0816    3.2876   -2.1276 H   0  0  0  0  0  0  0  0  0  0  0  0
   -1.8474    3.1754   -1.9614 H   0  0  0  0  0  0  0  0  0  0  0  0
   -0.8630    3.7052   -0.5839 H   0  0  0  0  0  0  0  0  0  0  0  0
  1  2  1  0  0  0  0
  2  3  1  0  0  0  0
  2  4  1  0  0  0  0
  2  5  1  0  0  0  0
  5  6  2  0  0  0  0
  5  7  1  0  0  0  0
  7  8  1  0  0  0  0
  7  9  1  0  0  0  0
  9 10  1  0  0  0  0
  9 11  1  0  0  0  0
  9 12  1  0  0  0  0
 12 13  2  0  0  0  0
 12 14  1  0  0  0  0
 14 15  1  0  0  0  0
 14 16  1  0  0  0  0
 16 17  1  0  0  0  0
 16 18  1  0  0  0  0
 16 19  1  0  0  0  0
M  END
$$$$

  -OEChem-01062216083D

 19 18  0     0  0  0  0  0  0999 V2000
   -2.0288   -4.2560   -0.0573 H   0  0  0  0  0  0  0  0  0  0  0  0
   -2.1896   -3.1751   -0.0057 C   0  0  0  0  0  0  0  0  0  0  0  0
   -2.6972   -2.9405    0.9331 H   0  0  0  0  0  0  0  0  0  0  0  0
   -2.8254   -2.8750   -0.8422 H   0  0  0  0  0  0  0  0  0  0  0  0
   -0.8599   -2.4462   -0.0751 C   0  0  0  0  0  0  0  0  0  0  0  0
    0.1782   -3.0832   -0.1351 O   0  0  0  0  0  0  0  0  0  0  0  0
   -0.8315   -1.0645   -0.0583 N   0  0  0  0  0  0  0  0  0  0  0  0
   -1.7046   -0.6082    0.1905 H   0  0  0  0  0  0  0  0  0  0  0  0
    0.4212   -0.3042    0.1203 C   0  0  0  0  0  0  0  0  0  0  0  0
    0.7473   -0.3799    1.1619 H   0  0  0  0  0  0  0  0  0  0  0  0
    1.2075   -0.7381   -0.5063 H   0  0  0  0  0  0  0  0  0  0  0  0
    0.3207    1.1821   -0.2458 C   0  0  0  0  0  0  0  0  0  0  0  0
    1.2770    1.9139   -0.0432 O   0  0  0  0  0  0  0  0  0  0  0  0
   -0.8652    1.7282   -0.7052 N   0  0  0  0  0  0  0  0  0  0  0  0
   -1.5710    1.0749   -1.0274 H   0  0  0  0  0  0  0  0  0  0  0  0
   -0.9872    3.1293   -1.0911 C   0  0  0  0  0  0  0  0  0  0  0  0
   -0.3251    3.3537   -1.9339 H   0  0  0  0  0  0  0  0  0  0  0  0
   -2.0164    3.3517   -1.3884 H   0  0  0  0  0  0  0  0  0  0  0  0
   -0.7235    3.7827   -0.2526 H   0  0  0  0  0  0  0  0  0  0  0  0
  1  2  1  0  0  0  0
  2  3  1  0  0  0  0
  2  4  1  0  0  0  0
  2  5  1  0  0  0  0
  5  6  2  0  0  0  0
  5  7  1  0  0  0  0
  7  8  1  0  0  0  0
  7  9  1  0  0  0  0
  9 10  1  0  0  0  0
  9 11  1  0  0  0  0
  9 12  1  0  0  0  0
 12 13  2  0  0  0  0
 12 14  1  0  0  0  0
 14 15  1  0  0  0  0
 14 16  1  0  0  0  0
 16 17  1  0  0  0  0
 16 18  1  0  0  0  0
 16 19  1  0  0  0  0
M  END
$$$$

  -OEChem-01062216083D

 19 18  0     0  0  0  0  0  0999 V2000
   -2.0996   -4.2045    0.1886 H   0  0  0  0  0  0  0  0  0  0  0  0
   -2.2222   -3.1223    0.0871 C   0  0  0  0  0  0  0  0  0  0  0  0
   -2.8419   -2.7612    0.9112 H   0  0  0  0  0  0  0  0  0  0  0  0
   -2.7258   -2.9128   -0.8598 H   0  0  0  0  0  0  0  0  0  0  0  0
   -0.8675   -2.4391    0.1171 C   0  0  0  0  0  0  0  0  0  0  0  0
    0.1507   -3.1086    0.1669 O   0  0  0  0  0  0  0  0  0  0  0  0
   -0.7912   -1.0601    0.0856 N   0  0  0  0  0  0  0  0  0  0  0  0
   -1.6548   -0.5793   -0.1475 H   0  0  0  0  0  0  0  0  0  0  0  0
    0.4826   -0.3600   -0.1683 C   0  0  0  0  0  0  0  0  0  0  0  0
    1.1184   -0.4334    0.7192 H   0  0  0  0  0  0  0  0  0  0  0  0
    1.0098   -0.8454   -0.9967 H   0  0  0  0  0  0  0  0  0  0  0  0
    0.3290    1.1246   -0.5230 C   0  0  0  0  0  0  0  0  0  0  0  0
    1.2509    1.7110   -1.0680 O   0  0  0  0  0  0  0  0  0  0  0  0
   -0.8602    1.7955   -0.2925 N   0  0  0  0  0  0  0  0  0  0  0  0
   -1.5194    1.3517    0.3377 H   0  0  0  0  0  0  0  0  0  0  0  0
   -1.0213    3.2183   -0.5703 C   0  0  0  0  0  0  0  0  0  0  0  0
   -0.3465    3.8098    0.0573 H   0  0  0  0  0  0  0  0  0  0  0  0
   -0.8011    3.4320   -1.6217 H   0  0  0  0  0  0  0  0  0  0  0  0
   -2.0500    3.5299   -0.3658 H   0  0  0  0  0  0  0  0  0  0  0  0
  1  2  1  0  0  0  0
  2  3  1  0  0  0  0
  2  4  1  0  0  0  0
  2  5  1  0  0  0  0
  5  6  2  0  0  0  0
  5  7  1  0  0  0  0
  7  8  1  0  0  0  0
  7  9  1  0  0  0  0
  9 10  1  0  0  0  0
  9 11  1  0  0  0  0
  9 12  1  0  0  0  0
 12 13  2  0  0  0  0
 12 14  1  0  0  0  0
 14 15  1  0  0  0  0
 14 16  1  0  0  0  0
 16 17  1  0  0  0  0
 16 18  1  0  0  0  0
 16 19  1  0  0  0  0
M  END
$$$$

  -OEChem-01062216083D

 19 18  0     0  0  0  0  0  0999 V2000
   -2.1149   -4.1829    0.1415 H   0  0  0  0  0  0  0  0  0  0  0  0
   -2.2301   -3.0974    0.0719 C   0  0  0  0  0  0  0  0  0  0  0  0
   -2.8371   -2.7544    0.9132 H   0  0  0  0  0  0  0  0  0  0  0  0
   -2.7437   -2.8581   -0.8625 H   0  0  0  0  0  0  0  0  0  0  0  0
   -0.8698   -2.4252    0.1046 C   0  0  0  0  0  0  0  0  0  0  0  0
    0.1438   -3.1021    0.1532 O   0  0  0  0  0  0  0  0  0  0  0  0
   -0.7822   -1.0468    0.0845 N   0  0  0  0  0  0  0  0  0  0  0  0
   -1.6428   -0.5516   -0.1338 H   0  0  0  0  0  0  0  0  0  0  0  0
    0.4938   -0.3498   -0.1610 C   0  0  0  0  0  0  0  0  0  0  0  0
    1.1306   -0.4284    0.7253 H   0  0  0  0  0  0  0  0  0  0  0  0
    1.0213   -0.8262   -0.9946 H   0  0  0  0  0  0  0  0  0  0  0  0
    0.3184    1.1347   -0.5002 C   0  0  0  0  0  0  0  0  0  0  0  0
    1.0974    1.6840   -1.2633 O   0  0  0  0  0  0  0  0  0  0  0  0
   -0.7499    1.8476    0.0155 N   0  0  0  0  0  0  0  0  0  0  0  0
   -1.2674    1.4114    0.7724 H   0  0  0  0  0  0  0  0  0  0  0  0
   -0.9319    3.2750   -0.2223 C   0  0  0  0  0  0  0  0  0  0  0  0
   -0.1020    3.8443    0.2093 H   0  0  0  0  0  0  0  0  0  0  0  0
   -0.9794    3.4825   -1.2967 H   0  0  0  0  0  0  0  0  0  0  0  0
   -1.8648    3.6189    0.2347 H   0  0  0  0  0  0  0  0  0  0  0  0
  1  2  1  0  0  0  0
  2  3  1  0  0  0  0
  2  4  1  0  0  0  0
  2  5  1  0  0  0  0
  5  6  2  0  0  0  0
  5  7  1  0  0  0  0
  7  8  1  0  0  0  0
  7  9  1  0  0  0  0
  9 10  1  0  0  0  0
  9 11  1  0  0  0  0
  9 12  1  0  0  0  0
 12 13  2  0  0  0  0
 12 14  1  0  0  0  0
 14 15  1  0  0  0  0
 14 16  1  0  0  0  0
 16 17  1  0  0  0  0
 16 18  1  0  0  0  0
 16 19  1  0  0  0  0
M  END
$$$$

  -OEChem-01062216083D

 19 18  0     0  0  0  0  0  0999 V2000
   -2.1327   -4.1620    0.1158 H   0  0  0  0  0  0  0  0  0  0  0  0
   -2.2394   -3.0748    0.0596 C   0  0  0  0  0  0  0  0  0  0  0  0
   -2.8397   -2.7369    0.9079 H   0  0  0  0  0  0  0  0  0  0  0  0
   -2.7556   -2.8199   -0.8693 H   0  0  0  0  0  0  0  0  0  0  0  0
   -0.8733   -2.4138    0.0917 C   0  0  0  0  0  0  0  0  0  0  0  0
    0.1354   -3.0989    0.1254 O   0  0  0  0  0  0  0  0  0  0  0  0
   -0.7737   -1.0363    0.0879 N   0  0  0  0  0  0  0  0  0  0  0  0
   -1.6339   -0.5253   -0.0943 H   0  0  0  0  0  0  0  0  0  0  0  0
    0.5041   -0.3420   -0.1499 C   0  0  0  0  0  0  0  0  0  0  0  0
    1.1434   -0.4317    0.7333 H   0  0  0  0  0  0  0  0  0  0  0  0
    1.0300   -0.8074   -0.9908 H   0  0  0  0  0  0  0  0  0  0  0  0
    0.3155    1.1444   -0.4683 C   0  0  0  0  0  0  0  0  0  0  0  0
    0.8957    1.6521   -1.4152 O   0  0  0  0  0  0  0  0  0  0  0  0
   -0.5551    1.9057    0.2903 N   0  0  0  0  0  0  0  0  0  0  0  0
   -0.9219    1.4811    1.1370 H   0  0  0  0  0  0  0  0  0  0  0  0
   -0.7505    3.3351    0.0783 C   0  0  0  0  0  0  0  0  0  0  0  0
    0.1832    3.8796    0.2539 H   0  0  0  0  0  0  0  0  0  0  0  0
   -1.0837    3.5291   -0.9467 H   0  0  0  0  0  0  0  0  0  0  0  0
   -1.5110    3.7191    0.7650 H   0  0  0  0  0  0  0  0  0  0  0  0
  1  2  1  0  0  0  0
  2  3  1  0  0  0  0
  2  4  1  0  0  0  0
  2  5  1  0  0  0  0
  5  6  2  0  0  0  0
  5  7  1  0  0  0  0
  7  8  1  0  0  0  0
  7  9  1  0  0  0  0
  9 10  1  0  0  0  0
  9 11  1  0  0  0  0
  9 12  1  0  0  0  0
 12 13  2  0  0  0  0
 12 14  1  0  0  0  0
 14 15  1  0  0  0  0
 14 16  1  0  0  0  0
 16 17  1  0  0  0  0
 16 18  1  0  0  0  0
 16 19  1  0  0  0  0
M  END
$$$$

  -OEChem-01062216083D

 19 18  0     0  0  0  0  0  0999 V2000
   -2.1475   -4.1406    0.1624 H   0  0  0  0  0  0  0  0  0  0  0  0
   -2.2449   -3.0572    0.0493 C   0  0  0  0  0  0  0  0  0  0  0  0
   -2.8643   -2.6737    0.8635 H   0  0  0  0  0  0  0  0  0  0  0  0
   -2.7347   -2.8450   -0.9042 H   0  0  0  0  0  0  0  0  0  0  0  0
   -0.8757   -2.4039    0.0845 C   0  0  0  0  0  0  0  0  0  0  0  0
    0.1303   -3.0937    0.1120 O   0  0  0  0  0  0  0  0  0  0  0  0
   -0.7698   -1.0275    0.0974 N   0  0  0  0  0  0  0  0  0  0  0  0
   -1.6285   -0.5082   -0.0694 H   0  0  0  0  0  0  0  0  0  0  0  0
    0.5089   -0.3366   -0.1365 C   0  0  0  0  0  0  0  0  0  0  0  0
    1.1541   -0.4404    0.7407 H   0  0  0  0  0  0  0  0  0  0  0  0
    1.0289   -0.7911   -0.9871 H   0  0  0  0  0  0  0  0  0  0  0  0
    0.3151    1.1523   -0.4343 C   0  0  0  0  0  0  0  0  0  0  0  0
    0.6477    1.6180   -1.5132 O   0  0  0  0  0  0  0  0  0  0  0  0
   -0.2947    1.9633    0.5045 N   0  0  0  0  0  0  0  0  0  0  0  0
   -0.5020    1.5532    1.4108 H   0  0  0  0  0  0  0  0  0  0  0  0
   -0.4889    3.3957    0.3150 C   0  0  0  0  0  0  0  0  0  0  0  0
    0.4757    3.9003    0.1956 H   0  0  0  0  0  0  0  0  0  0  0  0
   -1.0986    3.5856   -0.5746 H   0  0  0  0  0  0  0  0  0  0  0  0
   -1.0003    3.8260    1.1815 H   0  0  0  0  0  0  0  0  0  0  0  0
  1  2  1  0  0  0  0
  2  3  1  0  0  0  0
  2  4  1  0  0  0  0
  2  5  1  0  0  0  0
  5  6  2  0  0  0  0
  5  7  1  0  0  0  0
  7  8  1  0  0  0  0
  7  9  1  0  0  0  0
  9 10  1  0  0  0  0
  9 11  1  0  0  0  0
  9 12  1  0  0  0  0
 12 13  2  0  0  0  0
 12 14  1  0  0  0  0
 14 15  1  0  0  0  0
 14 16  1  0  0  0  0
 16 17  1  0  0  0  0
 16 18  1  0  0  0  0
 16 19  1  0  0  0  0
M  END
$$$$

  -OEChem-01062216083D

 19 18  0     0  0  0  0  0  0999 V2000
   -2.1655   -4.1224    0.1288 H   0  0  0  0  0  0  0  0  0  0  0  0
   -2.2544   -3.0359    0.0401 C   0  0  0  0  0  0  0  0  0  0  0  0
   -2.8668   -2.6654    0.8657 H   0  0  0  0  0  0  0  0  0  0  0  0
   -2.7474   -2.7992   -0.9060 H   0  0  0  0  0  0  0  0  0  0  0  0
   -0.8795   -2.3945    0.0825 C   0  0  0  0  0  0  0  0  0  0  0  0
    0.1206   -3.0936    0.1013 O   0  0  0  0  0  0  0  0  0  0  0  0
   -0.7605   -1.0194    0.1131 N   0  0  0  0  0  0  0  0  0  0  0  0
   -1.6138   -0.4895   -0.0496 H   0  0  0  0  0  0  0  0  0  0  0  0
    0.5231   -0.3378   -0.1156 C   0  0  0  0  0  0  0  0  0  0  0  0
    1.1726   -0.4626    0.7556 H   0  0  0  0  0  0  0  0  0  0  0  0
    1.0347   -0.7836   -0.9759 H   0  0  0  0  0  0  0  0  0  0  0  0
    0.3393    1.1562   -0.3929 C   0  0  0  0  0  0  0  0  0  0  0  0
    0.3715    1.5794   -1.5382 O   0  0  0  0  0  0  0  0  0  0  0  0
    0.0347    2.0155    0.6458 N   0  0  0  0  0  0  0  0  0  0  0  0
    0.0120    1.6281    1.5848 H   0  0  0  0  0  0  0  0  0  0  0  0
   -0.1840    3.4453    0.4633 C   0  0  0  0  0  0  0  0  0  0  0  0
    0.7119    3.9204    0.0496 H   0  0  0  0  0  0  0  0  0  0  0  0
   -1.0229    3.6215   -0.2181 H   0  0  0  0  0  0  0  0  0  0  0  0
   -0.4140    3.9179    1.4231 H   0  0  0  0  0  0  0  0  0  0  0  0
  1  2  1  0  0  0  0
  2  3  1  0  0  0  0
  2  4  1  0  0  0  0
  2  5  1  0  0  0  0
  5  6  2  0  0  0  0
  5  7  1  0  0  0  0
  7  8  1  0  0  0  0
  7  9  1  0  0  0  0
  9 10  1  0  0  0  0
  9 11  1  0  0  0  0
  9 12  1  0  0  0  0
 12 13  2  0  0  0  0
 12 14  1  0  0  0  0
 14 15  1  0  0  0  0
 14 16  1  0  0  0  0
 16 17  1  0  0  0  0
 16 18  1  0  0  0  0
 16 19  1  0  0  0  0
M  END
$$$$

  -OEChem-01062216083D

 19 18  0     0  0  0  0  0  0999 V2000
   -2.1820   -4.1052    0.0746 H   0  0  0  0  0  0  0  0  0  0  0  0
   -2.2626   -3.0152    0.0313 C   0  0  0  0  0  0  0  0  0  0  0  0
   -2.8633   -2.6733    0.8777 H   0  0  0  0  0  0  0  0  0  0  0  0
   -2.7630   -2.7361   -0.8993 H   0  0  0  0  0  0  0  0  0  0  0  0
   -0.8821   -2.3867    0.0857 C   0  0  0  0  0  0  0  0  0  0  0  0
    0.1119   -3.0949    0.1058 O   0  0  0  0  0  0  0  0  0  0  0  0
   -0.7506   -1.0133    0.1262 N   0  0  0  0  0  0  0  0  0  0  0  0
   -1.5961   -0.4746   -0.0499 H   0  0  0  0  0  0  0  0  0  0  0  0
    0.5395   -0.3429   -0.0927 C   0  0  0  0  0  0  0  0  0  0  0  0
    1.1845   -0.4830    0.7794 H   0  0  0  0  0  0  0  0  0  0  0  0
    1.0498   -0.7845   -0.9552 H   0  0  0  0  0  0  0  0  0  0  0  0
    0.3696    1.1545   -0.3605 C   0  0  0  0  0  0  0  0  0  0  0  0
    0.0981    1.5462   -1.4855 O   0  0  0  0  0  0  0  0  0  0  0  0
    0.3787    2.0517    0.6906 N   0  0  0  0  0  0  0  0  0  0  0  0
    0.5612    1.6861    1.6208 H   0  0  0  0  0  0  0  0  0  0  0  0
    0.1501    3.4820    0.5245 C   0  0  0  0  0  0  0  0  0  0  0  0
    0.8982    3.9141   -0.1486 H   0  0  0  0  0  0  0  0  0  0  0  0
   -0.8463    3.6653    0.1087 H   0  0  0  0  0  0  0  0  0  0  0  0
    0.2205    3.9910    1.4906 H   0  0  0  0  0  0  0  0  0  0  0  0
  1  2  1  0  0  0  0
  2  3  1  0  0  0  0
  2  4  1  0  0  0  0
  2  5  1  0  0  0  0
  5  6  2  0  0  0  0
  5  7  1  0  0  0  0
  7  8  1  0  0  0  0
  7  9  1  0  0  0  0
  9 10  1  0  0  0  0
  9 11  1  0  0  0  0
  9 12  1  0  0  0  0
 12 13  2  0  0  0  0
 12 14  1  0  0  0  0
 14 15  1  0  0  0  0
 14 16  1  0  0  0  0
 16 17  1  0  0  0  0
 16 18  1  0  0  0  0
 16 19  1  0  0  0  0
M  END
$$$$

  -OEChem-01062216083D

 19 18  0     0  0  0  0  0  0999 V2000
   -2.2052   -4.0806    0.0521 H   0  0  0  0  0  0  0  0  0  0  0  0
   -2.2721   -2.9894    0.0230 C   0  0  0  0  0  0  0  0  0  0  0  0
   -2.8717   -2.6513    0.8714 H   0  0  0  0  0  0  0  0  0  0  0  0
   -2.7654   -2.6917   -0.9054 H   0  0  0  0  0  0  0  0  0  0  0  0
   -0.8846   -2.3783    0.0920 C   0  0  0  0  0  0  0  0  0  0  0  0
    0.1011   -3.0982    0.1229 O   0  0  0  0  0  0  0  0  0  0  0  0
   -0.7363   -1.0072    0.1358 N   0  0  0  0  0  0  0  0  0  0  0  0
   -1.5704   -0.4578   -0.0635 H   0  0  0  0  0  0  0  0  0  0  0  0
    0.5622   -0.3529   -0.0771 C   0  0  0  0  0  0  0  0  0  0  0  0
    1.2009   -0.5047    0.7975 H   0  0  0  0  0  0  0  0  0  0  0  0
    1.0699   -0.7968   -0.9399 H   0  0  0  0  0  0  0  0  0  0  0  0
    0.4070    1.1469   -0.3420 C   0  0  0  0  0  0  0  0  0  0  0  0
   -0.1514    1.5251   -1.3616 O   0  0  0  0  0  0  0  0  0  0  0  0
    0.7249    2.0659    0.6402 N   0  0  0  0  0  0  0  0  0  0  0  0
    1.1133    1.7125    1.5101 H   0  0  0  0  0  0  0  0  0  0  0  0
    0.4870    3.4978    0.5031 C   0  0  0  0  0  0  0  0  0  0  0  0
    0.9947    3.8874   -0.3856 H   0  0  0  0  0  0  0  0  0  0  0  0
   -0.5854    3.7010    0.4143 H   0  0  0  0  0  0  0  0  0  0  0  0
    0.8691    4.0310    1.3791 H   0  0  0  0  0  0  0  0  0  0  0  0
  1  2  1  0  0  0  0
  2  3  1  0  0  0  0
  2  4  1  0  0  0  0
  2  5  1  0  0  0  0
  5  6  2  0  0  0  0
  5  7  1  0  0  0  0
  7  8  1  0  0  0  0
  7  9  1  0  0  0  0
  9 10  1  0  0  0  0
  9 11  1  0  0  0  0
  9 12  1  0  0  0  0
 12 13  2  0  0  0  0
 12 14  1  0  0  0  0
 14 15  1  0  0  0  0
 14 16  1  0  0  0  0
 16 17  1  0  0  0  0
 16 18  1  0  0  0  0
 16 19  1  0  0  0  0
M  END
$$$$

  -OEChem-01062216083D

 19 18  0     0  0  0  0  0  0999 V2000
   -2.2276   -4.0635    0.0628 H   0  0  0  0  0  0  0  0  0  0  0  0
   -2.2806   -2.9717    0.0257 C   0  0  0  0  0  0  0  0  0  0  0  0
   -2.8768   -2.6196    0.8711 H   0  0  0  0  0  0  0  0  0  0  0  0
   -2.7692   -2.6740   -0.9053 H   0  0  0  0  0  0  0  0  0  0  0  0
   -0.8858   -2.3773    0.0911 C   0  0  0  0  0  0  0  0  0  0  0  0
    0.0925   -3.1082    0.1097 O   0  0  0  0  0  0  0  0  0  0  0  0
   -0.7227   -1.0084    0.1373 N   0  0  0  0  0  0  0  0  0  0  0  0
   -1.5504   -0.4467   -0.0574 H   0  0  0  0  0  0  0  0  0  0  0  0
    0.5799   -0.3620   -0.0724 C   0  0  0  0  0  0  0  0  0  0  0  0
    1.2122   -0.5192    0.8060 H   0  0  0  0  0  0  0  0  0  0  0  0
    1.0881   -0.8068   -0.9340 H   0  0  0  0  0  0  0  0  0  0  0  0
    0.4320    1.1402   -0.3339 C   0  0  0  0  0  0  0  0  0  0  0  0
   -0.3525    1.5283   -1.1888 O   0  0  0  0  0  0  0  0  0  0  0  0
    1.0295    2.0602    0.5068 N   0  0  0  0  0  0  0  0  0  0  0  0
    1.6114    1.7051    1.2601 H   0  0  0  0  0  0  0  0  0  0  0  0
    0.8166    3.4984    0.3975 C   0  0  0  0  0  0  0  0  0  0  0  0
    1.0852    3.8509   -0.6041 H   0  0  0  0  0  0  0  0  0  0  0  0
   -0.2328    3.7458    0.5891 H   0  0  0  0  0  0  0  0  0  0  0  0
    1.4363    4.0289    1.1268 H   0  0  0  0  0  0  0  0  0  0  0  0
  1  2  1  0  0  0  0
  2  3  1  0  0  0  0
  2  4  1  0  0  0  0
  2  5  1  0  0  0  0
  5  6  2  0  0  0  0
  5  7  1  0  0  0  0
  7  8  1  0  0  0  0
  7  9  1  0  0  0  0
  9 10  1  0  0  0  0
  9 11  1  0  0  0  0
  9 12  1  0  0  0  0
 12 13  2  0  0  0  0
 12 14  1  0  0  0  0
 14 15  1  0  0  0  0
 14 16  1  0  0  0  0
 16 17  1  0  0  0  0
 16 18  1  0  0  0  0
 16 19  1  0  0  0  0
M  END
$$$$

  -OEChem-01062216083D

 19 18  0     0  0  0  0  0  0999 V2000
   -2.2394   -4.0591    0.0736 H   0  0  0  0  0  0  0  0  0  0  0  0
   -2.2869   -2.9672    0.0340 C   0  0  0  0  0  0  0  0  0  0  0  0
   -2.8697   -2.6095    0.8862 H   0  0  0  0  0  0  0  0  0  0  0  0
   -2.7862   -2.6692   -0.8912 H   0  0  0  0  0  0  0  0  0  0  0  0
   -0.8882   -2.3804    0.0791 C   0  0  0  0  0  0  0  0  0  0  0  0
    0.0864   -3.1163    0.0710 O   0  0  0  0  0  0  0  0  0  0  0  0
   -0.7156   -1.0133    0.1327 N   0  0  0  0  0  0  0  0  0  0  0  0
   -1.5420   -0.4389   -0.0303 H   0  0  0  0  0  0  0  0  0  0  0  0
    0.5879   -0.3679   -0.0720 C   0  0  0  0  0  0  0  0  0  0  0  0
    1.2150   -0.5312    0.8090 H   0  0  0  0  0  0  0  0  0  0  0  0
    1.0968   -0.8106   -0.9341 H   0  0  0  0  0  0  0  0  0  0  0  0
    0.4469    1.1377   -0.3248 C   0  0  0  0  0  0  0  0  0  0  0  0
   -0.4960    1.5544   -0.9854 O   0  0  0  0  0  0  0  0  0  0  0  0
    1.2785    2.0379    0.3143 N   0  0  0  0  0  0  0  0  0  0  0  0
    2.0144    1.6651    0.9073 H   0  0  0  0  0  0  0  0  0  0  0  0
    1.1218    3.4838    0.2094 C   0  0  0  0  0  0  0  0  0  0  0  0
    1.1775    3.8014   -0.8372 H   0  0  0  0  0  0  0  0  0  0  0  0
    0.1562    3.7954    0.6212 H   0  0  0  0  0  0  0  0  0  0  0  0
    1.9153    3.9916    0.7660 H   0  0  0  0  0  0  0  0  0  0  0  0
  1  2  1  0  0  0  0
  2  3  1  0  0  0  0
  2  4  1  0  0  0  0
  2  5  1  0  0  0  0
  5  6  2  0  0  0  0
  5  7  1  0  0  0  0
  7  8  1  0  0  0  0
  7  9  1  0  0  0  0
  9 10  1  0  0  0  0
  9 11  1  0  0  0  0
  9 12  1  0  0  0  0
 12 13  2  0  0  0  0
 12 14  1  0  0  0  0
 14 15  1  0  0  0  0
 14 16  1  0  0  0  0
 16 17  1  0  0  0  0
 16 18  1  0  0  0  0
 16 19  1  0  0  0  0
M  END
$$$$

  -OEChem-01062216083D

 19 18  0     0  0  0  0  0  0999 V2000
   -2.2499   -4.0594    0.0409 H   0  0  0  0  0  0  0  0  0  0  0  0
   -2.2936   -2.9668    0.0434 C   0  0  0  0  0  0  0  0  0  0  0  0
   -2.8447   -2.6389    0.9280 H   0  0  0  0  0  0  0  0  0  0  0  0
   -2.8238   -2.6332   -0.8519 H   0  0  0  0  0  0  0  0  0  0  0  0
   -0.8913   -2.3865    0.0608 C   0  0  0  0  0  0  0  0  0  0  0  0
    0.0800   -3.1256    0.0160 O   0  0  0  0  0  0  0  0  0  0  0  0
   -0.7104   -1.0210    0.1252 N   0  0  0  0  0  0  0  0  0  0  0  0
   -1.5371   -0.4339    0.0148 H   0  0  0  0  0  0  0  0  0  0  0  0
    0.5932   -0.3717   -0.0672 C   0  0  0  0  0  0  0  0  0  0  0  0
    1.2131   -0.5385    0.8183 H   0  0  0  0  0  0  0  0  0  0  0  0
    1.1082   -0.8096   -0.9280 H   0  0  0  0  0  0  0  0  0  0  0  0
    0.4593    1.1373   -0.3087 C   0  0  0  0  0  0  0  0  0  0  0  0
   -0.5827    1.5929   -0.7641 O   0  0  0  0  0  0  0  0  0  0  0  0
    1.4637    2.0005    0.0867 N   0  0  0  0  0  0  0  0  0  0  0  0
    2.3036    1.5972    0.4918 H   0  0  0  0  0  0  0  0  0  0  0  0
    1.3755    3.4487   -0.0584 C   0  0  0  0  0  0  0  0  0  0  0  0
    1.2392    3.7204   -1.1105 H   0  0  0  0  0  0  0  0  0  0  0  0
    0.5325    3.8417    0.5194 H   0  0  0  0  0  0  0  0  0  0  0  0
    2.2932    3.9219    0.3041 H   0  0  0  0  0  0  0  0  0  0  0  0
  1  2  1  0  0  0  0
  2  3  1  0  0  0  0
  2  4  1  0  0  0  0
  2  5  1  0  0  0  0
  5  6  2  0  0  0  0
  5  7  1  0  0  0  0
  7  8  1  0  0  0  0
  7  9  1  0  0  0  0
  9 10  1  0  0  0  0
  9 11  1  0  0  0  0
  9 12  1  0  0  0  0
 12 13  2  0  0  0  0
 12 14  1  0  0  0  0
 14 15  1  0  0  0  0
 14 16  1  0  0  0  0
 16 17  1  0  0  0  0
 16 18  1  0  0  0  0
 16 19  1  0  0  0  0
M  END
$$$$

  -OEChem-01062216083D

 19 18  0     0  0  0  0  0  0999 V2000
   -2.2650   -4.0521    0.0634 H   0  0  0  0  0  0  0  0  0  0  0  0
   -2.3015   -2.9591    0.0553 C   0  0  0  0  0  0  0  0  0  0  0  0
   -2.8328   -2.6180    0.9472 H   0  0  0  0  0  0  0  0  0  0  0  0
   -2.8463   -2.6305   -0.8331 H   0  0  0  0  0  0  0  0  0  0  0  0
   -0.8952   -2.3891    0.0402 C   0  0  0  0  0  0  0  0  0  0  0  0
    0.0695   -3.1347   -0.0328 O   0  0  0  0  0  0  0  0  0  0  0  0
   -0.7030   -1.0255    0.1064 N   0  0  0  0  0  0  0  0  0  0  0  0
   -1.5262   -0.4257    0.0481 H   0  0  0  0  0  0  0  0  0  0  0  0
    0.6051   -0.3805   -0.0671 C   0  0  0  0  0  0  0  0  0  0  0  0
    1.2114   -0.5488    0.8277 H   0  0  0  0  0  0  0  0  0  0  0  0
    1.1287   -0.8228   -0.9202 H   0  0  0  0  0  0  0  0  0  0  0  0
    0.4850    1.1302   -0.3105 C   0  0  0  0  0  0  0  0  0  0  0  0
   -0.6068    1.6287   -0.5581 O   0  0  0  0  0  0  0  0  0  0  0  0
    1.5940    1.9460   -0.1896 N   0  0  0  0  0  0  0  0  0  0  0  0
    2.4843    1.5073    0.0283 H   0  0  0  0  0  0  0  0  0  0  0  0
    1.5453    3.3922   -0.3703 C   0  0  0  0  0  0  0  0  0  0  0  0
    1.1836    3.6419   -1.3734 H   0  0  0  0  0  0  0  0  0  0  0  0
    0.8781    3.8486    0.3685 H   0  0  0  0  0  0  0  0  0  0  0  0
    2.5437    3.8228   -0.2466 H   0  0  0  0  0  0  0  0  0  0  0  0
  1  2  1  0  0  0  0
  2  3  1  0  0  0  0
  2  4  1  0  0  0  0
  2  5  1  0  0  0  0
  5  6  2  0  0  0  0
  5  7  1  0  0  0  0
  7  8  1  0  0  0  0
  7  9  1  0  0  0  0
  9 10  1  0  0  0  0
  9 11  1  0  0  0  0
  9 12  1  0  0  0  0
 12 13  2  0  0  0  0
 12 14  1  0  0  0  0
 14 15  1  0  0  0  0
 14 16  1  0  0  0  0
 16 17  1  0  0  0  0
 16 18  1  0  0  0  0
 16 19  1  0  0  0  0
M  END
$$$$
