
  -OEChem-01062216063D

 26 25  0     1  0  0  0  0  0999 V2000
   -3.2663   -2.9981    1.1205 H   0  0  0  0  0  0  0  0  0  0  0  0
   -3.0960   -1.9797    0.7599 C   0  0  0  0  0  0  0  0  0  0  0  0
   -3.6167   -1.2828    1.4212 H   0  0  0  0  0  0  0  0  0  0  0  0
   -3.5061   -1.8895   -0.2488 H   0  0  0  0  0  0  0  0  0  0  0  0
   -1.6104   -1.6689    0.7457 C   0  0  0  0  0  0  0  0  0  0  0  0
   -0.8316   -2.5604    1.0182 O   0  0  0  0  0  0  0  0  0  0  0  0
   -1.2162   -0.3997    0.3672 N   0  0  0  0  0  0  0  0  0  0  0  0
   -1.9917    0.2174    0.1201 H   0  0  0  0  0  0  0  0  0  0  0  0
    0.0971    0.2881    0.3462 C   0  0  1  0  0  0  0  0  0  0  0  0
    0.4262    0.3889    1.3865 H   0  0  0  0  0  0  0  0  0  0  0  0
    1.2305   -0.4360   -0.4291 C   0  0  0  0  0  0  0  0  0  0  0  0
    0.8569   -0.6844   -1.4258 H   0  0  0  0  0  0  0  0  0  0  0  0
    2.0857    0.2306   -0.5567 H   0  0  0  0  0  0  0  0  0  0  0  0
    1.7715   -1.7028    0.2179 C   0  0  0  0  0  0  0  0  0  0  0  0
    1.9789   -1.7511    1.4168 O   0  0  0  0  0  0  0  0  0  0  0  0
    2.0326   -2.8381   -0.4938 N   0  0  0  0  0  0  0  0  0  0  0  0
    2.1154   -3.6653    0.0909 H   0  0  0  0  0  0  0  0  0  0  0  0
    1.5763   -2.9279   -1.3941 H   0  0  0  0  0  0  0  0  0  0  0  0
   -0.0858    1.7283   -0.1892 C   0  0  0  0  0  0  0  0  0  0  0  0
   -1.2004    2.1230   -0.5162 O   0  0  0  0  0  0  0  0  0  0  0  0
    0.9896    2.5911   -0.3096 N   0  0  0  0  0  0  0  0  0  0  0  0
    1.8910    2.2713    0.0341 H   0  0  0  0  0  0  0  0  0  0  0  0
    0.8649    3.9663   -0.7783 C   0  0  0  0  0  0  0  0  0  0  0  0
    0.2029    4.5379   -0.1193 H   0  0  0  0  0  0  0  0  0  0  0  0
    1.8452    4.4526   -0.7899 H   0  0  0  0  0  0  0  0  0  0  0  0
    0.4567    3.9895   -1.7943 H   0  0  0  0  0  0  0  0  0  0  0  0
  1  2  1  0  0  0  0
  2  3  1  0  0  0  0
  2  4  1  0  0  0  0
  2  5  1  0  0  0  0
  5  6  2  0  0  0  0
  5  7  1  0  0  0  0
  7  8  1  0  0  0  0
  7  9  1  0  0  0  0
  9 10  1  0  0  0  0
  9 11  1  0  0  0  0
  9 19  1  0  0  0  0
 11 12  1  0  0  0  0
 11 13  1  0  0  0  0
 11 14  1  0  0  0  0
 14 15  2  0  0  0  0
 14 16  1  0  0  0  0
 16 17  1  0  0  0  0
 16 18  1  0  0  0  0
 19 20  2  0  0  0  0
 19 21  1  0  0  0  0
 21 22  1  0  0  0  0
 21 23  1  0  0  0  0
 23 24  1  0  0  0  0
 23 25  1  0  0  0  0
 23 26  1  0  0  0  0
M  END
$$$$

  -OEChem-01062216063D

 26 25  0     1  0  0  0  0  0999 V2000
   -3.2871   -2.9617    1.1348 H   0  0  0  0  0  0  0  0  0  0  0  0
   -3.1083   -1.9427    0.7801 C   0  0  0  0  0  0  0  0  0  0  0  0
   -3.5647   -1.2425    1.4841 H   0  0  0  0  0  0  0  0  0  0  0  0
   -3.5781   -1.8222   -0.1990 H   0  0  0  0  0  0  0  0  0  0  0  0
   -1.6175   -1.6756    0.6773 C   0  0  0  0  0  0  0  0  0  0  0  0
   -0.8522   -2.6042    0.8469 O   0  0  0  0  0  0  0  0  0  0  0  0
   -1.2084   -0.4059    0.3156 N   0  0  0  0  0  0  0  0  0  0  0  0
   -1.9814    0.2429    0.1574 H   0  0  0  0  0  0  0  0  0  0  0  0
    0.1118    0.2702    0.3123 C   0  0  1  0  0  0  0  0  0  0  0  0
    0.4250    0.3727    1.3575 H   0  0  0  0  0  0  0  0  0  0  0  0
    1.2590   -0.4687   -0.4311 C   0  0  0  0  0  0  0  0  0  0  0  0
    0.9091   -0.7246   -1.4343 H   0  0  0  0  0  0  0  0  0  0  0  0
    2.1251    0.1861   -0.5400 H   0  0  0  0  0  0  0  0  0  0  0  0
    1.7749   -1.7314    0.2448 C   0  0  0  0  0  0  0  0  0  0  0  0
    1.9527   -1.7663    1.4491 O   0  0  0  0  0  0  0  0  0  0  0  0
    2.0633   -2.8708   -0.4497 N   0  0  0  0  0  0  0  0  0  0  0  0
    2.1319   -3.6917    0.1455 H   0  0  0  0  0  0  0  0  0  0  0  0
    1.6226   -2.9720   -1.3567 H   0  0  0  0  0  0  0  0  0  0  0  0
   -0.0733    1.7170   -0.2131 C   0  0  0  0  0  0  0  0  0  0  0  0
   -1.2031    2.1873   -0.3016 O   0  0  0  0  0  0  0  0  0  0  0  0
    0.9967    2.4971   -0.6174 N   0  0  0  0  0  0  0  0  0  0  0  0
    1.9307    2.1237   -0.4776 H   0  0  0  0  0  0  0  0  0  0  0  0
    0.8559    3.8694   -1.0918 C   0  0  0  0  0  0  0  0  0  0  0  0
    0.4077    4.4995   -0.3162 H   0  0  0  0  0  0  0  0  0  0  0  0
    1.8358    4.2831   -1.3496 H   0  0  0  0  0  0  0  0  0  0  0  0
    0.2218    3.9041   -1.9840 H   0  0  0  0  0  0  0  0  0  0  0  0
  1  2  1  0  0  0  0
  2  3  1  0  0  0  0
  2  4  1  0  0  0  0
  2  5  1  0  0  0  0
  5  6  2  0  0  0  0
  5  7  1  0  0  0  0
  7  8  1  0  0  0  0
  7  9  1  0  0  0  0
  9 10  1  0  0  0  0
  9 11  1  0  0  0  0
  9 19  1  0  0  0  0
 11 12  1  0  0  0  0
 11 13  1  0  0  0  0
 11 14  1  0  0  0  0
 14 15  2  0  0  0  0
 14 16  1  0  0  0  0
 16 17  1  0  0  0  0
 16 18  1  0  0  0  0
 19 20  2  0  0  0  0
 19 21  1  0  0  0  0
 21 22  1  0  0  0  0
 21 23  1  0  0  0  0
 23 24  1  0  0  0  0
 23 25  1  0  0  0  0
 23 26  1  0  0  0  0
M  END
$$$$

  -OEChem-01062216063D

 26 25  0     1  0  0  0  0  0999 V2000
   -3.2892   -2.9368    1.1541 H   0  0  0  0  0  0  0  0  0  0  0  0
   -3.1114   -1.9164    0.8029 C   0  0  0  0  0  0  0  0  0  0  0  0
   -3.5063   -1.2178    1.5446 H   0  0  0  0  0  0  0  0  0  0  0  0
   -3.6398   -1.7706   -0.1424 H   0  0  0  0  0  0  0  0  0  0  0  0
   -1.6252   -1.6796    0.6082 C   0  0  0  0  0  0  0  0  0  0  0  0
   -0.8743   -2.6339    0.6674 O   0  0  0  0  0  0  0  0  0  0  0  0
   -1.2102   -0.4076    0.2623 N   0  0  0  0  0  0  0  0  0  0  0  0
   -1.9779    0.2629    0.1970 H   0  0  0  0  0  0  0  0  0  0  0  0
    0.1167    0.2542    0.2792 C   0  0  1  0  0  0  0  0  0  0  0  0
    0.4097    0.3562    1.3304 H   0  0  0  0  0  0  0  0  0  0  0  0
    1.2818   -0.4912   -0.4288 C   0  0  0  0  0  0  0  0  0  0  0  0
    0.9629   -0.7524   -1.4409 H   0  0  0  0  0  0  0  0  0  0  0  0
    2.1533    0.1610   -0.5086 H   0  0  0  0  0  0  0  0  0  0  0  0
    1.7742   -1.7498    0.2735 C   0  0  0  0  0  0  0  0  0  0  0  0
    1.9178   -1.7765    1.4826 O   0  0  0  0  0  0  0  0  0  0  0  0
    2.0884   -2.8925   -0.4044 N   0  0  0  0  0  0  0  0  0  0  0  0
    2.1460   -3.7074    0.2001 H   0  0  0  0  0  0  0  0  0  0  0  0
    1.6618   -3.0053   -1.3169 H   0  0  0  0  0  0  0  0  0  0  0  0
   -0.0657    1.7059   -0.2341 C   0  0  0  0  0  0  0  0  0  0  0  0
   -1.1538    2.2535   -0.0900 O   0  0  0  0  0  0  0  0  0  0  0  0
    0.9298    2.3957   -0.9054 N   0  0  0  0  0  0  0  0  0  0  0  0
    1.8347    1.9459   -1.0013 H   0  0  0  0  0  0  0  0  0  0  0  0
    0.7693    3.7584   -1.4006 C   0  0  0  0  0  0  0  0  0  0  0  0
    0.5385    4.4417   -0.5763 H   0  0  0  0  0  0  0  0  0  0  0  0
    1.6921    4.0970   -1.8815 H   0  0  0  0  0  0  0  0  0  0  0  0
   -0.0410    3.8066   -2.1358 H   0  0  0  0  0  0  0  0  0  0  0  0
  1  2  1  0  0  0  0
  2  3  1  0  0  0  0
  2  4  1  0  0  0  0
  2  5  1  0  0  0  0
  5  6  2  0  0  0  0
  5  7  1  0  0  0  0
  7  8  1  0  0  0  0
  7  9  1  0  0  0  0
  9 10  1  0  0  0  0
  9 11  1  0  0  0  0
  9 19  1  0  0  0  0
 11 12  1  0  0  0  0
 11 13  1  0  0  0  0
 11 14  1  0  0  0  0
 14 15  2  0  0  0  0
 14 16  1  0  0  0  0
 16 17  1  0  0  0  0
 16 18  1  0  0  0  0
 19 20  2  0  0  0  0
 19 21  1  0  0  0  0
 21 22  1  0  0  0  0
 21 23  1  0  0  0  0
 23 24  1  0  0  0  0
 23 25  1  0  0  0  0
 23 26  1  0  0  0  0
M  END
$$$$

  -OEChem-01062216063D

 26 25  0     1  0  0  0  0  0999 V2000
   -3.2678   -2.9457    1.1591 H   0  0  0  0  0  0  0  0  0  0  0  0
   -3.1035   -1.9130    0.8384 C   0  0  0  0  0  0  0  0  0  0  0  0
   -3.4320   -1.2432    1.6369 H   0  0  0  0  0  0  0  0  0  0  0  0
   -3.6999   -1.7218   -0.0569 H   0  0  0  0  0  0  0  0  0  0  0  0
   -1.6329   -1.6834    0.5410 C   0  0  0  0  0  0  0  0  0  0  0  0
   -0.8959   -2.6492    0.4780 O   0  0  0  0  0  0  0  0  0  0  0  0
   -1.2248   -0.4058    0.2071 N   0  0  0  0  0  0  0  0  0  0  0  0
   -1.9870    0.2728    0.2297 H   0  0  0  0  0  0  0  0  0  0  0  0
    0.1058    0.2461    0.2447 C   0  0  1  0  0  0  0  0  0  0  0  0
    0.3768    0.3478    1.3019 H   0  0  0  0  0  0  0  0  0  0  0  0
    1.2908   -0.4981   -0.4280 C   0  0  0  0  0  0  0  0  0  0  0  0
    1.0004   -0.7686   -1.4464 H   0  0  0  0  0  0  0  0  0  0  0  0
    2.1600    0.1606   -0.4860 H   0  0  0  0  0  0  0  0  0  0  0  0
    1.7639   -1.7504    0.2997 C   0  0  0  0  0  0  0  0  0  0  0  0
    1.8724   -1.7685    1.5128 O   0  0  0  0  0  0  0  0  0  0  0  0
    2.1070   -2.8952   -0.3599 N   0  0  0  0  0  0  0  0  0  0  0  0
    2.1560   -3.7037    0.2535 H   0  0  0  0  0  0  0  0  0  0  0  0
    1.6970   -3.0203   -1.2783 H   0  0  0  0  0  0  0  0  0  0  0  0
   -0.0646    1.7001   -0.2568 C   0  0  0  0  0  0  0  0  0  0  0  0
   -1.0615    2.3244    0.0875 O   0  0  0  0  0  0  0  0  0  0  0  0
    0.8020    2.2891   -1.1621 N   0  0  0  0  0  0  0  0  0  0  0  0
    1.6040    1.7487   -1.4705 H   0  0  0  0  0  0  0  0  0  0  0  0
    0.6223    3.6392   -1.6834 C   0  0  0  0  0  0  0  0  0  0  0  0
    0.6060    4.3667   -0.8649 H   0  0  0  0  0  0  0  0  0  0  0  0
    1.4447    3.8973   -2.3577 H   0  0  0  0  0  0  0  0  0  0  0  0
   -0.3178    3.7129   -2.2401 H   0  0  0  0  0  0  0  0  0  0  0  0
  1  2  1  0  0  0  0
  2  3  1  0  0  0  0
  2  4  1  0  0  0  0
  2  5  1  0  0  0  0
  5  6  2  0  0  0  0
  5  7  1  0  0  0  0
  7  8  1  0  0  0  0
  7  9  1  0  0  0  0
  9 10  1  0  0  0  0
  9 11  1  0  0  0  0
  9 19  1  0  0  0  0
 11 12  1  0  0  0  0
 11 13  1  0  0  0  0
 11 14  1  0  0  0  0
 14 15  2  0  0  0  0
 14 16  1  0  0  0  0
 16 17  1  0  0  0  0
 16 18  1  0  0  0  0
 19 20  2  0  0  0  0
 19 21  1  0  0  0  0
 21 22  1  0  0  0  0
 21 23  1  0  0  0  0
 23 24  1  0  0  0  0
 23 25  1  0  0  0  0
 23 26  1  0  0  0  0
M  END
$$$$

  -OEChem-01062216063D

 26 25  0     1  0  0  0  0  0999 V2000
   -3.2529   -2.9604    1.1325 H   0  0  0  0  0  0  0  0  0  0  0  0
   -3.0910   -1.9128    0.8635 C   0  0  0  0  0  0  0  0  0  0  0  0
   -3.3675   -1.2863    1.7153 H   0  0  0  0  0  0  0  0  0  0  0  0
   -3.7305   -1.6638    0.0132 H   0  0  0  0  0  0  0  0  0  0  0  0
   -1.6352   -1.6825    0.5028 C   0  0  0  0  0  0  0  0  0  0  0  0
   -0.9079   -2.6489    0.3695 O   0  0  0  0  0  0  0  0  0  0  0  0
   -1.2363   -0.4011    0.1736 N   0  0  0  0  0  0  0  0  0  0  0  0
   -1.9960    0.2759    0.2467 H   0  0  0  0  0  0  0  0  0  0  0  0
    0.0956    0.2445    0.2299 C   0  0  1  0  0  0  0  0  0  0  0  0
    0.3503    0.3425    1.2917 H   0  0  0  0  0  0  0  0  0  0  0  0
    1.2945   -0.4936   -0.4216 C   0  0  0  0  0  0  0  0  0  0  0  0
    1.0236   -0.7673   -1.4443 H   0  0  0  0  0  0  0  0  0  0  0  0
    2.1584    0.1746   -0.4647 H   0  0  0  0  0  0  0  0  0  0  0  0
    1.7568   -1.7457    0.3145 C   0  0  0  0  0  0  0  0  0  0  0  0
    1.8421   -1.7665    1.5293 O   0  0  0  0  0  0  0  0  0  0  0  0
    2.1122   -2.8903   -0.3387 N   0  0  0  0  0  0  0  0  0  0  0  0
    2.1542   -3.6977    0.2766 H   0  0  0  0  0  0  0  0  0  0  0  0
    1.7130   -3.0182   -1.2616 H   0  0  0  0  0  0  0  0  0  0  0  0
   -0.0620    1.6979   -0.2678 C   0  0  0  0  0  0  0  0  0  0  0  0
   -0.9314    2.3956    0.2391 O   0  0  0  0  0  0  0  0  0  0  0  0
    0.6216    2.1839   -1.3693 N   0  0  0  0  0  0  0  0  0  0  0  0
    1.2771    1.5608   -1.8305 H   0  0  0  0  0  0  0  0  0  0  0  0
    0.4012    3.5130   -1.9275 C   0  0  0  0  0  0  0  0  0  0  0  0
    0.5889    4.2823   -1.1709 H   0  0  0  0  0  0  0  0  0  0  0  0
    1.0773    3.6867   -2.7702 H   0  0  0  0  0  0  0  0  0  0  0  0
   -0.6294    3.6135   -2.2838 H   0  0  0  0  0  0  0  0  0  0  0  0
  1  2  1  0  0  0  0
  2  3  1  0  0  0  0
  2  4  1  0  0  0  0
  2  5  1  0  0  0  0
  5  6  2  0  0  0  0
  5  7  1  0  0  0  0
  7  8  1  0  0  0  0
  7  9  1  0  0  0  0
  9 10  1  0  0  0  0
  9 11  1  0  0  0  0
  9 19  1  0  0  0  0
 11 12  1  0  0  0  0
 11 13  1  0  0  0  0
 11 14  1  0  0  0  0
 14 15  2  0  0  0  0
 14 16  1  0  0  0  0
 16 17  1  0  0  0  0
 16 18  1  0  0  0  0
 19 20  2  0  0  0  0
 19 21  1  0  0  0  0
 21 22  1  0  0  0  0
 21 23  1  0  0  0  0
 23 24  1  0  0  0  0
 23 25  1  0  0  0  0
 23 26  1  0  0  0  0
M  END
$$$$

  -OEChem-01062216063D

 26 25  0     1  0  0  0  0  0999 V2000
   -3.2156   -2.9693    1.2145 H   0  0  0  0  0  0  0  0  0  0  0  0
   -3.0833   -1.9317    0.8947 C   0  0  0  0  0  0  0  0  0  0  0  0
   -3.3536   -1.2737    1.7243 H   0  0  0  0  0  0  0  0  0  0  0  0
   -3.7477   -1.7344    0.0501 H   0  0  0  0  0  0  0  0  0  0  0  0
   -1.6415   -1.6884    0.4885 C   0  0  0  0  0  0  0  0  0  0  0  0
   -0.9146   -2.6485    0.3132 O   0  0  0  0  0  0  0  0  0  0  0  0
   -1.2597   -0.4033    0.1527 N   0  0  0  0  0  0  0  0  0  0  0  0
   -2.0231    0.2645    0.2551 H   0  0  0  0  0  0  0  0  0  0  0  0
    0.0703    0.2463    0.2166 C   0  0  1  0  0  0  0  0  0  0  0  0
    0.3156    0.3450    1.2810 H   0  0  0  0  0  0  0  0  0  0  0  0
    1.2797   -0.4825   -0.4241 C   0  0  0  0  0  0  0  0  0  0  0  0
    1.0181   -0.7623   -1.4473 H   0  0  0  0  0  0  0  0  0  0  0  0
    2.1347    0.1976   -0.4668 H   0  0  0  0  0  0  0  0  0  0  0  0
    1.7472   -1.7313    0.3143 C   0  0  0  0  0  0  0  0  0  0  0  0
    1.8235   -1.7537    1.5296 O   0  0  0  0  0  0  0  0  0  0  0  0
    2.1208   -2.8706   -0.3383 N   0  0  0  0  0  0  0  0  0  0  0  0
    2.1693   -3.6789    0.2752 H   0  0  0  0  0  0  0  0  0  0  0  0
    1.7321   -3.0013   -1.2653 H   0  0  0  0  0  0  0  0  0  0  0  0
   -0.0720    1.6969   -0.2853 C   0  0  0  0  0  0  0  0  0  0  0  0
   -0.7567    2.4771    0.3621 O   0  0  0  0  0  0  0  0  0  0  0  0
    0.3791    2.0835   -1.5354 N   0  0  0  0  0  0  0  0  0  0  0  0
    0.8509    1.3853   -2.1017 H   0  0  0  0  0  0  0  0  0  0  0  0
    0.1473    3.4090   -2.0977 C   0  0  0  0  0  0  0  0  0  0  0  0
    0.5499    4.1823   -1.4346 H   0  0  0  0  0  0  0  0  0  0  0  0
    0.6404    3.4994   -3.0703 H   0  0  0  0  0  0  0  0  0  0  0  0
   -0.9248    3.5851   -2.2346 H   0  0  0  0  0  0  0  0  0  0  0  0
  1  2  1  0  0  0  0
  2  3  1  0  0  0  0
  2  4  1  0  0  0  0
  2  5  1  0  0  0  0
  5  6  2  0  0  0  0
  5  7  1  0  0  0  0
  7  8  1  0  0  0  0
  7  9  1  0  0  0  0
  9 10  1  0  0  0  0
  9 11  1  0  0  0  0
  9 19  1  0  0  0  0
 11 12  1  0  0  0  0
 11 13  1  0  0  0  0
 11 14  1  0  0  0  0
 14 15  2  0  0  0  0
 14 16  1  0  0  0  0
 16 17  1  0  0  0  0
 16 18  1  0  0  0  0
 19 20  2  0  0  0  0
 19 21  1  0  0  0  0
 21 22  1  0  0  0  0
 21 23  1  0  0  0  0
 23 24  1  0  0  0  0
 23 25  1  0  0  0  0
 23 26  1  0  0  0  0
M  END
$$$$

  -OEChem-01062216063D

 26 25  0     1  0  0  0  0  0999 V2000
   -3.1809   -3.0003    1.2351 H   0  0  0  0  0  0  0  0  0  0  0  0
   -3.0680   -1.9560    0.9303 C   0  0  0  0  0  0  0  0  0  0  0  0
   -3.3069   -1.3163    1.7835 H   0  0  0  0  0  0  0  0  0  0  0  0
   -3.7688   -1.7474    0.1184 H   0  0  0  0  0  0  0  0  0  0  0  0
   -1.6456   -1.6968    0.4697 C   0  0  0  0  0  0  0  0  0  0  0  0
   -0.9229   -2.6493    0.2419 O   0  0  0  0  0  0  0  0  0  0  0  0
   -1.2836   -0.4072    0.1283 N   0  0  0  0  0  0  0  0  0  0  0  0
   -2.0516    0.2494    0.2577 H   0  0  0  0  0  0  0  0  0  0  0  0
    0.0425    0.2497    0.2059 C   0  0  1  0  0  0  0  0  0  0  0  0
    0.2764    0.3477    1.2732 H   0  0  0  0  0  0  0  0  0  0  0  0
    1.2641   -0.4660   -0.4245 C   0  0  0  0  0  0  0  0  0  0  0  0
    1.0168   -0.7452   -1.4513 H   0  0  0  0  0  0  0  0  0  0  0  0
    2.1120    0.2236   -0.4584 H   0  0  0  0  0  0  0  0  0  0  0  0
    1.7319   -1.7136    0.3165 C   0  0  0  0  0  0  0  0  0  0  0  0
    1.7941   -1.7398    1.5326 O   0  0  0  0  0  0  0  0  0  0  0  0
    2.1241   -2.8480   -0.3341 N   0  0  0  0  0  0  0  0  0  0  0  0
    2.1723   -3.6585    0.2766 H   0  0  0  0  0  0  0  0  0  0  0  0
    1.7531   -2.9783   -1.2683 H   0  0  0  0  0  0  0  0  0  0  0  0
   -0.0896    1.6976   -0.3016 C   0  0  0  0  0  0  0  0  0  0  0  0
   -0.5318    2.5555    0.4486 O   0  0  0  0  0  0  0  0  0  0  0  0
    0.0952    2.0035   -1.6382 N   0  0  0  0  0  0  0  0  0  0  0  0
    0.3423    1.2417   -2.2626 H   0  0  0  0  0  0  0  0  0  0  0  0
   -0.1449    3.3280   -2.1992 C   0  0  0  0  0  0  0  0  0  0  0  0
    0.4564    4.0802   -1.6776 H   0  0  0  0  0  0  0  0  0  0  0  0
    0.1270    3.3451   -3.2590 H   0  0  0  0  0  0  0  0  0  0  0  0
   -1.2023    3.5973   -2.1074 H   0  0  0  0  0  0  0  0  0  0  0  0
  1  2  1  0  0  0  0
  2  3  1  0  0  0  0
  2  4  1  0  0  0  0
  2  5  1  0  0  0  0
  5  6  2  0  0  0  0
  5  7  1  0  0  0  0
  7  8  1  0  0  0  0
  7  9  1  0  0  0  0
  9 10  1  0  0  0  0
  9 11  1  0  0  0  0
  9 19  1  0  0  0  0
 11 12  1  0  0  0  0
 11 13  1  0  0  0  0
 11 14  1  0  0  0  0
 14 15  2  0  0  0  0
 14 16  1  0  0  0  0
 16 17  1  0  0  0  0
 16 18  1  0  0  0  0
 19 20  2  0  0  0  0
 19 21  1  0  0  0  0
 21 22  1  0  0  0  0
 21 23  1  0  0  0  0
 23 24  1  0  0  0  0
 23 25  1  0  0  0  0
 23 26  1  0  0  0  0
M  END
$$$$

  -OEChem-01062216063D

 26 25  0     1  0  0  0  0  0999 V2000
   -3.1605   -3.0292    1.2566 H   0  0  0  0  0  0  0  0  0  0  0  0
   -3.0620   -1.9825    0.9546 C   0  0  0  0  0  0  0  0  0  0  0  0
   -3.2903   -1.3489    1.8152 H   0  0  0  0  0  0  0  0  0  0  0  0
   -3.7796   -1.7759    0.1569 H   0  0  0  0  0  0  0  0  0  0  0  0
   -1.6503   -1.7094    0.4689 C   0  0  0  0  0  0  0  0  0  0  0  0
   -0.9255   -2.6541    0.2184 O   0  0  0  0  0  0  0  0  0  0  0  0
   -1.3057   -0.4165    0.1211 N   0  0  0  0  0  0  0  0  0  0  0  0
   -2.0818    0.2283    0.2567 H   0  0  0  0  0  0  0  0  0  0  0  0
    0.0149    0.2525    0.2074 C   0  0  1  0  0  0  0  0  0  0  0  0
    0.2444    0.3502    1.2759 H   0  0  0  0  0  0  0  0  0  0  0  0
    1.2451   -0.4460   -0.4231 C   0  0  0  0  0  0  0  0  0  0  0  0
    1.0062   -0.7189   -1.4536 H   0  0  0  0  0  0  0  0  0  0  0  0
    2.0858    0.2531   -0.4479 H   0  0  0  0  0  0  0  0  0  0  0  0
    1.7224   -1.6940    0.3109 C   0  0  0  0  0  0  0  0  0  0  0  0
    1.7803   -1.7289    1.5270 O   0  0  0  0  0  0  0  0  0  0  0  0
    2.1320   -2.8182   -0.3466 N   0  0  0  0  0  0  0  0  0  0  0  0
    2.1939   -3.6324    0.2577 H   0  0  0  0  0  0  0  0  0  0  0  0
    1.7683   -2.9464   -1.2839 H   0  0  0  0  0  0  0  0  0  0  0  0
   -0.1175    1.6966   -0.3074 C   0  0  0  0  0  0  0  0  0  0  0  0
   -0.2636    2.6156    0.4844 O   0  0  0  0  0  0  0  0  0  0  0  0
   -0.2268    1.9466   -1.6632 N   0  0  0  0  0  0  0  0  0  0  0  0
   -0.1988    1.1471   -2.2892 H   0  0  0  0  0  0  0  0  0  0  0  0
   -0.4558    3.2751   -2.2185 C   0  0  0  0  0  0  0  0  0  0  0  0
    0.3396    3.9616   -1.9091 H   0  0  0  0  0  0  0  0  0  0  0  0
   -0.4675    3.2320   -3.3118 H   0  0  0  0  0  0  0  0  0  0  0  0
   -1.4173    3.6729   -1.8767 H   0  0  0  0  0  0  0  0  0  0  0  0
  1  2  1  0  0  0  0
  2  3  1  0  0  0  0
  2  4  1  0  0  0  0
  2  5  1  0  0  0  0
  5  6  2  0  0  0  0
  5  7  1  0  0  0  0
  7  8  1  0  0  0  0
  7  9  1  0  0  0  0
  9 10  1  0  0  0  0
  9 11  1  0  0  0  0
  9 19  1  0  0  0  0
 11 12  1  0  0  0  0
 11 13  1  0  0  0  0
 11 14  1  0  0  0  0
 14 15  2  0  0  0  0
 14 16  1  0  0  0  0
 16 17  1  0  0  0  0
 16 18  1  0  0  0  0
 19 20  2  0  0  0  0
 19 21  1  0  0  0  0
 21 22  1  0  0  0  0
 21 23  1  0  0  0  0
 23 24  1  0  0  0  0
 23 25  1  0  0  0  0
 23 26  1  0  0  0  0
M  END
$$$$

  -OEChem-01062216063D

 26 25  0     1  0  0  0  0  0999 V2000
   -3.1464   -3.0689    1.2701 H   0  0  0  0  0  0  0  0  0  0  0  0
   -3.0597   -2.0182    0.9788 C   0  0  0  0  0  0  0  0  0  0  0  0
   -3.2831   -1.3962    1.8491 H   0  0  0  0  0  0  0  0  0  0  0  0
   -3.7878   -1.8087    0.1915 H   0  0  0  0  0  0  0  0  0  0  0  0
   -1.6560   -1.7281    0.4809 C   0  0  0  0  0  0  0  0  0  0  0  0
   -0.9215   -2.6633    0.2241 O   0  0  0  0  0  0  0  0  0  0  0  0
   -1.3316   -0.4309    0.1292 N   0  0  0  0  0  0  0  0  0  0  0  0
   -2.1174    0.2010    0.2671 H   0  0  0  0  0  0  0  0  0  0  0  0
   -0.0186    0.2549    0.2195 C   0  0  1  0  0  0  0  0  0  0  0  0
    0.2099    0.3517    1.2883 H   0  0  0  0  0  0  0  0  0  0  0  0
    1.2195   -0.4200   -0.4193 C   0  0  0  0  0  0  0  0  0  0  0  0
    0.9843   -0.6822   -1.4533 H   0  0  0  0  0  0  0  0  0  0  0  0
    2.0500    0.2916   -0.4363 H   0  0  0  0  0  0  0  0  0  0  0  0
    1.7155   -1.6686    0.3005 C   0  0  0  0  0  0  0  0  0  0  0  0
    1.7765   -1.7171    1.5162 O   0  0  0  0  0  0  0  0  0  0  0  0
    2.1372   -2.7802   -0.3708 N   0  0  0  0  0  0  0  0  0  0  0  0
    2.2025   -3.6030    0.2212 H   0  0  0  0  0  0  0  0  0  0  0  0
    1.7847   -2.8962   -1.3138 H   0  0  0  0  0  0  0  0  0  0  0  0
   -0.1597    1.6966   -0.2986 C   0  0  0  0  0  0  0  0  0  0  0  0
    0.0236    2.6441    0.4499 O   0  0  0  0  0  0  0  0  0  0  0  0
   -0.5703    1.9242   -1.5990 N   0  0  0  0  0  0  0  0  0  0  0  0
   -0.7340    1.1102   -2.1848 H   0  0  0  0  0  0  0  0  0  0  0  0
   -0.7496    3.2563   -2.1636 C   0  0  0  0  0  0  0  0  0  0  0  0
    0.1913    3.8155   -2.1299 H   0  0  0  0  0  0  0  0  0  0  0  0
   -1.0725    3.1855   -3.2068 H   0  0  0  0  0  0  0  0  0  0  0  0
   -1.5092    3.8113   -1.6030 H   0  0  0  0  0  0  0  0  0  0  0  0
  1  2  1  0  0  0  0
  2  3  1  0  0  0  0
  2  4  1  0  0  0  0
  2  5  1  0  0  0  0
  5  6  2  0  0  0  0
  5  7  1  0  0  0  0
  7  8  1  0  0  0  0
  7  9  1  0  0  0  0
  9 10  1  0  0  0  0
  9 11  1  0  0  0  0
  9 19  1  0  0  0  0
 11 12  1  0  0  0  0
 11 13  1  0  0  0  0
 11 14  1  0  0  0  0
 14 15  2  0  0  0  0
 14 16  1  0  0  0  0
 16 17  1  0  0  0  0
 16 18  1  0  0  0  0
 19 20  2  0  0  0  0
 19 21  1  0  0  0  0
 21 22  1  0  0  0  0
 21 23  1  0  0  0  0
 23 24  1  0  0  0  0
 23 25  1  0  0  0  0
 23 26  1  0  0  0  0
M  END
$$$$

  -OEChem-01062216063D

 26 25  0     1  0  0  0  0  0999 V2000
   -3.1122   -3.1138    1.2925 H   0  0  0  0  0  0  0  0  0  0  0  0
   -3.0474   -2.0611    1.0024 C   0  0  0  0  0  0  0  0  0  0  0  0
   -3.2633   -1.4448    1.8786 H   0  0  0  0  0  0  0  0  0  0  0  0
   -3.7936   -1.8610    0.2297 H   0  0  0  0  0  0  0  0  0  0  0  0
   -1.6583   -1.7488    0.4777 C   0  0  0  0  0  0  0  0  0  0  0  0
   -0.9219   -2.6727    0.1876 O   0  0  0  0  0  0  0  0  0  0  0  0
   -1.3554   -0.4442    0.1331 N   0  0  0  0  0  0  0  0  0  0  0  0
   -2.1478    0.1741    0.2917 H   0  0  0  0  0  0  0  0  0  0  0  0
   -0.0494    0.2575    0.2286 C   0  0  1  0  0  0  0  0  0  0  0  0
    0.1772    0.3489    1.2982 H   0  0  0  0  0  0  0  0  0  0  0  0
    1.1949   -0.3986   -0.4164 C   0  0  0  0  0  0  0  0  0  0  0  0
    0.9615   -0.6535   -1.4527 H   0  0  0  0  0  0  0  0  0  0  0  0
    2.0184    0.3213   -0.4271 H   0  0  0  0  0  0  0  0  0  0  0  0
    1.7029   -1.6472    0.2948 C   0  0  0  0  0  0  0  0  0  0  0  0
    1.7640   -1.7039    1.5103 O   0  0  0  0  0  0  0  0  0  0  0  0
    2.1319   -2.7517   -0.3838 N   0  0  0  0  0  0  0  0  0  0  0  0
    2.2008   -3.5784    0.2020 H   0  0  0  0  0  0  0  0  0  0  0  0
    1.7826   -2.8627   -1.3287 H   0  0  0  0  0  0  0  0  0  0  0  0
   -0.1956    1.7034   -0.2779 C   0  0  0  0  0  0  0  0  0  0  0  0
    0.2881    2.6324    0.3504 O   0  0  0  0  0  0  0  0  0  0  0  0
   -0.8881    1.9567   -1.4480 N   0  0  0  0  0  0  0  0  0  0  0  0
   -1.2128    1.1509   -1.9757 H   0  0  0  0  0  0  0  0  0  0  0  0
   -1.0202    3.2872   -2.0297 C   0  0  0  0  0  0  0  0  0  0  0  0
   -0.0370    3.6878   -2.2977 H   0  0  0  0  0  0  0  0  0  0  0  0
   -1.6358    3.2457   -2.9334 H   0  0  0  0  0  0  0  0  0  0  0  0
   -1.4967    3.9711   -1.3196 H   0  0  0  0  0  0  0  0  0  0  0  0
  1  2  1  0  0  0  0
  2  3  1  0  0  0  0
  2  4  1  0  0  0  0
  2  5  1  0  0  0  0
  5  6  2  0  0  0  0
  5  7  1  0  0  0  0
  7  8  1  0  0  0  0
  7  9  1  0  0  0  0
  9 10  1  0  0  0  0
  9 11  1  0  0  0  0
  9 19  1  0  0  0  0
 11 12  1  0  0  0  0
 11 13  1  0  0  0  0
 11 14  1  0  0  0  0
 14 15  2  0  0  0  0
 14 16  1  0  0  0  0
 16 17  1  0  0  0  0
 16 18  1  0  0  0  0
 19 20  2  0  0  0  0
 19 21  1  0  0  0  0
 21 22  1  0  0  0  0
 21 23  1  0  0  0  0
 23 24  1  0  0  0  0
 23 25  1  0  0  0  0
 23 26  1  0  0  0  0
M  END
$$$$

  -OEChem-01062216063D

 26 25  0     1  0  0  0  0  0999 V2000
   -3.0742   -3.1475    1.3011 H   0  0  0  0  0  0  0  0  0  0  0  0
   -3.0256   -2.0900    1.0259 C   0  0  0  0  0  0  0  0  0  0  0  0
   -3.2145   -1.4893    1.9190 H   0  0  0  0  0  0  0  0  0  0  0  0
   -3.7994   -1.8825    0.2829 H   0  0  0  0  0  0  0  0  0  0  0  0
   -1.6571   -1.7617    0.4586 C   0  0  0  0  0  0  0  0  0  0  0  0
   -0.9304   -2.6761    0.1183 O   0  0  0  0  0  0  0  0  0  0  0  0
   -1.3706   -0.4508    0.1236 N   0  0  0  0  0  0  0  0  0  0  0  0
   -2.1640    0.1570    0.3134 H   0  0  0  0  0  0  0  0  0  0  0  0
   -0.0689    0.2596    0.2324 C   0  0  1  0  0  0  0  0  0  0  0  0
    0.1512    0.3452    1.3035 H   0  0  0  0  0  0  0  0  0  0  0  0
    1.1805   -0.3897   -0.4105 C   0  0  0  0  0  0  0  0  0  0  0  0
    0.9525   -0.6386   -1.4495 H   0  0  0  0  0  0  0  0  0  0  0  0
    2.0038    0.3310   -0.4136 H   0  0  0  0  0  0  0  0  0  0  0  0
    1.6870   -1.6407    0.2972 C   0  0  0  0  0  0  0  0  0  0  0  0
    1.7414   -1.7041    1.5129 O   0  0  0  0  0  0  0  0  0  0  0  0
    2.1223   -2.7399   -0.3858 N   0  0  0  0  0  0  0  0  0  0  0  0
    2.1942   -3.5697    0.1951 H   0  0  0  0  0  0  0  0  0  0  0  0
    1.7736   -2.8467   -1.3315 H   0  0  0  0  0  0  0  0  0  0  0  0
   -0.2115    1.7121   -0.2617 C   0  0  0  0  0  0  0  0  0  0  0  0
    0.4831    2.5972    0.2140 O   0  0  0  0  0  0  0  0  0  0  0  0
   -1.1355    2.0250   -1.2429 N   0  0  0  0  0  0  0  0  0  0  0  0
   -1.5849    1.2423   -1.7102 H   0  0  0  0  0  0  0  0  0  0  0  0
   -1.2659    3.3582   -1.8192 C   0  0  0  0  0  0  0  0  0  0  0  0
   -0.3456    3.6421   -2.3404 H   0  0  0  0  0  0  0  0  0  0  0  0
   -2.0926    3.3815   -2.5358 H   0  0  0  0  0  0  0  0  0  0  0  0
   -1.4689    4.0966   -1.0363 H   0  0  0  0  0  0  0  0  0  0  0  0
  1  2  1  0  0  0  0
  2  3  1  0  0  0  0
  2  4  1  0  0  0  0
  2  5  1  0  0  0  0
  5  6  2  0  0  0  0
  5  7  1  0  0  0  0
  7  8  1  0  0  0  0
  7  9  1  0  0  0  0
  9 10  1  0  0  0  0
  9 11  1  0  0  0  0
  9 19  1  0  0  0  0
 11 12  1  0  0  0  0
 11 13  1  0  0  0  0
 11 14  1  0  0  0  0
 14 15  2  0  0  0  0
 14 16  1  0  0  0  0
 16 17  1  0  0  0  0
 16 18  1  0  0  0  0
 19 20  2  0  0  0  0
 19 21  1  0  0  0  0
 21 22  1  0  0  0  0
 21 23  1  0  0  0  0
 23 24  1  0  0  0  0
 23 25  1  0  0  0  0
 23 26  1  0  0  0  0
M  END
$$$$

  -OEChem-01062216063D

 26 25  0     1  0  0  0  0  0999 V2000
   -3.0462   -3.1810    1.2688 H   0  0  0  0  0  0  0  0  0  0  0  0
   -2.9940   -2.1108    1.0489 C   0  0  0  0  0  0  0  0  0  0  0  0
   -3.1254   -1.5575    1.9821 H   0  0  0  0  0  0  0  0  0  0  0  0
   -3.8027   -1.8526    0.3610 H   0  0  0  0  0  0  0  0  0  0  0  0
   -1.6519   -1.7705    0.4277 C   0  0  0  0  0  0  0  0  0  0  0  0
   -0.9453   -2.6767    0.0273 O   0  0  0  0  0  0  0  0  0  0  0  0
   -1.3808   -0.4541    0.1021 N   0  0  0  0  0  0  0  0  0  0  0  0
   -2.1707    0.1414    0.3377 H   0  0  0  0  0  0  0  0  0  0  0  0
   -0.0822    0.2618    0.2229 C   0  0  1  0  0  0  0  0  0  0  0  0
    0.1303    0.3433    1.2957 H   0  0  0  0  0  0  0  0  0  0  0  0
    1.1703   -0.3933   -0.4113 C   0  0  0  0  0  0  0  0  0  0  0  0
    0.9460   -0.6451   -1.4504 H   0  0  0  0  0  0  0  0  0  0  0  0
    1.9987    0.3211   -0.4146 H   0  0  0  0  0  0  0  0  0  0  0  0
    1.6653   -1.6439    0.3054 C   0  0  0  0  0  0  0  0  0  0  0  0
    1.7095   -1.7031    1.5220 O   0  0  0  0  0  0  0  0  0  0  0  0
    2.1153   -2.7418   -0.3702 N   0  0  0  0  0  0  0  0  0  0  0  0
    2.1849   -3.5712    0.2113 H   0  0  0  0  0  0  0  0  0  0  0  0
    1.7814   -2.8498   -1.3212 H   0  0  0  0  0  0  0  0  0  0  0  0
   -0.2174    1.7225   -0.2584 C   0  0  0  0  0  0  0  0  0  0  0  0
    0.6244    2.5529    0.0500 O   0  0  0  0  0  0  0  0  0  0  0  0
   -1.3158    2.1204   -1.0018 N   0  0  0  0  0  0  0  0  0  0  0  0
   -1.8825    1.3768   -1.3994 H   0  0  0  0  0  0  0  0  0  0  0  0
   -1.4580    3.4676   -1.5424 C   0  0  0  0  0  0  0  0  0  0  0  0
   -0.6467    3.6870   -2.2446 H   0  0  0  0  0  0  0  0  0  0  0  0
   -2.4110    3.5644   -2.0713 H   0  0  0  0  0  0  0  0  0  0  0  0
   -1.4356    4.2091   -0.7366 H   0  0  0  0  0  0  0  0  0  0  0  0
  1  2  1  0  0  0  0
  2  3  1  0  0  0  0
  2  4  1  0  0  0  0
  2  5  1  0  0  0  0
  5  6  2  0  0  0  0
  5  7  1  0  0  0  0
  7  8  1  0  0  0  0
  7  9  1  0  0  0  0
  9 10  1  0  0  0  0
  9 11  1  0  0  0  0
  9 19  1  0  0  0  0
 11 12  1  0  0  0  0
 11 13  1  0  0  0  0
 11 14  1  0  0  0  0
 14 15  2  0  0  0  0
 14 16  1  0  0  0  0
 16 17  1  0  0  0  0
 16 18  1  0  0  0  0
 19 20  2  0  0  0  0
 19 21  1  0  0  0  0
 21 22  1  0  0  0  0
 21 23  1  0  0  0  0
 23 24  1  0  0  0  0
 23 25  1  0  0  0  0
 23 26  1  0  0  0  0
M  END
$$$$

  -OEChem-01062216063D

 26 25  0     1  0  0  0  0  0999 V2000
   -2.9830   -3.1861    1.3071 H   0  0  0  0  0  0  0  0  0  0  0  0
   -2.9588   -2.1206    1.0607 C   0  0  0  0  0  0  0  0  0  0  0  0
   -3.0683   -1.5475    1.9847 H   0  0  0  0  0  0  0  0  0  0  0  0
   -3.7946   -1.8931    0.3947 H   0  0  0  0  0  0  0  0  0  0  0  0
   -1.6449   -1.7720    0.3863 C   0  0  0  0  0  0  0  0  0  0  0  0
   -0.9616   -2.6707   -0.0689 O   0  0  0  0  0  0  0  0  0  0  0  0
   -1.3844   -0.4511    0.0707 N   0  0  0  0  0  0  0  0  0  0  0  0
   -2.1697    0.1327    0.3448 H   0  0  0  0  0  0  0  0  0  0  0  0
   -0.0869    0.2653    0.2063 C   0  0  1  0  0  0  0  0  0  0  0  0
    0.1154    0.3416    1.2814 H   0  0  0  0  0  0  0  0  0  0  0  0
    1.1678   -0.4019   -0.4154 C   0  0  0  0  0  0  0  0  0  0  0  0
    0.9505   -0.6552   -1.4557 H   0  0  0  0  0  0  0  0  0  0  0  0
    2.0053    0.3014   -0.4147 H   0  0  0  0  0  0  0  0  0  0  0  0
    1.6447   -1.6534    0.3121 C   0  0  0  0  0  0  0  0  0  0  0  0
    1.6760   -1.7075    1.5296 O   0  0  0  0  0  0  0  0  0  0  0  0
    2.0971   -2.7564   -0.3535 N   0  0  0  0  0  0  0  0  0  0  0  0
    2.1625   -3.5827    0.2325 H   0  0  0  0  0  0  0  0  0  0  0  0
    1.7673   -2.8691   -1.3057 H   0  0  0  0  0  0  0  0  0  0  0  0
   -0.2131    1.7343   -0.2626 C   0  0  0  0  0  0  0  0  0  0  0  0
    0.7254    2.5070   -0.1343 O   0  0  0  0  0  0  0  0  0  0  0  0
   -1.4185    2.2276   -0.7352 N   0  0  0  0  0  0  0  0  0  0  0  0
   -2.0941    1.5355   -1.0431 H   0  0  0  0  0  0  0  0  0  0  0  0
   -1.5753    3.5990   -1.2082 C   0  0  0  0  0  0  0  0  0  0  0  0
   -0.9203    3.7871   -2.0654 H   0  0  0  0  0  0  0  0  0  0  0  0
   -2.6103    3.7771   -1.5157 H   0  0  0  0  0  0  0  0  0  0  0  0
   -1.3263    4.3096   -0.4129 H   0  0  0  0  0  0  0  0  0  0  0  0
  1  2  1  0  0  0  0
  2  3  1  0  0  0  0
  2  4  1  0  0  0  0
  2  5  1  0  0  0  0
  5  6  2  0  0  0  0
  5  7  1  0  0  0  0
  7  8  1  0  0  0  0
  7  9  1  0  0  0  0
  9 10  1  0  0  0  0
  9 11  1  0  0  0  0
  9 19  1  0  0  0  0
 11 12  1  0  0  0  0
 11 13  1  0  0  0  0
 11 14  1  0  0  0  0
 14 15  2  0  0  0  0
 14 16  1  0  0  0  0
 16 17  1  0  0  0  0
 16 18  1  0  0  0  0
 19 20  2  0  0  0  0
 19 21  1  0  0  0  0
 21 22  1  0  0  0  0
 21 23  1  0  0  0  0
 23 24  1  0  0  0  0
 23 25  1  0  0  0  0
 23 26  1  0  0  0  0
M  END
$$$$

  -OEChem-01062216063D

 26 25  0     1  0  0  0  0  0999 V2000
   -3.0666   -3.1647    1.0672 H   0  0  0  0  0  0  0  0  0  0  0  0
   -2.9720   -2.1533    0.6611 C   0  0  0  0  0  0  0  0  0  0  0  0
   -3.7237   -1.5152    1.1320 H   0  0  0  0  0  0  0  0  0  0  0  0
   -3.1551   -2.1900   -0.4154 H   0  0  0  0  0  0  0  0  0  0  0  0
   -1.5826   -1.6070    0.9359 C   0  0  0  0  0  0  0  0  0  0  0  0
   -0.8181   -2.2769    1.5956 O   0  0  0  0  0  0  0  0  0  0  0  0
   -1.2685   -0.3456    0.4640 N   0  0  0  0  0  0  0  0  0  0  0  0
   -2.0007    0.0424   -0.1239 H   0  0  0  0  0  0  0  0  0  0  0  0
    0.0447    0.3447    0.3461 C   0  0  1  0  0  0  0  0  0  0  0  0
    0.4371    0.4908    1.3596 H   0  0  0  0  0  0  0  0  0  0  0  0
    1.1270   -0.4307   -0.4599 C   0  0  0  0  0  0  0  0  0  0  0  0
    0.7079   -0.7026   -1.4311 H   0  0  0  0  0  0  0  0  0  0  0  0
    1.9833    0.2233   -0.6464 H   0  0  0  0  0  0  0  0  0  0  0  0
    1.7058   -1.6773    0.1938 C   0  0  0  0  0  0  0  0  0  0  0  0
    1.9972   -1.7033    1.3744 O   0  0  0  0  0  0  0  0  0  0  0  0
    1.8983   -2.8404   -0.4962 N   0  0  0  0  0  0  0  0  0  0  0  0
    2.0487   -3.6553    0.0919 H   0  0  0  0  0  0  0  0  0  0  0  0
    1.4397   -2.9475   -1.3929 H   0  0  0  0  0  0  0  0  0  0  0  0
   -0.1585    1.7641   -0.2481 C   0  0  0  0  0  0  0  0  0  0  0  0
    0.7540    2.3676   -0.7951 O   0  0  0  0  0  0  0  0  0  0  0  0
   -1.4252    2.3265   -0.2872 N   0  0  0  0  0  0  0  0  0  0  0  0
   -2.1034    1.9393    0.3616 H   0  0  0  0  0  0  0  0  0  0  0  0
   -1.6776    3.6607   -0.8223 C   0  0  0  0  0  0  0  0  0  0  0  0
   -1.3768    3.7159   -1.8739 H   0  0  0  0  0  0  0  0  0  0  0  0
   -2.7438    3.8982   -0.7575 H   0  0  0  0  0  0  0  0  0  0  0  0
   -1.1188    4.4141   -0.2570 H   0  0  0  0  0  0  0  0  0  0  0  0
  1  2  1  0  0  0  0
  2  3  1  0  0  0  0
  2  4  1  0  0  0  0
  2  5  1  0  0  0  0
  5  6  2  0  0  0  0
  5  7  1  0  0  0  0
  7  8  1  0  0  0  0
  7  9  1  0  0  0  0
  9 10  1  0  0  0  0
  9 11  1  0  0  0  0
  9 19  1  0  0  0  0
 11 12  1  0  0  0  0
 11 13  1  0  0  0  0
 11 14  1  0  0  0  0
 14 15  2  0  0  0  0
 14 16  1  0  0  0  0
 16 17  1  0  0  0  0
 16 18  1  0  0  0  0
 19 20  2  0  0  0  0
 19 21  1  0  0  0  0
 21 22  1  0  0  0  0
 21 23  1  0  0  0  0
 23 24  1  0  0  0  0
 23 25  1  0  0  0  0
 23 26  1  0  0  0  0
M  END
$$$$

  -OEChem-01062216063D

 26 25  0     1  0  0  0  0  0999 V2000
   -3.1285   -3.1258    1.0470 H   0  0  0  0  0  0  0  0  0  0  0  0
   -3.0219   -2.0992    0.6845 C   0  0  0  0  0  0  0  0  0  0  0  0
   -3.7109   -1.4587    1.2402 H   0  0  0  0  0  0  0  0  0  0  0  0
   -3.2842   -2.0739   -0.3757 H   0  0  0  0  0  0  0  0  0  0  0  0
   -1.5950   -1.6196    0.8813 C   0  0  0  0  0  0  0  0  0  0  0  0
   -0.8141   -2.3522    1.4490 O   0  0  0  0  0  0  0  0  0  0  0  0
   -1.2611   -0.3562    0.4280 N   0  0  0  0  0  0  0  0  0  0  0  0
   -2.0167    0.0937   -0.0826 H   0  0  0  0  0  0  0  0  0  0  0  0
    0.0537    0.3316    0.3193 C   0  0  1  0  0  0  0  0  0  0  0  0
    0.4342    0.4765    1.3371 H   0  0  0  0  0  0  0  0  0  0  0  0
    1.1574   -0.4320   -0.4672 C   0  0  0  0  0  0  0  0  0  0  0  0
    0.7581   -0.7114   -1.4449 H   0  0  0  0  0  0  0  0  0  0  0  0
    2.0086    0.2327   -0.6402 H   0  0  0  0  0  0  0  0  0  0  0  0
    1.7349   -1.6698    0.2036 C   0  0  0  0  0  0  0  0  0  0  0  0
    2.0022   -1.6831    1.3910 O   0  0  0  0  0  0  0  0  0  0  0  0
    1.9522   -2.8344   -0.4761 N   0  0  0  0  0  0  0  0  0  0  0  0
    2.0818   -3.6451    0.1226 H   0  0  0  0  0  0  0  0  0  0  0  0
    1.5023   -2.9481   -1.3765 H   0  0  0  0  0  0  0  0  0  0  0  0
   -0.1651    1.7532   -0.2597 C   0  0  0  0  0  0  0  0  0  0  0  0
    0.6308    2.2723   -1.0301 O   0  0  0  0  0  0  0  0  0  0  0  0
   -1.3559    2.4152   -0.0064 N   0  0  0  0  0  0  0  0  0  0  0  0
   -1.9124    2.0592    0.7655 H   0  0  0  0  0  0  0  0  0  0  0  0
   -1.6274    3.7661   -0.4872 C   0  0  0  0  0  0  0  0  0  0  0  0
   -1.5535    3.8079   -1.5792 H   0  0  0  0  0  0  0  0  0  0  0  0
   -2.6374    4.0741   -0.1999 H   0  0  0  0  0  0  0  0  0  0  0  0
   -0.9121    4.4764   -0.0592 H   0  0  0  0  0  0  0  0  0  0  0  0
  1  2  1  0  0  0  0
  2  3  1  0  0  0  0
  2  4  1  0  0  0  0
  2  5  1  0  0  0  0
  5  6  2  0  0  0  0
  5  7  1  0  0  0  0
  7  8  1  0  0  0  0
  7  9  1  0  0  0  0
  9 10  1  0  0  0  0
  9 11  1  0  0  0  0
  9 19  1  0  0  0  0
 11 12  1  0  0  0  0
 11 13  1  0  0  0  0
 11 14  1  0  0  0  0
 14 15  2  0  0  0  0
 14 16  1  0  0  0  0
 16 17  1  0  0  0  0
 16 18  1  0  0  0  0
 19 20  2  0  0  0  0
 19 21  1  0  0  0  0
 21 22  1  0  0  0  0
 21 23  1  0  0  0  0
 23 24  1  0  0  0  0
 23 25  1  0  0  0  0
 23 26  1  0  0  0  0
M  END
$$$$

  -OEChem-01062216063D

 26 25  0     1  0  0  0  0  0999 V2000
   -3.1627   -3.0944    1.0644 H   0  0  0  0  0  0  0  0  0  0  0  0
   -3.0426   -2.0708    0.6973 C   0  0  0  0  0  0  0  0  0  0  0  0
   -3.7051   -1.4146    1.2669 H   0  0  0  0  0  0  0  0  0  0  0  0
   -3.3276   -2.0411   -0.3571 H   0  0  0  0  0  0  0  0  0  0  0  0
   -1.6019   -1.6215    0.8598 C   0  0  0  0  0  0  0  0  0  0  0  0
   -0.8161   -2.3829    1.3820 O   0  0  0  0  0  0  0  0  0  0  0  0
   -1.2578   -0.3572    0.4176 N   0  0  0  0  0  0  0  0  0  0  0  0
   -2.0249    0.1294   -0.0404 H   0  0  0  0  0  0  0  0  0  0  0  0
    0.0579    0.3269    0.3188 C   0  0  1  0  0  0  0  0  0  0  0  0
    0.4341    0.4660    1.3389 H   0  0  0  0  0  0  0  0  0  0  0  0
    1.1697   -0.4260   -0.4637 C   0  0  0  0  0  0  0  0  0  0  0  0
    0.7775   -0.7019   -1.4454 H   0  0  0  0  0  0  0  0  0  0  0  0
    2.0155    0.2477   -0.6274 H   0  0  0  0  0  0  0  0  0  0  0  0
    1.7453   -1.6660    0.2043 C   0  0  0  0  0  0  0  0  0  0  0  0
    2.0014   -1.6830    1.3944 O   0  0  0  0  0  0  0  0  0  0  0  0
    1.9744   -2.8257   -0.4794 N   0  0  0  0  0  0  0  0  0  0  0  0
    2.0965   -3.6387    0.1176 H   0  0  0  0  0  0  0  0  0  0  0  0
    1.5283   -2.9360   -1.3822 H   0  0  0  0  0  0  0  0  0  0  0  0
   -0.1672    1.7478   -0.2518 C   0  0  0  0  0  0  0  0  0  0  0  0
    0.4648    2.1757   -1.2083 O   0  0  0  0  0  0  0  0  0  0  0  0
   -1.2038    2.5156    0.2513 N   0  0  0  0  0  0  0  0  0  0  0  0
   -1.6341    2.1933    1.1139 H   0  0  0  0  0  0  0  0  0  0  0  0
   -1.4794    3.8753   -0.2002 C   0  0  0  0  0  0  0  0  0  0  0  0
   -1.6772    3.8906   -1.2773 H   0  0  0  0  0  0  0  0  0  0  0  0
   -2.3578    4.2746    0.3159 H   0  0  0  0  0  0  0  0  0  0  0  0
   -0.6265    4.5290    0.0098 H   0  0  0  0  0  0  0  0  0  0  0  0
  1  2  1  0  0  0  0
  2  3  1  0  0  0  0
  2  4  1  0  0  0  0
  2  5  1  0  0  0  0
  5  6  2  0  0  0  0
  5  7  1  0  0  0  0
  7  8  1  0  0  0  0
  7  9  1  0  0  0  0
  9 10  1  0  0  0  0
  9 11  1  0  0  0  0
  9 19  1  0  0  0  0
 11 12  1  0  0  0  0
 11 13  1  0  0  0  0
 11 14  1  0  0  0  0
 14 15  2  0  0  0  0
 14 16  1  0  0  0  0
 16 17  1  0  0  0  0
 16 18  1  0  0  0  0
 19 20  2  0  0  0  0
 19 21  1  0  0  0  0
 21 22  1  0  0  0  0
 21 23  1  0  0  0  0
 23 24  1  0  0  0  0
 23 25  1  0  0  0  0
 23 26  1  0  0  0  0
M  END
$$$$

  -OEChem-01062216063D

 26 25  0     1  0  0  0  0  0999 V2000
   -3.1738   -3.0867    1.0739 H   0  0  0  0  0  0  0  0  0  0  0  0
   -3.0493   -2.0638    0.7065 C   0  0  0  0  0  0  0  0  0  0  0  0
   -3.7041   -1.4034    1.2802 H   0  0  0  0  0  0  0  0  0  0  0  0
   -3.3404   -2.0321   -0.3463 H   0  0  0  0  0  0  0  0  0  0  0  0
   -1.6049   -1.6238    0.8607 C   0  0  0  0  0  0  0  0  0  0  0  0
   -0.8181   -2.3935    1.3697 O   0  0  0  0  0  0  0  0  0  0  0  0
   -1.2575   -0.3583    0.4253 N   0  0  0  0  0  0  0  0  0  0  0  0
   -2.0270    0.1416   -0.0141 H   0  0  0  0  0  0  0  0  0  0  0  0
    0.0579    0.3244    0.3373 C   0  0  1  0  0  0  0  0  0  0  0  0
    0.4326    0.4536    1.3590 H   0  0  0  0  0  0  0  0  0  0  0  0
    1.1724   -0.4156   -0.4516 C   0  0  0  0  0  0  0  0  0  0  0  0
    0.7818   -0.6815   -1.4369 H   0  0  0  0  0  0  0  0  0  0  0  0
    2.0135    0.2661   -0.6075 H   0  0  0  0  0  0  0  0  0  0  0  0
    1.7484   -1.6633    0.2003 C   0  0  0  0  0  0  0  0  0  0  0  0
    2.0013   -1.6959    1.3909 O   0  0  0  0  0  0  0  0  0  0  0  0
    1.9783   -2.8126   -0.5004 N   0  0  0  0  0  0  0  0  0  0  0  0
    2.0983   -3.6349    0.0842 H   0  0  0  0  0  0  0  0  0  0  0  0
    1.5292   -2.9089   -1.4034 H   0  0  0  0  0  0  0  0  0  0  0  0
   -0.1658    1.7445   -0.2288 C   0  0  0  0  0  0  0  0  0  0  0  0
    0.2633    2.0803   -1.3248 O   0  0  0  0  0  0  0  0  0  0  0  0
   -0.9822    2.6211    0.4631 N   0  0  0  0  0  0  0  0  0  0  0  0
   -1.2740    2.3440    1.3967 H   0  0  0  0  0  0  0  0  0  0  0  0
   -1.2476    3.9853    0.0201 C   0  0  0  0  0  0  0  0  0  0  0  0
   -1.7024    3.9846   -0.9762 H   0  0  0  0  0  0  0  0  0  0  0  0
   -1.9361    4.4802    0.7117 H   0  0  0  0  0  0  0  0  0  0  0  0
   -0.3182    4.5634   -0.0174 H   0  0  0  0  0  0  0  0  0  0  0  0
  1  2  1  0  0  0  0
  2  3  1  0  0  0  0
  2  4  1  0  0  0  0
  2  5  1  0  0  0  0
  5  6  2  0  0  0  0
  5  7  1  0  0  0  0
  7  8  1  0  0  0  0
  7  9  1  0  0  0  0
  9 10  1  0  0  0  0
  9 11  1  0  0  0  0
  9 19  1  0  0  0  0
 11 12  1  0  0  0  0
 11 13  1  0  0  0  0
 11 14  1  0  0  0  0
 14 15  2  0  0  0  0
 14 16  1  0  0  0  0
 16 17  1  0  0  0  0
 16 18  1  0  0  0  0
 19 20  2  0  0  0  0
 19 21  1  0  0  0  0
 21 22  1  0  0  0  0
 21 23  1  0  0  0  0
 23 24  1  0  0  0  0
 23 25  1  0  0  0  0
 23 26  1  0  0  0  0
M  END
$$$$

  -OEChem-01062216063D

 26 25  0     1  0  0  0  0  0999 V2000
   -3.1678   -3.0951    1.0650 H   0  0  0  0  0  0  0  0  0  0  0  0
   -3.0448   -2.0697    0.7045 C   0  0  0  0  0  0  0  0  0  0  0  0
   -3.7114   -1.4160    1.2722 H   0  0  0  0  0  0  0  0  0  0  0  0
   -3.3217   -2.0338   -0.3519 H   0  0  0  0  0  0  0  0  0  0  0  0
   -1.6055   -1.6212    0.8806 C   0  0  0  0  0  0  0  0  0  0  0  0
   -0.8226   -2.3810    1.4105 O   0  0  0  0  0  0  0  0  0  0  0  0
   -1.2576   -0.3553    0.4481 N   0  0  0  0  0  0  0  0  0  0  0  0
   -2.0214    0.1401   -0.0060 H   0  0  0  0  0  0  0  0  0  0  0  0
    0.0579    0.3245    0.3664 C   0  0  1  0  0  0  0  0  0  0  0  0
    0.4361    0.4420    1.3882 H   0  0  0  0  0  0  0  0  0  0  0  0
    1.1656   -0.4073   -0.4371 C   0  0  0  0  0  0  0  0  0  0  0  0
    0.7675   -0.6604   -1.4229 H   0  0  0  0  0  0  0  0  0  0  0  0
    2.0048    0.2771   -0.5912 H   0  0  0  0  0  0  0  0  0  0  0  0
    1.7412   -1.6668    0.1921 C   0  0  0  0  0  0  0  0  0  0  0  0
    2.0000   -1.7186    1.3805 O   0  0  0  0  0  0  0  0  0  0  0  0
    1.9694   -2.8040   -0.5287 N   0  0  0  0  0  0  0  0  0  0  0  0
    2.0941   -3.6361    0.0408 H   0  0  0  0  0  0  0  0  0  0  0  0
    1.5197   -2.8854   -1.4331 H   0  0  0  0  0  0  0  0  0  0  0  0
   -0.1570    1.7449   -0.1972 C   0  0  0  0  0  0  0  0  0  0  0  0
    0.0312    1.9963   -1.3802 O   0  0  0  0  0  0  0  0  0  0  0  0
   -0.7003    2.7220    0.6163 N   0  0  0  0  0  0  0  0  0  0  0  0
   -0.8342    2.4932    1.5977 H   0  0  0  0  0  0  0  0  0  0  0  0
   -0.9559    4.0865    0.1696 C   0  0  0  0  0  0  0  0  0  0  0  0
   -1.6397    4.0897   -0.6858 H   0  0  0  0  0  0  0  0  0  0  0  0
   -1.4108    4.6695    0.9761 H   0  0  0  0  0  0  0  0  0  0  0  0
   -0.0207    4.5740   -0.1255 H   0  0  0  0  0  0  0  0  0  0  0  0
  1  2  1  0  0  0  0
  2  3  1  0  0  0  0
  2  4  1  0  0  0  0
  2  5  1  0  0  0  0
  5  6  2  0  0  0  0
  5  7  1  0  0  0  0
  7  8  1  0  0  0  0
  7  9  1  0  0  0  0
  9 10  1  0  0  0  0
  9 11  1  0  0  0  0
  9 19  1  0  0  0  0
 11 12  1  0  0  0  0
 11 13  1  0  0  0  0
 11 14  1  0  0  0  0
 14 15  2  0  0  0  0
 14 16  1  0  0  0  0
 16 17  1  0  0  0  0
 16 18  1  0  0  0  0
 19 20  2  0  0  0  0
 19 21  1  0  0  0  0
 21 22  1  0  0  0  0
 21 23  1  0  0  0  0
 23 24  1  0  0  0  0
 23 25  1  0  0  0  0
 23 26  1  0  0  0  0
M  END
$$$$

  -OEChem-01062216063D

 26 25  0     1  0  0  0  0  0999 V2000
   -3.1598   -3.0970    1.0616 H   0  0  0  0  0  0  0  0  0  0  0  0
   -3.0343   -2.0756    0.6910 C   0  0  0  0  0  0  0  0  0  0  0  0
   -3.7217   -1.4197    1.2306 H   0  0  0  0  0  0  0  0  0  0  0  0
   -3.2811   -2.0557   -0.3732 H   0  0  0  0  0  0  0  0  0  0  0  0
   -1.6041   -1.6133    0.9015 C   0  0  0  0  0  0  0  0  0  0  0  0
   -0.8295   -2.3588    1.4635 O   0  0  0  0  0  0  0  0  0  0  0  0
   -1.2534   -0.3480    0.4711 N   0  0  0  0  0  0  0  0  0  0  0  0
   -2.0033    0.1366   -0.0177 H   0  0  0  0  0  0  0  0  0  0  0  0
    0.0644    0.3254    0.3975 C   0  0  1  0  0  0  0  0  0  0  0  0
    0.4438    0.4289    1.4202 H   0  0  0  0  0  0  0  0  0  0  0  0
    1.1638   -0.4000   -0.4212 C   0  0  0  0  0  0  0  0  0  0  0  0
    0.7608   -0.6350   -1.4099 H   0  0  0  0  0  0  0  0  0  0  0  0
    2.0057    0.2826   -0.5673 H   0  0  0  0  0  0  0  0  0  0  0  0
    1.7339   -1.6736    0.1845 C   0  0  0  0  0  0  0  0  0  0  0  0
    1.9970   -1.7468    1.3704 O   0  0  0  0  0  0  0  0  0  0  0  0
    1.9478   -2.8026   -0.5536 N   0  0  0  0  0  0  0  0  0  0  0  0
    2.0725   -3.6434    0.0032 H   0  0  0  0  0  0  0  0  0  0  0  0
    1.4922   -2.8688   -1.4563 H   0  0  0  0  0  0  0  0  0  0  0  0
   -0.1364    1.7463   -0.1646 C   0  0  0  0  0  0  0  0  0  0  0  0
   -0.2201    1.9314   -1.3717 O   0  0  0  0  0  0  0  0  0  0  0  0
   -0.3765    2.8009    0.6964 N   0  0  0  0  0  0  0  0  0  0  0  0
   -0.3304    2.6139    1.6947 H   0  0  0  0  0  0  0  0  0  0  0  0
   -0.6344    4.1635    0.2449 C   0  0  0  0  0  0  0  0  0  0  0  0
   -1.5339    4.1975   -0.3787 H   0  0  0  0  0  0  0  0  0  0  0  0
   -0.7845    4.8244    1.1041 H   0  0  0  0  0  0  0  0  0  0  0  0
    0.2127    4.5410   -0.3375 H   0  0  0  0  0  0  0  0  0  0  0  0
  1  2  1  0  0  0  0
  2  3  1  0  0  0  0
  2  4  1  0  0  0  0
  2  5  1  0  0  0  0
  5  6  2  0  0  0  0
  5  7  1  0  0  0  0
  7  8  1  0  0  0  0
  7  9  1  0  0  0  0
  9 10  1  0  0  0  0
  9 11  1  0  0  0  0
  9 19  1  0  0  0  0
 11 12  1  0  0  0  0
 11 13  1  0  0  0  0
 11 14  1  0  0  0  0
 14 15  2  0  0  0  0
 14 16  1  0  0  0  0
 16 17  1  0  0  0  0
 16 18  1  0  0  0  0
 19 20  2  0  0  0  0
 19 21  1  0  0  0  0
 21 22  1  0  0  0  0
 21 23  1  0  0  0  0
 23 24  1  0  0  0  0
 23 25  1  0  0  0  0
 23 26  1  0  0  0  0
M  END
$$$$

  -OEChem-01062216063D

 26 25  0     1  0  0  0  0  0999 V2000
   -3.1564   -3.0977    1.0494 H   0  0  0  0  0  0  0  0  0  0  0  0
   -3.0291   -2.0743    0.6851 C   0  0  0  0  0  0  0  0  0  0  0  0
   -3.7265   -1.4228    1.2172 H   0  0  0  0  0  0  0  0  0  0  0  0
   -3.2602   -2.0502   -0.3826 H   0  0  0  0  0  0  0  0  0  0  0  0
   -1.6037   -1.6083    0.9190 C   0  0  0  0  0  0  0  0  0  0  0  0
   -0.8375   -2.3466    1.5022 O   0  0  0  0  0  0  0  0  0  0  0  0
   -1.2471   -0.3455    0.4882 N   0  0  0  0  0  0  0  0  0  0  0  0
   -1.9843    0.1339   -0.0255 H   0  0  0  0  0  0  0  0  0  0  0  0
    0.0720    0.3235    0.4248 C   0  0  1  0  0  0  0  0  0  0  0  0
    0.4483    0.4193    1.4493 H   0  0  0  0  0  0  0  0  0  0  0  0
    1.1653   -0.3952   -0.4051 C   0  0  0  0  0  0  0  0  0  0  0  0
    0.7576   -0.6145   -1.3954 H   0  0  0  0  0  0  0  0  0  0  0  0
    2.0106    0.2843   -0.5445 H   0  0  0  0  0  0  0  0  0  0  0  0
    1.7292   -1.6806    0.1802 C   0  0  0  0  0  0  0  0  0  0  0  0
    1.9941   -1.7742    1.3640 O   0  0  0  0  0  0  0  0  0  0  0  0
    1.9327   -2.7981   -0.5774 N   0  0  0  0  0  0  0  0  0  0  0  0
    2.0542   -3.6490   -0.0354 H   0  0  0  0  0  0  0  0  0  0  0  0
    1.4718   -2.8460   -1.4786 H   0  0  0  0  0  0  0  0  0  0  0  0
   -0.1191    1.7421   -0.1421 C   0  0  0  0  0  0  0  0  0  0  0  0
   -0.4606    1.8914   -1.3084 O   0  0  0  0  0  0  0  0  0  0  0  0
   -0.0549    2.8428    0.6915 N   0  0  0  0  0  0  0  0  0  0  0  0
    0.1911    2.6848    1.6652 H   0  0  0  0  0  0  0  0  0  0  0  0
   -0.2969    4.2069    0.2371 C   0  0  0  0  0  0  0  0  0  0  0  0
   -1.3149    4.3062   -0.1541 H   0  0  0  0  0  0  0  0  0  0  0  0
   -0.1756    4.9090    1.0676 H   0  0  0  0  0  0  0  0  0  0  0  0
    0.4118    4.4790   -0.5522 H   0  0  0  0  0  0  0  0  0  0  0  0
  1  2  1  0  0  0  0
  2  3  1  0  0  0  0
  2  4  1  0  0  0  0
  2  5  1  0  0  0  0
  5  6  2  0  0  0  0
  5  7  1  0  0  0  0
  7  8  1  0  0  0  0
  7  9  1  0  0  0  0
  9 10  1  0  0  0  0
  9 11  1  0  0  0  0
  9 19  1  0  0  0  0
 11 12  1  0  0  0  0
 11 13  1  0  0  0  0
 11 14  1  0  0  0  0
 14 15  2  0  0  0  0
 14 16  1  0  0  0  0
 16 17  1  0  0  0  0
 16 18  1  0  0  0  0
 19 20  2  0  0  0  0
 19 21  1  0  0  0  0
 21 22  1  0  0  0  0
 21 23  1  0  0  0  0
 23 24  1  0  0  0  0
 23 25  1  0  0  0  0
 23 26  1  0  0  0  0
M  END
$$$$

  -OEChem-01062216063D

 26 25  0     1  0  0  0  0  0999 V2000
   -3.1714   -3.0878    1.0514 H   0  0  0  0  0  0  0  0  0  0  0  0
   -3.0370   -2.0648    0.6881 C   0  0  0  0  0  0  0  0  0  0  0  0
   -3.7266   -1.4081    1.2242 H   0  0  0  0  0  0  0  0  0  0  0  0
   -3.2727   -2.0370   -0.3785 H   0  0  0  0  0  0  0  0  0  0  0  0
   -1.6071   -1.6099    0.9166 C   0  0  0  0  0  0  0  0  0  0  0  0
   -0.8416   -2.3569    1.4900 O   0  0  0  0  0  0  0  0  0  0  0  0
   -1.2435   -0.3487    0.4881 N   0  0  0  0  0  0  0  0  0  0  0  0
   -1.9785    0.1414   -0.0203 H   0  0  0  0  0  0  0  0  0  0  0  0
    0.0760    0.3195    0.4306 C   0  0  1  0  0  0  0  0  0  0  0  0
    0.4459    0.4123    1.4576 H   0  0  0  0  0  0  0  0  0  0  0  0
    1.1694   -0.3957   -0.4005 C   0  0  0  0  0  0  0  0  0  0  0  0
    0.7622   -0.6097   -1.3923 H   0  0  0  0  0  0  0  0  0  0  0  0
    2.0165    0.2824   -0.5356 H   0  0  0  0  0  0  0  0  0  0  0  0
    1.7304   -1.6846    0.1805 C   0  0  0  0  0  0  0  0  0  0  0  0
    1.9923   -1.7825    1.3646 O   0  0  0  0  0  0  0  0  0  0  0  0
    1.9406   -2.7978   -0.5816 N   0  0  0  0  0  0  0  0  0  0  0  0
    2.0610   -3.6511   -0.0429 H   0  0  0  0  0  0  0  0  0  0  0  0
    1.4830   -2.8427   -1.4847 H   0  0  0  0  0  0  0  0  0  0  0  0
   -0.1077    1.7383   -0.1376 C   0  0  0  0  0  0  0  0  0  0  0  0
   -0.6831    1.8903   -1.2083 O   0  0  0  0  0  0  0  0  0  0  0  0
    0.2526    2.8466    0.6059 N   0  0  0  0  0  0  0  0  0  0  0  0
    0.6856    2.6888    1.5122 H   0  0  0  0  0  0  0  0  0  0  0  0
    0.0360    4.2170    0.1577 C   0  0  0  0  0  0  0  0  0  0  0  0
   -1.0327    4.4106    0.0186 H   0  0  0  0  0  0  0  0  0  0  0  0
    0.4215    4.9231    0.8996 H   0  0  0  0  0  0  0  0  0  0  0  0
    0.5533    4.3965   -0.7907 H   0  0  0  0  0  0  0  0  0  0  0  0
  1  2  1  0  0  0  0
  2  3  1  0  0  0  0
  2  4  1  0  0  0  0
  2  5  1  0  0  0  0
  5  6  2  0  0  0  0
  5  7  1  0  0  0  0
  7  8  1  0  0  0  0
  7  9  1  0  0  0  0
  9 10  1  0  0  0  0
  9 11  1  0  0  0  0
  9 19  1  0  0  0  0
 11 12  1  0  0  0  0
 11 13  1  0  0  0  0
 11 14  1  0  0  0  0
 14 15  2  0  0  0  0
 14 16  1  0  0  0  0
 16 17  1  0  0  0  0
 16 18  1  0  0  0  0
 19 20  2  0  0  0  0
 19 21  1  0  0  0  0
 21 22  1  0  0  0  0
 21 23  1  0  0  0  0
 23 24  1  0  0  0  0
 23 25  1  0  0  0  0
 23 26  1  0  0  0  0
M  END
$$$$

  -OEChem-01062216063D

 26 25  0     1  0  0  0  0  0999 V2000
   -3.1875   -3.0808    1.0638 H   0  0  0  0  0  0  0  0  0  0  0  0
   -3.0500   -2.0570    0.7041 C   0  0  0  0  0  0  0  0  0  0  0  0
   -3.7093   -1.3943    1.2698 H   0  0  0  0  0  0  0  0  0  0  0  0
   -3.3232   -2.0162   -0.3531 H   0  0  0  0  0  0  0  0  0  0  0  0
   -1.6056   -1.6273    0.8846 C   0  0  0  0  0  0  0  0  0  0  0  0
   -0.8271   -2.4065    1.3946 O   0  0  0  0  0  0  0  0  0  0  0  0
   -1.2405   -0.3630    0.4656 N   0  0  0  0  0  0  0  0  0  0  0  0
   -1.9888    0.1538    0.0040 H   0  0  0  0  0  0  0  0  0  0  0  0
    0.0739    0.3158    0.4107 C   0  0  1  0  0  0  0  0  0  0  0  0
    0.4342    0.4096    1.4411 H   0  0  0  0  0  0  0  0  0  0  0  0
    1.1781   -0.3922   -0.4110 C   0  0  0  0  0  0  0  0  0  0  0  0
    0.7767   -0.6164   -1.4027 H   0  0  0  0  0  0  0  0  0  0  0  0
    2.0203    0.2918   -0.5464 H   0  0  0  0  0  0  0  0  0  0  0  0
    1.7451   -1.6723    0.1842 C   0  0  0  0  0  0  0  0  0  0  0  0
    1.9979   -1.7545    1.3718 O   0  0  0  0  0  0  0  0  0  0  0  0
    1.9527   -2.7979   -0.5603 N   0  0  0  0  0  0  0  0  0  0  0  0
    2.0589   -3.6415   -0.0032 H   0  0  0  0  0  0  0  0  0  0  0  0
    1.4843   -2.8574   -1.4569 H   0  0  0  0  0  0  0  0  0  0  0  0
   -0.1072    1.7387   -0.1488 C   0  0  0  0  0  0  0  0  0  0  0  0
   -0.8839    1.9323   -1.0766 O   0  0  0  0  0  0  0  0  0  0  0  0
    0.5219    2.8134    0.4514 N   0  0  0  0  0  0  0  0  0  0  0  0
    1.1307    2.6237    1.2435 H   0  0  0  0  0  0  0  0  0  0  0  0
    0.3483    4.1922    0.0106 C   0  0  0  0  0  0  0  0  0  0  0  0
   -0.7025    4.4908    0.0881 H   0  0  0  0  0  0  0  0  0  0  0  0
    0.9454    4.8656    0.6331 H   0  0  0  0  0  0  0  0  0  0  0  0
    0.6720    4.3057   -1.0294 H   0  0  0  0  0  0  0  0  0  0  0  0
  1  2  1  0  0  0  0
  2  3  1  0  0  0  0
  2  4  1  0  0  0  0
  2  5  1  0  0  0  0
  5  6  2  0  0  0  0
  5  7  1  0  0  0  0
  7  8  1  0  0  0  0
  7  9  1  0  0  0  0
  9 10  1  0  0  0  0
  9 11  1  0  0  0  0
  9 19  1  0  0  0  0
 11 12  1  0  0  0  0
 11 13  1  0  0  0  0
 11 14  1  0  0  0  0
 14 15  2  0  0  0  0
 14 16  1  0  0  0  0
 16 17  1  0  0  0  0
 16 18  1  0  0  0  0
 19 20  2  0  0  0  0
 19 21  1  0  0  0  0
 21 22  1  0  0  0  0
 21 23  1  0  0  0  0
 23 24  1  0  0  0  0
 23 25  1  0  0  0  0
 23 26  1  0  0  0  0
M  END
$$$$

  -OEChem-01062216063D

 26 25  0     1  0  0  0  0  0999 V2000
   -3.2197   -3.0577    1.0827 H   0  0  0  0  0  0  0  0  0  0  0  0
   -3.0712   -2.0353    0.7239 C   0  0  0  0  0  0  0  0  0  0  0  0
   -3.6915   -1.3612    1.3194 H   0  0  0  0  0  0  0  0  0  0  0  0
   -3.3849   -1.9803   -0.3212 H   0  0  0  0  0  0  0  0  0  0  0  0
   -1.6109   -1.6413    0.8496 C   0  0  0  0  0  0  0  0  0  0  0  0
   -0.8263   -2.4549    1.2926 O   0  0  0  0  0  0  0  0  0  0  0  0
   -1.2382   -0.3761    0.4398 N   0  0  0  0  0  0  0  0  0  0  0  0
   -1.9986    0.1728    0.0374 H   0  0  0  0  0  0  0  0  0  0  0  0
    0.0739    0.3086    0.3918 C   0  0  1  0  0  0  0  0  0  0  0  0
    0.4239    0.4064    1.4255 H   0  0  0  0  0  0  0  0  0  0  0  0
    1.1884   -0.3995   -0.4175 C   0  0  0  0  0  0  0  0  0  0  0  0
    0.7946   -0.6336   -1.4099 H   0  0  0  0  0  0  0  0  0  0  0  0
    2.0302    0.2847   -0.5529 H   0  0  0  0  0  0  0  0  0  0  0  0
    1.7545   -1.6734    0.1920 C   0  0  0  0  0  0  0  0  0  0  0  0
    1.9960   -1.7439    1.3829 O   0  0  0  0  0  0  0  0  0  0  0  0
    1.9890   -2.7986   -0.5448 N   0  0  0  0  0  0  0  0  0  0  0  0
    2.0966   -3.6373    0.0192 H   0  0  0  0  0  0  0  0  0  0  0  0
    1.5255   -2.8698   -1.4432 H   0  0  0  0  0  0  0  0  0  0  0  0
   -0.1042    1.7356   -0.1628 C   0  0  0  0  0  0  0  0  0  0  0  0
   -1.0398    1.9889   -0.9134 O   0  0  0  0  0  0  0  0  0  0  0  0
    0.7445    2.7519    0.2360 N   0  0  0  0  0  0  0  0  0  0  0  0
    1.4828    2.5202    0.8954 H   0  0  0  0  0  0  0  0  0  0  0  0
    0.6029    4.1342   -0.2052 C   0  0  0  0  0  0  0  0  0  0  0  0
   -0.3695    4.5360    0.0986 H   0  0  0  0  0  0  0  0  0  0  0  0
    1.3871    4.7551    0.2385 H   0  0  0  0  0  0  0  0  0  0  0  0
    0.6867    4.1988   -1.2951 H   0  0  0  0  0  0  0  0  0  0  0  0
  1  2  1  0  0  0  0
  2  3  1  0  0  0  0
  2  4  1  0  0  0  0
  2  5  1  0  0  0  0
  5  6  2  0  0  0  0
  5  7  1  0  0  0  0
  7  8  1  0  0  0  0
  7  9  1  0  0  0  0
  9 10  1  0  0  0  0
  9 11  1  0  0  0  0
  9 19  1  0  0  0  0
 11 12  1  0  0  0  0
 11 13  1  0  0  0  0
 11 14  1  0  0  0  0
 14 15  2  0  0  0  0
 14 16  1  0  0  0  0
 16 17  1  0  0  0  0
 16 18  1  0  0  0  0
 19 20  2  0  0  0  0
 19 21  1  0  0  0  0
 21 22  1  0  0  0  0
 21 23  1  0  0  0  0
 23 24  1  0  0  0  0
 23 25  1  0  0  0  0
 23 26  1  0  0  0  0
M  END
$$$$

  -OEChem-01062216063D

 26 25  0     1  0  0  0  0  0999 V2000
   -3.2438   -3.0322    1.1008 H   0  0  0  0  0  0  0  0  0  0  0  0
   -3.0844   -2.0115    0.7417 C   0  0  0  0  0  0  0  0  0  0  0  0
   -3.6592   -1.3255    1.3686 H   0  0  0  0  0  0  0  0  0  0  0  0
   -3.4424   -1.9401   -0.2881 H   0  0  0  0  0  0  0  0  0  0  0  0
   -1.6101   -1.6567    0.8039 C   0  0  0  0  0  0  0  0  0  0  0  0
   -0.8242   -2.5078    1.1682 O   0  0  0  0  0  0  0  0  0  0  0  0
   -1.2287   -0.3893    0.4081 N   0  0  0  0  0  0  0  0  0  0  0  0
   -1.9994    0.1935    0.0779 H   0  0  0  0  0  0  0  0  0  0  0  0
    0.0820    0.3004    0.3711 C   0  0  1  0  0  0  0  0  0  0  0  0
    0.4230    0.4006    1.4077 H   0  0  0  0  0  0  0  0  0  0  0  0
    1.2056   -0.4121   -0.4244 C   0  0  0  0  0  0  0  0  0  0  0  0
    0.8202   -0.6540   -1.4182 H   0  0  0  0  0  0  0  0  0  0  0  0
    2.0514    0.2668   -0.5584 H   0  0  0  0  0  0  0  0  0  0  0  0
    1.7644   -1.6813    0.2014 C   0  0  0  0  0  0  0  0  0  0  0  0
    1.9921   -1.7397    1.3959 O   0  0  0  0  0  0  0  0  0  0  0  0
    2.0111   -2.8112   -0.5239 N   0  0  0  0  0  0  0  0  0  0  0  0
    2.1093   -3.6440    0.0503 H   0  0  0  0  0  0  0  0  0  0  0  0
    1.5469   -2.8926   -1.4211 H   0  0  0  0  0  0  0  0  0  0  0  0
   -0.0981    1.7331   -0.1748 C   0  0  0  0  0  0  0  0  0  0  0  0
   -1.1463    2.0556   -0.7239 O   0  0  0  0  0  0  0  0  0  0  0  0
    0.9029    2.6752   -0.0211 N   0  0  0  0  0  0  0  0  0  0  0  0
    1.7372    2.3989    0.4901 H   0  0  0  0  0  0  0  0  0  0  0  0
    0.7803    4.0555   -0.4746 C   0  0  0  0  0  0  0  0  0  0  0  0
   -0.0608    4.5499    0.0229 H   0  0  0  0  0  0  0  0  0  0  0  0
    1.6938    4.6120   -0.2437 H   0  0  0  0  0  0  0  0  0  0  0  0
    0.6196    4.0900   -1.5572 H   0  0  0  0  0  0  0  0  0  0  0  0
  1  2  1  0  0  0  0
  2  3  1  0  0  0  0
  2  4  1  0  0  0  0
  2  5  1  0  0  0  0
  5  6  2  0  0  0  0
  5  7  1  0  0  0  0
  7  8  1  0  0  0  0
  7  9  1  0  0  0  0
  9 10  1  0  0  0  0
  9 11  1  0  0  0  0
  9 19  1  0  0  0  0
 11 12  1  0  0  0  0
 11 13  1  0  0  0  0
 11 14  1  0  0  0  0
 14 15  2  0  0  0  0
 14 16  1  0  0  0  0
 16 17  1  0  0  0  0
 16 18  1  0  0  0  0
 19 20  2  0  0  0  0
 19 21  1  0  0  0  0
 21 22  1  0  0  0  0
 21 23  1  0  0  0  0
 23 24  1  0  0  0  0
 23 25  1  0  0  0  0
 23 26  1  0  0  0  0
M  END
$$$$

  -OEChem-01062216063D

 26 25  0     1  0  0  0  0  0999 V2000
   -3.0759   -3.1206    1.0883 H   0  0  0  0  0  0  0  0  0  0  0  0
   -2.9750   -2.0922    0.7298 C   0  0  0  0  0  0  0  0  0  0  0  0
   -3.6245   -1.4465    1.3259 H   0  0  0  0  0  0  0  0  0  0  0  0
   -3.2912   -2.0514   -0.3151 H   0  0  0  0  0  0  0  0  0  0  0  0
   -1.5342   -1.6325    0.8552 C   0  0  0  0  0  0  0  0  0  0  0  0
   -0.7248   -2.3688    1.3811 O   0  0  0  0  0  0  0  0  0  0  0  0
   -1.2009   -0.3658    0.4212 N   0  0  0  0  0  0  0  0  0  0  0  0
   -1.9859    0.2078    0.1102 H   0  0  0  0  0  0  0  0  0  0  0  0
    0.1014    0.3340    0.4202 C   0  0  1  0  0  0  0  0  0  0  0  0
    0.5776    0.2065    1.3993 H   0  0  0  0  0  0  0  0  0  0  0  0
    1.0495   -0.1996   -0.6869 C   0  0  0  0  0  0  0  0  0  0  0  0
    0.5128   -0.1761   -1.6389 H   0  0  0  0  0  0  0  0  0  0  0  0
    1.9124    0.4631   -0.7841 H   0  0  0  0  0  0  0  0  0  0  0  0
    1.6162   -1.5975   -0.4854 C   0  0  0  0  0  0  0  0  0  0  0  0
    2.0208   -1.9729    0.5964 O   0  0  0  0  0  0  0  0  0  0  0  0
    1.6540   -2.5191   -1.4921 N   0  0  0  0  0  0  0  0  0  0  0  0
    1.8119   -3.4730   -1.1784 H   0  0  0  0  0  0  0  0  0  0  0  0
    1.0824   -2.3527   -2.3122 H   0  0  0  0  0  0  0  0  0  0  0  0
   -0.1206    1.8474    0.1875 C   0  0  0  0  0  0  0  0  0  0  0  0
   -1.2488    2.2752   -0.0344 O   0  0  0  0  0  0  0  0  0  0  0  0
    0.9471    2.7269    0.1456 N   0  0  0  0  0  0  0  0  0  0  0  0
    1.8658    2.3624    0.3825 H   0  0  0  0  0  0  0  0  0  0  0  0
    0.7964    4.1606   -0.0751 C   0  0  0  0  0  0  0  0  0  0  0  0
    0.1745    4.6062    0.7085 H   0  0  0  0  0  0  0  0  0  0  0  0
    1.7749    4.6505   -0.0604 H   0  0  0  0  0  0  0  0  0  0  0  0
    0.3296    4.3518   -1.0472 H   0  0  0  0  0  0  0  0  0  0  0  0
  1  2  1  0  0  0  0
  2  3  1  0  0  0  0
  2  4  1  0  0  0  0
  2  5  1  0  0  0  0
  5  6  2  0  0  0  0
  5  7  1  0  0  0  0
  7  8  1  0  0  0  0
  7  9  1  0  0  0  0
  9 10  1  0  0  0  0
  9 11  1  0  0  0  0
  9 19  1  0  0  0  0
 11 12  1  0  0  0  0
 11 13  1  0  0  0  0
 11 14  1  0  0  0  0
 14 15  2  0  0  0  0
 14 16  1  0  0  0  0
 16 17  1  0  0  0  0
 16 18  1  0  0  0  0
 19 20  2  0  0  0  0
 19 21  1  0  0  0  0
 21 22  1  0  0  0  0
 21 23  1  0  0  0  0
 23 24  1  0  0  0  0
 23 25  1  0  0  0  0
 23 26  1  0  0  0  0
M  END
$$$$

  -OEChem-01062216063D

 26 25  0     1  0  0  0  0  0999 V2000
   -3.1128   -3.0733    1.1051 H   0  0  0  0  0  0  0  0  0  0  0  0
   -2.9902   -2.0494    0.7402 C   0  0  0  0  0  0  0  0  0  0  0  0
   -3.5959   -1.3813    1.3573 H   0  0  0  0  0  0  0  0  0  0  0  0
   -3.3420   -1.9995   -0.2930 H   0  0  0  0  0  0  0  0  0  0  0  0
   -1.5311   -1.6383    0.8117 C   0  0  0  0  0  0  0  0  0  0  0  0
   -0.7226   -2.4241    1.2611 O   0  0  0  0  0  0  0  0  0  0  0  0
   -1.1821   -0.3700    0.3942 N   0  0  0  0  0  0  0  0  0  0  0  0
   -1.9722    0.2355    0.1673 H   0  0  0  0  0  0  0  0  0  0  0  0
    0.1241    0.3253    0.3965 C   0  0  1  0  0  0  0  0  0  0  0  0
    0.5956    0.1979    1.3780 H   0  0  0  0  0  0  0  0  0  0  0  0
    1.0800   -0.2228   -0.6996 C   0  0  0  0  0  0  0  0  0  0  0  0
    0.5520   -0.2041   -1.6566 H   0  0  0  0  0  0  0  0  0  0  0  0
    1.9507    0.4287   -0.7939 H   0  0  0  0  0  0  0  0  0  0  0  0
    1.6407   -1.6207   -0.4808 C   0  0  0  0  0  0  0  0  0  0  0  0
    2.0358   -1.9847    0.6087 O   0  0  0  0  0  0  0  0  0  0  0  0
    1.6720   -2.5573   -1.4737 N   0  0  0  0  0  0  0  0  0  0  0  0
    1.8150   -3.5067   -1.1398 H   0  0  0  0  0  0  0  0  0  0  0  0
    1.0888   -2.4024   -2.2877 H   0  0  0  0  0  0  0  0  0  0  0  0
   -0.1083    1.8430    0.1796 C   0  0  0  0  0  0  0  0  0  0  0  0
   -1.2494    2.2927    0.2113 O   0  0  0  0  0  0  0  0  0  0  0  0
    0.9244    2.6993   -0.1636 N   0  0  0  0  0  0  0  0  0  0  0  0
    1.8704    2.3302   -0.1323 H   0  0  0  0  0  0  0  0  0  0  0  0
    0.7375    4.1252   -0.4076 C   0  0  0  0  0  0  0  0  0  0  0  0
    0.3362    4.6182    0.4842 H   0  0  0  0  0  0  0  0  0  0  0  0
    1.6931    4.5940   -0.6615 H   0  0  0  0  0  0  0  0  0  0  0  0
    0.0441    4.2835   -1.2403 H   0  0  0  0  0  0  0  0  0  0  0  0
  1  2  1  0  0  0  0
  2  3  1  0  0  0  0
  2  4  1  0  0  0  0
  2  5  1  0  0  0  0
  5  6  2  0  0  0  0
  5  7  1  0  0  0  0
  7  8  1  0  0  0  0
  7  9  1  0  0  0  0
  9 10  1  0  0  0  0
  9 11  1  0  0  0  0
  9 19  1  0  0  0  0
 11 12  1  0  0  0  0
 11 13  1  0  0  0  0
 11 14  1  0  0  0  0
 14 15  2  0  0  0  0
 14 16  1  0  0  0  0
 16 17  1  0  0  0  0
 16 18  1  0  0  0  0
 19 20  2  0  0  0  0
 19 21  1  0  0  0  0
 21 22  1  0  0  0  0
 21 23  1  0  0  0  0
 23 24  1  0  0  0  0
 23 25  1  0  0  0  0
 23 26  1  0  0  0  0
M  END
$$$$

  -OEChem-01062216063D

 26 25  0     1  0  0  0  0  0999 V2000
   -3.1783   -2.9946    1.1751 H   0  0  0  0  0  0  0  0  0  0  0  0
   -3.0362   -1.9774    0.7990 C   0  0  0  0  0  0  0  0  0  0  0  0
   -3.5311   -1.2802    1.4796 H   0  0  0  0  0  0  0  0  0  0  0  0
   -3.4959   -1.8997   -0.1891 H   0  0  0  0  0  0  0  0  0  0  0  0
   -1.5561   -1.6523    0.7105 C   0  0  0  0  0  0  0  0  0  0  0  0
   -0.7535   -2.5226    0.9772 O   0  0  0  0  0  0  0  0  0  0  0  0
   -1.1866   -0.3810    0.3166 N   0  0  0  0  0  0  0  0  0  0  0  0
   -1.9729    0.2637    0.2240 H   0  0  0  0  0  0  0  0  0  0  0  0
    0.1269    0.3036    0.3263 C   0  0  1  0  0  0  0  0  0  0  0  0
    0.5749    0.1788    1.3190 H   0  0  0  0  0  0  0  0  0  0  0  0
    1.1273   -0.2539   -0.7247 C   0  0  0  0  0  0  0  0  0  0  0  0
    0.6367   -0.2550   -1.7015 H   0  0  0  0  0  0  0  0  0  0  0  0
    1.9988    0.3995   -0.7906 H   0  0  0  0  0  0  0  0  0  0  0  0
    1.6891   -1.6433   -0.4573 C   0  0  0  0  0  0  0  0  0  0  0  0
    2.0442   -1.9785    0.6560 O   0  0  0  0  0  0  0  0  0  0  0  0
    1.7702   -2.5986   -1.4293 N   0  0  0  0  0  0  0  0  0  0  0  0
    1.8938   -3.5391   -1.0635 H   0  0  0  0  0  0  0  0  0  0  0  0
    1.2059   -2.4676   -2.2606 H   0  0  0  0  0  0  0  0  0  0  0  0
   -0.1128    1.8245    0.1338 C   0  0  0  0  0  0  0  0  0  0  0  0
   -1.2019    2.2995    0.4383 O   0  0  0  0  0  0  0  0  0  0  0  0
    0.8074    2.6542   -0.4857 N   0  0  0  0  0  0  0  0  0  0  0  0
    1.7219    2.2673   -0.6971 H   0  0  0  0  0  0  0  0  0  0  0  0
    0.5870    4.0804   -0.6988 C   0  0  0  0  0  0  0  0  0  0  0  0
    0.4382    4.5929    0.2576 H   0  0  0  0  0  0  0  0  0  0  0  0
    1.4525    4.5262   -1.1986 H   0  0  0  0  0  0  0  0  0  0  0  0
   -0.2952    4.2428   -1.3271 H   0  0  0  0  0  0  0  0  0  0  0  0
  1  2  1  0  0  0  0
  2  3  1  0  0  0  0
  2  4  1  0  0  0  0
  2  5  1  0  0  0  0
  5  6  2  0  0  0  0
  5  7  1  0  0  0  0
  7  8  1  0  0  0  0
  7  9  1  0  0  0  0
  9 10  1  0  0  0  0
  9 11  1  0  0  0  0
  9 19  1  0  0  0  0
 11 12  1  0  0  0  0
 11 13  1  0  0  0  0
 11 14  1  0  0  0  0
 14 15  2  0  0  0  0
 14 16  1  0  0  0  0
 16 17  1  0  0  0  0
 16 18  1  0  0  0  0
 19 20  2  0  0  0  0
 19 21  1  0  0  0  0
 21 22  1  0  0  0  0
 21 23  1  0  0  0  0
 23 24  1  0  0  0  0
 23 25  1  0  0  0  0
 23 26  1  0  0  0  0
M  END
$$$$

  -OEChem-01062216063D

 26 25  0     1  0  0  0  0  0999 V2000
   -3.1962   -2.9599    1.2001 H   0  0  0  0  0  0  0  0  0  0  0  0
   -3.0514   -1.9405    0.8312 C   0  0  0  0  0  0  0  0  0  0  0  0
   -3.4816   -1.2427    1.5538 H   0  0  0  0  0  0  0  0  0  0  0  0
   -3.5717   -1.8331   -0.1235 H   0  0  0  0  0  0  0  0  0  0  0  0
   -1.5720   -1.6534    0.6510 C   0  0  0  0  0  0  0  0  0  0  0  0
   -0.7818   -2.5626    0.7994 O   0  0  0  0  0  0  0  0  0  0  0  0
   -1.1962   -0.3797    0.2711 N   0  0  0  0  0  0  0  0  0  0  0  0
   -1.9753    0.2794    0.2607 H   0  0  0  0  0  0  0  0  0  0  0  0
    0.1237    0.2924    0.2872 C   0  0  1  0  0  0  0  0  0  0  0  0
    0.5549    0.1661    1.2873 H   0  0  0  0  0  0  0  0  0  0  0  0
    1.1533   -0.2664   -0.7332 C   0  0  0  0  0  0  0  0  0  0  0  0
    0.6898   -0.2784   -1.7229 H   0  0  0  0  0  0  0  0  0  0  0  0
    2.0221    0.3940   -0.7758 H   0  0  0  0  0  0  0  0  0  0  0  0
    1.7122   -1.6517   -0.4374 C   0  0  0  0  0  0  0  0  0  0  0  0
    2.0369   -1.9740    0.6894 O   0  0  0  0  0  0  0  0  0  0  0  0
    1.8238   -2.6169   -1.3963 N   0  0  0  0  0  0  0  0  0  0  0  0
    1.9380   -3.5514   -1.0127 H   0  0  0  0  0  0  0  0  0  0  0  0
    1.2692   -2.5016   -2.2362 H   0  0  0  0  0  0  0  0  0  0  0  0
   -0.1138    1.8133    0.1123 C   0  0  0  0  0  0  0  0  0  0  0  0
   -1.0933    2.3198    0.6469 O   0  0  0  0  0  0  0  0  0  0  0  0
    0.6366    2.5980   -0.7477 N   0  0  0  0  0  0  0  0  0  0  0  0
    1.4362    2.1697   -1.2031 H   0  0  0  0  0  0  0  0  0  0  0  0
    0.3798    4.0165   -0.9698 C   0  0  0  0  0  0  0  0  0  0  0  0
    0.4546    4.5718   -0.0288 H   0  0  0  0  0  0  0  0  0  0  0  0
    1.1105    4.4282   -1.6725 H   0  0  0  0  0  0  0  0  0  0  0  0
   -0.6217    4.1640   -1.3874 H   0  0  0  0  0  0  0  0  0  0  0  0
  1  2  1  0  0  0  0
  2  3  1  0  0  0  0
  2  4  1  0  0  0  0
  2  5  1  0  0  0  0
  5  6  2  0  0  0  0
  5  7  1  0  0  0  0
  7  8  1  0  0  0  0
  7  9  1  0  0  0  0
  9 10  1  0  0  0  0
  9 11  1  0  0  0  0
  9 19  1  0  0  0  0
 11 12  1  0  0  0  0
 11 13  1  0  0  0  0
 11 14  1  0  0  0  0
 14 15  2  0  0  0  0
 14 16  1  0  0  0  0
 16 17  1  0  0  0  0
 16 18  1  0  0  0  0
 19 20  2  0  0  0  0
 19 21  1  0  0  0  0
 21 22  1  0  0  0  0
 21 23  1  0  0  0  0
 23 24  1  0  0  0  0
 23 25  1  0  0  0  0
 23 26  1  0  0  0  0
M  END
$$$$

  -OEChem-01062216063D

 26 25  0     1  0  0  0  0  0999 V2000
   -3.1938   -2.9512    1.2323 H   0  0  0  0  0  0  0  0  0  0  0  0
   -3.0583   -1.9284    0.8691 C   0  0  0  0  0  0  0  0  0  0  0  0
   -3.4344   -1.2359    1.6264 H   0  0  0  0  0  0  0  0  0  0  0  0
   -3.6346   -1.8010   -0.0504 H   0  0  0  0  0  0  0  0  0  0  0  0
   -1.5889   -1.6568    0.6028 C   0  0  0  0  0  0  0  0  0  0  0  0
   -0.8088   -2.5857    0.6514 O   0  0  0  0  0  0  0  0  0  0  0  0
   -1.2172   -0.3791    0.2310 N   0  0  0  0  0  0  0  0  0  0  0  0
   -1.9922    0.2820    0.2785 H   0  0  0  0  0  0  0  0  0  0  0  0
    0.1053    0.2874    0.2577 C   0  0  1  0  0  0  0  0  0  0  0  0
    0.5206    0.1595    1.2646 H   0  0  0  0  0  0  0  0  0  0  0  0
    1.1618   -0.2649   -0.7367 C   0  0  0  0  0  0  0  0  0  0  0  0
    0.7207   -0.2879   -1.7361 H   0  0  0  0  0  0  0  0  0  0  0  0
    2.0219    0.4089   -0.7613 H   0  0  0  0  0  0  0  0  0  0  0  0
    1.7223   -1.6455   -0.4216 C   0  0  0  0  0  0  0  0  0  0  0  0
    2.0211   -1.9605    0.7148 O   0  0  0  0  0  0  0  0  0  0  0  0
    1.8700   -2.6118   -1.3745 N   0  0  0  0  0  0  0  0  0  0  0  0
    1.9811   -3.5436   -0.9835 H   0  0  0  0  0  0  0  0  0  0  0  0
    1.3323   -2.5053   -2.2266 H   0  0  0  0  0  0  0  0  0  0  0  0
   -0.1229    1.8074    0.0924 C   0  0  0  0  0  0  0  0  0  0  0  0
   -0.9502    2.3551    0.8095 O   0  0  0  0  0  0  0  0  0  0  0  0
    0.4151    2.5305   -0.9590 N   0  0  0  0  0  0  0  0  0  0  0  0
    1.0538    2.0503   -1.5850 H   0  0  0  0  0  0  0  0  0  0  0  0
    0.1298    3.9417   -1.1921 C   0  0  0  0  0  0  0  0  0  0  0  0
    0.4200    4.5398   -0.3217 H   0  0  0  0  0  0  0  0  0  0  0  0
    0.6890    4.3028   -2.0607 H   0  0  0  0  0  0  0  0  0  0  0  0
   -0.9384    4.0911   -1.3821 H   0  0  0  0  0  0  0  0  0  0  0  0
  1  2  1  0  0  0  0
  2  3  1  0  0  0  0
  2  4  1  0  0  0  0
  2  5  1  0  0  0  0
  5  6  2  0  0  0  0
  5  7  1  0  0  0  0
  7  8  1  0  0  0  0
  7  9  1  0  0  0  0
  9 10  1  0  0  0  0
  9 11  1  0  0  0  0
  9 19  1  0  0  0  0
 11 12  1  0  0  0  0
 11 13  1  0  0  0  0
 11 14  1  0  0  0  0
 14 15  2  0  0  0  0
 14 16  1  0  0  0  0
 16 17  1  0  0  0  0
 16 18  1  0  0  0  0
 19 20  2  0  0  0  0
 19 21  1  0  0  0  0
 21 22  1  0  0  0  0
 21 23  1  0  0  0  0
 23 24  1  0  0  0  0
 23 25  1  0  0  0  0
 23 26  1  0  0  0  0
M  END
$$$$

  -OEChem-01062216063D

 26 25  0     1  0  0  0  0  0999 V2000
   -3.1836   -2.9657    1.2387 H   0  0  0  0  0  0  0  0  0  0  0  0
   -3.0582   -1.9363    0.8907 C   0  0  0  0  0  0  0  0  0  0  0  0
   -3.4132   -1.2583    1.6707 H   0  0  0  0  0  0  0  0  0  0  0  0
   -3.6601   -1.7925   -0.0096 H   0  0  0  0  0  0  0  0  0  0  0  0
   -1.5968   -1.6597    0.5883 C   0  0  0  0  0  0  0  0  0  0  0  0
   -0.8172   -2.5902    0.5946 O   0  0  0  0  0  0  0  0  0  0  0  0
   -1.2360   -0.3791    0.2142 N   0  0  0  0  0  0  0  0  0  0  0  0
   -2.0140    0.2757    0.2800 H   0  0  0  0  0  0  0  0  0  0  0  0
    0.0855    0.2895    0.2443 C   0  0  1  0  0  0  0  0  0  0  0  0
    0.4939    0.1618    1.2544 H   0  0  0  0  0  0  0  0  0  0  0  0
    1.1555   -0.2556   -0.7379 C   0  0  0  0  0  0  0  0  0  0  0  0
    0.7232   -0.2895   -1.7407 H   0  0  0  0  0  0  0  0  0  0  0  0
    2.0060    0.4312   -0.7599 H   0  0  0  0  0  0  0  0  0  0  0  0
    1.7234   -1.6317   -0.4147 C   0  0  0  0  0  0  0  0  0  0  0  0
    2.0132   -1.9441    0.7249 O   0  0  0  0  0  0  0  0  0  0  0  0
    1.8933   -2.5968   -1.3651 N   0  0  0  0  0  0  0  0  0  0  0  0
    2.0118   -3.5267   -0.9719 H   0  0  0  0  0  0  0  0  0  0  0  0
    1.3628   -2.4984   -2.2224 H   0  0  0  0  0  0  0  0  0  0  0  0
   -0.1321    1.8079    0.0782 C   0  0  0  0  0  0  0  0  0  0  0  0
   -0.7547    2.4102    0.9416 O   0  0  0  0  0  0  0  0  0  0  0  0
    0.1490    2.4611   -1.1097 N   0  0  0  0  0  0  0  0  0  0  0  0
    0.5940    1.9258   -1.8485 H   0  0  0  0  0  0  0  0  0  0  0  0
   -0.1597    3.8670   -1.3458 C   0  0  0  0  0  0  0  0  0  0  0  0
    0.3372    4.4983   -0.6015 H   0  0  0  0  0  0  0  0  0  0  0  0
    0.1852    4.1689   -2.3394 H   0  0  0  0  0  0  0  0  0  0  0  0
   -1.2398    4.0378   -1.2875 H   0  0  0  0  0  0  0  0  0  0  0  0
  1  2  1  0  0  0  0
  2  3  1  0  0  0  0
  2  4  1  0  0  0  0
  2  5  1  0  0  0  0
  5  6  2  0  0  0  0
  5  7  1  0  0  0  0
  7  8  1  0  0  0  0
  7  9  1  0  0  0  0
  9 10  1  0  0  0  0
  9 11  1  0  0  0  0
  9 19  1  0  0  0  0
 11 12  1  0  0  0  0
 11 13  1  0  0  0  0
 11 14  1  0  0  0  0
 14 15  2  0  0  0  0
 14 16  1  0  0  0  0
 16 17  1  0  0  0  0
 16 18  1  0  0  0  0
 19 20  2  0  0  0  0
 19 21  1  0  0  0  0
 21 22  1  0  0  0  0
 21 23  1  0  0  0  0
 23 24  1  0  0  0  0
 23 25  1  0  0  0  0
 23 26  1  0  0  0  0
M  END
$$$$

  -OEChem-01062216063D

 26 25  0     1  0  0  0  0  0999 V2000
   -3.1744   -2.9944    1.2253 H   0  0  0  0  0  0  0  0  0  0  0  0
   -3.0550   -1.9576    0.8971 C   0  0  0  0  0  0  0  0  0  0  0  0
   -3.4117   -1.2965    1.6909 H   0  0  0  0  0  0  0  0  0  0  0  0
   -3.6593   -1.7997    0.0007 H   0  0  0  0  0  0  0  0  0  0  0  0
   -1.5957   -1.6667    0.5985 C   0  0  0  0  0  0  0  0  0  0  0  0
   -0.8055   -2.5877    0.6158 O   0  0  0  0  0  0  0  0  0  0  0  0
   -1.2484   -0.3848    0.2157 N   0  0  0  0  0  0  0  0  0  0  0  0
   -2.0363    0.2582    0.2651 H   0  0  0  0  0  0  0  0  0  0  0  0
    0.0682    0.2945    0.2468 C   0  0  1  0  0  0  0  0  0  0  0  0
    0.4771    0.1698    1.2576 H   0  0  0  0  0  0  0  0  0  0  0  0
    1.1436   -0.2375   -0.7354 C   0  0  0  0  0  0  0  0  0  0  0  0
    0.7133   -0.2740   -1.7387 H   0  0  0  0  0  0  0  0  0  0  0  0
    1.9844    0.4614   -0.7562 H   0  0  0  0  0  0  0  0  0  0  0  0
    1.7249   -1.6090   -0.4166 C   0  0  0  0  0  0  0  0  0  0  0  0
    2.0176   -1.9237    0.7214 O   0  0  0  0  0  0  0  0  0  0  0  0
    1.8928   -2.5737   -1.3679 N   0  0  0  0  0  0  0  0  0  0  0  0
    2.0158   -3.5035   -0.9757 H   0  0  0  0  0  0  0  0  0  0  0  0
    1.3618   -2.4756   -2.2248 H   0  0  0  0  0  0  0  0  0  0  0  0
   -0.1479    1.8102    0.0704 C   0  0  0  0  0  0  0  0  0  0  0  0
   -0.5068    2.4788    1.0282 O   0  0  0  0  0  0  0  0  0  0  0  0
   -0.1556    2.3909   -1.1862 N   0  0  0  0  0  0  0  0  0  0  0  0
    0.0683    1.7989   -1.9800 H   0  0  0  0  0  0  0  0  0  0  0  0
   -0.4721    3.7955   -1.4198 C   0  0  0  0  0  0  0  0  0  0  0  0
    0.2170    4.4408   -0.8647 H   0  0  0  0  0  0  0  0  0  0  0  0
   -0.3833    4.0317   -2.4846 H   0  0  0  0  0  0  0  0  0  0  0  0
   -1.4960    4.0166   -1.1007 H   0  0  0  0  0  0  0  0  0  0  0  0
  1  2  1  0  0  0  0
  2  3  1  0  0  0  0
  2  4  1  0  0  0  0
  2  5  1  0  0  0  0
  5  6  2  0  0  0  0
  5  7  1  0  0  0  0
  7  8  1  0  0  0  0
  7  9  1  0  0  0  0
  9 10  1  0  0  0  0
  9 11  1  0  0  0  0
  9 19  1  0  0  0  0
 11 12  1  0  0  0  0
 11 13  1  0  0  0  0
 11 14  1  0  0  0  0
 14 15  2  0  0  0  0
 14 16  1  0  0  0  0
 16 17  1  0  0  0  0
 16 18  1  0  0  0  0
 19 20  2  0  0  0  0
 19 21  1  0  0  0  0
 21 22  1  0  0  0  0
 21 23  1  0  0  0  0
 23 24  1  0  0  0  0
 23 25  1  0  0  0  0
 23 26  1  0  0  0  0
M  END
$$$$

  -OEChem-01062216063D

 26 25  0     1  0  0  0  0  0999 V2000
   -3.1652   -3.0244    1.2498 H   0  0  0  0  0  0  0  0  0  0  0  0
   -3.0593   -2.0007    0.8790 C   0  0  0  0  0  0  0  0  0  0  0  0
   -3.4933   -1.3172    1.6129 H   0  0  0  0  0  0  0  0  0  0  0  0
   -3.6047   -1.9094   -0.0632 H   0  0  0  0  0  0  0  0  0  0  0  0
   -1.5934   -1.6701    0.6654 C   0  0  0  0  0  0  0  0  0  0  0  0
   -0.7751   -2.5562    0.7926 O   0  0  0  0  0  0  0  0  0  0  0  0
   -1.2615   -0.3903    0.2615 N   0  0  0  0  0  0  0  0  0  0  0  0
   -2.0645    0.2341    0.2377 H   0  0  0  0  0  0  0  0  0  0  0  0
    0.0488    0.3034    0.2774 C   0  0  1  0  0  0  0  0  0  0  0  0
    0.4741    0.1847    1.2824 H   0  0  0  0  0  0  0  0  0  0  0  0
    1.1092   -0.2144   -0.7277 C   0  0  0  0  0  0  0  0  0  0  0  0
    0.6635   -0.2432   -1.7242 H   0  0  0  0  0  0  0  0  0  0  0  0
    1.9428    0.4932   -0.7572 H   0  0  0  0  0  0  0  0  0  0  0  0
    1.7113   -1.5830   -0.4357 C   0  0  0  0  0  0  0  0  0  0  0  0
    2.0326   -1.9102    0.6903 O   0  0  0  0  0  0  0  0  0  0  0  0
    1.8787   -2.5313   -1.4039 N   0  0  0  0  0  0  0  0  0  0  0  0
    2.0322   -3.4652   -1.0327 H   0  0  0  0  0  0  0  0  0  0  0  0
    1.3488   -2.4258   -2.2605 H   0  0  0  0  0  0  0  0  0  0  0  0
   -0.1712    1.8149    0.0805 C   0  0  0  0  0  0  0  0  0  0  0  0
   -0.1971    2.5605    1.0474 O   0  0  0  0  0  0  0  0  0  0  0  0
   -0.4901    2.3218   -1.1670 N   0  0  0  0  0  0  0  0  0  0  0  0
   -0.4933    1.6758   -1.9503 H   0  0  0  0  0  0  0  0  0  0  0  0
   -0.7722    3.7318   -1.4104 C   0  0  0  0  0  0  0  0  0  0  0  0
    0.0925    4.3476   -1.1412 H   0  0  0  0  0  0  0  0  0  0  0  0
   -0.9972    3.8958   -2.4686 H   0  0  0  0  0  0  0  0  0  0  0  0
   -1.6345    4.0581   -0.8192 H   0  0  0  0  0  0  0  0  0  0  0  0
  1  2  1  0  0  0  0
  2  3  1  0  0  0  0
  2  4  1  0  0  0  0
  2  5  1  0  0  0  0
  5  6  2  0  0  0  0
  5  7  1  0  0  0  0
  7  8  1  0  0  0  0
  7  9  1  0  0  0  0
  9 10  1  0  0  0  0
  9 11  1  0  0  0  0
  9 19  1  0  0  0  0
 11 12  1  0  0  0  0
 11 13  1  0  0  0  0
 11 14  1  0  0  0  0
 14 15  2  0  0  0  0
 14 16  1  0  0  0  0
 16 17  1  0  0  0  0
 16 18  1  0  0  0  0
 19 20  2  0  0  0  0
 19 21  1  0  0  0  0
 21 22  1  0  0  0  0
 21 23  1  0  0  0  0
 23 24  1  0  0  0  0
 23 25  1  0  0  0  0
 23 26  1  0  0  0  0
M  END
$$$$

  -OEChem-01062216063D

 26 25  0     1  0  0  0  0  0999 V2000
   -3.1527   -3.0748    1.2041 H   0  0  0  0  0  0  0  0  0  0  0  0
   -3.0547   -2.0381    0.8691 C   0  0  0  0  0  0  0  0  0  0  0  0
   -3.5211   -1.3859    1.6115 H   0  0  0  0  0  0  0  0  0  0  0  0
   -3.5754   -1.9264   -0.0848 H   0  0  0  0  0  0  0  0  0  0  0  0
   -1.5894   -1.6762    0.7084 C   0  0  0  0  0  0  0  0  0  0  0  0
   -0.7555   -2.5341    0.9039 O   0  0  0  0  0  0  0  0  0  0  0  0
   -1.2706   -0.3963    0.2944 N   0  0  0  0  0  0  0  0  0  0  0  0
   -2.0824    0.2134    0.2330 H   0  0  0  0  0  0  0  0  0  0  0  0
    0.0336    0.3098    0.3087 C   0  0  1  0  0  0  0  0  0  0  0  0
    0.4680    0.1941    1.3101 H   0  0  0  0  0  0  0  0  0  0  0  0
    1.0852   -0.1897   -0.7134 C   0  0  0  0  0  0  0  0  0  0  0  0
    0.6298   -0.2047   -1.7059 H   0  0  0  0  0  0  0  0  0  0  0  0
    1.9142    0.5236   -0.7409 H   0  0  0  0  0  0  0  0  0  0  0  0
    1.7005   -1.5577   -0.4473 C   0  0  0  0  0  0  0  0  0  0  0  0
    2.0388   -1.9012    0.6685 O   0  0  0  0  0  0  0  0  0  0  0  0
    1.8544   -2.4932   -1.4303 N   0  0  0  0  0  0  0  0  0  0  0  0
    2.0197   -3.4321   -1.0773 H   0  0  0  0  0  0  0  0  0  0  0  0
    1.3226   -2.3742   -2.2838 H   0  0  0  0  0  0  0  0  0  0  0  0
   -0.1980    1.8173    0.0997 C   0  0  0  0  0  0  0  0  0  0  0  0
    0.0957    2.6172    0.9741 O   0  0  0  0  0  0  0  0  0  0  0  0
   -0.8114    2.2704   -1.0552 N   0  0  0  0  0  0  0  0  0  0  0  0
   -1.0075    1.5875   -1.7805 H   0  0  0  0  0  0  0  0  0  0  0  0
   -1.0656    3.6812   -1.3238 C   0  0  0  0  0  0  0  0  0  0  0  0
   -0.1238    4.2382   -1.3701 H   0  0  0  0  0  0  0  0  0  0  0  0
   -1.5844    3.7977   -2.2801 H   0  0  0  0  0  0  0  0  0  0  0  0
   -1.6923    4.1147   -0.5371 H   0  0  0  0  0  0  0  0  0  0  0  0
  1  2  1  0  0  0  0
  2  3  1  0  0  0  0
  2  4  1  0  0  0  0
  2  5  1  0  0  0  0
  5  6  2  0  0  0  0
  5  7  1  0  0  0  0
  7  8  1  0  0  0  0
  7  9  1  0  0  0  0
  9 10  1  0  0  0  0
  9 11  1  0  0  0  0
  9 19  1  0  0  0  0
 11 12  1  0  0  0  0
 11 13  1  0  0  0  0
 11 14  1  0  0  0  0
 14 15  2  0  0  0  0
 14 16  1  0  0  0  0
 16 17  1  0  0  0  0
 16 18  1  0  0  0  0
 19 20  2  0  0  0  0
 19 21  1  0  0  0  0
 21 22  1  0  0  0  0
 21 23  1  0  0  0  0
 23 24  1  0  0  0  0
 23 25  1  0  0  0  0
 23 26  1  0  0  0  0
M  END
$$$$

  -OEChem-01062216063D

 26 25  0     1  0  0  0  0  0999 V2000
   -3.1343   -3.1125    1.2327 H   0  0  0  0  0  0  0  0  0  0  0  0
   -3.0493   -2.0863    0.8636 C   0  0  0  0  0  0  0  0  0  0  0  0
   -3.5654   -1.4211    1.5602 H   0  0  0  0  0  0  0  0  0  0  0  0
   -3.5299   -2.0243   -0.1156 H   0  0  0  0  0  0  0  0  0  0  0  0
   -1.5884   -1.6893    0.7525 C   0  0  0  0  0  0  0  0  0  0  0  0
   -0.7411   -2.5170    1.0090 O   0  0  0  0  0  0  0  0  0  0  0  0
   -1.2863   -0.4072    0.3327 N   0  0  0  0  0  0  0  0  0  0  0  0
   -2.1066    0.1882    0.2529 H   0  0  0  0  0  0  0  0  0  0  0  0
    0.0118    0.3125    0.3464 C   0  0  1  0  0  0  0  0  0  0  0  0
    0.4570    0.1962    1.3430 H   0  0  0  0  0  0  0  0  0  0  0  0
    1.0510   -0.1677   -0.6967 C   0  0  0  0  0  0  0  0  0  0  0  0
    0.5817   -0.1674   -1.6829 H   0  0  0  0  0  0  0  0  0  0  0  0
    1.8764    0.5502   -0.7252 H   0  0  0  0  0  0  0  0  0  0  0  0
    1.6788   -1.5355   -0.4620 C   0  0  0  0  0  0  0  0  0  0  0  0
    2.0377   -1.8988    0.6407 O   0  0  0  0  0  0  0  0  0  0  0  0
    1.8310   -2.4483   -1.4664 N   0  0  0  0  0  0  0  0  0  0  0  0
    2.0204   -3.3921   -1.1398 H   0  0  0  0  0  0  0  0  0  0  0  0
    1.2964   -2.3150   -2.3160 H   0  0  0  0  0  0  0  0  0  0  0  0
   -0.2228    1.8192    0.1325 C   0  0  0  0  0  0  0  0  0  0  0  0
    0.3514    2.6422    0.8279 O   0  0  0  0  0  0  0  0  0  0  0  0
   -1.0945    2.2511   -0.8528 N   0  0  0  0  0  0  0  0  0  0  0  0
   -1.4480    1.5512   -1.4978 H   0  0  0  0  0  0  0  0  0  0  0  0
   -1.3095    3.6607   -1.1591 C   0  0  0  0  0  0  0  0  0  0  0  0
   -0.3821    4.1213   -1.5156 H   0  0  0  0  0  0  0  0  0  0  0  0
   -2.0715    3.7678   -1.9369 H   0  0  0  0  0  0  0  0  0  0  0  0
   -1.6502    4.1996   -0.2685 H   0  0  0  0  0  0  0  0  0  0  0  0
  1  2  1  0  0  0  0
  2  3  1  0  0  0  0
  2  4  1  0  0  0  0
  2  5  1  0  0  0  0
  5  6  2  0  0  0  0
  5  7  1  0  0  0  0
  7  8  1  0  0  0  0
  7  9  1  0  0  0  0
  9 10  1  0  0  0  0
  9 11  1  0  0  0  0
  9 19  1  0  0  0  0
 11 12  1  0  0  0  0
 11 13  1  0  0  0  0
 11 14  1  0  0  0  0
 14 15  2  0  0  0  0
 14 16  1  0  0  0  0
 16 17  1  0  0  0  0
 16 18  1  0  0  0  0
 19 20  2  0  0  0  0
 19 21  1  0  0  0  0
 21 22  1  0  0  0  0
 21 23  1  0  0  0  0
 23 24  1  0  0  0  0
 23 25  1  0  0  0  0
 23 26  1  0  0  0  0
M  END
$$$$

  -OEChem-01062216063D

 26 25  0     1  0  0  0  0  0999 V2000
   -3.1098   -3.1522    1.2416 H   0  0  0  0  0  0  0  0  0  0  0  0
   -3.0382   -2.1263    0.8685 C   0  0  0  0  0  0  0  0  0  0  0  0
   -3.5707   -1.4663    1.5576 H   0  0  0  0  0  0  0  0  0  0  0  0
   -3.5115   -2.0765   -0.1149 H   0  0  0  0  0  0  0  0  0  0  0  0
   -1.5829   -1.7074    0.7663 C   0  0  0  0  0  0  0  0  0  0  0  0
   -0.7263   -2.5197    1.0388 O   0  0  0  0  0  0  0  0  0  0  0  0
   -1.2973   -0.4216    0.3449 N   0  0  0  0  0  0  0  0  0  0  0  0
   -2.1250    0.1644    0.2822 H   0  0  0  0  0  0  0  0  0  0  0  0
   -0.0057    0.3129    0.3584 C   0  0  1  0  0  0  0  0  0  0  0  0
    0.4442    0.1967    1.3527 H   0  0  0  0  0  0  0  0  0  0  0  0
    1.0289   -0.1616   -0.6927 C   0  0  0  0  0  0  0  0  0  0  0  0
    0.5512   -0.1624   -1.6750 H   0  0  0  0  0  0  0  0  0  0  0  0
    1.8509    0.5597   -0.7285 H   0  0  0  0  0  0  0  0  0  0  0  0
    1.6676   -1.5254   -0.4657 C   0  0  0  0  0  0  0  0  0  0  0  0
    2.0383   -1.8893    0.6331 O   0  0  0  0  0  0  0  0  0  0  0  0
    1.8164   -2.4351   -1.4734 N   0  0  0  0  0  0  0  0  0  0  0  0
    2.0149   -3.3788   -1.1520 H   0  0  0  0  0  0  0  0  0  0  0  0
    1.2775   -2.3006   -2.3203 H   0  0  0  0  0  0  0  0  0  0  0  0
   -0.2341    1.8229    0.1446 C   0  0  0  0  0  0  0  0  0  0  0  0
    0.5303    2.6366    0.6396 O   0  0  0  0  0  0  0  0  0  0  0  0
   -1.3063    2.2740   -0.6082 N   0  0  0  0  0  0  0  0  0  0  0  0
   -1.7942    1.5835   -1.1692 H   0  0  0  0  0  0  0  0  0  0  0  0
   -1.5160    3.6859   -0.9101 C   0  0  0  0  0  0  0  0  0  0  0  0
   -0.6838    4.0788   -1.5038 H   0  0  0  0  0  0  0  0  0  0  0  0
   -2.4418    3.8187   -1.4781 H   0  0  0  0  0  0  0  0  0  0  0  0
   -1.5942    4.2684    0.0141 H   0  0  0  0  0  0  0  0  0  0  0  0
  1  2  1  0  0  0  0
  2  3  1  0  0  0  0
  2  4  1  0  0  0  0
  2  5  1  0  0  0  0
  5  6  2  0  0  0  0
  5  7  1  0  0  0  0
  7  8  1  0  0  0  0
  7  9  1  0  0  0  0
  9 10  1  0  0  0  0
  9 11  1  0  0  0  0
  9 19  1  0  0  0  0
 11 12  1  0  0  0  0
 11 13  1  0  0  0  0
 11 14  1  0  0  0  0
 14 15  2  0  0  0  0
 14 16  1  0  0  0  0
 16 17  1  0  0  0  0
 16 18  1  0  0  0  0
 19 20  2  0  0  0  0
 19 21  1  0  0  0  0
 21 22  1  0  0  0  0
 21 23  1  0  0  0  0
 23 24  1  0  0  0  0
 23 25  1  0  0  0  0
 23 26  1  0  0  0  0
M  END
$$$$

  -OEChem-01062216063D

 26 25  0     1  0  0  0  0  0999 V2000
   -2.7062   -3.3512    1.1793 H   0  0  0  0  0  0  0  0  0  0  0  0
   -2.7266   -2.3855    0.6656 C   0  0  0  0  0  0  0  0  0  0  0  0
   -3.6615   -1.8762    0.9113 H   0  0  0  0  0  0  0  0  0  0  0  0
   -2.6844   -2.5619   -0.4117 H   0  0  0  0  0  0  0  0  0  0  0  0
   -1.5441   -1.5401    1.1012 C   0  0  0  0  0  0  0  0  0  0  0  0
   -0.8427   -1.9161    2.0197 O   0  0  0  0  0  0  0  0  0  0  0  0
   -1.3573   -0.2872    0.5487 N   0  0  0  0  0  0  0  0  0  0  0  0
   -2.0025   -0.0883   -0.2084 H   0  0  0  0  0  0  0  0  0  0  0  0
   -0.0422    0.3906    0.4627 C   0  0  1  0  0  0  0  0  0  0  0  0
    0.4932    0.2950    1.4161 H   0  0  0  0  0  0  0  0  0  0  0  0
    0.8133   -0.2093   -0.6852 C   0  0  0  0  0  0  0  0  0  0  0  0
    0.2295   -0.1881   -1.6084 H   0  0  0  0  0  0  0  0  0  0  0  0
    1.6941    0.4205   -0.8424 H   0  0  0  0  0  0  0  0  0  0  0  0
    1.3381   -1.6215   -0.4689 C   0  0  0  0  0  0  0  0  0  0  0  0
    1.7954   -2.0044    0.5869 O   0  0  0  0  0  0  0  0  0  0  0  0
    1.3286   -2.5471   -1.4736 N   0  0  0  0  0  0  0  0  0  0  0  0
    1.8608   -3.3914   -1.2801 H   0  0  0  0  0  0  0  0  0  0  0  0
    1.2264   -2.2237   -2.4290 H   0  0  0  0  0  0  0  0  0  0  0  0
   -0.1949    1.8996    0.1577 C   0  0  0  0  0  0  0  0  0  0  0  0
    0.7883    2.6267    0.1686 O   0  0  0  0  0  0  0  0  0  0  0  0
   -1.3948    2.4200   -0.3000 N   0  0  0  0  0  0  0  0  0  0  0  0
   -2.2240    1.8709   -0.1034 H   0  0  0  0  0  0  0  0  0  0  0  0
   -1.5678    3.8357   -0.6077 C   0  0  0  0  0  0  0  0  0  0  0  0
   -0.8573    4.1505   -1.3794 H   0  0  0  0  0  0  0  0  0  0  0  0
   -2.5802    4.0220   -0.9784 H   0  0  0  0  0  0  0  0  0  0  0  0
   -1.4072    4.4452    0.2878 H   0  0  0  0  0  0  0  0  0  0  0  0
  1  2  1  0  0  0  0
  2  3  1  0  0  0  0
  2  4  1  0  0  0  0
  2  5  1  0  0  0  0
  5  6  2  0  0  0  0
  5  7  1  0  0  0  0
  7  8  1  0  0  0  0
  7  9  1  0  0  0  0
  9 10  1  0  0  0  0
  9 11  1  0  0  0  0
  9 19  1  0  0  0  0
 11 12  1  0  0  0  0
 11 13  1  0  0  0  0
 11 14  1  0  0  0  0
 14 15  2  0  0  0  0
 14 16  1  0  0  0  0
 16 17  1  0  0  0  0
 16 18  1  0  0  0  0
 19 20  2  0  0  0  0
 19 21  1  0  0  0  0
 21 22  1  0  0  0  0
 21 23  1  0  0  0  0
 23 24  1  0  0  0  0
 23 25  1  0  0  0  0
 23 26  1  0  0  0  0
M  END
$$$$

  -OEChem-01062216063D

 26 25  0     1  0  0  0  0  0999 V2000
   -2.7152   -3.3333    1.1749 H   0  0  0  0  0  0  0  0  0  0  0  0
   -2.7096   -2.3810    0.6364 C   0  0  0  0  0  0  0  0  0  0  0  0
   -3.6491   -1.8595    0.8341 H   0  0  0  0  0  0  0  0  0  0  0  0
   -2.6291   -2.5853   -0.4339 H   0  0  0  0  0  0  0  0  0  0  0  0
   -1.5369   -1.5330    1.0924 C   0  0  0  0  0  0  0  0  0  0  0  0
   -0.8466   -1.9074    2.0201 O   0  0  0  0  0  0  0  0  0  0  0  0
   -1.3447   -0.2783    0.5467 N   0  0  0  0  0  0  0  0  0  0  0  0
   -1.9906   -0.0661   -0.2078 H   0  0  0  0  0  0  0  0  0  0  0  0
   -0.0272    0.3947    0.4584 C   0  0  1  0  0  0  0  0  0  0  0  0
    0.5112    0.2973    1.4097 H   0  0  0  0  0  0  0  0  0  0  0  0
    0.8202   -0.2180   -0.6901 C   0  0  0  0  0  0  0  0  0  0  0  0
    0.2334   -0.1960   -1.6114 H   0  0  0  0  0  0  0  0  0  0  0  0
    1.7076    0.4002   -0.8540 H   0  0  0  0  0  0  0  0  0  0  0  0
    1.3355   -1.6325   -0.4675 C   0  0  0  0  0  0  0  0  0  0  0  0
    1.7938   -2.0117    0.5894 O   0  0  0  0  0  0  0  0  0  0  0  0
    1.3159   -2.5639   -1.4667 N   0  0  0  0  0  0  0  0  0  0  0  0
    1.8448   -3.4099   -1.2721 H   0  0  0  0  0  0  0  0  0  0  0  0
    1.2079   -2.2456   -2.4232 H   0  0  0  0  0  0  0  0  0  0  0  0
   -0.1962    1.9058    0.1616 C   0  0  0  0  0  0  0  0  0  0  0  0
    0.7762    2.6099   -0.0739 O   0  0  0  0  0  0  0  0  0  0  0  0
   -1.4585    2.4578    0.0179 N   0  0  0  0  0  0  0  0  0  0  0  0
   -2.2228    1.9231    0.4189 H   0  0  0  0  0  0  0  0  0  0  0  0
   -1.6732    3.8768   -0.2443 C   0  0  0  0  0  0  0  0  0  0  0  0
   -1.1804    4.1734   -1.1764 H   0  0  0  0  0  0  0  0  0  0  0  0
   -2.7429    4.0863   -0.3402 H   0  0  0  0  0  0  0  0  0  0  0  0
   -1.2716    4.4834    0.5743 H   0  0  0  0  0  0  0  0  0  0  0  0
  1  2  1  0  0  0  0
  2  3  1  0  0  0  0
  2  4  1  0  0  0  0
  2  5  1  0  0  0  0
  5  6  2  0  0  0  0
  5  7  1  0  0  0  0
  7  8  1  0  0  0  0
  7  9  1  0  0  0  0
  9 10  1  0  0  0  0
  9 11  1  0  0  0  0
  9 19  1  0  0  0  0
 11 12  1  0  0  0  0
 11 13  1  0  0  0  0
 11 14  1  0  0  0  0
 14 15  2  0  0  0  0
 14 16  1  0  0  0  0
 16 17  1  0  0  0  0
 16 18  1  0  0  0  0
 19 20  2  0  0  0  0
 19 21  1  0  0  0  0
 21 22  1  0  0  0  0
 21 23  1  0  0  0  0
 23 24  1  0  0  0  0
 23 25  1  0  0  0  0
 23 26  1  0  0  0  0
M  END
$$$$

  -OEChem-01062216063D

 26 25  0     1  0  0  0  0  0999 V2000
   -2.7556   -3.3033    1.1753 H   0  0  0  0  0  0  0  0  0  0  0  0
   -2.7335   -2.3544    0.6317 C   0  0  0  0  0  0  0  0  0  0  0  0
   -3.6576   -1.8095    0.8381 H   0  0  0  0  0  0  0  0  0  0  0  0
   -2.6707   -2.5662   -0.4382 H   0  0  0  0  0  0  0  0  0  0  0  0
   -1.5353   -1.5331    1.0693 C   0  0  0  0  0  0  0  0  0  0  0  0
   -0.8389   -1.9249    1.9851 O   0  0  0  0  0  0  0  0  0  0  0  0
   -1.3306   -0.2767    0.5326 N   0  0  0  0  0  0  0  0  0  0  0  0
   -1.9911   -0.0335   -0.2004 H   0  0  0  0  0  0  0  0  0  0  0  0
   -0.0118    0.3932    0.4442 C   0  0  1  0  0  0  0  0  0  0  0  0
    0.5238    0.2971    1.3968 H   0  0  0  0  0  0  0  0  0  0  0  0
    0.8406   -0.2254   -0.6994 C   0  0  0  0  0  0  0  0  0  0  0  0
    0.2587   -0.2048   -1.6240 H   0  0  0  0  0  0  0  0  0  0  0  0
    1.7313    0.3887   -0.8607 H   0  0  0  0  0  0  0  0  0  0  0  0
    1.3543   -1.6390   -0.4691 C   0  0  0  0  0  0  0  0  0  0  0  0
    1.8081   -2.0127    0.5920 O   0  0  0  0  0  0  0  0  0  0  0  0
    1.3369   -2.5747   -1.4644 N   0  0  0  0  0  0  0  0  0  0  0  0
    1.8596   -3.4231   -1.2640 H   0  0  0  0  0  0  0  0  0  0  0  0
    1.2316   -2.2607   -2.4227 H   0  0  0  0  0  0  0  0  0  0  0  0
   -0.2004    1.9052    0.1562 C   0  0  0  0  0  0  0  0  0  0  0  0
    0.7027    2.5865   -0.3106 O   0  0  0  0  0  0  0  0  0  0  0  0
   -1.4423    2.4928    0.3297 N   0  0  0  0  0  0  0  0  0  0  0  0
   -2.1146    1.9584    0.8731 H   0  0  0  0  0  0  0  0  0  0  0  0
   -1.6814    3.9186    0.1336 C   0  0  0  0  0  0  0  0  0  0  0  0
   -1.4329    4.2125   -0.8918 H   0  0  0  0  0  0  0  0  0  0  0  0
   -2.7352    4.1536    0.3115 H   0  0  0  0  0  0  0  0  0  0  0  0
   -1.0718    4.5081    0.8266 H   0  0  0  0  0  0  0  0  0  0  0  0
  1  2  1  0  0  0  0
  2  3  1  0  0  0  0
  2  4  1  0  0  0  0
  2  5  1  0  0  0  0
  5  6  2  0  0  0  0
  5  7  1  0  0  0  0
  7  8  1  0  0  0  0
  7  9  1  0  0  0  0
  9 10  1  0  0  0  0
  9 11  1  0  0  0  0
  9 19  1  0  0  0  0
 11 12  1  0  0  0  0
 11 13  1  0  0  0  0
 11 14  1  0  0  0  0
 14 15  2  0  0  0  0
 14 16  1  0  0  0  0
 16 17  1  0  0  0  0
 16 18  1  0  0  0  0
 19 20  2  0  0  0  0
 19 21  1  0  0  0  0
 21 22  1  0  0  0  0
 21 23  1  0  0  0  0
 23 24  1  0  0  0  0
 23 25  1  0  0  0  0
 23 26  1  0  0  0  0
M  END
$$$$

  -OEChem-01062216063D

 26 25  0     1  0  0  0  0  0999 V2000
   -2.7261   -3.3251    1.0467 H   0  0  0  0  0  0  0  0  0  0  0  0
   -2.7628   -2.3172    0.6232 C   0  0  0  0  0  0  0  0  0  0  0  0
   -3.6692   -1.8191    0.9753 H   0  0  0  0  0  0  0  0  0  0  0  0
   -2.7963   -2.3975   -0.4659 H   0  0  0  0  0  0  0  0  0  0  0  0
   -1.5386   -1.5294    1.0507 C   0  0  0  0  0  0  0  0  0  0  0  0
   -0.8363   -1.9486    1.9495 O   0  0  0  0  0  0  0  0  0  0  0  0
   -1.3162   -0.2713    0.5265 N   0  0  0  0  0  0  0  0  0  0  0  0
   -1.9934    0.0078   -0.1783 H   0  0  0  0  0  0  0  0  0  0  0  0
    0.0048    0.3923    0.4371 C   0  0  1  0  0  0  0  0  0  0  0  0
    0.5385    0.2947    1.3906 H   0  0  0  0  0  0  0  0  0  0  0  0
    0.8633   -0.2309   -0.6993 C   0  0  0  0  0  0  0  0  0  0  0  0
    0.2868   -0.2125   -1.6274 H   0  0  0  0  0  0  0  0  0  0  0  0
    1.7549    0.3829   -0.8558 H   0  0  0  0  0  0  0  0  0  0  0  0
    1.3758   -1.6433   -0.4616 C   0  0  0  0  0  0  0  0  0  0  0  0
    1.8242   -2.0109    0.6042 O   0  0  0  0  0  0  0  0  0  0  0  0
    1.3592   -2.5847   -1.4514 N   0  0  0  0  0  0  0  0  0  0  0  0
    1.8777   -3.4344   -1.2465 H   0  0  0  0  0  0  0  0  0  0  0  0
    1.2455   -2.2788   -2.4114 H   0  0  0  0  0  0  0  0  0  0  0  0
   -0.1988    1.9046    0.1620 C   0  0  0  0  0  0  0  0  0  0  0  0
    0.5685    2.5494   -0.5409 O   0  0  0  0  0  0  0  0  0  0  0  0
   -1.3357    2.5331    0.6389 N   0  0  0  0  0  0  0  0  0  0  0  0
   -1.8947    2.0079    1.3063 H   0  0  0  0  0  0  0  0  0  0  0  0
   -1.5943    3.9586    0.4709 C   0  0  0  0  0  0  0  0  0  0  0  0
   -1.6242    4.2204   -0.5920 H   0  0  0  0  0  0  0  0  0  0  0  0
   -2.5575    4.2237    0.9171 H   0  0  0  0  0  0  0  0  0  0  0  0
   -0.8113    4.5499    0.9573 H   0  0  0  0  0  0  0  0  0  0  0  0
  1  2  1  0  0  0  0
  2  3  1  0  0  0  0
  2  4  1  0  0  0  0
  2  5  1  0  0  0  0
  5  6  2  0  0  0  0
  5  7  1  0  0  0  0
  7  8  1  0  0  0  0
  7  9  1  0  0  0  0
  9 10  1  0  0  0  0
  9 11  1  0  0  0  0
  9 19  1  0  0  0  0
 11 12  1  0  0  0  0
 11 13  1  0  0  0  0
 11 14  1  0  0  0  0
 14 15  2  0  0  0  0
 14 16  1  0  0  0  0
 16 17  1  0  0  0  0
 16 18  1  0  0  0  0
 19 20  2  0  0  0  0
 19 21  1  0  0  0  0
 21 22  1  0  0  0  0
 21 23  1  0  0  0  0
 23 24  1  0  0  0  0
 23 25  1  0  0  0  0
 23 26  1  0  0  0  0
M  END
$$$$

  -OEChem-01062216063D

 26 25  0     1  0  0  0  0  0999 V2000
   -2.8269   -3.2595    1.1287 H   0  0  0  0  0  0  0  0  0  0  0  0
   -2.8016   -2.2834    0.6357 C   0  0  0  0  0  0  0  0  0  0  0  0
   -3.6898   -1.7183    0.9282 H   0  0  0  0  0  0  0  0  0  0  0  0
   -2.8133   -2.4371   -0.4458 H   0  0  0  0  0  0  0  0  0  0  0  0
   -1.5483   -1.5295    1.0393 C   0  0  0  0  0  0  0  0  0  0  0  0
   -0.8350   -1.9735    1.9173 O   0  0  0  0  0  0  0  0  0  0  0  0
   -1.3108   -0.2703    0.5255 N   0  0  0  0  0  0  0  0  0  0  0  0
   -1.9991    0.0379   -0.1565 H   0  0  0  0  0  0  0  0  0  0  0  0
    0.0136    0.3835    0.4363 C   0  0  1  0  0  0  0  0  0  0  0  0
    0.5472    0.2784    1.3891 H   0  0  0  0  0  0  0  0  0  0  0  0
    0.8776   -0.2328   -0.6991 C   0  0  0  0  0  0  0  0  0  0  0  0
    0.3040   -0.2102   -1.6292 H   0  0  0  0  0  0  0  0  0  0  0  0
    1.7670    0.3866   -0.8480 H   0  0  0  0  0  0  0  0  0  0  0  0
    1.3898   -1.6465   -0.4705 C   0  0  0  0  0  0  0  0  0  0  0  0
    1.8334   -2.0202    0.5954 O   0  0  0  0  0  0  0  0  0  0  0  0
    1.3997   -2.5736   -1.4736 N   0  0  0  0  0  0  0  0  0  0  0  0
    1.9258   -3.4199   -1.2741 H   0  0  0  0  0  0  0  0  0  0  0  0
    1.2944   -2.2554   -2.4305 H   0  0  0  0  0  0  0  0  0  0  0  0
   -0.1954    1.8957    0.1739 C   0  0  0  0  0  0  0  0  0  0  0  0
    0.3843    2.4949   -0.7233 O   0  0  0  0  0  0  0  0  0  0  0  0
   -1.1480    2.5747    0.9118 N   0  0  0  0  0  0  0  0  0  0  0  0
   -1.5804    2.0657    1.6788 H   0  0  0  0  0  0  0  0  0  0  0  0
   -1.4154    4.0009    0.7675 C   0  0  0  0  0  0  0  0  0  0  0  0
   -1.7376    4.2300   -0.2537 H   0  0  0  0  0  0  0  0  0  0  0  0
   -2.2083    4.3084    1.4560 H   0  0  0  0  0  0  0  0  0  0  0  0
   -0.5158    4.5836    0.9923 H   0  0  0  0  0  0  0  0  0  0  0  0
  1  2  1  0  0  0  0
  2  3  1  0  0  0  0
  2  4  1  0  0  0  0
  2  5  1  0  0  0  0
  5  6  2  0  0  0  0
  5  7  1  0  0  0  0
  7  8  1  0  0  0  0
  7  9  1  0  0  0  0
  9 10  1  0  0  0  0
  9 11  1  0  0  0  0
  9 19  1  0  0  0  0
 11 12  1  0  0  0  0
 11 13  1  0  0  0  0
 11 14  1  0  0  0  0
 14 15  2  0  0  0  0
 14 16  1  0  0  0  0
 16 17  1  0  0  0  0
 16 18  1  0  0  0  0
 19 20  2  0  0  0  0
 19 21  1  0  0  0  0
 21 22  1  0  0  0  0
 21 23  1  0  0  0  0
 23 24  1  0  0  0  0
 23 25  1  0  0  0  0
 23 26  1  0  0  0  0
M  END
$$$$

  -OEChem-01062216063D

 26 25  0     1  0  0  0  0  0999 V2000
   -2.8254   -3.2629    1.0190 H   0  0  0  0  0  0  0  0  0  0  0  0
   -2.8158   -2.2471    0.6136 C   0  0  0  0  0  0  0  0  0  0  0  0
   -3.6665   -1.6966    1.0221 H   0  0  0  0  0  0  0  0  0  0  0  0
   -2.9131   -2.3032   -0.4731 H   0  0  0  0  0  0  0  0  0  0  0  0
   -1.5203   -1.5503    0.9857 C   0  0  0  0  0  0  0  0  0  0  0  0
   -0.7787   -2.0606    1.8013 O   0  0  0  0  0  0  0  0  0  0  0  0
   -1.2657   -0.2837    0.4999 N   0  0  0  0  0  0  0  0  0  0  0  0
   -1.9751    0.0749   -0.1346 H   0  0  0  0  0  0  0  0  0  0  0  0
    0.0511    0.3855    0.4332 C   0  0  1  0  0  0  0  0  0  0  0  0
    0.5707    0.2740    1.3924 H   0  0  0  0  0  0  0  0  0  0  0  0
    0.9514   -0.1992   -0.6889 C   0  0  0  0  0  0  0  0  0  0  0  0
    0.3974   -0.1794   -1.6308 H   0  0  0  0  0  0  0  0  0  0  0  0
    1.8263    0.4459   -0.8123 H   0  0  0  0  0  0  0  0  0  0  0  0
    1.4896   -1.6045   -0.4665 C   0  0  0  0  0  0  0  0  0  0  0  0
    1.9187   -1.9766    0.6065 O   0  0  0  0  0  0  0  0  0  0  0  0
    1.5034   -2.5363   -1.4654 N   0  0  0  0  0  0  0  0  0  0  0  0
    1.7208   -3.4881   -1.1840 H   0  0  0  0  0  0  0  0  0  0  0  0
    1.0098   -2.3514   -2.3311 H   0  0  0  0  0  0  0  0  0  0  0  0
   -0.1757    1.8959    0.1922 C   0  0  0  0  0  0  0  0  0  0  0  0
    0.1658    2.4496   -0.8455 O   0  0  0  0  0  0  0  0  0  0  0  0
   -0.9006    2.6182    1.1219 N   0  0  0  0  0  0  0  0  0  0  0  0
   -1.1766    2.1338    1.9724 H   0  0  0  0  0  0  0  0  0  0  0  0
   -1.1959    4.0396    0.9868 C   0  0  0  0  0  0  0  0  0  0  0  0
   -1.7814    4.2253    0.0804 H   0  0  0  0  0  0  0  0  0  0  0  0
   -1.7726    4.3900    1.8481 H   0  0  0  0  0  0  0  0  0  0  0  0
   -0.2686    4.6196    0.9324 H   0  0  0  0  0  0  0  0  0  0  0  0
  1  2  1  0  0  0  0
  2  3  1  0  0  0  0
  2  4  1  0  0  0  0
  2  5  1  0  0  0  0
  5  6  2  0  0  0  0
  5  7  1  0  0  0  0
  7  8  1  0  0  0  0
  7  9  1  0  0  0  0
  9 10  1  0  0  0  0
  9 11  1  0  0  0  0
  9 19  1  0  0  0  0
 11 12  1  0  0  0  0
 11 13  1  0  0  0  0
 11 14  1  0  0  0  0
 14 15  2  0  0  0  0
 14 16  1  0  0  0  0
 16 17  1  0  0  0  0
 16 18  1  0  0  0  0
 19 20  2  0  0  0  0
 19 21  1  0  0  0  0
 21 22  1  0  0  0  0
 21 23  1  0  0  0  0
 23 24  1  0  0  0  0
 23 25  1  0  0  0  0
 23 26  1  0  0  0  0
M  END
$$$$

  -OEChem-01062216063D

 26 25  0     1  0  0  0  0  0999 V2000
   -2.8388   -3.2548    1.0155 H   0  0  0  0  0  0  0  0  0  0  0  0
   -2.8201   -2.2393    0.6097 C   0  0  0  0  0  0  0  0  0  0  0  0
   -3.6697   -1.6829    1.0128 H   0  0  0  0  0  0  0  0  0  0  0  0
   -2.9109   -2.2951   -0.4776 H   0  0  0  0  0  0  0  0  0  0  0  0
   -1.5224   -1.5506    0.9885 C   0  0  0  0  0  0  0  0  0  0  0  0
   -0.7823   -2.0702    1.8000 O   0  0  0  0  0  0  0  0  0  0  0  0
   -1.2600   -0.2838    0.5081 N   0  0  0  0  0  0  0  0  0  0  0  0
   -1.9664    0.0852   -0.1242 H   0  0  0  0  0  0  0  0  0  0  0  0
    0.0583    0.3792    0.4487 C   0  0  1  0  0  0  0  0  0  0  0  0
    0.5769    0.2562    1.4072 H   0  0  0  0  0  0  0  0  0  0  0  0
    0.9573   -0.1955   -0.6787 C   0  0  0  0  0  0  0  0  0  0  0  0
    0.4009   -0.1693   -1.6192 H   0  0  0  0  0  0  0  0  0  0  0  0
    1.8297    0.4533   -0.7996 H   0  0  0  0  0  0  0  0  0  0  0  0
    1.4901   -1.6050   -0.4705 C   0  0  0  0  0  0  0  0  0  0  0  0
    1.9163   -1.9882    0.5996 O   0  0  0  0  0  0  0  0  0  0  0  0
    1.4996   -2.5276   -1.4777 N   0  0  0  0  0  0  0  0  0  0  0  0
    1.7055   -3.4836   -1.2019 H   0  0  0  0  0  0  0  0  0  0  0  0
    0.9982   -2.3342   -2.3371 H   0  0  0  0  0  0  0  0  0  0  0  0
   -0.1586    1.8897    0.2123 C   0  0  0  0  0  0  0  0  0  0  0  0
   -0.0694    2.3833   -0.9054 O   0  0  0  0  0  0  0  0  0  0  0  0
   -0.5975    2.6791    1.2585 N   0  0  0  0  0  0  0  0  0  0  0  0
   -0.7097    2.2324    2.1652 H   0  0  0  0  0  0  0  0  0  0  0  0
   -0.8915    4.1012    1.1276 C   0  0  0  0  0  0  0  0  0  0  0  0
   -1.7032    4.2610    0.4102 H   0  0  0  0  0  0  0  0  0  0  0  0
   -1.1974    4.5144    2.0934 H   0  0  0  0  0  0  0  0  0  0  0  0
   -0.0054    4.6454    0.7840 H   0  0  0  0  0  0  0  0  0  0  0  0
  1  2  1  0  0  0  0
  2  3  1  0  0  0  0
  2  4  1  0  0  0  0
  2  5  1  0  0  0  0
  5  6  2  0  0  0  0
  5  7  1  0  0  0  0
  7  8  1  0  0  0  0
  7  9  1  0  0  0  0
  9 10  1  0  0  0  0
  9 11  1  0  0  0  0
  9 19  1  0  0  0  0
 11 12  1  0  0  0  0
 11 13  1  0  0  0  0
 11 14  1  0  0  0  0
 14 15  2  0  0  0  0
 14 16  1  0  0  0  0
 16 17  1  0  0  0  0
 16 18  1  0  0  0  0
 19 20  2  0  0  0  0
 19 21  1  0  0  0  0
 21 22  1  0  0  0  0
 21 23  1  0  0  0  0
 23 24  1  0  0  0  0
 23 25  1  0  0  0  0
 23 26  1  0  0  0  0
M  END
$$$$

  -OEChem-01062216063D

 26 25  0     1  0  0  0  0  0999 V2000
   -2.8642   -3.2451    1.0099 H   0  0  0  0  0  0  0  0  0  0  0  0
   -2.8395   -2.2241    0.6183 C   0  0  0  0  0  0  0  0  0  0  0  0
   -3.6734   -1.6624    1.0462 H   0  0  0  0  0  0  0  0  0  0  0  0
   -2.9524   -2.2625   -0.4676 H   0  0  0  0  0  0  0  0  0  0  0  0
   -1.5255   -1.5582    0.9819 C   0  0  0  0  0  0  0  0  0  0  0  0
   -0.7792   -2.0990    1.7738 O   0  0  0  0  0  0  0  0  0  0  0  0
   -1.2512   -0.2919    0.5075 N   0  0  0  0  0  0  0  0  0  0  0  0
   -1.9582    0.0953   -0.1138 H   0  0  0  0  0  0  0  0  0  0  0  0
    0.0673    0.3695    0.4606 C   0  0  1  0  0  0  0  0  0  0  0  0
    0.5804    0.2363    1.4204 H   0  0  0  0  0  0  0  0  0  0  0  0
    0.9709   -0.1906   -0.6689 C   0  0  0  0  0  0  0  0  0  0  0  0
    0.4165   -0.1564   -1.6106 H   0  0  0  0  0  0  0  0  0  0  0  0
    1.8414    0.4618   -0.7813 H   0  0  0  0  0  0  0  0  0  0  0  0
    1.5030   -1.6026   -0.4754 C   0  0  0  0  0  0  0  0  0  0  0  0
    1.9243   -1.9978    0.5924 O   0  0  0  0  0  0  0  0  0  0  0  0
    1.5098   -2.5158   -1.4911 N   0  0  0  0  0  0  0  0  0  0  0  0
    1.7009   -3.4758   -1.2179 H   0  0  0  0  0  0  0  0  0  0  0  0
    0.9919   -2.3164   -2.3395 H   0  0  0  0  0  0  0  0  0  0  0  0
   -0.1411    1.8793    0.2249 C   0  0  0  0  0  0  0  0  0  0  0  0
   -0.3085    2.3200   -0.9059 O   0  0  0  0  0  0  0  0  0  0  0  0
   -0.2798    2.7288    1.3062 N   0  0  0  0  0  0  0  0  0  0  0  0
   -0.2078    2.3212    2.2350 H   0  0  0  0  0  0  0  0  0  0  0  0
   -0.5613    4.1537    1.1796 C   0  0  0  0  0  0  0  0  0  0  0  0
   -1.5253    4.3116    0.6848 H   0  0  0  0  0  0  0  0  0  0  0  0
   -0.5993    4.6205    2.1686 H   0  0  0  0  0  0  0  0  0  0  0  0
    0.2209    4.6484    0.5942 H   0  0  0  0  0  0  0  0  0  0  0  0
  1  2  1  0  0  0  0
  2  3  1  0  0  0  0
  2  4  1  0  0  0  0
  2  5  1  0  0  0  0
  5  6  2  0  0  0  0
  5  7  1  0  0  0  0
  7  8  1  0  0  0  0
  7  9  1  0  0  0  0
  9 10  1  0  0  0  0
  9 11  1  0  0  0  0
  9 19  1  0  0  0  0
 11 12  1  0  0  0  0
 11 13  1  0  0  0  0
 11 14  1  0  0  0  0
 14 15  2  0  0  0  0
 14 16  1  0  0  0  0
 16 17  1  0  0  0  0
 16 18  1  0  0  0  0
 19 20  2  0  0  0  0
 19 21  1  0  0  0  0
 21 22  1  0  0  0  0
 21 23  1  0  0  0  0
 23 24  1  0  0  0  0
 23 25  1  0  0  0  0
 23 26  1  0  0  0  0
M  END
$$$$

  -OEChem-01062216063D

 26 25  0     1  0  0  0  0  0999 V2000
   -2.8944   -3.2325    1.0145 H   0  0  0  0  0  0  0  0  0  0  0  0
   -2.8600   -2.2087    0.6307 C   0  0  0  0  0  0  0  0  0  0  0  0
   -3.6786   -1.6375    1.0754 H   0  0  0  0  0  0  0  0  0  0  0  0
   -2.9901   -2.2364   -0.4538 H   0  0  0  0  0  0  0  0  0  0  0  0
   -1.5309   -1.5646    0.9791 C   0  0  0  0  0  0  0  0  0  0  0  0
   -0.7789   -2.1240    1.7527 O   0  0  0  0  0  0  0  0  0  0  0  0
   -1.2454   -0.3002    0.5069 N   0  0  0  0  0  0  0  0  0  0  0  0
   -1.9558    0.1070   -0.0985 H   0  0  0  0  0  0  0  0  0  0  0  0
    0.0733    0.3597    0.4686 C   0  0  1  0  0  0  0  0  0  0  0  0
    0.5801    0.2201    1.4306 H   0  0  0  0  0  0  0  0  0  0  0  0
    0.9804   -0.1880   -0.6623 C   0  0  0  0  0  0  0  0  0  0  0  0
    0.4283   -0.1454   -1.6050 H   0  0  0  0  0  0  0  0  0  0  0  0
    1.8509    0.4657   -0.7669 H   0  0  0  0  0  0  0  0  0  0  0  0
    1.5115   -1.6016   -0.4793 C   0  0  0  0  0  0  0  0  0  0  0  0
    1.9283   -2.0052    0.5872 O   0  0  0  0  0  0  0  0  0  0  0  0
    1.5254   -2.5051   -1.5035 N   0  0  0  0  0  0  0  0  0  0  0  0
    1.7099   -3.4676   -1.2346 H   0  0  0  0  0  0  0  0  0  0  0  0
    1.0028   -2.3007   -2.3479 H   0  0  0  0  0  0  0  0  0  0  0  0
   -0.1285    1.8683    0.2296 C   0  0  0  0  0  0  0  0  0  0  0  0
   -0.5419    2.2679   -0.8525 O   0  0  0  0  0  0  0  0  0  0  0  0
    0.0346    2.7652    1.2684 N   0  0  0  0  0  0  0  0  0  0  0  0
    0.3075    2.3916    2.1738 H   0  0  0  0  0  0  0  0  0  0  0  0
   -0.2233    4.1948    1.1440 C   0  0  0  0  0  0  0  0  0  0  0  0
   -1.2731    4.3747    0.8898 H   0  0  0  0  0  0  0  0  0  0  0  0
   -0.0046    4.7017    2.0887 H   0  0  0  0  0  0  0  0  0  0  0  0
    0.4085    4.6321    0.3638 H   0  0  0  0  0  0  0  0  0  0  0  0
  1  2  1  0  0  0  0
  2  3  1  0  0  0  0
  2  4  1  0  0  0  0
  2  5  1  0  0  0  0
  5  6  2  0  0  0  0
  5  7  1  0  0  0  0
  7  8  1  0  0  0  0
  7  9  1  0  0  0  0
  9 10  1  0  0  0  0
  9 11  1  0  0  0  0
  9 19  1  0  0  0  0
 11 12  1  0  0  0  0
 11 13  1  0  0  0  0
 11 14  1  0  0  0  0
 14 15  2  0  0  0  0
 14 16  1  0  0  0  0
 16 17  1  0  0  0  0
 16 18  1  0  0  0  0
 19 20  2  0  0  0  0
 19 21  1  0  0  0  0
 21 22  1  0  0  0  0
 21 23  1  0  0  0  0
 23 24  1  0  0  0  0
 23 25  1  0  0  0  0
 23 26  1  0  0  0  0
M  END
$$$$

  -OEChem-01062216063D

 26 25  0     1  0  0  0  0  0999 V2000
   -2.9319   -3.2176    1.0284 H   0  0  0  0  0  0  0  0  0  0  0  0
   -2.8850   -2.1935    0.6471 C   0  0  0  0  0  0  0  0  0  0  0  0
   -3.6821   -1.6077    1.1111 H   0  0  0  0  0  0  0  0  0  0  0  0
   -3.0387   -2.2145   -0.4343 H   0  0  0  0  0  0  0  0  0  0  0  0
   -1.5361   -1.5780    0.9694 C   0  0  0  0  0  0  0  0  0  0  0  0
   -0.7726   -2.1654    1.7103 O   0  0  0  0  0  0  0  0  0  0  0  0
   -1.2404   -0.3145    0.5017 N   0  0  0  0  0  0  0  0  0  0  0  0
   -1.9619    0.1210   -0.0708 H   0  0  0  0  0  0  0  0  0  0  0  0
    0.0755    0.3511    0.4710 C   0  0  1  0  0  0  0  0  0  0  0  0
    0.5757    0.2091    1.4360 H   0  0  0  0  0  0  0  0  0  0  0  0
    0.9893   -0.1820   -0.6595 C   0  0  0  0  0  0  0  0  0  0  0  0
    0.4399   -0.1350   -1.6037 H   0  0  0  0  0  0  0  0  0  0  0  0
    1.8571    0.4766   -0.7555 H   0  0  0  0  0  0  0  0  0  0  0  0
    1.5273   -1.5940   -0.4829 C   0  0  0  0  0  0  0  0  0  0  0  0
    1.9414   -1.9996    0.5837 O   0  0  0  0  0  0  0  0  0  0  0  0
    1.5484   -2.4936   -1.5103 N   0  0  0  0  0  0  0  0  0  0  0  0
    1.7271   -3.4563   -1.2386 H   0  0  0  0  0  0  0  0  0  0  0  0
    1.0146   -2.2922   -2.3482 H   0  0  0  0  0  0  0  0  0  0  0  0
   -0.1253    1.8586    0.2300 C   0  0  0  0  0  0  0  0  0  0  0  0
   -0.7553    2.2368   -0.7509 O   0  0  0  0  0  0  0  0  0  0  0  0
    0.3190    2.7838    1.1556 N   0  0  0  0  0  0  0  0  0  0  0  0
    0.7901    2.4328    1.9855 H   0  0  0  0  0  0  0  0  0  0  0  0
    0.1024    4.2192    1.0210 C   0  0  0  0  0  0  0  0  0  0  0  0
   -0.9690    4.4453    1.0059 H   0  0  0  0  0  0  0  0  0  0  0  0
    0.5564    4.7506    1.8629 H   0  0  0  0  0  0  0  0  0  0  0  0
    0.5541    4.5899    0.0947 H   0  0  0  0  0  0  0  0  0  0  0  0
  1  2  1  0  0  0  0
  2  3  1  0  0  0  0
  2  4  1  0  0  0  0
  2  5  1  0  0  0  0
  5  6  2  0  0  0  0
  5  7  1  0  0  0  0
  7  8  1  0  0  0  0
  7  9  1  0  0  0  0
  9 10  1  0  0  0  0
  9 11  1  0  0  0  0
  9 19  1  0  0  0  0
 11 12  1  0  0  0  0
 11 13  1  0  0  0  0
 11 14  1  0  0  0  0
 14 15  2  0  0  0  0
 14 16  1  0  0  0  0
 16 17  1  0  0  0  0
 16 18  1  0  0  0  0
 19 20  2  0  0  0  0
 19 21  1  0  0  0  0
 21 22  1  0  0  0  0
 21 23  1  0  0  0  0
 23 24  1  0  0  0  0
 23 25  1  0  0  0  0
 23 26  1  0  0  0  0
M  END
$$$$

  -OEChem-01062216063D

 26 25  0     1  0  0  0  0  0999 V2000
   -2.9695   -3.2005    1.0446 H   0  0  0  0  0  0  0  0  0  0  0  0
   -2.9118   -2.1742    0.6709 C   0  0  0  0  0  0  0  0  0  0  0  0
   -3.6809   -1.5749    1.1643 H   0  0  0  0  0  0  0  0  0  0  0  0
   -3.0991   -2.1815   -0.4055 H   0  0  0  0  0  0  0  0  0  0  0  0
   -1.5404   -1.5908    0.9559 C   0  0  0  0  0  0  0  0  0  0  0  0
   -0.7638   -2.2067    1.6588 O   0  0  0  0  0  0  0  0  0  0  0  0
   -1.2356   -0.3285    0.4913 N   0  0  0  0  0  0  0  0  0  0  0  0
   -1.9719    0.1380   -0.0374 H   0  0  0  0  0  0  0  0  0  0  0  0
    0.0766    0.3451    0.4682 C   0  0  1  0  0  0  0  0  0  0  0  0
    0.5701    0.2059    1.4370 H   0  0  0  0  0  0  0  0  0  0  0  0
    0.9979   -0.1799   -0.6590 C   0  0  0  0  0  0  0  0  0  0  0  0
    0.4502   -0.1333   -1.6041 H   0  0  0  0  0  0  0  0  0  0  0  0
    1.8627    0.4832   -0.7508 H   0  0  0  0  0  0  0  0  0  0  0  0
    1.5448   -1.5888   -0.4853 C   0  0  0  0  0  0  0  0  0  0  0  0
    1.9578   -1.9937    0.5821 O   0  0  0  0  0  0  0  0  0  0  0  0
    1.5786   -2.4841   -1.5161 N   0  0  0  0  0  0  0  0  0  0  0  0
    1.7599   -3.4464   -1.2439 H   0  0  0  0  0  0  0  0  0  0  0  0
    1.0381   -2.2867   -2.3507 H   0  0  0  0  0  0  0  0  0  0  0  0
   -0.1252    1.8519    0.2227 C   0  0  0  0  0  0  0  0  0  0  0  0
   -0.9307    2.2259   -0.6226 O   0  0  0  0  0  0  0  0  0  0  0  0
    0.5650    2.7851    0.9730 N   0  0  0  0  0  0  0  0  0  0  0  0
    1.1916    2.4404    1.6957 H   0  0  0  0  0  0  0  0  0  0  0  0
    0.3882    4.2241    0.8205 C   0  0  0  0  0  0  0  0  0  0  0  0
   -0.6473    4.5082    1.0352 H   0  0  0  0  0  0  0  0  0  0  0  0
    1.0448    4.7611    1.5119 H   0  0  0  0  0  0  0  0  0  0  0  0
    0.6343    4.5344   -0.2005 H   0  0  0  0  0  0  0  0  0  0  0  0
  1  2  1  0  0  0  0
  2  3  1  0  0  0  0
  2  4  1  0  0  0  0
  2  5  1  0  0  0  0
  5  6  2  0  0  0  0
  5  7  1  0  0  0  0
  7  8  1  0  0  0  0
  7  9  1  0  0  0  0
  9 10  1  0  0  0  0
  9 11  1  0  0  0  0
  9 19  1  0  0  0  0
 11 12  1  0  0  0  0
 11 13  1  0  0  0  0
 11 14  1  0  0  0  0
 14 15  2  0  0  0  0
 14 16  1  0  0  0  0
 16 17  1  0  0  0  0
 16 18  1  0  0  0  0
 19 20  2  0  0  0  0
 19 21  1  0  0  0  0
 21 22  1  0  0  0  0
 21 23  1  0  0  0  0
 23 24  1  0  0  0  0
 23 25  1  0  0  0  0
 23 26  1  0  0  0  0
M  END
$$$$

  -OEChem-01062216063D

 26 25  0     1  0  0  0  0  0999 V2000
   -3.0067   -3.1814    1.0577 H   0  0  0  0  0  0  0  0  0  0  0  0
   -2.9382   -2.1523    0.6938 C   0  0  0  0  0  0  0  0  0  0  0  0
   -3.6738   -1.5416    1.2230 H   0  0  0  0  0  0  0  0  0  0  0  0
   -3.1663   -2.1415   -0.3745 H   0  0  0  0  0  0  0  0  0  0  0  0
   -1.5433   -1.6051    0.9332 C   0  0  0  0  0  0  0  0  0  0  0  0
   -0.7530   -2.2551    1.5881 O   0  0  0  0  0  0  0  0  0  0  0  0
   -1.2296   -0.3428    0.4745 N   0  0  0  0  0  0  0  0  0  0  0  0
   -1.9842    0.1599    0.0074 H   0  0  0  0  0  0  0  0  0  0  0  0
    0.0781    0.3410    0.4588 C   0  0  1  0  0  0  0  0  0  0  0  0
    0.5642    0.2069    1.4323 H   0  0  0  0  0  0  0  0  0  0  0  0
    1.0093   -0.1791   -0.6631 C   0  0  0  0  0  0  0  0  0  0  0  0
    0.4655   -0.1367   -1.6106 H   0  0  0  0  0  0  0  0  0  0  0  0
    1.8706    0.4884   -0.7526 H   0  0  0  0  0  0  0  0  0  0  0  0
    1.5662   -1.5837   -0.4855 C   0  0  0  0  0  0  0  0  0  0  0  0
    1.9771   -1.9822    0.5853 O   0  0  0  0  0  0  0  0  0  0  0  0
    1.6109   -2.4809   -1.5142 N   0  0  0  0  0  0  0  0  0  0  0  0
    1.7910   -3.4418   -1.2362 H   0  0  0  0  0  0  0  0  0  0  0  0
    1.0670   -2.2901   -2.3480 H   0  0  0  0  0  0  0  0  0  0  0  0
   -0.1270    1.8481    0.2117 C   0  0  0  0  0  0  0  0  0  0  0  0
   -1.0795    2.2330   -0.4581 O   0  0  0  0  0  0  0  0  0  0  0  0
    0.7598    2.7712    0.7338 N   0  0  0  0  0  0  0  0  0  0  0  0
    1.5191    2.4222    1.3130 H   0  0  0  0  0  0  0  0  0  0  0  0
    0.6120    4.2108    0.5574 C   0  0  0  0  0  0  0  0  0  0  0  0
   -0.3326    4.5554    0.9913 H   0  0  0  0  0  0  0  0  0  0  0  0
    1.4329    4.7388    1.0523 H   0  0  0  0  0  0  0  0  0  0  0  0
    0.6264    4.4702   -0.5064 H   0  0  0  0  0  0  0  0  0  0  0  0
  1  2  1  0  0  0  0
  2  3  1  0  0  0  0
  2  4  1  0  0  0  0
  2  5  1  0  0  0  0
  5  6  2  0  0  0  0
  5  7  1  0  0  0  0
  7  8  1  0  0  0  0
  7  9  1  0  0  0  0
  9 10  1  0  0  0  0
  9 11  1  0  0  0  0
  9 19  1  0  0  0  0
 11 12  1  0  0  0  0
 11 13  1  0  0  0  0
 11 14  1  0  0  0  0
 14 15  2  0  0  0  0
 14 16  1  0  0  0  0
 16 17  1  0  0  0  0
 16 18  1  0  0  0  0
 19 20  2  0  0  0  0
 19 21  1  0  0  0  0
 21 22  1  0  0  0  0
 21 23  1  0  0  0  0
 23 24  1  0  0  0  0
 23 25  1  0  0  0  0
 23 26  1  0  0  0  0
M  END
$$$$

  -OEChem-01062216063D

 26 25  0     1  0  0  0  0  0999 V2000
   -3.0415   -3.1561    1.0750 H   0  0  0  0  0  0  0  0  0  0  0  0
   -2.9578   -2.1273    0.7134 C   0  0  0  0  0  0  0  0  0  0  0  0
   -3.6546   -1.4992    1.2738 H   0  0  0  0  0  0  0  0  0  0  0  0
   -3.2269   -2.1038   -0.3452 H   0  0  0  0  0  0  0  0  0  0  0  0
   -1.5399   -1.6200    0.9010 C   0  0  0  0  0  0  0  0  0  0  0  0
   -0.7386   -2.3074    1.5014 O   0  0  0  0  0  0  0  0  0  0  0  0
   -1.2182   -0.3560    0.4519 N   0  0  0  0  0  0  0  0  0  0  0  0
   -1.9888    0.1797    0.0515 H   0  0  0  0  0  0  0  0  0  0  0  0
    0.0849    0.3387    0.4457 C   0  0  1  0  0  0  0  0  0  0  0  0
    0.5662    0.2091    1.4221 H   0  0  0  0  0  0  0  0  0  0  0  0
    1.0236   -0.1835   -0.6712 C   0  0  0  0  0  0  0  0  0  0  0  0
    0.4814   -0.1492   -1.6200 H   0  0  0  0  0  0  0  0  0  0  0  0
    1.8838    0.4844   -0.7642 H   0  0  0  0  0  0  0  0  0  0  0  0
    1.5877   -1.5846   -0.4868 C   0  0  0  0  0  0  0  0  0  0  0  0
    1.9974   -1.9745    0.5877 O   0  0  0  0  0  0  0  0  0  0  0  0
    1.6361   -2.4885   -1.5094 N   0  0  0  0  0  0  0  0  0  0  0  0
    1.8121   -3.4466   -1.2190 H   0  0  0  0  0  0  0  0  0  0  0  0
    1.0792   -2.3095   -2.3371 H   0  0  0  0  0  0  0  0  0  0  0  0
   -0.1275    1.8479    0.2013 C   0  0  0  0  0  0  0  0  0  0  0  0
   -1.1879    2.2520   -0.2645 O   0  0  0  0  0  0  0  0  0  0  0  0
    0.8894    2.7500    0.4558 N   0  0  0  0  0  0  0  0  0  0  0  0
    1.7403    2.3924    0.8822 H   0  0  0  0  0  0  0  0  0  0  0  0
    0.7551    4.1872    0.2501 C   0  0  0  0  0  0  0  0  0  0  0  0
   -0.0432    4.5922    0.8809 H   0  0  0  0  0  0  0  0  0  0  0  0
    1.6900    4.6944    0.5070 H   0  0  0  0  0  0  0  0  0  0  0  0
    0.5213    4.4043   -0.7975 H   0  0  0  0  0  0  0  0  0  0  0  0
  1  2  1  0  0  0  0
  2  3  1  0  0  0  0
  2  4  1  0  0  0  0
  2  5  1  0  0  0  0
  5  6  2  0  0  0  0
  5  7  1  0  0  0  0
  7  8  1  0  0  0  0
  7  9  1  0  0  0  0
  9 10  1  0  0  0  0
  9 11  1  0  0  0  0
  9 19  1  0  0  0  0
 11 12  1  0  0  0  0
 11 13  1  0  0  0  0
 11 14  1  0  0  0  0
 14 15  2  0  0  0  0
 14 16  1  0  0  0  0
 16 17  1  0  0  0  0
 16 18  1  0  0  0  0
 19 20  2  0  0  0  0
 19 21  1  0  0  0  0
 21 22  1  0  0  0  0
 21 23  1  0  0  0  0
 23 24  1  0  0  0  0
 23 25  1  0  0  0  0
 23 26  1  0  0  0  0
M  END
$$$$

  -OEChem-01062216063D

 26 25  0     1  0  0  0  0  0999 V2000
   -2.9604   -3.1719    1.1004 H   0  0  0  0  0  0  0  0  0  0  0  0
   -2.9101   -2.1438    0.7308 C   0  0  0  0  0  0  0  0  0  0  0  0
   -3.5709   -1.5188    1.3364 H   0  0  0  0  0  0  0  0  0  0  0  0
   -3.2514   -2.1260   -0.3068 H   0  0  0  0  0  0  0  0  0  0  0  0
   -1.4869   -1.6254    0.8180 C   0  0  0  0  0  0  0  0  0  0  0  0
   -0.6342   -2.3035    1.3586 O   0  0  0  0  0  0  0  0  0  0  0  0
   -1.2056   -0.3538    0.3633 N   0  0  0  0  0  0  0  0  0  0  0  0
   -2.0098    0.2253    0.1219 H   0  0  0  0  0  0  0  0  0  0  0  0
    0.0922    0.3444    0.4099 C   0  0  1  0  0  0  0  0  0  0  0  0
    0.6738    0.0064    1.2761 H   0  0  0  0  0  0  0  0  0  0  0  0
    0.8732    0.0730   -0.9005 C   0  0  0  0  0  0  0  0  0  0  0  0
    0.2273    0.3154   -1.7486 H   0  0  0  0  0  0  0  0  0  0  0  0
    1.7435    0.7310   -0.9550 H   0  0  0  0  0  0  0  0  0  0  0  0
    1.3984   -1.3448   -1.0746 C   0  0  0  0  0  0  0  0  0  0  0  0
    1.9113   -1.9626   -0.1648 O   0  0  0  0  0  0  0  0  0  0  0  0
    1.2996   -2.0110   -2.2627 N   0  0  0  0  0  0  0  0  0  0  0  0
    1.4843   -3.0091   -2.2107 H   0  0  0  0  0  0  0  0  0  0  0  0
    0.6703   -1.6503   -2.9706 H   0  0  0  0  0  0  0  0  0  0  0  0
   -0.1268    1.8701    0.5329 C   0  0  0  0  0  0  0  0  0  0  0  0
   -1.2608    2.3351    0.4776 O   0  0  0  0  0  0  0  0  0  0  0  0
    0.9490    2.7381    0.5974 N   0  0  0  0  0  0  0  0  0  0  0  0
    1.8751    2.3309    0.6956 H   0  0  0  0  0  0  0  0  0  0  0  0
    0.8035    4.1851    0.7053 C   0  0  0  0  0  0  0  0  0  0  0  0
    0.2678    4.4490    1.6233 H   0  0  0  0  0  0  0  0  0  0  0  0
    1.7872    4.6638    0.7290 H   0  0  0  0  0  0  0  0  0  0  0  0
    0.2490    4.5800   -0.1526 H   0  0  0  0  0  0  0  0  0  0  0  0
  1  2  1  0  0  0  0
  2  3  1  0  0  0  0
  2  4  1  0  0  0  0
  2  5  1  0  0  0  0
  5  6  2  0  0  0  0
  5  7  1  0  0  0  0
  7  8  1  0  0  0  0
  7  9  1  0  0  0  0
  9 10  1  0  0  0  0
  9 11  1  0  0  0  0
  9 19  1  0  0  0  0
 11 12  1  0  0  0  0
 11 13  1  0  0  0  0
 11 14  1  0  0  0  0
 14 15  2  0  0  0  0
 14 16  1  0  0  0  0
 16 17  1  0  0  0  0
 16 18  1  0  0  0  0
 19 20  2  0  0  0  0
 19 21  1  0  0  0  0
 21 22  1  0  0  0  0
 21 23  1  0  0  0  0
 23 24  1  0  0  0  0
 23 25  1  0  0  0  0
 23 26  1  0  0  0  0
M  END
$$$$

  -OEChem-01062216063D

 26 25  0     1  0  0  0  0  0999 V2000
   -2.9715   -3.1456    1.1170 H   0  0  0  0  0  0  0  0  0  0  0  0
   -2.9150   -2.1190    0.7440 C   0  0  0  0  0  0  0  0  0  0  0  0
   -3.5509   -1.4828    1.3646 H   0  0  0  0  0  0  0  0  0  0  0  0
   -3.2828   -2.0977   -0.2844 H   0  0  0  0  0  0  0  0  0  0  0  0
   -1.4818   -1.6230    0.7940 C   0  0  0  0  0  0  0  0  0  0  0  0
   -0.6262   -2.3215    1.3024 O   0  0  0  0  0  0  0  0  0  0  0  0
   -1.1948   -0.3511    0.3427 N   0  0  0  0  0  0  0  0  0  0  0  0
   -2.0019    0.2459    0.1626 H   0  0  0  0  0  0  0  0  0  0  0  0
    0.1060    0.3439    0.3930 C   0  0  1  0  0  0  0  0  0  0  0  0
    0.6842    0.0095    1.2630 H   0  0  0  0  0  0  0  0  0  0  0  0
    0.8900    0.0539   -0.9145 C   0  0  0  0  0  0  0  0  0  0  0  0
    0.2495    0.2956   -1.7668 H   0  0  0  0  0  0  0  0  0  0  0  0
    1.7689    0.6992   -0.9724 H   0  0  0  0  0  0  0  0  0  0  0  0
    1.4104   -1.3671   -1.0785 C   0  0  0  0  0  0  0  0  0  0  0  0
    1.9203   -1.9812   -0.1646 O   0  0  0  0  0  0  0  0  0  0  0  0
    1.3045   -2.0419   -2.2612 N   0  0  0  0  0  0  0  0  0  0  0  0
    1.4799   -3.0412   -2.1990 H   0  0  0  0  0  0  0  0  0  0  0  0
    0.6712   -1.6848   -2.9675 H   0  0  0  0  0  0  0  0  0  0  0  0
   -0.1231    1.8717    0.5190 C   0  0  0  0  0  0  0  0  0  0  0  0
   -1.2555    2.3045    0.7065 O   0  0  0  0  0  0  0  0  0  0  0  0
    0.8953    2.7802    0.2857 N   0  0  0  0  0  0  0  0  0  0  0  0
    1.8377    2.4120    0.1938 H   0  0  0  0  0  0  0  0  0  0  0  0
    0.7161    4.2248    0.3791 C   0  0  0  0  0  0  0  0  0  0  0  0
    0.4111    4.5081    1.3921 H   0  0  0  0  0  0  0  0  0  0  0  0
    1.6533    4.7379    0.1433 H   0  0  0  0  0  0  0  0  0  0  0  0
   -0.0491    4.5642   -0.3272 H   0  0  0  0  0  0  0  0  0  0  0  0
  1  2  1  0  0  0  0
  2  3  1  0  0  0  0
  2  4  1  0  0  0  0
  2  5  1  0  0  0  0
  5  6  2  0  0  0  0
  5  7  1  0  0  0  0
  7  8  1  0  0  0  0
  7  9  1  0  0  0  0
  9 10  1  0  0  0  0
  9 11  1  0  0  0  0
  9 19  1  0  0  0  0
 11 12  1  0  0  0  0
 11 13  1  0  0  0  0
 11 14  1  0  0  0  0
 14 15  2  0  0  0  0
 14 16  1  0  0  0  0
 16 17  1  0  0  0  0
 16 18  1  0  0  0  0
 19 20  2  0  0  0  0
 19 21  1  0  0  0  0
 21 22  1  0  0  0  0
 21 23  1  0  0  0  0
 23 24  1  0  0  0  0
 23 25  1  0  0  0  0
 23 26  1  0  0  0  0
M  END
$$$$

  -OEChem-01062216063D

 26 25  0     1  0  0  0  0  0999 V2000
   -2.9858   -3.1167    1.1349 H   0  0  0  0  0  0  0  0  0  0  0  0
   -2.9212   -2.0931    0.7550 C   0  0  0  0  0  0  0  0  0  0  0  0
   -3.5331   -1.4442    1.3863 H   0  0  0  0  0  0  0  0  0  0  0  0
   -3.3110   -2.0714   -0.2652 H   0  0  0  0  0  0  0  0  0  0  0  0
   -1.4798   -1.6194    0.7709 C   0  0  0  0  0  0  0  0  0  0  0  0
   -0.6228   -2.3407    1.2424 O   0  0  0  0  0  0  0  0  0  0  0  0
   -1.1880   -0.3465    0.3245 N   0  0  0  0  0  0  0  0  0  0  0  0
   -1.9957    0.2619    0.1951 H   0  0  0  0  0  0  0  0  0  0  0  0
    0.1168    0.3430    0.3720 C   0  0  1  0  0  0  0  0  0  0  0  0
    0.6915    0.0109    1.2452 H   0  0  0  0  0  0  0  0  0  0  0  0
    0.9094    0.0373   -0.9280 C   0  0  0  0  0  0  0  0  0  0  0  0
    0.2782    0.2769   -1.7876 H   0  0  0  0  0  0  0  0  0  0  0  0
    1.7952    0.6731   -0.9801 H   0  0  0  0  0  0  0  0  0  0  0  0
    1.4286   -1.3860   -1.0790 C   0  0  0  0  0  0  0  0  0  0  0  0
    1.9325   -1.9950   -0.1587 O   0  0  0  0  0  0  0  0  0  0  0  0
    1.3155   -2.0738   -2.2534 N   0  0  0  0  0  0  0  0  0  0  0  0
    1.4805   -3.0738   -2.1750 H   0  0  0  0  0  0  0  0  0  0  0  0
    0.6744   -1.7248   -2.9567 H   0  0  0  0  0  0  0  0  0  0  0  0
   -0.1208    1.8711    0.5062 C   0  0  0  0  0  0  0  0  0  0  0  0
   -1.1913    2.2760    0.9460 O   0  0  0  0  0  0  0  0  0  0  0  0
    0.7629    2.8078   -0.0048 N   0  0  0  0  0  0  0  0  0  0  0  0
    1.6689    2.4735   -0.3185 H   0  0  0  0  0  0  0  0  0  0  0  0
    0.5430    4.2474    0.0795 C   0  0  0  0  0  0  0  0  0  0  0  0
    0.4859    4.5655    1.1257 H   0  0  0  0  0  0  0  0  0  0  0  0
    1.3663    4.7843   -0.4012 H   0  0  0  0  0  0  0  0  0  0  0  0
   -0.3889    4.5245   -0.4247 H   0  0  0  0  0  0  0  0  0  0  0  0
  1  2  1  0  0  0  0
  2  3  1  0  0  0  0
  2  4  1  0  0  0  0
  2  5  1  0  0  0  0
  5  6  2  0  0  0  0
  5  7  1  0  0  0  0
  7  8  1  0  0  0  0
  7  9  1  0  0  0  0
  9 10  1  0  0  0  0
  9 11  1  0  0  0  0
  9 19  1  0  0  0  0
 11 12  1  0  0  0  0
 11 13  1  0  0  0  0
 11 14  1  0  0  0  0
 14 15  2  0  0  0  0
 14 16  1  0  0  0  0
 16 17  1  0  0  0  0
 16 18  1  0  0  0  0
 19 20  2  0  0  0  0
 19 21  1  0  0  0  0
 21 22  1  0  0  0  0
 21 23  1  0  0  0  0
 23 24  1  0  0  0  0
 23 25  1  0  0  0  0
 23 26  1  0  0  0  0
M  END
$$$$

  -OEChem-01062216063D

 26 25  0     1  0  0  0  0  0999 V2000
   -3.0029   -3.0917    1.1539 H   0  0  0  0  0  0  0  0  0  0  0  0
   -2.9328   -2.0699    0.7701 C   0  0  0  0  0  0  0  0  0  0  0  0
   -3.5240   -1.4117    1.4117 H   0  0  0  0  0  0  0  0  0  0  0  0
   -3.3417   -2.0457   -0.2427 H   0  0  0  0  0  0  0  0  0  0  0  0
   -1.4852   -1.6147    0.7557 C   0  0  0  0  0  0  0  0  0  0  0  0
   -0.6258   -2.3587    1.1847 O   0  0  0  0  0  0  0  0  0  0  0  0
   -1.1905   -0.3408    0.3131 N   0  0  0  0  0  0  0  0  0  0  0  0
   -1.9980    0.2748    0.2269 H   0  0  0  0  0  0  0  0  0  0  0  0
    0.1184    0.3425    0.3497 C   0  0  1  0  0  0  0  0  0  0  0  0
    0.6896    0.0126    1.2262 H   0  0  0  0  0  0  0  0  0  0  0  0
    0.9247    0.0270   -0.9395 C   0  0  0  0  0  0  0  0  0  0  0  0
    0.3034    0.2593   -1.8083 H   0  0  0  0  0  0  0  0  0  0  0  0
    1.8105    0.6641   -0.9802 H   0  0  0  0  0  0  0  0  0  0  0  0
    1.4489   -1.3963   -1.0763 C   0  0  0  0  0  0  0  0  0  0  0  0
    1.9457   -1.9983   -0.1476 O   0  0  0  0  0  0  0  0  0  0  0  0
    1.3456   -2.0948   -2.2451 N   0  0  0  0  0  0  0  0  0  0  0  0
    1.5106   -3.0935   -2.1524 H   0  0  0  0  0  0  0  0  0  0  0  0
    0.7024   -1.7578   -2.9519 H   0  0  0  0  0  0  0  0  0  0  0  0
   -0.1217    1.8685    0.4938 C   0  0  0  0  0  0  0  0  0  0  0  0
   -1.0625    2.2581    1.1747 O   0  0  0  0  0  0  0  0  0  0  0  0
    0.5611    2.8112   -0.2583 N   0  0  0  0  0  0  0  0  0  0  0  0
    1.3517    2.4912   -0.8084 H   0  0  0  0  0  0  0  0  0  0  0  0
    0.3029    4.2447   -0.1756 C   0  0  0  0  0  0  0  0  0  0  0  0
    0.4888    4.6096    0.8400 H   0  0  0  0  0  0  0  0  0  0  0  0
    0.9585    4.7875   -0.8634 H   0  0  0  0  0  0  0  0  0  0  0  0
   -0.7357    4.4643   -0.4446 H   0  0  0  0  0  0  0  0  0  0  0  0
  1  2  1  0  0  0  0
  2  3  1  0  0  0  0
  2  4  1  0  0  0  0
  2  5  1  0  0  0  0
  5  6  2  0  0  0  0
  5  7  1  0  0  0  0
  7  8  1  0  0  0  0
  7  9  1  0  0  0  0
  9 10  1  0  0  0  0
  9 11  1  0  0  0  0
  9 19  1  0  0  0  0
 11 12  1  0  0  0  0
 11 13  1  0  0  0  0
 11 14  1  0  0  0  0
 14 15  2  0  0  0  0
 14 16  1  0  0  0  0
 16 17  1  0  0  0  0
 16 18  1  0  0  0  0
 19 20  2  0  0  0  0
 19 21  1  0  0  0  0
 21 22  1  0  0  0  0
 21 23  1  0  0  0  0
 23 24  1  0  0  0  0
 23 25  1  0  0  0  0
 23 26  1  0  0  0  0
M  END
$$$$

  -OEChem-01062216063D

 26 25  0     1  0  0  0  0  0999 V2000
   -3.0078   -3.0857    1.1693 H   0  0  0  0  0  0  0  0  0  0  0  0
   -2.9393   -2.0643    0.7838 C   0  0  0  0  0  0  0  0  0  0  0  0
   -3.5210   -1.4045    1.4321 H   0  0  0  0  0  0  0  0  0  0  0  0
   -3.3607   -2.0394   -0.2237 H   0  0  0  0  0  0  0  0  0  0  0  0
   -1.4909   -1.6126    0.7518 C   0  0  0  0  0  0  0  0  0  0  0  0
   -0.6284   -2.3631    1.1615 O   0  0  0  0  0  0  0  0  0  0  0  0
   -1.2001   -0.3378    0.3084 N   0  0  0  0  0  0  0  0  0  0  0  0
   -2.0105    0.2722    0.2210 H   0  0  0  0  0  0  0  0  0  0  0  0
    0.1095    0.3451    0.3372 C   0  0  1  0  0  0  0  0  0  0  0  0
    0.6796    0.0180    1.2161 H   0  0  0  0  0  0  0  0  0  0  0  0
    0.9273    0.0290   -0.9439 C   0  0  0  0  0  0  0  0  0  0  0  0
    0.3110    0.2506   -1.8189 H   0  0  0  0  0  0  0  0  0  0  0  0
    1.8069    0.6769   -0.9770 H   0  0  0  0  0  0  0  0  0  0  0  0
    1.4603   -1.3924   -1.0720 C   0  0  0  0  0  0  0  0  0  0  0  0
    1.9531   -1.9889   -0.1378 O   0  0  0  0  0  0  0  0  0  0  0  0
    1.3713   -2.0966   -2.2387 N   0  0  0  0  0  0  0  0  0  0  0  0
    1.5448   -3.0936   -2.1404 H   0  0  0  0  0  0  0  0  0  0  0  0
    0.7313   -1.7684   -2.9523 H   0  0  0  0  0  0  0  0  0  0  0  0
   -0.1283    1.8689    0.4845 C   0  0  0  0  0  0  0  0  0  0  0  0
   -0.8833    2.2654    1.3620 O   0  0  0  0  0  0  0  0  0  0  0  0
    0.3083    2.7893   -0.4551 N   0  0  0  0  0  0  0  0  0  0  0  0
    0.9230    2.4565   -1.1907 H   0  0  0  0  0  0  0  0  0  0  0  0
    0.0222    4.2176   -0.3741 C   0  0  0  0  0  0  0  0  0  0  0  0
    0.4378    4.6402    0.5468 H   0  0  0  0  0  0  0  0  0  0  0  0
    0.4662    4.7416   -1.2259 H   0  0  0  0  0  0  0  0  0  0  0  0
   -1.0586    4.3942   -0.3863 H   0  0  0  0  0  0  0  0  0  0  0  0
  1  2  1  0  0  0  0
  2  3  1  0  0  0  0
  2  4  1  0  0  0  0
  2  5  1  0  0  0  0
  5  6  2  0  0  0  0
  5  7  1  0  0  0  0
  7  8  1  0  0  0  0
  7  9  1  0  0  0  0
  9 10  1  0  0  0  0
  9 11  1  0  0  0  0
  9 19  1  0  0  0  0
 11 12  1  0  0  0  0
 11 13  1  0  0  0  0
 11 14  1  0  0  0  0
 14 15  2  0  0  0  0
 14 16  1  0  0  0  0
 16 17  1  0  0  0  0
 16 18  1  0  0  0  0
 19 20  2  0  0  0  0
 19 21  1  0  0  0  0
 21 22  1  0  0  0  0
 21 23  1  0  0  0  0
 23 24  1  0  0  0  0
 23 25  1  0  0  0  0
 23 26  1  0  0  0  0
M  END
$$$$

  -OEChem-01062216063D

 26 25  0     1  0  0  0  0  0999 V2000
   -2.9917   -3.1084    1.1707 H   0  0  0  0  0  0  0  0  0  0  0  0
   -2.9357   -2.0860    0.7863 C   0  0  0  0  0  0  0  0  0  0  0  0
   -3.5332   -1.4360    1.4302 H   0  0  0  0  0  0  0  0  0  0  0  0
   -3.3485   -2.0680   -0.2250 H   0  0  0  0  0  0  0  0  0  0  0  0
   -1.4939   -1.6127    0.7678 C   0  0  0  0  0  0  0  0  0  0  0  0
   -0.6246   -2.3479    1.1905 O   0  0  0  0  0  0  0  0  0  0  0  0
   -1.2157   -0.3374    0.3167 N   0  0  0  0  0  0  0  0  0  0  0  0
   -2.0332    0.2540    0.1880 H   0  0  0  0  0  0  0  0  0  0  0  0
    0.0900    0.3532    0.3358 C   0  0  1  0  0  0  0  0  0  0  0  0
    0.6640    0.0315    1.2142 H   0  0  0  0  0  0  0  0  0  0  0  0
    0.9107    0.0397   -0.9430 C   0  0  0  0  0  0  0  0  0  0  0  0
    0.2912    0.2450   -1.8194 H   0  0  0  0  0  0  0  0  0  0  0  0
    1.7789    0.7033   -0.9799 H   0  0  0  0  0  0  0  0  0  0  0  0
    1.4568   -1.3773   -1.0660 C   0  0  0  0  0  0  0  0  0  0  0  0
    1.9548   -1.9682   -0.1313 O   0  0  0  0  0  0  0  0  0  0  0  0
    1.3790   -2.0835   -2.2324 N   0  0  0  0  0  0  0  0  0  0  0  0
    1.5666   -3.0779   -2.1340 H   0  0  0  0  0  0  0  0  0  0  0  0
    0.7419   -1.7623   -2.9516 H   0  0  0  0  0  0  0  0  0  0  0  0
   -0.1430    1.8756    0.4775 C   0  0  0  0  0  0  0  0  0  0  0  0
   -0.6493    2.3056    1.5035 O   0  0  0  0  0  0  0  0  0  0  0  0
    0.0110    2.7491   -0.5872 N   0  0  0  0  0  0  0  0  0  0  0  0
    0.4187    2.3834   -1.4413 H   0  0  0  0  0  0  0  0  0  0  0  0
   -0.2759    4.1770   -0.5014 C   0  0  0  0  0  0  0  0  0  0  0  0
    0.3536    4.6492    0.2603 H   0  0  0  0  0  0  0  0  0  0  0  0
   -0.0784    4.6615   -1.4624 H   0  0  0  0  0  0  0  0  0  0  0  0
   -1.3268    4.3428   -0.2416 H   0  0  0  0  0  0  0  0  0  0  0  0
  1  2  1  0  0  0  0
  2  3  1  0  0  0  0
  2  4  1  0  0  0  0
  2  5  1  0  0  0  0
  5  6  2  0  0  0  0
  5  7  1  0  0  0  0
  7  8  1  0  0  0  0
  7  9  1  0  0  0  0
  9 10  1  0  0  0  0
  9 11  1  0  0  0  0
  9 19  1  0  0  0  0
 11 12  1  0  0  0  0
 11 13  1  0  0  0  0
 11 14  1  0  0  0  0
 14 15  2  0  0  0  0
 14 16  1  0  0  0  0
 16 17  1  0  0  0  0
 16 18  1  0  0  0  0
 19 20  2  0  0  0  0
 19 21  1  0  0  0  0
 21 22  1  0  0  0  0
 21 23  1  0  0  0  0
 23 24  1  0  0  0  0
 23 25  1  0  0  0  0
 23 26  1  0  0  0  0
M  END
$$$$

  -OEChem-01062216063D

 26 25  0     1  0  0  0  0  0999 V2000
   -2.9611   -3.1500    1.1660 H   0  0  0  0  0  0  0  0  0  0  0  0
   -2.9237   -2.1265    0.7815 C   0  0  0  0  0  0  0  0  0  0  0  0
   -3.5493   -1.4912    1.4131 H   0  0  0  0  0  0  0  0  0  0  0  0
   -3.3173   -2.1192   -0.2375 H   0  0  0  0  0  0  0  0  0  0  0  0
   -1.4941   -1.6176    0.7902 C   0  0  0  0  0  0  0  0  0  0  0  0
   -0.6174   -2.3251    1.2435 O   0  0  0  0  0  0  0  0  0  0  0  0
   -1.2340   -0.3412    0.3302 N   0  0  0  0  0  0  0  0  0  0  0  0
   -2.0580    0.2256    0.1470 H   0  0  0  0  0  0  0  0  0  0  0  0
    0.0655    0.3611    0.3453 C   0  0  1  0  0  0  0  0  0  0  0  0
    0.6447    0.0448    1.2229 H   0  0  0  0  0  0  0  0  0  0  0  0
    0.8867    0.0589   -0.9353 C   0  0  0  0  0  0  0  0  0  0  0  0
    0.2649    0.2565   -1.8115 H   0  0  0  0  0  0  0  0  0  0  0  0
    1.7444    0.7364   -0.9732 H   0  0  0  0  0  0  0  0  0  0  0  0
    1.4457   -1.3531   -1.0608 C   0  0  0  0  0  0  0  0  0  0  0  0
    1.9505   -1.9428   -0.1292 O   0  0  0  0  0  0  0  0  0  0  0  0
    1.3674   -2.0589   -2.2275 N   0  0  0  0  0  0  0  0  0  0  0  0
    1.5684   -3.0512   -2.1355 H   0  0  0  0  0  0  0  0  0  0  0  0
    0.7314   -1.7394   -2.9482 H   0  0  0  0  0  0  0  0  0  0  0  0
   -0.1674    1.8819    0.4787 C   0  0  0  0  0  0  0  0  0  0  0  0
   -0.3739    2.3657    1.5812 O   0  0  0  0  0  0  0  0  0  0  0  0
   -0.3149    2.6936   -0.6342 N   0  0  0  0  0  0  0  0  0  0  0  0
   -0.1415    2.2806   -1.5446 H   0  0  0  0  0  0  0  0  0  0  0  0
   -0.5779    4.1259   -0.5509 C   0  0  0  0  0  0  0  0  0  0  0  0
    0.2271    4.6322   -0.0076 H   0  0  0  0  0  0  0  0  0  0  0  0
   -0.6425    4.5579   -1.5542 H   0  0  0  0  0  0  0  0  0  0  0  0
   -1.5245    4.3134   -0.0329 H   0  0  0  0  0  0  0  0  0  0  0  0
  1  2  1  0  0  0  0
  2  3  1  0  0  0  0
  2  4  1  0  0  0  0
  2  5  1  0  0  0  0
  5  6  2  0  0  0  0
  5  7  1  0  0  0  0
  7  8  1  0  0  0  0
  7  9  1  0  0  0  0
  9 10  1  0  0  0  0
  9 11  1  0  0  0  0
  9 19  1  0  0  0  0
 11 12  1  0  0  0  0
 11 13  1  0  0  0  0
 11 14  1  0  0  0  0
 14 15  2  0  0  0  0
 14 16  1  0  0  0  0
 16 17  1  0  0  0  0
 16 18  1  0  0  0  0
 19 20  2  0  0  0  0
 19 21  1  0  0  0  0
 21 22  1  0  0  0  0
 21 23  1  0  0  0  0
 23 24  1  0  0  0  0
 23 25  1  0  0  0  0
 23 26  1  0  0  0  0
M  END
$$$$

  -OEChem-01062216063D

 26 25  0     1  0  0  0  0  0999 V2000
   -2.9468   -3.1794    1.1614 H   0  0  0  0  0  0  0  0  0  0  0  0
   -2.9196   -2.1542    0.7811 C   0  0  0  0  0  0  0  0  0  0  0  0
   -3.5651   -1.5313    1.4050 H   0  0  0  0  0  0  0  0  0  0  0  0
   -3.2974   -2.1502   -0.2439 H   0  0  0  0  0  0  0  0  0  0  0  0
   -1.4985   -1.6230    0.8143 C   0  0  0  0  0  0  0  0  0  0  0  0
   -0.6208   -2.3103    1.2958 O   0  0  0  0  0  0  0  0  0  0  0  0
   -1.2478   -0.3466    0.3486 N   0  0  0  0  0  0  0  0  0  0  0  0
   -2.0733    0.2033    0.1270 H   0  0  0  0  0  0  0  0  0  0  0  0
    0.0493    0.3609    0.3622 C   0  0  1  0  0  0  0  0  0  0  0  0
    0.6335    0.0443    1.2367 H   0  0  0  0  0  0  0  0  0  0  0  0
    0.8672    0.0753   -0.9224 C   0  0  0  0  0  0  0  0  0  0  0  0
    0.2443    0.2791   -1.7961 H   0  0  0  0  0  0  0  0  0  0  0  0
    1.7207    0.7587   -0.9556 H   0  0  0  0  0  0  0  0  0  0  0  0
    1.4309   -1.3338   -1.0596 C   0  0  0  0  0  0  0  0  0  0  0  0
    1.9397   -1.9305   -0.1347 O   0  0  0  0  0  0  0  0  0  0  0  0
    1.3621   -2.0269   -2.2347 N   0  0  0  0  0  0  0  0  0  0  0  0
    1.5775   -3.0177   -2.1594 H   0  0  0  0  0  0  0  0  0  0  0  0
    0.7421   -1.6972   -2.9646 H   0  0  0  0  0  0  0  0  0  0  0  0
   -0.1832    1.8805    0.4898 C   0  0  0  0  0  0  0  0  0  0  0  0
   -0.0662    2.4297    1.5741 O   0  0  0  0  0  0  0  0  0  0  0  0
   -0.6318    2.6248   -0.5890 N   0  0  0  0  0  0  0  0  0  0  0  0
   -0.7038    2.1578   -1.4868 H   0  0  0  0  0  0  0  0  0  0  0  0
   -0.8888    4.0590   -0.5179 C   0  0  0  0  0  0  0  0  0  0  0  0
    0.0196    4.5974   -0.2273 H   0  0  0  0  0  0  0  0  0  0  0  0
   -1.2160    4.4341   -1.4923 H   0  0  0  0  0  0  0  0  0  0  0  0
   -1.6738    4.2720    0.2154 H   0  0  0  0  0  0  0  0  0  0  0  0
  1  2  1  0  0  0  0
  2  3  1  0  0  0  0
  2  4  1  0  0  0  0
  2  5  1  0  0  0  0
  5  6  2  0  0  0  0
  5  7  1  0  0  0  0
  7  8  1  0  0  0  0
  7  9  1  0  0  0  0
  9 10  1  0  0  0  0
  9 11  1  0  0  0  0
  9 19  1  0  0  0  0
 11 12  1  0  0  0  0
 11 13  1  0  0  0  0
 11 14  1  0  0  0  0
 14 15  2  0  0  0  0
 14 16  1  0  0  0  0
 16 17  1  0  0  0  0
 16 18  1  0  0  0  0
 19 20  2  0  0  0  0
 19 21  1  0  0  0  0
 21 22  1  0  0  0  0
 21 23  1  0  0  0  0
 23 24  1  0  0  0  0
 23 25  1  0  0  0  0
 23 26  1  0  0  0  0
M  END
$$$$

  -OEChem-01062216063D

 26 25  0     1  0  0  0  0  0999 V2000
   -2.9362   -3.2126    1.1694 H   0  0  0  0  0  0  0  0  0  0  0  0
   -2.9189   -2.1881    0.7864 C   0  0  0  0  0  0  0  0  0  0  0  0
   -3.5782   -1.5721    1.4028 H   0  0  0  0  0  0  0  0  0  0  0  0
   -3.2878   -2.1922   -0.2419 H   0  0  0  0  0  0  0  0  0  0  0  0
   -1.5047   -1.6395    0.8307 C   0  0  0  0  0  0  0  0  0  0  0  0
   -0.6236   -2.3131    1.3249 O   0  0  0  0  0  0  0  0  0  0  0  0
   -1.2642   -0.3610    0.3643 N   0  0  0  0  0  0  0  0  0  0  0  0
   -2.0929    0.1794    0.1334 H   0  0  0  0  0  0  0  0  0  0  0  0
    0.0293    0.3544    0.3860 C   0  0  1  0  0  0  0  0  0  0  0  0
    0.6165    0.0359    1.2577 H   0  0  0  0  0  0  0  0  0  0  0  0
    0.8470    0.0955   -0.9026 C   0  0  0  0  0  0  0  0  0  0  0  0
    0.2250    0.3151   -1.7729 H   0  0  0  0  0  0  0  0  0  0  0  0
    1.6979    0.7831   -0.9221 H   0  0  0  0  0  0  0  0  0  0  0  0
    1.4174   -1.3082   -1.0600 C   0  0  0  0  0  0  0  0  0  0  0  0
    1.9289   -1.9171   -0.1446 O   0  0  0  0  0  0  0  0  0  0  0  0
    1.3572   -1.9813   -2.2472 N   0  0  0  0  0  0  0  0  0  0  0  0
    1.5845   -2.9706   -2.1926 H   0  0  0  0  0  0  0  0  0  0  0  0
    0.7469   -1.6390   -2.9796 H   0  0  0  0  0  0  0  0  0  0  0  0
   -0.2064    1.8722    0.5110 C   0  0  0  0  0  0  0  0  0  0  0  0
    0.2152    2.4878    1.4774 O   0  0  0  0  0  0  0  0  0  0  0  0
   -0.9315    2.5504   -0.4549 N   0  0  0  0  0  0  0  0  0  0  0  0
   -1.2057    2.0354   -1.2850 H   0  0  0  0  0  0  0  0  0  0  0  0
   -1.1660    3.9893   -0.4092 C   0  0  0  0  0  0  0  0  0  0  0  0
   -0.2154    4.5331   -0.4094 H   0  0  0  0  0  0  0  0  0  0  0  0
   -1.7464    4.3071   -1.2807 H   0  0  0  0  0  0  0  0  0  0  0  0
   -1.7245    4.2577    0.4937 H   0  0  0  0  0  0  0  0  0  0  0  0
  1  2  1  0  0  0  0
  2  3  1  0  0  0  0
  2  4  1  0  0  0  0
  2  5  1  0  0  0  0
  5  6  2  0  0  0  0
  5  7  1  0  0  0  0
  7  8  1  0  0  0  0
  7  9  1  0  0  0  0
  9 10  1  0  0  0  0
  9 11  1  0  0  0  0
  9 19  1  0  0  0  0
 11 12  1  0  0  0  0
 11 13  1  0  0  0  0
 11 14  1  0  0  0  0
 14 15  2  0  0  0  0
 14 16  1  0  0  0  0
 16 17  1  0  0  0  0
 16 18  1  0  0  0  0
 19 20  2  0  0  0  0
 19 21  1  0  0  0  0
 21 22  1  0  0  0  0
 21 23  1  0  0  0  0
 23 24  1  0  0  0  0
 23 25  1  0  0  0  0
 23 26  1  0  0  0  0
M  END
$$$$

  -OEChem-01062216063D

 26 25  0     1  0  0  0  0  0999 V2000
   -2.9166   -3.2593    1.1673 H   0  0  0  0  0  0  0  0  0  0  0  0
   -2.9104   -2.2346    0.7846 C   0  0  0  0  0  0  0  0  0  0  0  0
   -3.5879   -1.6294    1.3917 H   0  0  0  0  0  0  0  0  0  0  0  0
   -3.2647   -2.2441   -0.2488 H   0  0  0  0  0  0  0  0  0  0  0  0
   -1.5062   -1.6628    0.8484 C   0  0  0  0  0  0  0  0  0  0  0  0
   -0.6231   -2.3150    1.3671 O   0  0  0  0  0  0  0  0  0  0  0  0
   -1.2809   -0.3811    0.3827 N   0  0  0  0  0  0  0  0  0  0  0  0
   -2.1155    0.1463    0.1459 H   0  0  0  0  0  0  0  0  0  0  0  0
    0.0067    0.3469    0.4132 C   0  0  1  0  0  0  0  0  0  0  0  0
    0.5982    0.0270    1.2815 H   0  0  0  0  0  0  0  0  0  0  0  0
    0.8193    0.1092   -0.8814 C   0  0  0  0  0  0  0  0  0  0  0  0
    0.1905    0.3376   -1.7449 H   0  0  0  0  0  0  0  0  0  0  0  0
    1.6660    0.8025   -0.8973 H   0  0  0  0  0  0  0  0  0  0  0  0
    1.3975   -1.2888   -1.0572 C   0  0  0  0  0  0  0  0  0  0  0  0
    1.9170   -1.9063   -0.1519 O   0  0  0  0  0  0  0  0  0  0  0  0
    1.3453   -1.9435   -2.2553 N   0  0  0  0  0  0  0  0  0  0  0  0
    1.5881   -2.9300   -2.2228 H   0  0  0  0  0  0  0  0  0  0  0  0
    0.7501   -1.5864   -2.9931 H   0  0  0  0  0  0  0  0  0  0  0  0
   -0.2257    1.8653    0.5380 C   0  0  0  0  0  0  0  0  0  0  0  0
    0.4494    2.5330    1.3056 O   0  0  0  0  0  0  0  0  0  0  0  0
   -1.1840    2.4955   -0.2397 N   0  0  0  0  0  0  0  0  0  0  0  0
   -1.6273    1.9486   -0.9696 H   0  0  0  0  0  0  0  0  0  0  0  0
   -1.3918    3.9392   -0.2225 C   0  0  0  0  0  0  0  0  0  0  0  0
   -0.4775    4.4623   -0.5224 H   0  0  0  0  0  0  0  0  0  0  0  0
   -2.1923    4.2157   -0.9153 H   0  0  0  0  0  0  0  0  0  0  0  0
   -1.6745    4.2735    0.7815 H   0  0  0  0  0  0  0  0  0  0  0  0
  1  2  1  0  0  0  0
  2  3  1  0  0  0  0
  2  4  1  0  0  0  0
  2  5  1  0  0  0  0
  5  6  2  0  0  0  0
  5  7  1  0  0  0  0
  7  8  1  0  0  0  0
  7  9  1  0  0  0  0
  9 10  1  0  0  0  0
  9 11  1  0  0  0  0
  9 19  1  0  0  0  0
 11 12  1  0  0  0  0
 11 13  1  0  0  0  0
 11 14  1  0  0  0  0
 14 15  2  0  0  0  0
 14 16  1  0  0  0  0
 16 17  1  0  0  0  0
 16 18  1  0  0  0  0
 19 20  2  0  0  0  0
 19 21  1  0  0  0  0
 21 22  1  0  0  0  0
 21 23  1  0  0  0  0
 23 24  1  0  0  0  0
 23 25  1  0  0  0  0
 23 26  1  0  0  0  0
M  END
$$$$

  -OEChem-01062216063D

 26 25  0     1  0  0  0  0  0999 V2000
   -2.6968   -3.3693    1.1439 H   0  0  0  0  0  0  0  0  0  0  0  0
   -2.7270   -2.3979    0.6418 C   0  0  0  0  0  0  0  0  0  0  0  0
   -3.6414   -1.8778    0.9370 H   0  0  0  0  0  0  0  0  0  0  0  0
   -2.7384   -2.5627   -0.4381 H   0  0  0  0  0  0  0  0  0  0  0  0
   -1.5126   -1.5748    1.0287 C   0  0  0  0  0  0  0  0  0  0  0  0
   -0.7409   -1.9992    1.8680 O   0  0  0  0  0  0  0  0  0  0  0  0
   -1.3489   -0.3095    0.4949 N   0  0  0  0  0  0  0  0  0  0  0  0
   -2.0221   -0.0737   -0.2255 H   0  0  0  0  0  0  0  0  0  0  0  0
   -0.0441    0.3865    0.4476 C   0  0  1  0  0  0  0  0  0  0  0  0
    0.5884    0.0770    1.2902 H   0  0  0  0  0  0  0  0  0  0  0  0
    0.6706    0.0717   -0.8869 C   0  0  0  0  0  0  0  0  0  0  0  0
   -0.0022    0.2953   -1.7183 H   0  0  0  0  0  0  0  0  0  0  0  0
    1.5440    0.7236   -0.9857 H   0  0  0  0  0  0  0  0  0  0  0  0
    1.1723   -1.3593   -1.0219 C   0  0  0  0  0  0  0  0  0  0  0  0
    1.7166   -1.9608   -0.1206 O   0  0  0  0  0  0  0  0  0  0  0  0
    1.0367   -2.0548   -2.1897 N   0  0  0  0  0  0  0  0  0  0  0  0
    1.5628   -2.9237   -2.2313 H   0  0  0  0  0  0  0  0  0  0  0  0
    0.8507   -1.5383   -3.0420 H   0  0  0  0  0  0  0  0  0  0  0  0
   -0.1977    1.9204    0.5330 C   0  0  0  0  0  0  0  0  0  0  0  0
    0.7561    2.6056    0.8718 O   0  0  0  0  0  0  0  0  0  0  0  0
   -1.3275    2.5548    0.0424 N   0  0  0  0  0  0  0  0  0  0  0  0
   -2.1466    1.9776   -0.1072 H   0  0  0  0  0  0  0  0  0  0  0  0
   -1.4989    4.0031    0.0833 C   0  0  0  0  0  0  0  0  0  0  0  0
   -0.6969    4.5009   -0.4722 H   0  0  0  0  0  0  0  0  0  0  0  0
   -2.4549    4.2843   -0.3686 H   0  0  0  0  0  0  0  0  0  0  0  0
   -1.4847    4.3615    1.1180 H   0  0  0  0  0  0  0  0  0  0  0  0
  1  2  1  0  0  0  0
  2  3  1  0  0  0  0
  2  4  1  0  0  0  0
  2  5  1  0  0  0  0
  5  6  2  0  0  0  0
  5  7  1  0  0  0  0
  7  8  1  0  0  0  0
  7  9  1  0  0  0  0
  9 10  1  0  0  0  0
  9 11  1  0  0  0  0
  9 19  1  0  0  0  0
 11 12  1  0  0  0  0
 11 13  1  0  0  0  0
 11 14  1  0  0  0  0
 14 15  2  0  0  0  0
 14 16  1  0  0  0  0
 16 17  1  0  0  0  0
 16 18  1  0  0  0  0
 19 20  2  0  0  0  0
 19 21  1  0  0  0  0
 21 22  1  0  0  0  0
 21 23  1  0  0  0  0
 23 24  1  0  0  0  0
 23 25  1  0  0  0  0
 23 26  1  0  0  0  0
M  END
$$$$

  -OEChem-01062216063D

 26 25  0     1  0  0  0  0  0999 V2000
   -2.6521   -3.3933    1.0939 H   0  0  0  0  0  0  0  0  0  0  0  0
   -2.6918   -2.4197    0.5966 C   0  0  0  0  0  0  0  0  0  0  0  0
   -3.6269   -1.9242    0.8679 H   0  0  0  0  0  0  0  0  0  0  0  0
   -2.6680   -2.5786   -0.4840 H   0  0  0  0  0  0  0  0  0  0  0  0
   -1.5091   -1.5702    1.0233 C   0  0  0  0  0  0  0  0  0  0  0  0
   -0.7613   -1.9733    1.8944 O   0  0  0  0  0  0  0  0  0  0  0  0
   -1.3489   -0.3027    0.4937 N   0  0  0  0  0  0  0  0  0  0  0  0
   -2.0015   -0.0800   -0.2511 H   0  0  0  0  0  0  0  0  0  0  0  0
   -0.0426    0.3917    0.4526 C   0  0  1  0  0  0  0  0  0  0  0  0
    0.5898    0.0809    1.2943 H   0  0  0  0  0  0  0  0  0  0  0  0
    0.6672    0.0700   -0.8844 C   0  0  0  0  0  0  0  0  0  0  0  0
   -0.0062    0.2965   -1.7146 H   0  0  0  0  0  0  0  0  0  0  0  0
    1.5460    0.7135   -0.9902 H   0  0  0  0  0  0  0  0  0  0  0  0
    1.1595   -1.3642   -1.0147 C   0  0  0  0  0  0  0  0  0  0  0  0
    1.7022   -1.9653   -0.1117 O   0  0  0  0  0  0  0  0  0  0  0  0
    1.0066   -2.0665   -2.1763 N   0  0  0  0  0  0  0  0  0  0  0  0
    1.5267   -2.9389   -2.2178 H   0  0  0  0  0  0  0  0  0  0  0  0
    0.8177   -1.5532   -3.0300 H   0  0  0  0  0  0  0  0  0  0  0  0
   -0.2013    1.9262    0.5446 C   0  0  0  0  0  0  0  0  0  0  0  0
    0.7888    2.6390    0.6288 O   0  0  0  0  0  0  0  0  0  0  0  0
   -1.4341    2.5246    0.3448 N   0  0  0  0  0  0  0  0  0  0  0  0
   -2.2434    1.9238    0.4597 H   0  0  0  0  0  0  0  0  0  0  0  0
   -1.6294    3.9685    0.4185 C   0  0  0  0  0  0  0  0  0  0  0  0
   -1.0078    4.4784   -0.3252 H   0  0  0  0  0  0  0  0  0  0  0  0
   -2.6759    4.2196    0.2212 H   0  0  0  0  0  0  0  0  0  0  0  0
   -1.3640    4.3413    1.4135 H   0  0  0  0  0  0  0  0  0  0  0  0
  1  2  1  0  0  0  0
  2  3  1  0  0  0  0
  2  4  1  0  0  0  0
  2  5  1  0  0  0  0
  5  6  2  0  0  0  0
  5  7  1  0  0  0  0
  7  8  1  0  0  0  0
  7  9  1  0  0  0  0
  9 10  1  0  0  0  0
  9 11  1  0  0  0  0
  9 19  1  0  0  0  0
 11 12  1  0  0  0  0
 11 13  1  0  0  0  0
 11 14  1  0  0  0  0
 14 15  2  0  0  0  0
 14 16  1  0  0  0  0
 16 17  1  0  0  0  0
 16 18  1  0  0  0  0
 19 20  2  0  0  0  0
 19 21  1  0  0  0  0
 21 22  1  0  0  0  0
 21 23  1  0  0  0  0
 23 24  1  0  0  0  0
 23 25  1  0  0  0  0
 23 26  1  0  0  0  0
M  END
$$$$

  -OEChem-01062216063D

 26 25  0     1  0  0  0  0  0999 V2000
   -2.6608   -3.3809    1.0765 H   0  0  0  0  0  0  0  0  0  0  0  0
   -2.6886   -2.4089    0.5756 C   0  0  0  0  0  0  0  0  0  0  0  0
   -3.6220   -1.9048    0.8368 H   0  0  0  0  0  0  0  0  0  0  0  0
   -2.6567   -2.5714   -0.5044 H   0  0  0  0  0  0  0  0  0  0  0  0
   -1.5030   -1.5669    1.0087 C   0  0  0  0  0  0  0  0  0  0  0  0
   -0.7593   -1.9740    1.8813 O   0  0  0  0  0  0  0  0  0  0  0  0
   -1.3372   -0.2973    0.4872 N   0  0  0  0  0  0  0  0  0  0  0  0
   -1.9978   -0.0560   -0.2456 H   0  0  0  0  0  0  0  0  0  0  0  0
   -0.0300    0.3956    0.4447 C   0  0  1  0  0  0  0  0  0  0  0  0
    0.6033    0.0842    1.2855 H   0  0  0  0  0  0  0  0  0  0  0  0
    0.6748    0.0639   -0.8943 C   0  0  0  0  0  0  0  0  0  0  0  0
   -0.0013    0.2885   -1.7227 H   0  0  0  0  0  0  0  0  0  0  0  0
    1.5567    0.7007   -1.0094 H   0  0  0  0  0  0  0  0  0  0  0  0
    1.1616   -1.3728   -1.0175 C   0  0  0  0  0  0  0  0  0  0  0  0
    1.7051   -1.9690   -0.1116 O   0  0  0  0  0  0  0  0  0  0  0  0
    1.0025   -2.0829   -2.1734 N   0  0  0  0  0  0  0  0  0  0  0  0
    1.5170   -2.9589   -2.2101 H   0  0  0  0  0  0  0  0  0  0  0  0
    0.8138   -1.5746   -3.0302 H   0  0  0  0  0  0  0  0  0  0  0  0
   -0.2008    1.9299    0.5471 C   0  0  0  0  0  0  0  0  0  0  0  0
    0.7584    2.6747    0.3994 O   0  0  0  0  0  0  0  0  0  0  0  0
   -1.4618    2.4892    0.6635 N   0  0  0  0  0  0  0  0  0  0  0  0
   -2.1996    1.8574    0.9602 H   0  0  0  0  0  0  0  0  0  0  0  0
   -1.6817    3.9251    0.7942 C   0  0  0  0  0  0  0  0  0  0  0  0
   -1.2747    4.4562   -0.0727 H   0  0  0  0  0  0  0  0  0  0  0  0
   -2.7526    4.1401    0.8561 H   0  0  0  0  0  0  0  0  0  0  0  0
   -1.1974    4.3065    1.6993 H   0  0  0  0  0  0  0  0  0  0  0  0
  1  2  1  0  0  0  0
  2  3  1  0  0  0  0
  2  4  1  0  0  0  0
  2  5  1  0  0  0  0
  5  6  2  0  0  0  0
  5  7  1  0  0  0  0
  7  8  1  0  0  0  0
  7  9  1  0  0  0  0
  9 10  1  0  0  0  0
  9 11  1  0  0  0  0
  9 19  1  0  0  0  0
 11 12  1  0  0  0  0
 11 13  1  0  0  0  0
 11 14  1  0  0  0  0
 14 15  2  0  0  0  0
 14 16  1  0  0  0  0
 16 17  1  0  0  0  0
 16 18  1  0  0  0  0
 19 20  2  0  0  0  0
 19 21  1  0  0  0  0
 21 22  1  0  0  0  0
 21 23  1  0  0  0  0
 23 24  1  0  0  0  0
 23 25  1  0  0  0  0
 23 26  1  0  0  0  0
M  END
$$$$

  -OEChem-01062216063D

 26 25  0     1  0  0  0  0  0999 V2000
   -2.6953   -3.3523    1.0852 H   0  0  0  0  0  0  0  0  0  0  0  0
   -2.7035   -2.3873    0.5701 C   0  0  0  0  0  0  0  0  0  0  0  0
   -3.6276   -1.8616    0.8218 H   0  0  0  0  0  0  0  0  0  0  0  0
   -2.6726   -2.5656   -0.5074 H   0  0  0  0  0  0  0  0  0  0  0  0
   -1.5021   -1.5626    0.9926 C   0  0  0  0  0  0  0  0  0  0  0  0
   -0.7541   -1.9814    1.8561 O   0  0  0  0  0  0  0  0  0  0  0  0
   -1.3274   -0.2909    0.4798 N   0  0  0  0  0  0  0  0  0  0  0  0
   -2.0036   -0.0222   -0.2296 H   0  0  0  0  0  0  0  0  0  0  0  0
   -0.0185    0.3981    0.4340 C   0  0  1  0  0  0  0  0  0  0  0  0
    0.6142    0.0853    1.2742 H   0  0  0  0  0  0  0  0  0  0  0  0
    0.6864    0.0575   -0.9044 C   0  0  0  0  0  0  0  0  0  0  0  0
    0.0115    0.2817   -1.7340 H   0  0  0  0  0  0  0  0  0  0  0  0
    1.5719    0.6884   -1.0228 H   0  0  0  0  0  0  0  0  0  0  0  0
    1.1701   -1.3805   -1.0220 C   0  0  0  0  0  0  0  0  0  0  0  0
    1.7125   -1.9734   -0.1130 O   0  0  0  0  0  0  0  0  0  0  0  0
    1.0164   -2.0923   -2.1777 N   0  0  0  0  0  0  0  0  0  0  0  0
    1.5322   -2.9675   -2.2129 H   0  0  0  0  0  0  0  0  0  0  0  0
    0.8260   -1.5855   -3.0350 H   0  0  0  0  0  0  0  0  0  0  0  0
   -0.2017    1.9318    0.5478 C   0  0  0  0  0  0  0  0  0  0  0  0
    0.6694    2.7060    0.1747 O   0  0  0  0  0  0  0  0  0  0  0  0
   -1.4082    2.4545    0.9798 N   0  0  0  0  0  0  0  0  0  0  0  0
   -2.0479    1.7957    1.4152 H   0  0  0  0  0  0  0  0  0  0  0  0
   -1.6376    3.8825    1.1670 C   0  0  0  0  0  0  0  0  0  0  0  0
   -1.4808    4.4226    0.2273 H   0  0  0  0  0  0  0  0  0  0  0  0
   -2.6651    4.0605    1.4981 H   0  0  0  0  0  0  0  0  0  0  0  0
   -0.9542    4.2844    1.9224 H   0  0  0  0  0  0  0  0  0  0  0  0
  1  2  1  0  0  0  0
  2  3  1  0  0  0  0
  2  4  1  0  0  0  0
  2  5  1  0  0  0  0
  5  6  2  0  0  0  0
  5  7  1  0  0  0  0
  7  8  1  0  0  0  0
  7  9  1  0  0  0  0
  9 10  1  0  0  0  0
  9 11  1  0  0  0  0
  9 19  1  0  0  0  0
 11 12  1  0  0  0  0
 11 13  1  0  0  0  0
 11 14  1  0  0  0  0
 14 15  2  0  0  0  0
 14 16  1  0  0  0  0
 16 17  1  0  0  0  0
 16 18  1  0  0  0  0
 19 20  2  0  0  0  0
 19 21  1  0  0  0  0
 21 22  1  0  0  0  0
 21 23  1  0  0  0  0
 23 24  1  0  0  0  0
 23 25  1  0  0  0  0
 23 26  1  0  0  0  0
M  END
$$$$

  -OEChem-01062216063D

 26 25  0     1  0  0  0  0  0999 V2000
   -2.7119   -3.3341    1.0555 H   0  0  0  0  0  0  0  0  0  0  0  0
   -2.7283   -2.3520    0.5742 C   0  0  0  0  0  0  0  0  0  0  0  0
   -3.6367   -1.8261    0.8771 H   0  0  0  0  0  0  0  0  0  0  0  0
   -2.7388   -2.4933   -0.5092 H   0  0  0  0  0  0  0  0  0  0  0  0
   -1.5040   -1.5536    0.9809 C   0  0  0  0  0  0  0  0  0  0  0  0
   -0.7538   -1.9874    1.8354 O   0  0  0  0  0  0  0  0  0  0  0  0
   -1.3147   -0.2813    0.4767 N   0  0  0  0  0  0  0  0  0  0  0  0
   -2.0027    0.0154   -0.2101 H   0  0  0  0  0  0  0  0  0  0  0  0
   -0.0019    0.3974    0.4290 C   0  0  1  0  0  0  0  0  0  0  0  0
    0.6296    0.0811    1.2685 H   0  0  0  0  0  0  0  0  0  0  0  0
    0.7045    0.0530   -0.9077 C   0  0  0  0  0  0  0  0  0  0  0  0
    0.0337    0.2828   -1.7393 H   0  0  0  0  0  0  0  0  0  0  0  0
    1.5945    0.6783   -1.0219 H   0  0  0  0  0  0  0  0  0  0  0  0
    1.1809   -1.3871   -1.0255 C   0  0  0  0  0  0  0  0  0  0  0  0
    1.7181   -1.9827   -0.1148 O   0  0  0  0  0  0  0  0  0  0  0  0
    1.0339   -2.0938   -2.1851 N   0  0  0  0  0  0  0  0  0  0  0  0
    1.5471   -2.9704   -2.2206 H   0  0  0  0  0  0  0  0  0  0  0  0
    0.8507   -1.5824   -3.0414 H   0  0  0  0  0  0  0  0  0  0  0  0
   -0.1956    1.9287    0.5542 C   0  0  0  0  0  0  0  0  0  0  0  0
    0.5241    2.7239   -0.0361 O   0  0  0  0  0  0  0  0  0  0  0  0
   -1.2685    2.4193    1.2765 N   0  0  0  0  0  0  0  0  0  0  0  0
   -1.7892    1.7408    1.8265 H   0  0  0  0  0  0  0  0  0  0  0  0
   -1.5079    3.8405    1.4962 C   0  0  0  0  0  0  0  0  0  0  0  0
   -1.6294    4.3611    0.5406 H   0  0  0  0  0  0  0  0  0  0  0  0
   -2.4192    3.9842    2.0845 H   0  0  0  0  0  0  0  0  0  0  0  0
   -0.6697    4.2904    2.0386 H   0  0  0  0  0  0  0  0  0  0  0  0
  1  2  1  0  0  0  0
  2  3  1  0  0  0  0
  2  4  1  0  0  0  0
  2  5  1  0  0  0  0
  5  6  2  0  0  0  0
  5  7  1  0  0  0  0
  7  8  1  0  0  0  0
  7  9  1  0  0  0  0
  9 10  1  0  0  0  0
  9 11  1  0  0  0  0
  9 19  1  0  0  0  0
 11 12  1  0  0  0  0
 11 13  1  0  0  0  0
 11 14  1  0  0  0  0
 14 15  2  0  0  0  0
 14 16  1  0  0  0  0
 16 17  1  0  0  0  0
 16 18  1  0  0  0  0
 19 20  2  0  0  0  0
 19 21  1  0  0  0  0
 21 22  1  0  0  0  0
 21 23  1  0  0  0  0
 23 24  1  0  0  0  0
 23 25  1  0  0  0  0
 23 26  1  0  0  0  0
M  END
$$$$

  -OEChem-01062216063D

 26 25  0     1  0  0  0  0  0999 V2000
   -2.7388   -3.3116    1.0436 H   0  0  0  0  0  0  0  0  0  0  0  0
   -2.7493   -2.3227    0.5766 C   0  0  0  0  0  0  0  0  0  0  0  0
   -3.6439   -1.7877    0.9039 H   0  0  0  0  0  0  0  0  0  0  0  0
   -2.7820   -2.4482   -0.5082 H   0  0  0  0  0  0  0  0  0  0  0  0
   -1.5059   -1.5482    0.9710 C   0  0  0  0  0  0  0  0  0  0  0  0
   -0.7504   -2.0006    1.8112 O   0  0  0  0  0  0  0  0  0  0  0  0
   -1.3043   -0.2746    0.4759 N   0  0  0  0  0  0  0  0  0  0  0  0
   -2.0010    0.0451   -0.1917 H   0  0  0  0  0  0  0  0  0  0  0  0
    0.0112    0.3956    0.4278 C   0  0  1  0  0  0  0  0  0  0  0  0
    0.6416    0.0729    1.2657 H   0  0  0  0  0  0  0  0  0  0  0  0
    0.7217    0.0537   -0.9066 C   0  0  0  0  0  0  0  0  0  0  0  0
    0.0537    0.2871   -1.7395 H   0  0  0  0  0  0  0  0  0  0  0  0
    1.6114    0.6809   -1.0137 H   0  0  0  0  0  0  0  0  0  0  0  0
    1.1947   -1.3871   -1.0281 C   0  0  0  0  0  0  0  0  0  0  0  0
    1.7268   -1.9860   -0.1166 O   0  0  0  0  0  0  0  0  0  0  0  0
    1.0445   -2.0928   -2.1878 N   0  0  0  0  0  0  0  0  0  0  0  0
    1.5509   -2.9732   -2.2247 H   0  0  0  0  0  0  0  0  0  0  0  0
    0.8557   -1.5824   -3.0434 H   0  0  0  0  0  0  0  0  0  0  0  0
   -0.1864    1.9242    0.5646 C   0  0  0  0  0  0  0  0  0  0  0  0
    0.3302    2.7218   -0.2080 O   0  0  0  0  0  0  0  0  0  0  0  0
   -1.0516    2.4023    1.5315 N   0  0  0  0  0  0  0  0  0  0  0  0
   -1.4338    1.7186    2.1805 H   0  0  0  0  0  0  0  0  0  0  0  0
   -1.2960    3.8200    1.7680 C   0  0  0  0  0  0  0  0  0  0  0  0
   -1.7089    4.2935    0.8711 H   0  0  0  0  0  0  0  0  0  0  0  0
   -2.0108    3.9491    2.5864 H   0  0  0  0  0  0  0  0  0  0  0  0
   -0.3647    4.3288    2.0383 H   0  0  0  0  0  0  0  0  0  0  0  0
  1  2  1  0  0  0  0
  2  3  1  0  0  0  0
  2  4  1  0  0  0  0
  2  5  1  0  0  0  0
  5  6  2  0  0  0  0
  5  7  1  0  0  0  0
  7  8  1  0  0  0  0
  7  9  1  0  0  0  0
  9 10  1  0  0  0  0
  9 11  1  0  0  0  0
  9 19  1  0  0  0  0
 11 12  1  0  0  0  0
 11 13  1  0  0  0  0
 11 14  1  0  0  0  0
 14 15  2  0  0  0  0
 14 16  1  0  0  0  0
 16 17  1  0  0  0  0
 16 18  1  0  0  0  0
 19 20  2  0  0  0  0
 19 21  1  0  0  0  0
 21 22  1  0  0  0  0
 21 23  1  0  0  0  0
 23 24  1  0  0  0  0
 23 25  1  0  0  0  0
 23 26  1  0  0  0  0
M  END
$$$$

  -OEChem-01062216063D

 26 25  0     1  0  0  0  0  0999 V2000
   -2.7675   -3.2933    1.0428 H   0  0  0  0  0  0  0  0  0  0  0  0
   -2.7731   -2.2972    0.5907 C   0  0  0  0  0  0  0  0  0  0  0  0
   -3.6542   -1.7551    0.9424 H   0  0  0  0  0  0  0  0  0  0  0  0
   -2.8279   -2.4059   -0.4950 H   0  0  0  0  0  0  0  0  0  0  0  0
   -1.5123   -1.5450    0.9730 C   0  0  0  0  0  0  0  0  0  0  0  0
   -0.7531   -2.0143    1.8008 O   0  0  0  0  0  0  0  0  0  0  0  0
   -1.2964   -0.2721    0.4829 N   0  0  0  0  0  0  0  0  0  0  0  0
   -1.9963    0.0667   -0.1720 H   0  0  0  0  0  0  0  0  0  0  0  0
    0.0237    0.3856    0.4378 C   0  0  1  0  0  0  0  0  0  0  0  0
    0.6527    0.0529    1.2726 H   0  0  0  0  0  0  0  0  0  0  0  0
    0.7347    0.0509   -0.8978 C   0  0  0  0  0  0  0  0  0  0  0  0
    0.0678    0.2925   -1.7295 H   0  0  0  0  0  0  0  0  0  0  0  0
    1.6247    0.6791   -0.9977 H   0  0  0  0  0  0  0  0  0  0  0  0
    1.1993   -1.3907   -1.0348 C   0  0  0  0  0  0  0  0  0  0  0  0
    1.7264   -2.0015   -0.1280 O   0  0  0  0  0  0  0  0  0  0  0  0
    1.0611   -2.0766   -2.2081 N   0  0  0  0  0  0  0  0  0  0  0  0
    1.5676   -2.9563   -2.2569 H   0  0  0  0  0  0  0  0  0  0  0  0
    0.8729   -1.5531   -3.0563 H   0  0  0  0  0  0  0  0  0  0  0  0
   -0.1675    1.9125    0.5799 C   0  0  0  0  0  0  0  0  0  0  0  0
    0.1168    2.6915   -0.3219 O   0  0  0  0  0  0  0  0  0  0  0  0
   -0.7692    2.4051    1.7225 N   0  0  0  0  0  0  0  0  0  0  0  0
   -1.0099    1.7310    2.4453 H   0  0  0  0  0  0  0  0  0  0  0  0
   -1.0218    3.8213    1.9579 C   0  0  0  0  0  0  0  0  0  0  0  0
   -1.6939    4.2232    1.1925 H   0  0  0  0  0  0  0  0  0  0  0  0
   -1.4884    3.9648    2.9373 H   0  0  0  0  0  0  0  0  0  0  0  0
   -0.0840    4.3864    1.9359 H   0  0  0  0  0  0  0  0  0  0  0  0
  1  2  1  0  0  0  0
  2  3  1  0  0  0  0
  2  4  1  0  0  0  0
  2  5  1  0  0  0  0
  5  6  2  0  0  0  0
  5  7  1  0  0  0  0
  7  8  1  0  0  0  0
  7  9  1  0  0  0  0
  9 10  1  0  0  0  0
  9 11  1  0  0  0  0
  9 19  1  0  0  0  0
 11 12  1  0  0  0  0
 11 13  1  0  0  0  0
 11 14  1  0  0  0  0
 14 15  2  0  0  0  0
 14 16  1  0  0  0  0
 16 17  1  0  0  0  0
 16 18  1  0  0  0  0
 19 20  2  0  0  0  0
 19 21  1  0  0  0  0
 21 22  1  0  0  0  0
 21 23  1  0  0  0  0
 23 24  1  0  0  0  0
 23 25  1  0  0  0  0
 23 26  1  0  0  0  0
M  END
$$$$

  -OEChem-01062216063D

 26 25  0     1  0  0  0  0  0999 V2000
   -2.7784   -3.2876    1.0127 H   0  0  0  0  0  0  0  0  0  0  0  0
   -2.7922   -2.2743    0.6010 C   0  0  0  0  0  0  0  0  0  0  0  0
   -3.6564   -1.7406    1.0035 H   0  0  0  0  0  0  0  0  0  0  0  0
   -2.8844   -2.3395   -0.4856 H   0  0  0  0  0  0  0  0  0  0  0  0
   -1.5143   -1.5453    0.9704 C   0  0  0  0  0  0  0  0  0  0  0  0
   -0.7487   -2.0357    1.7804 O   0  0  0  0  0  0  0  0  0  0  0  0
   -1.2850   -0.2732    0.4851 N   0  0  0  0  0  0  0  0  0  0  0  0
   -1.9896    0.0879   -0.1531 H   0  0  0  0  0  0  0  0  0  0  0  0
    0.0371    0.3772    0.4456 C   0  0  1  0  0  0  0  0  0  0  0  0
    0.6634    0.0353    1.2787 H   0  0  0  0  0  0  0  0  0  0  0  0
    0.7491    0.0511   -0.8906 C   0  0  0  0  0  0  0  0  0  0  0  0
    0.0830    0.2984   -1.7217 H   0  0  0  0  0  0  0  0  0  0  0  0
    1.6384    0.6810   -0.9851 H   0  0  0  0  0  0  0  0  0  0  0  0
    1.2078   -1.3912   -1.0378 C   0  0  0  0  0  0  0  0  0  0  0  0
    1.7304   -2.0100   -0.1337 O   0  0  0  0  0  0  0  0  0  0  0  0
    1.0670   -2.0686   -2.2155 N   0  0  0  0  0  0  0  0  0  0  0  0
    1.5659   -2.9522   -2.2708 H   0  0  0  0  0  0  0  0  0  0  0  0
    0.8744   -1.5408   -3.0599 H   0  0  0  0  0  0  0  0  0  0  0  0
   -0.1453    1.9032    0.5900 C   0  0  0  0  0  0  0  0  0  0  0  0
   -0.1184    2.6480   -0.3827 O   0  0  0  0  0  0  0  0  0  0  0  0
   -0.4500    2.4292    1.8310 N   0  0  0  0  0  0  0  0  0  0  0  0
   -0.5271    1.7756    2.6066 H   0  0  0  0  0  0  0  0  0  0  0  0
   -0.7088    3.8443    2.0668 C   0  0  0  0  0  0  0  0  0  0  0  0
   -1.5801    4.1760    1.4924 H   0  0  0  0  0  0  0  0  0  0  0  0
   -0.9065    4.0204    3.1286 H   0  0  0  0  0  0  0  0  0  0  0  0
    0.1574    4.4465    1.7729 H   0  0  0  0  0  0  0  0  0  0  0  0
  1  2  1  0  0  0  0
  2  3  1  0  0  0  0
  2  4  1  0  0  0  0
  2  5  1  0  0  0  0
  5  6  2  0  0  0  0
  5  7  1  0  0  0  0
  7  8  1  0  0  0  0
  7  9  1  0  0  0  0
  9 10  1  0  0  0  0
  9 11  1  0  0  0  0
  9 19  1  0  0  0  0
 11 12  1  0  0  0  0
 11 13  1  0  0  0  0
 11 14  1  0  0  0  0
 14 15  2  0  0  0  0
 14 16  1  0  0  0  0
 16 17  1  0  0  0  0
 16 18  1  0  0  0  0
 19 20  2  0  0  0  0
 19 21  1  0  0  0  0
 21 22  1  0  0  0  0
 21 23  1  0  0  0  0
 23 24  1  0  0  0  0
 23 25  1  0  0  0  0
 23 26  1  0  0  0  0
M  END
$$$$

  -OEChem-01062216063D

 26 25  0     1  0  0  0  0  0999 V2000
   -2.8170   -3.2652    1.0458 H   0  0  0  0  0  0  0  0  0  0  0  0
   -2.8081   -2.2615    0.6110 C   0  0  0  0  0  0  0  0  0  0  0  0
   -3.6617   -1.7009    0.9995 H   0  0  0  0  0  0  0  0  0  0  0  0
   -2.9002   -2.3493   -0.4741 H   0  0  0  0  0  0  0  0  0  0  0  0
   -1.5152   -1.5515    0.9662 C   0  0  0  0  0  0  0  0  0  0  0  0
   -0.7417   -2.0610    1.7567 O   0  0  0  0  0  0  0  0  0  0  0  0
   -1.2751   -0.2802    0.4839 N   0  0  0  0  0  0  0  0  0  0  0  0
   -1.9853    0.1029   -0.1353 H   0  0  0  0  0  0  0  0  0  0  0  0
    0.0468    0.3689    0.4535 C   0  0  1  0  0  0  0  0  0  0  0  0
    0.6701    0.0192    1.2854 H   0  0  0  0  0  0  0  0  0  0  0  0
    0.7614    0.0558   -0.8833 C   0  0  0  0  0  0  0  0  0  0  0  0
    0.0955    0.3082   -1.7130 H   0  0  0  0  0  0  0  0  0  0  0  0
    1.6486    0.6895   -0.9710 H   0  0  0  0  0  0  0  0  0  0  0  0
    1.2203   -1.3852   -1.0436 C   0  0  0  0  0  0  0  0  0  0  0  0
    1.7408   -2.0117   -0.1435 O   0  0  0  0  0  0  0  0  0  0  0  0
    1.0707   -2.0557   -2.2242 N   0  0  0  0  0  0  0  0  0  0  0  0
    1.5573   -2.9454   -2.2874 H   0  0  0  0  0  0  0  0  0  0  0  0
    0.8612   -1.5279   -3.0644 H   0  0  0  0  0  0  0  0  0  0  0  0
   -0.1294    1.8943    0.5957 C   0  0  0  0  0  0  0  0  0  0  0  0
   -0.3553    2.5958   -0.3835 O   0  0  0  0  0  0  0  0  0  0  0  0
   -0.1288    2.4675    1.8532 N   0  0  0  0  0  0  0  0  0  0  0  0
   -0.0234    1.8443    2.6500 H   0  0  0  0  0  0  0  0  0  0  0  0
   -0.3718    3.8849    2.0912 C   0  0  0  0  0  0  0  0  0  0  0  0
   -1.3774    4.1625    1.7585 H   0  0  0  0  0  0  0  0  0  0  0  0
   -0.2858    4.1088    3.1589 H   0  0  0  0  0  0  0  0  0  0  0  0
    0.3596    4.4953    1.5509 H   0  0  0  0  0  0  0  0  0  0  0  0
  1  2  1  0  0  0  0
  2  3  1  0  0  0  0
  2  4  1  0  0  0  0
  2  5  1  0  0  0  0
  5  6  2  0  0  0  0
  5  7  1  0  0  0  0
  7  8  1  0  0  0  0
  7  9  1  0  0  0  0
  9 10  1  0  0  0  0
  9 11  1  0  0  0  0
  9 19  1  0  0  0  0
 11 12  1  0  0  0  0
 11 13  1  0  0  0  0
 11 14  1  0  0  0  0
 14 15  2  0  0  0  0
 14 16  1  0  0  0  0
 16 17  1  0  0  0  0
 16 18  1  0  0  0  0
 19 20  2  0  0  0  0
 19 21  1  0  0  0  0
 21 22  1  0  0  0  0
 21 23  1  0  0  0  0
 23 24  1  0  0  0  0
 23 25  1  0  0  0  0
 23 26  1  0  0  0  0
M  END
$$$$

  -OEChem-01062216063D

 26 25  0     1  0  0  0  0  0999 V2000
   -2.8422   -3.2497    1.0002 H   0  0  0  0  0  0  0  0  0  0  0  0
   -2.8284   -2.2259    0.6154 C   0  0  0  0  0  0  0  0  0  0  0  0
   -3.6338   -1.6596    1.0892 H   0  0  0  0  0  0  0  0  0  0  0  0
   -2.9970   -2.2546   -0.4635 H   0  0  0  0  0  0  0  0  0  0  0  0
   -1.4915   -1.5742    0.9153 C   0  0  0  0  0  0  0  0  0  0  0  0
   -0.6936   -2.1384    1.6410 O   0  0  0  0  0  0  0  0  0  0  0  0
   -1.2326   -0.3015    0.4487 N   0  0  0  0  0  0  0  0  0  0  0  0
   -1.9668    0.1372   -0.1030 H   0  0  0  0  0  0  0  0  0  0  0  0
    0.0822    0.3618    0.4453 C   0  0  1  0  0  0  0  0  0  0  0  0
    0.6905    0.0086    1.2867 H   0  0  0  0  0  0  0  0  0  0  0  0
    0.8306    0.0798   -0.8785 C   0  0  0  0  0  0  0  0  0  0  0  0
    0.1790    0.3351   -1.7186 H   0  0  0  0  0  0  0  0  0  0  0  0
    1.7091    0.7283   -0.9386 H   0  0  0  0  0  0  0  0  0  0  0  0
    1.3163   -1.3512   -1.0513 C   0  0  0  0  0  0  0  0  0  0  0  0
    1.8274   -1.9808   -0.1478 O   0  0  0  0  0  0  0  0  0  0  0  0
    1.1883   -2.0155   -2.2380 N   0  0  0  0  0  0  0  0  0  0  0  0
    1.3873   -3.0118   -2.2155 H   0  0  0  0  0  0  0  0  0  0  0  0
    0.6139   -1.6190   -2.9734 H   0  0  0  0  0  0  0  0  0  0  0  0
   -0.1121    1.8831    0.5894 C   0  0  0  0  0  0  0  0  0  0  0  0
   -0.5922    2.5316   -0.3331 O   0  0  0  0  0  0  0  0  0  0  0  0
    0.1618    2.5090    1.7907 N   0  0  0  0  0  0  0  0  0  0  0  0
    0.4872    1.9284    2.5595 H   0  0  0  0  0  0  0  0  0  0  0  0
   -0.0749    3.9276    2.0284 C   0  0  0  0  0  0  0  0  0  0  0  0
   -1.1392    4.1623    1.9207 H   0  0  0  0  0  0  0  0  0  0  0  0
    0.2385    4.1989    3.0411 H   0  0  0  0  0  0  0  0  0  0  0  0
    0.4943    4.5351    1.3168 H   0  0  0  0  0  0  0  0  0  0  0  0
  1  2  1  0  0  0  0
  2  3  1  0  0  0  0
  2  4  1  0  0  0  0
  2  5  1  0  0  0  0
  5  6  2  0  0  0  0
  5  7  1  0  0  0  0
  7  8  1  0  0  0  0
  7  9  1  0  0  0  0
  9 10  1  0  0  0  0
  9 11  1  0  0  0  0
  9 19  1  0  0  0  0
 11 12  1  0  0  0  0
 11 13  1  0  0  0  0
 11 14  1  0  0  0  0
 14 15  2  0  0  0  0
 14 16  1  0  0  0  0
 16 17  1  0  0  0  0
 16 18  1  0  0  0  0
 19 20  2  0  0  0  0
 19 21  1  0  0  0  0
 21 22  1  0  0  0  0
 21 23  1  0  0  0  0
 23 24  1  0  0  0  0
 23 25  1  0  0  0  0
 23 26  1  0  0  0  0
M  END
$$$$

  -OEChem-01062216063D

 26 25  0     1  0  0  0  0  0999 V2000
   -2.8636   -3.2434    1.0103 H   0  0  0  0  0  0  0  0  0  0  0  0
   -2.8467   -2.2157    0.6365 C   0  0  0  0  0  0  0  0  0  0  0  0
   -3.6339   -1.6454    1.1355 H   0  0  0  0  0  0  0  0  0  0  0  0
   -3.0414   -2.2299   -0.4383 H   0  0  0  0  0  0  0  0  0  0  0  0
   -1.4952   -1.5832    0.9114 C   0  0  0  0  0  0  0  0  0  0  0  0
   -0.6886   -2.1638    1.6142 O   0  0  0  0  0  0  0  0  0  0  0  0
   -1.2284   -0.3132    0.4421 N   0  0  0  0  0  0  0  0  0  0  0  0
   -1.9731    0.1500   -0.0754 H   0  0  0  0  0  0  0  0  0  0  0  0
    0.0847    0.3527    0.4470 C   0  0  1  0  0  0  0  0  0  0  0  0
    0.6871   -0.0005    1.2926 H   0  0  0  0  0  0  0  0  0  0  0  0
    0.8380    0.0817   -0.8748 C   0  0  0  0  0  0  0  0  0  0  0  0
    0.1887    0.3429   -1.7148 H   0  0  0  0  0  0  0  0  0  0  0  0
    1.7159    0.7318   -0.9266 H   0  0  0  0  0  0  0  0  0  0  0  0
    1.3279   -1.3470   -1.0559 C   0  0  0  0  0  0  0  0  0  0  0  0
    1.8372   -1.9809   -0.1545 O   0  0  0  0  0  0  0  0  0  0  0  0
    1.2066   -2.0023   -2.2483 N   0  0  0  0  0  0  0  0  0  0  0  0
    1.3954   -3.0006   -2.2265 H   0  0  0  0  0  0  0  0  0  0  0  0
    0.6243   -1.6044   -2.9767 H   0  0  0  0  0  0  0  0  0  0  0  0
   -0.1087    1.8743    0.5809 C   0  0  0  0  0  0  0  0  0  0  0  0
   -0.7917    2.4750   -0.2409 O   0  0  0  0  0  0  0  0  0  0  0  0
    0.4340    2.5591    1.6518 N   0  0  0  0  0  0  0  0  0  0  0  0
    0.9398    2.0182    2.3487 H   0  0  0  0  0  0  0  0  0  0  0  0
    0.2340    3.9857    1.8749 C   0  0  0  0  0  0  0  0  0  0  0  0
   -0.8294    4.2067    2.0137 H   0  0  0  0  0  0  0  0  0  0  0  0
    0.7744    4.3075    2.7704 H   0  0  0  0  0  0  0  0  0  0  0  0
    0.6054    4.5633    1.0218 H   0  0  0  0  0  0  0  0  0  0  0  0
  1  2  1  0  0  0  0
  2  3  1  0  0  0  0
  2  4  1  0  0  0  0
  2  5  1  0  0  0  0
  5  6  2  0  0  0  0
  5  7  1  0  0  0  0
  7  8  1  0  0  0  0
  7  9  1  0  0  0  0
  9 10  1  0  0  0  0
  9 11  1  0  0  0  0
  9 19  1  0  0  0  0
 11 12  1  0  0  0  0
 11 13  1  0  0  0  0
 11 14  1  0  0  0  0
 14 15  2  0  0  0  0
 14 16  1  0  0  0  0
 16 17  1  0  0  0  0
 16 18  1  0  0  0  0
 19 20  2  0  0  0  0
 19 21  1  0  0  0  0
 21 22  1  0  0  0  0
 21 23  1  0  0  0  0
 23 24  1  0  0  0  0
 23 25  1  0  0  0  0
 23 26  1  0  0  0  0
M  END
$$$$

  -OEChem-01062216063D

 26 25  0     1  0  0  0  0  0999 V2000
   -2.9027   -3.2262    1.0407 H   0  0  0  0  0  0  0  0  0  0  0  0
   -2.8736   -2.1986    0.6673 C   0  0  0  0  0  0  0  0  0  0  0  0
   -3.6248   -1.6086    1.1978 H   0  0  0  0  0  0  0  0  0  0  0  0
   -3.1110   -2.2055   -0.3991 H   0  0  0  0  0  0  0  0  0  0  0  0
   -1.4966   -1.6014    0.8891 C   0  0  0  0  0  0  0  0  0  0  0  0
   -0.6732   -2.2116    1.5457 O   0  0  0  0  0  0  0  0  0  0  0  0
   -1.2240   -0.3314    0.4240 N   0  0  0  0  0  0  0  0  0  0  0  0
   -1.9888    0.1682   -0.0272 H   0  0  0  0  0  0  0  0  0  0  0  0
    0.0833    0.3461    0.4404 C   0  0  1  0  0  0  0  0  0  0  0  0
    0.6783   -0.0045    1.2920 H   0  0  0  0  0  0  0  0  0  0  0  0
    0.8476    0.0869   -0.8766 C   0  0  0  0  0  0  0  0  0  0  0  0
    0.1998    0.3452   -1.7187 H   0  0  0  0  0  0  0  0  0  0  0  0
    1.7200    0.7450   -0.9218 H   0  0  0  0  0  0  0  0  0  0  0  0
    1.3530   -1.3360   -1.0610 C   0  0  0  0  0  0  0  0  0  0  0  0
    1.8631   -1.9670   -0.1581 O   0  0  0  0  0  0  0  0  0  0  0  0
    1.2413   -1.9909   -2.2544 N   0  0  0  0  0  0  0  0  0  0  0  0
    1.4283   -2.9893   -2.2253 H   0  0  0  0  0  0  0  0  0  0  0  0
    0.6421   -1.6036   -2.9746 H   0  0  0  0  0  0  0  0  0  0  0  0
   -0.1161    1.8673    0.5696 C   0  0  0  0  0  0  0  0  0  0  0  0
   -0.9710    2.4276   -0.1076 O   0  0  0  0  0  0  0  0  0  0  0  0
    0.6530    2.6036    1.4509 N   0  0  0  0  0  0  0  0  0  0  0  0
    1.3229    2.1000    2.0267 H   0  0  0  0  0  0  0  0  0  0  0  0
    0.4934    4.0391    1.6474 C   0  0  0  0  0  0  0  0  0  0  0  0
   -0.5121    4.2661    2.0169 H   0  0  0  0  0  0  0  0  0  0  0  0
    1.2212    4.4035    2.3788 H   0  0  0  0  0  0  0  0  0  0  0  0
    0.6529    4.5750    0.7058 H   0  0  0  0  0  0  0  0  0  0  0  0
  1  2  1  0  0  0  0
  2  3  1  0  0  0  0
  2  4  1  0  0  0  0
  2  5  1  0  0  0  0
  5  6  2  0  0  0  0
  5  7  1  0  0  0  0
  7  8  1  0  0  0  0
  7  9  1  0  0  0  0
  9 10  1  0  0  0  0
  9 11  1  0  0  0  0
  9 19  1  0  0  0  0
 11 12  1  0  0  0  0
 11 13  1  0  0  0  0
 11 14  1  0  0  0  0
 14 15  2  0  0  0  0
 14 16  1  0  0  0  0
 16 17  1  0  0  0  0
 16 18  1  0  0  0  0
 19 20  2  0  0  0  0
 19 21  1  0  0  0  0
 21 22  1  0  0  0  0
 21 23  1  0  0  0  0
 23 24  1  0  0  0  0
 23 25  1  0  0  0  0
 23 26  1  0  0  0  0
M  END
$$$$

  -OEChem-01062216063D

 26 25  0     1  0  0  0  0  0999 V2000
   -2.9265   -3.2145    1.0608 H   0  0  0  0  0  0  0  0  0  0  0  0
   -2.8905   -2.1865    0.6893 C   0  0  0  0  0  0  0  0  0  0  0  0
   -3.6154   -1.5855    1.2438 H   0  0  0  0  0  0  0  0  0  0  0  0
   -3.1596   -2.1858   -0.3696 H   0  0  0  0  0  0  0  0  0  0  0  0
   -1.4970   -1.6142    0.8708 C   0  0  0  0  0  0  0  0  0  0  0  0
   -0.6621   -2.2471    1.4898 O   0  0  0  0  0  0  0  0  0  0  0  0
   -1.2209   -0.3439    0.4089 N   0  0  0  0  0  0  0  0  0  0  0  0
   -2.0016    0.1854    0.0223 H   0  0  0  0  0  0  0  0  0  0  0  0
    0.0815    0.3432    0.4362 C   0  0  1  0  0  0  0  0  0  0  0  0
    0.6705   -0.0040    1.2936 H   0  0  0  0  0  0  0  0  0  0  0  0
    0.8534    0.0899   -0.8776 C   0  0  0  0  0  0  0  0  0  0  0  0
    0.2062    0.3449   -1.7211 H   0  0  0  0  0  0  0  0  0  0  0  0
    1.7218    0.7529   -0.9201 H   0  0  0  0  0  0  0  0  0  0  0  0
    1.3705   -1.3286   -1.0643 C   0  0  0  0  0  0  0  0  0  0  0  0
    1.8823   -1.9575   -0.1610 O   0  0  0  0  0  0  0  0  0  0  0  0
    1.2650   -1.9827   -2.2585 N   0  0  0  0  0  0  0  0  0  0  0  0
    1.4555   -2.9805   -2.2256 H   0  0  0  0  0  0  0  0  0  0  0  0
    0.6510   -1.6048   -2.9713 H   0  0  0  0  0  0  0  0  0  0  0  0
   -0.1223    1.8650    0.5612 C   0  0  0  0  0  0  0  0  0  0  0  0
   -1.1112    2.3912    0.0620 O   0  0  0  0  0  0  0  0  0  0  0  0
    0.8202    2.6479    1.2012 N   0  0  0  0  0  0  0  0  0  0  0  0
    1.6109    2.1766    1.6330 H   0  0  0  0  0  0  0  0  0  0  0  0
    0.6885    4.0912    1.3579 C   0  0  0  0  0  0  0  0  0  0  0  0
   -0.2039    4.3333    1.9447 H   0  0  0  0  0  0  0  0  0  0  0  0
    1.5633    4.4965    1.8753 H   0  0  0  0  0  0  0  0  0  0  0  0
    0.6103    4.5774    0.3798 H   0  0  0  0  0  0  0  0  0  0  0  0
  1  2  1  0  0  0  0
  2  3  1  0  0  0  0
  2  4  1  0  0  0  0
  2  5  1  0  0  0  0
  5  6  2  0  0  0  0
  5  7  1  0  0  0  0
  7  8  1  0  0  0  0
  7  9  1  0  0  0  0
  9 10  1  0  0  0  0
  9 11  1  0  0  0  0
  9 19  1  0  0  0  0
 11 12  1  0  0  0  0
 11 13  1  0  0  0  0
 11 14  1  0  0  0  0
 14 15  2  0  0  0  0
 14 16  1  0  0  0  0
 16 17  1  0  0  0  0
 16 18  1  0  0  0  0
 19 20  2  0  0  0  0
 19 21  1  0  0  0  0
 21 22  1  0  0  0  0
 21 23  1  0  0  0  0
 23 24  1  0  0  0  0
 23 25  1  0  0  0  0
 23 26  1  0  0  0  0
M  END
$$$$

  -OEChem-01062216063D

 26 25  0     1  0  0  0  0  0999 V2000
   -2.9433   -3.1979    1.0836 H   0  0  0  0  0  0  0  0  0  0  0  0
   -2.9014   -2.1706    0.7109 C   0  0  0  0  0  0  0  0  0  0  0  0
   -3.5968   -1.5571    1.2888 H   0  0  0  0  0  0  0  0  0  0  0  0
   -3.2057   -2.1647   -0.3383 H   0  0  0  0  0  0  0  0  0  0  0  0
   -1.4930   -1.6224    0.8462 C   0  0  0  0  0  0  0  0  0  0  0  0
   -0.6472   -2.2763    1.4268 O   0  0  0  0  0  0  0  0  0  0  0  0
   -1.2162   -0.3512    0.3874 N   0  0  0  0  0  0  0  0  0  0  0  0
   -2.0110    0.2032    0.0704 H   0  0  0  0  0  0  0  0  0  0  0  0
    0.0820    0.3450    0.4254 C   0  0  1  0  0  0  0  0  0  0  0  0
    0.6672    0.0032    1.2875 H   0  0  0  0  0  0  0  0  0  0  0  0
    0.8594    0.0874   -0.8866 C   0  0  0  0  0  0  0  0  0  0  0  0
    0.2117    0.3348   -1.7320 H   0  0  0  0  0  0  0  0  0  0  0  0
    1.7258    0.7523   -0.9343 H   0  0  0  0  0  0  0  0  0  0  0  0
    1.3845   -1.3291   -1.0683 C   0  0  0  0  0  0  0  0  0  0  0  0
    1.8979   -1.9515   -0.1616 O   0  0  0  0  0  0  0  0  0  0  0  0
    1.2850   -1.9886   -2.2601 N   0  0  0  0  0  0  0  0  0  0  0  0
    1.4759   -2.9859   -2.2183 H   0  0  0  0  0  0  0  0  0  0  0  0
    0.6612   -1.6214   -2.9698 H   0  0  0  0  0  0  0  0  0  0  0  0
   -0.1279    1.8684    0.5477 C   0  0  0  0  0  0  0  0  0  0  0  0
   -1.2110    2.3656    0.2578 O   0  0  0  0  0  0  0  0  0  0  0  0
    0.9224    2.6919    0.9098 N   0  0  0  0  0  0  0  0  0  0  0  0
    1.7958    2.2485    1.1820 H   0  0  0  0  0  0  0  0  0  0  0  0
    0.7975    4.1388    1.0375 C   0  0  0  0  0  0  0  0  0  0  0  0
    0.0644    4.3938    1.8099 H   0  0  0  0  0  0  0  0  0  0  0  0
    1.7603    4.5781    1.3157 H   0  0  0  0  0  0  0  0  0  0  0  0
    0.4781    4.5816    0.0882 H   0  0  0  0  0  0  0  0  0  0  0  0
  1  2  1  0  0  0  0
  2  3  1  0  0  0  0
  2  4  1  0  0  0  0
  2  5  1  0  0  0  0
  5  6  2  0  0  0  0
  5  7  1  0  0  0  0
  7  8  1  0  0  0  0
  7  9  1  0  0  0  0
  9 10  1  0  0  0  0
  9 11  1  0  0  0  0
  9 19  1  0  0  0  0
 11 12  1  0  0  0  0
 11 13  1  0  0  0  0
 11 14  1  0  0  0  0
 14 15  2  0  0  0  0
 14 16  1  0  0  0  0
 16 17  1  0  0  0  0
 16 18  1  0  0  0  0
 19 20  2  0  0  0  0
 19 21  1  0  0  0  0
 21 22  1  0  0  0  0
 21 23  1  0  0  0  0
 23 24  1  0  0  0  0
 23 25  1  0  0  0  0
 23 26  1  0  0  0  0
M  END
$$$$

  -OEChem-01062216063D

 26 25  0     1  0  0  0  0  0999 V2000
   -2.9116   -3.1674    1.1307 H   0  0  0  0  0  0  0  0  0  0  0  0
   -2.8870   -2.1430    0.7484 C   0  0  0  0  0  0  0  0  0  0  0  0
   -3.5102   -1.5131    1.3881 H   0  0  0  0  0  0  0  0  0  0  0  0
   -3.2928   -2.1361   -0.2659 H   0  0  0  0  0  0  0  0  0  0  0  0
   -1.4620   -1.6219    0.7406 C   0  0  0  0  0  0  0  0  0  0  0  0
   -0.5670   -2.3120    1.1946 O   0  0  0  0  0  0  0  0  0  0  0  0
   -1.2128   -0.3418    0.2877 N   0  0  0  0  0  0  0  0  0  0  0  0
   -2.0302    0.2563    0.1729 H   0  0  0  0  0  0  0  0  0  0  0  0
    0.0851    0.3507    0.3696 C   0  0  1  0  0  0  0  0  0  0  0  0
    0.7610   -0.1625    1.0645 H   0  0  0  0  0  0  0  0  0  0  0  0
    0.6999    0.3878   -1.0478 C   0  0  0  0  0  0  0  0  0  0  0  0
   -0.0345    0.8026   -1.7434 H   0  0  0  0  0  0  0  0  0  0  0  0
    1.5711    1.0473   -1.0587 H   0  0  0  0  0  0  0  0  0  0  0  0
    1.1685   -0.9648   -1.5648 C   0  0  0  0  0  0  0  0  0  0  0  0
    1.7649   -1.7576   -0.8653 O   0  0  0  0  0  0  0  0  0  0  0  0
    0.9282   -1.3681   -2.8474 N   0  0  0  0  0  0  0  0  0  0  0  0
    1.1035   -2.3521   -3.0319 H   0  0  0  0  0  0  0  0  0  0  0  0
    0.2430   -0.8628   -3.3980 H   0  0  0  0  0  0  0  0  0  0  0  0
   -0.1007    1.8011    0.8688 C   0  0  0  0  0  0  0  0  0  0  0  0
   -1.2279    2.2579    1.0273 O   0  0  0  0  0  0  0  0  0  0  0  0
    0.9899    2.6382    1.0245 N   0  0  0  0  0  0  0  0  0  0  0  0
    1.9141    2.2235    0.9407 H   0  0  0  0  0  0  0  0  0  0  0  0
    0.8798    4.0176    1.4840 C   0  0  0  0  0  0  0  0  0  0  0  0
    0.4528    4.0519    2.4918 H   0  0  0  0  0  0  0  0  0  0  0  0
    1.8677    4.4875    1.5101 H   0  0  0  0  0  0  0  0  0  0  0  0
    0.2407    4.5978    0.8101 H   0  0  0  0  0  0  0  0  0  0  0  0
  1  2  1  0  0  0  0
  2  3  1  0  0  0  0
  2  4  1  0  0  0  0
  2  5  1  0  0  0  0
  5  6  2  0  0  0  0
  5  7  1  0  0  0  0
  7  8  1  0  0  0  0
  7  9  1  0  0  0  0
  9 10  1  0  0  0  0
  9 11  1  0  0  0  0
  9 19  1  0  0  0  0
 11 12  1  0  0  0  0
 11 13  1  0  0  0  0
 11 14  1  0  0  0  0
 14 15  2  0  0  0  0
 14 16  1  0  0  0  0
 16 17  1  0  0  0  0
 16 18  1  0  0  0  0
 19 20  2  0  0  0  0
 19 21  1  0  0  0  0
 21 22  1  0  0  0  0
 21 23  1  0  0  0  0
 23 24  1  0  0  0  0
 23 25  1  0  0  0  0
 23 26  1  0  0  0  0
M  END
$$$$

  -OEChem-01062216063D

 26 25  0     1  0  0  0  0  0999 V2000
   -2.9084   -3.1494    1.1432 H   0  0  0  0  0  0  0  0  0  0  0  0
   -2.8832   -2.1267    0.7566 C   0  0  0  0  0  0  0  0  0  0  0  0
   -3.4891   -1.4898    1.4058 H   0  0  0  0  0  0  0  0  0  0  0  0
   -3.3083   -2.1202   -0.2497 H   0  0  0  0  0  0  0  0  0  0  0  0
   -1.4547   -1.6170    0.7193 C   0  0  0  0  0  0  0  0  0  0  0  0
   -0.5557   -2.3213    1.1418 O   0  0  0  0  0  0  0  0  0  0  0  0
   -1.2075   -0.3349    0.2705 N   0  0  0  0  0  0  0  0  0  0  0  0
   -2.0254    0.2703    0.2094 H   0  0  0  0  0  0  0  0  0  0  0  0
    0.0923    0.3551    0.3566 C   0  0  1  0  0  0  0  0  0  0  0  0
    0.7661   -0.1569    1.0547 H   0  0  0  0  0  0  0  0  0  0  0  0
    0.7074    0.3748   -1.0640 C   0  0  0  0  0  0  0  0  0  0  0  0
   -0.0243    0.7875   -1.7635 H   0  0  0  0  0  0  0  0  0  0  0  0
    1.5847    1.0248   -1.0846 H   0  0  0  0  0  0  0  0  0  0  0  0
    1.1716   -0.9836   -1.5709 C   0  0  0  0  0  0  0  0  0  0  0  0
    1.7665   -1.7730   -0.8668 O   0  0  0  0  0  0  0  0  0  0  0  0
    0.9247   -1.3981   -2.8486 N   0  0  0  0  0  0  0  0  0  0  0  0
    1.0948   -2.3851   -3.0217 H   0  0  0  0  0  0  0  0  0  0  0  0
    0.2331   -0.9000   -3.3974 H   0  0  0  0  0  0  0  0  0  0  0  0
   -0.1014    1.8055    0.8634 C   0  0  0  0  0  0  0  0  0  0  0  0
   -1.2049    2.1754    1.2502 O   0  0  0  0  0  0  0  0  0  0  0  0
    0.9051    2.7488    0.7461 N   0  0  0  0  0  0  0  0  0  0  0  0
    1.8283    2.4154    0.4835 H   0  0  0  0  0  0  0  0  0  0  0  0
    0.7608    4.1321    1.1853 C   0  0  0  0  0  0  0  0  0  0  0  0
    0.5725    4.1743    2.2632 H   0  0  0  0  0  0  0  0  0  0  0  0
    1.6747    4.6942    0.9707 H   0  0  0  0  0  0  0  0  0  0  0  0
   -0.0712    4.6160    0.6628 H   0  0  0  0  0  0  0  0  0  0  0  0
  1  2  1  0  0  0  0
  2  3  1  0  0  0  0
  2  4  1  0  0  0  0
  2  5  1  0  0  0  0
  5  6  2  0  0  0  0
  5  7  1  0  0  0  0
  7  8  1  0  0  0  0
  7  9  1  0  0  0  0
  9 10  1  0  0  0  0
  9 11  1  0  0  0  0
  9 19  1  0  0  0  0
 11 12  1  0  0  0  0
 11 13  1  0  0  0  0
 11 14  1  0  0  0  0
 14 15  2  0  0  0  0
 14 16  1  0  0  0  0
 16 17  1  0  0  0  0
 16 18  1  0  0  0  0
 19 20  2  0  0  0  0
 19 21  1  0  0  0  0
 21 22  1  0  0  0  0
 21 23  1  0  0  0  0
 23 24  1  0  0  0  0
 23 25  1  0  0  0  0
 23 26  1  0  0  0  0
M  END
$$$$

  -OEChem-01062216063D

 26 25  0     1  0  0  0  0  0999 V2000
   -2.9067   -3.1311    1.1607 H   0  0  0  0  0  0  0  0  0  0  0  0
   -2.8828   -2.1103    0.7684 C   0  0  0  0  0  0  0  0  0  0  0  0
   -3.4731   -1.4670    1.4255 H   0  0  0  0  0  0  0  0  0  0  0  0
   -3.3261   -2.1063   -0.2300 H   0  0  0  0  0  0  0  0  0  0  0  0
   -1.4521   -1.6094    0.7023 C   0  0  0  0  0  0  0  0  0  0  0  0
   -0.5501   -2.3244    1.0986 O   0  0  0  0  0  0  0  0  0  0  0  0
   -1.2064   -0.3263    0.2544 N   0  0  0  0  0  0  0  0  0  0  0  0
   -2.0237    0.2811    0.2256 H   0  0  0  0  0  0  0  0  0  0  0  0
    0.0968    0.3595    0.3385 C   0  0  1  0  0  0  0  0  0  0  0  0
    0.7672   -0.1502    1.0416 H   0  0  0  0  0  0  0  0  0  0  0  0
    0.7194    0.3612   -1.0804 C   0  0  0  0  0  0  0  0  0  0  0  0
   -0.0043    0.7743   -1.7881 H   0  0  0  0  0  0  0  0  0  0  0  0
    1.6047    0.9996   -1.0999 H   0  0  0  0  0  0  0  0  0  0  0  0
    1.1818   -1.0025   -1.5750 C   0  0  0  0  0  0  0  0  0  0  0  0
    1.7716   -1.7892   -0.8642 O   0  0  0  0  0  0  0  0  0  0  0  0
    0.9301   -1.4296   -2.8474 N   0  0  0  0  0  0  0  0  0  0  0  0
    1.0941   -2.4200   -3.0063 H   0  0  0  0  0  0  0  0  0  0  0  0
    0.2310   -0.9400   -3.3943 H   0  0  0  0  0  0  0  0  0  0  0  0
   -0.1043    1.8094    0.8510 C   0  0  0  0  0  0  0  0  0  0  0  0
   -1.1235    2.0950    1.4693 O   0  0  0  0  0  0  0  0  0  0  0  0
    0.7422    2.8429    0.4847 N   0  0  0  0  0  0  0  0  0  0  0  0
    1.6103    2.5932    0.0208 H   0  0  0  0  0  0  0  0  0  0  0  0
    0.5587    4.2223    0.9222 C   0  0  0  0  0  0  0  0  0  0  0  0
    0.6222    4.2895    2.0133 H   0  0  0  0  0  0  0  0  0  0  0  0
    1.3341    4.8618    0.4896 H   0  0  0  0  0  0  0  0  0  0  0  0
   -0.4177    4.6013    0.6018 H   0  0  0  0  0  0  0  0  0  0  0  0
  1  2  1  0  0  0  0
  2  3  1  0  0  0  0
  2  4  1  0  0  0  0
  2  5  1  0  0  0  0
  5  6  2  0  0  0  0
  5  7  1  0  0  0  0
  7  8  1  0  0  0  0
  7  9  1  0  0  0  0
  9 10  1  0  0  0  0
  9 11  1  0  0  0  0
  9 19  1  0  0  0  0
 11 12  1  0  0  0  0
 11 13  1  0  0  0  0
 11 14  1  0  0  0  0
 14 15  2  0  0  0  0
 14 16  1  0  0  0  0
 16 17  1  0  0  0  0
 16 18  1  0  0  0  0
 19 20  2  0  0  0  0
 19 21  1  0  0  0  0
 21 22  1  0  0  0  0
 21 23  1  0  0  0  0
 23 24  1  0  0  0  0
 23 25  1  0  0  0  0
 23 26  1  0  0  0  0
M  END
$$$$

  -OEChem-01062216063D

 26 25  0     1  0  0  0  0  0999 V2000
   -2.9086   -3.1205    1.1712 H   0  0  0  0  0  0  0  0  0  0  0  0
   -2.8850   -2.0997    0.7791 C   0  0  0  0  0  0  0  0  0  0  0  0
   -3.4660   -1.4547    1.4428 H   0  0  0  0  0  0  0  0  0  0  0  0
   -3.3387   -2.0935   -0.2147 H   0  0  0  0  0  0  0  0  0  0  0  0
   -1.4532   -1.6038    0.6984 C   0  0  0  0  0  0  0  0  0  0  0  0
   -0.5487   -2.3272    1.0722 O   0  0  0  0  0  0  0  0  0  0  0  0
   -1.2107   -0.3199    0.2503 N   0  0  0  0  0  0  0  0  0  0  0  0
   -2.0295    0.2848    0.2349 H   0  0  0  0  0  0  0  0  0  0  0  0
    0.0941    0.3649    0.3223 C   0  0  1  0  0  0  0  0  0  0  0  0
    0.7640   -0.1409    1.0290 H   0  0  0  0  0  0  0  0  0  0  0  0
    0.7256    0.3528   -1.0924 C   0  0  0  0  0  0  0  0  0  0  0  0
    0.0076    0.7600   -1.8092 H   0  0  0  0  0  0  0  0  0  0  0  0
    1.6129    0.9891   -1.1065 H   0  0  0  0  0  0  0  0  0  0  0  0
    1.1923   -1.0149   -1.5730 C   0  0  0  0  0  0  0  0  0  0  0  0
    1.7787   -1.7959   -0.8535 O   0  0  0  0  0  0  0  0  0  0  0  0
    0.9481   -1.4529   -2.8432 N   0  0  0  0  0  0  0  0  0  0  0  0
    1.1119   -2.4451   -2.9909 H   0  0  0  0  0  0  0  0  0  0  0  0
    0.2516   -0.9693   -3.3983 H   0  0  0  0  0  0  0  0  0  0  0  0
   -0.1108    1.8125    0.8398 C   0  0  0  0  0  0  0  0  0  0  0  0
   -0.9765    2.0291    1.6787 O   0  0  0  0  0  0  0  0  0  0  0  0
    0.5107    2.9067    0.2592 N   0  0  0  0  0  0  0  0  0  0  0  0
    1.2493    2.7247   -0.4127 H   0  0  0  0  0  0  0  0  0  0  0  0
    0.2961    4.2795    0.7040 C   0  0  0  0  0  0  0  0  0  0  0  0
    0.6031    4.3957    1.7487 H   0  0  0  0  0  0  0  0  0  0  0  0
    0.8822    4.9715    0.0917 H   0  0  0  0  0  0  0  0  0  0  0  0
   -0.7608    4.5524    0.6148 H   0  0  0  0  0  0  0  0  0  0  0  0
  1  2  1  0  0  0  0
  2  3  1  0  0  0  0
  2  4  1  0  0  0  0
  2  5  1  0  0  0  0
  5  6  2  0  0  0  0
  5  7  1  0  0  0  0
  7  8  1  0  0  0  0
  7  9  1  0  0  0  0
  9 10  1  0  0  0  0
  9 11  1  0  0  0  0
  9 19  1  0  0  0  0
 11 12  1  0  0  0  0
 11 13  1  0  0  0  0
 11 14  1  0  0  0  0
 14 15  2  0  0  0  0
 14 16  1  0  0  0  0
 16 17  1  0  0  0  0
 16 18  1  0  0  0  0
 19 20  2  0  0  0  0
 19 21  1  0  0  0  0
 21 22  1  0  0  0  0
 21 23  1  0  0  0  0
 23 24  1  0  0  0  0
 23 25  1  0  0  0  0
 23 26  1  0  0  0  0
M  END
$$$$

  -OEChem-01062216063D

 26 25  0     1  0  0  0  0  0999 V2000
   -2.9076   -3.1230    1.1736 H   0  0  0  0  0  0  0  0  0  0  0  0
   -2.8881   -2.0991    0.7893 C   0  0  0  0  0  0  0  0  0  0  0  0
   -3.4638   -1.4599    1.4631 H   0  0  0  0  0  0  0  0  0  0  0  0
   -3.3509   -2.0861   -0.2001 H   0  0  0  0  0  0  0  0  0  0  0  0
   -1.4573   -1.6016    0.7008 C   0  0  0  0  0  0  0  0  0  0  0  0
   -0.5509   -2.3256    1.0680 O   0  0  0  0  0  0  0  0  0  0  0  0
   -1.2183   -0.3168    0.2525 N   0  0  0  0  0  0  0  0  0  0  0  0
   -2.0409    0.2803    0.2151 H   0  0  0  0  0  0  0  0  0  0  0  0
    0.0866    0.3684    0.3165 C   0  0  1  0  0  0  0  0  0  0  0  0
    0.7559   -0.1350    1.0258 H   0  0  0  0  0  0  0  0  0  0  0  0
    0.7279    0.3544   -1.0933 C   0  0  0  0  0  0  0  0  0  0  0  0
    0.0142    0.7552   -1.8177 H   0  0  0  0  0  0  0  0  0  0  0  0
    1.6116    0.9974   -1.0969 H   0  0  0  0  0  0  0  0  0  0  0  0
    1.2023   -1.0131   -1.5692 C   0  0  0  0  0  0  0  0  0  0  0  0
    1.7861   -1.7924   -0.8460 O   0  0  0  0  0  0  0  0  0  0  0  0
    0.9666   -1.4550   -2.8399 N   0  0  0  0  0  0  0  0  0  0  0  0
    1.1394   -2.4463   -2.9848 H   0  0  0  0  0  0  0  0  0  0  0  0
    0.2684   -0.9785   -3.3991 H   0  0  0  0  0  0  0  0  0  0  0  0
   -0.1176    1.8128    0.8366 C   0  0  0  0  0  0  0  0  0  0  0  0
   -0.7746    1.9906    1.8531 O   0  0  0  0  0  0  0  0  0  0  0  0
    0.2373    2.9285    0.0950 N   0  0  0  0  0  0  0  0  0  0  0  0
    0.7853    2.7800   -0.7460 H   0  0  0  0  0  0  0  0  0  0  0  0
   -0.0087    4.2969    0.5375 C   0  0  0  0  0  0  0  0  0  0  0  0
    0.5126    4.4941    1.4803 H   0  0  0  0  0  0  0  0  0  0  0  0
    0.3515    5.0079   -0.2122 H   0  0  0  0  0  0  0  0  0  0  0  0
   -1.0806    4.4659    0.6857 H   0  0  0  0  0  0  0  0  0  0  0  0
  1  2  1  0  0  0  0
  2  3  1  0  0  0  0
  2  4  1  0  0  0  0
  2  5  1  0  0  0  0
  5  6  2  0  0  0  0
  5  7  1  0  0  0  0
  7  8  1  0  0  0  0
  7  9  1  0  0  0  0
  9 10  1  0  0  0  0
  9 11  1  0  0  0  0
  9 19  1  0  0  0  0
 11 12  1  0  0  0  0
 11 13  1  0  0  0  0
 11 14  1  0  0  0  0
 14 15  2  0  0  0  0
 14 16  1  0  0  0  0
 16 17  1  0  0  0  0
 16 18  1  0  0  0  0
 19 20  2  0  0  0  0
 19 21  1  0  0  0  0
 21 22  1  0  0  0  0
 21 23  1  0  0  0  0
 23 24  1  0  0  0  0
 23 25  1  0  0  0  0
 23 26  1  0  0  0  0
M  END
$$$$

  -OEChem-01062216063D

 26 25  0     1  0  0  0  0  0999 V2000
   -2.8965   -3.1462    1.1693 H   0  0  0  0  0  0  0  0  0  0  0  0
   -2.8850   -2.1234    0.7821 C   0  0  0  0  0  0  0  0  0  0  0  0
   -3.4805   -1.4906    1.4447 H   0  0  0  0  0  0  0  0  0  0  0  0
   -3.3312   -2.1197   -0.2150 H   0  0  0  0  0  0  0  0  0  0  0  0
   -1.4598   -1.6066    0.7157 C   0  0  0  0  0  0  0  0  0  0  0  0
   -0.5493   -2.3199    1.0926 O   0  0  0  0  0  0  0  0  0  0  0  0
   -1.2311   -0.3204    0.2647 N   0  0  0  0  0  0  0  0  0  0  0  0
   -2.0616    0.2594    0.1789 H   0  0  0  0  0  0  0  0  0  0  0  0
    0.0682    0.3761    0.3208 C   0  0  1  0  0  0  0  0  0  0  0  0
    0.7421   -0.1221    1.0300 H   0  0  0  0  0  0  0  0  0  0  0  0
    0.7129    0.3667   -1.0863 C   0  0  0  0  0  0  0  0  0  0  0  0
   -0.0046    0.7524   -1.8147 H   0  0  0  0  0  0  0  0  0  0  0  0
    1.5851    1.0265   -1.0868 H   0  0  0  0  0  0  0  0  0  0  0  0
    1.2018   -0.9977   -1.5568 C   0  0  0  0  0  0  0  0  0  0  0  0
    1.7908   -1.7703   -0.8309 O   0  0  0  0  0  0  0  0  0  0  0  0
    0.9729   -1.4458   -2.8266 N   0  0  0  0  0  0  0  0  0  0  0  0
    1.1566   -2.4355   -2.9696 H   0  0  0  0  0  0  0  0  0  0  0  0
    0.2779   -0.9744   -3.3935 H   0  0  0  0  0  0  0  0  0  0  0  0
   -0.1339    1.8194    0.8376 C   0  0  0  0  0  0  0  0  0  0  0  0
   -0.5182    1.9957    1.9843 O   0  0  0  0  0  0  0  0  0  0  0  0
   -0.0772    2.9172   -0.0063 N   0  0  0  0  0  0  0  0  0  0  0  0
    0.2394    2.7637   -0.9580 H   0  0  0  0  0  0  0  0  0  0  0  0
   -0.3191    4.2847    0.4405 C   0  0  0  0  0  0  0  0  0  0  0  0
    0.4054    4.5691    1.2110 H   0  0  0  0  0  0  0  0  0  0  0  0
   -0.2228    4.9801   -0.3987 H   0  0  0  0  0  0  0  0  0  0  0  0
   -1.3288    4.3813    0.8537 H   0  0  0  0  0  0  0  0  0  0  0  0
  1  2  1  0  0  0  0
  2  3  1  0  0  0  0
  2  4  1  0  0  0  0
  2  5  1  0  0  0  0
  5  6  2  0  0  0  0
  5  7  1  0  0  0  0
  7  8  1  0  0  0  0
  7  9  1  0  0  0  0
  9 10  1  0  0  0  0
  9 11  1  0  0  0  0
  9 19  1  0  0  0  0
 11 12  1  0  0  0  0
 11 13  1  0  0  0  0
 11 14  1  0  0  0  0
 14 15  2  0  0  0  0
 14 16  1  0  0  0  0
 16 17  1  0  0  0  0
 16 18  1  0  0  0  0
 19 20  2  0  0  0  0
 19 21  1  0  0  0  0
 21 22  1  0  0  0  0
 21 23  1  0  0  0  0
 23 24  1  0  0  0  0
 23 25  1  0  0  0  0
 23 26  1  0  0  0  0
M  END
$$$$

  -OEChem-01062216063D

 26 25  0     1  0  0  0  0  0999 V2000
   -2.8814   -3.1812    1.1629 H   0  0  0  0  0  0  0  0  0  0  0  0
   -2.8810   -2.1584    0.7750 C   0  0  0  0  0  0  0  0  0  0  0  0
   -3.5025   -1.5367    1.4241 H   0  0  0  0  0  0  0  0  0  0  0  0
   -3.3055   -2.1641   -0.2316 H   0  0  0  0  0  0  0  0  0  0  0  0
   -1.4647   -1.6151    0.7390 C   0  0  0  0  0  0  0  0  0  0  0  0
   -0.5508   -2.3082    1.1438 O   0  0  0  0  0  0  0  0  0  0  0  0
   -1.2473   -0.3282    0.2831 N   0  0  0  0  0  0  0  0  0  0  0  0
   -2.0831    0.2336    0.1482 H   0  0  0  0  0  0  0  0  0  0  0  0
    0.0466    0.3789    0.3342 C   0  0  1  0  0  0  0  0  0  0  0  0
    0.7267   -0.1148    1.0411 H   0  0  0  0  0  0  0  0  0  0  0  0
    0.6899    0.3797   -1.0727 C   0  0  0  0  0  0  0  0  0  0  0  0
   -0.0317    0.7565   -1.8014 H   0  0  0  0  0  0  0  0  0  0  0  0
    1.5519    1.0527   -1.0719 H   0  0  0  0  0  0  0  0  0  0  0  0
    1.1904   -0.9792   -1.5468 C   0  0  0  0  0  0  0  0  0  0  0  0
    1.7863   -1.7496   -0.8244 O   0  0  0  0  0  0  0  0  0  0  0  0
    0.9759   -1.4209   -2.8215 N   0  0  0  0  0  0  0  0  0  0  0  0
    1.1799   -2.4048   -2.9758 H   0  0  0  0  0  0  0  0  0  0  0  0
    0.2908   -0.9479   -3.3989 H   0  0  0  0  0  0  0  0  0  0  0  0
   -0.1547    1.8224    0.8450 C   0  0  0  0  0  0  0  0  0  0  0  0
   -0.2337    2.0350    2.0451 O   0  0  0  0  0  0  0  0  0  0  0  0
   -0.4069    2.8699   -0.0264 N   0  0  0  0  0  0  0  0  0  0  0  0
   -0.3220    2.6858   -1.0204 H   0  0  0  0  0  0  0  0  0  0  0  0
   -0.6311    4.2414    0.4175 C   0  0  0  0  0  0  0  0  0  0  0  0
    0.2406    4.6134    0.9663 H   0  0  0  0  0  0  0  0  0  0  0  0
   -0.8027    4.8951   -0.4431 H   0  0  0  0  0  0  0  0  0  0  0  0
   -1.5079    4.2950    1.0715 H   0  0  0  0  0  0  0  0  0  0  0  0
  1  2  1  0  0  0  0
  2  3  1  0  0  0  0
  2  4  1  0  0  0  0
  2  5  1  0  0  0  0
  5  6  2  0  0  0  0
  5  7  1  0  0  0  0
  7  8  1  0  0  0  0
  7  9  1  0  0  0  0
  9 10  1  0  0  0  0
  9 11  1  0  0  0  0
  9 19  1  0  0  0  0
 11 12  1  0  0  0  0
 11 13  1  0  0  0  0
 11 14  1  0  0  0  0
 14 15  2  0  0  0  0
 14 16  1  0  0  0  0
 16 17  1  0  0  0  0
 16 18  1  0  0  0  0
 19 20  2  0  0  0  0
 19 21  1  0  0  0  0
 21 22  1  0  0  0  0
 21 23  1  0  0  0  0
 23 24  1  0  0  0  0
 23 25  1  0  0  0  0
 23 26  1  0  0  0  0
M  END
$$$$

  -OEChem-01062216063D

 26 25  0     1  0  0  0  0  0999 V2000
   -2.8779   -3.2062    1.1544 H   0  0  0  0  0  0  0  0  0  0  0  0
   -2.8816   -2.1819    0.7704 C   0  0  0  0  0  0  0  0  0  0  0  0
   -3.5196   -1.5690    1.4118 H   0  0  0  0  0  0  0  0  0  0  0  0
   -3.2899   -2.1880   -0.2428 H   0  0  0  0  0  0  0  0  0  0  0  0
   -1.4704   -1.6244    0.7591 C   0  0  0  0  0  0  0  0  0  0  0  0
   -0.5579   -2.3046    1.1876 O   0  0  0  0  0  0  0  0  0  0  0  0
   -1.2569   -0.3373    0.3013 N   0  0  0  0  0  0  0  0  0  0  0  0
   -2.0939    0.2124    0.1308 H   0  0  0  0  0  0  0  0  0  0  0  0
    0.0354    0.3740    0.3504 C   0  0  1  0  0  0  0  0  0  0  0  0
    0.7199   -0.1200    1.0534 H   0  0  0  0  0  0  0  0  0  0  0  0
    0.6776    0.3920   -1.0555 C   0  0  0  0  0  0  0  0  0  0  0  0
   -0.0433    0.7743   -1.7815 H   0  0  0  0  0  0  0  0  0  0  0  0
    1.5360    1.0699   -1.0470 H   0  0  0  0  0  0  0  0  0  0  0  0
    1.1823   -0.9618   -1.5400 C   0  0  0  0  0  0  0  0  0  0  0  0
    1.7801   -1.7370   -0.8241 O   0  0  0  0  0  0  0  0  0  0  0  0
    0.9748   -1.3904   -2.8205 N   0  0  0  0  0  0  0  0  0  0  0  0
    1.1914   -2.3686   -2.9925 H   0  0  0  0  0  0  0  0  0  0  0  0
    0.3060   -0.9045   -3.4061 H   0  0  0  0  0  0  0  0  0  0  0  0
   -0.1655    1.8165    0.8584 C   0  0  0  0  0  0  0  0  0  0  0  0
    0.0808    2.0999    2.0204 O   0  0  0  0  0  0  0  0  0  0  0  0
   -0.7168    2.7883    0.0392 N   0  0  0  0  0  0  0  0  0  0  0  0
   -0.8863    2.5468   -0.9314 H   0  0  0  0  0  0  0  0  0  0  0  0
   -0.9419    4.1625    0.4736 C   0  0  0  0  0  0  0  0  0  0  0  0
    0.0025    4.6288    0.7739 H   0  0  0  0  0  0  0  0  0  0  0  0
   -1.3750    4.7518   -0.3403 H   0  0  0  0  0  0  0  0  0  0  0  0
   -1.6324    4.1874    1.3234 H   0  0  0  0  0  0  0  0  0  0  0  0
  1  2  1  0  0  0  0
  2  3  1  0  0  0  0
  2  4  1  0  0  0  0
  2  5  1  0  0  0  0
  5  6  2  0  0  0  0
  5  7  1  0  0  0  0
  7  8  1  0  0  0  0
  7  9  1  0  0  0  0
  9 10  1  0  0  0  0
  9 11  1  0  0  0  0
  9 19  1  0  0  0  0
 11 12  1  0  0  0  0
 11 13  1  0  0  0  0
 11 14  1  0  0  0  0
 14 15  2  0  0  0  0
 14 16  1  0  0  0  0
 16 17  1  0  0  0  0
 16 18  1  0  0  0  0
 19 20  2  0  0  0  0
 19 21  1  0  0  0  0
 21 22  1  0  0  0  0
 21 23  1  0  0  0  0
 23 24  1  0  0  0  0
 23 25  1  0  0  0  0
 23 26  1  0  0  0  0
M  END
$$$$

  -OEChem-01062216063D

 26 25  0     1  0  0  0  0  0999 V2000
   -2.8690   -3.2470    1.1371 H   0  0  0  0  0  0  0  0  0  0  0  0
   -2.8795   -2.2208    0.7583 C   0  0  0  0  0  0  0  0  0  0  0  0
   -3.5389   -1.6205    1.3897 H   0  0  0  0  0  0  0  0  0  0  0  0
   -3.2677   -2.2279   -0.2628 H   0  0  0  0  0  0  0  0  0  0  0  0
   -1.4761   -1.6439    0.7779 C   0  0  0  0  0  0  0  0  0  0  0  0
   -0.5653   -2.3076    1.2349 O   0  0  0  0  0  0  0  0  0  0  0  0
   -1.2694   -0.3547    0.3224 N   0  0  0  0  0  0  0  0  0  0  0  0
   -2.1076    0.1801    0.1175 H   0  0  0  0  0  0  0  0  0  0  0  0
    0.0196    0.3639    0.3769 C   0  0  1  0  0  0  0  0  0  0  0  0
    0.7082   -0.1315    1.0750 H   0  0  0  0  0  0  0  0  0  0  0  0
    0.6596    0.4078   -1.0278 C   0  0  0  0  0  0  0  0  0  0  0  0
   -0.0616    0.8025   -1.7469 H   0  0  0  0  0  0  0  0  0  0  0  0
    1.5155    1.0889   -1.0074 H   0  0  0  0  0  0  0  0  0  0  0  0
    1.1702   -0.9366   -1.5309 C   0  0  0  0  0  0  0  0  0  0  0  0
    1.7719   -1.7201   -0.8271 O   0  0  0  0  0  0  0  0  0  0  0  0
    0.9625   -1.3478   -2.8170 N   0  0  0  0  0  0  0  0  0  0  0  0
    1.1905   -2.3193   -3.0102 H   0  0  0  0  0  0  0  0  0  0  0  0
    0.3056   -0.8473   -3.4037 H   0  0  0  0  0  0  0  0  0  0  0  0
   -0.1822    1.8048    0.8852 C   0  0  0  0  0  0  0  0  0  0  0  0
    0.3708    2.1886    1.9039 O   0  0  0  0  0  0  0  0  0  0  0  0
   -1.0009    2.6824    0.1932 N   0  0  0  0  0  0  0  0  0  0  0  0
   -1.3841    2.3699   -0.6923 H   0  0  0  0  0  0  0  0  0  0  0  0
   -1.2025    4.0692    0.5969 C   0  0  0  0  0  0  0  0  0  0  0  0
   -0.2502    4.6100    0.6008 H   0  0  0  0  0  0  0  0  0  0  0  0
   -1.8823    4.5704   -0.0986 H   0  0  0  0  0  0  0  0  0  0  0  0
   -1.6382    4.1168    1.6005 H   0  0  0  0  0  0  0  0  0  0  0  0
  1  2  1  0  0  0  0
  2  3  1  0  0  0  0
  2  4  1  0  0  0  0
  2  5  1  0  0  0  0
  5  6  2  0  0  0  0
  5  7  1  0  0  0  0
  7  8  1  0  0  0  0
  7  9  1  0  0  0  0
  9 10  1  0  0  0  0
  9 11  1  0  0  0  0
  9 19  1  0  0  0  0
 11 12  1  0  0  0  0
 11 13  1  0  0  0  0
 11 14  1  0  0  0  0
 14 15  2  0  0  0  0
 14 16  1  0  0  0  0
 16 17  1  0  0  0  0
 16 18  1  0  0  0  0
 19 20  2  0  0  0  0
 19 21  1  0  0  0  0
 21 22  1  0  0  0  0
 21 23  1  0  0  0  0
 23 24  1  0  0  0  0
 23 25  1  0  0  0  0
 23 26  1  0  0  0  0
M  END
$$$$

  -OEChem-01062216063D

 26 25  0     1  0  0  0  0  0999 V2000
   -2.7416   -3.3587    1.0821 H   0  0  0  0  0  0  0  0  0  0  0  0
   -2.7767   -2.3634    0.6296 C   0  0  0  0  0  0  0  0  0  0  0  0
   -3.6411   -1.8265    1.0272 H   0  0  0  0  0  0  0  0  0  0  0  0
   -2.8875   -2.4744   -0.4516 H   0  0  0  0  0  0  0  0  0  0  0  0
   -1.5025   -1.6029    0.9461 C   0  0  0  0  0  0  0  0  0  0  0  0
   -0.6710   -2.1049    1.6797 O   0  0  0  0  0  0  0  0  0  0  0  0
   -1.3308   -0.3257    0.4432 N   0  0  0  0  0  0  0  0  0  0  0  0
   -2.0573   -0.0061   -0.1873 H   0  0  0  0  0  0  0  0  0  0  0  0
   -0.0324    0.3800    0.4300 C   0  0  1  0  0  0  0  0  0  0  0  0
    0.6859   -0.1105    1.1007 H   0  0  0  0  0  0  0  0  0  0  0  0
    0.5300    0.3880   -1.0065 C   0  0  0  0  0  0  0  0  0  0  0  0
   -0.2217    0.7834   -1.6936 H   0  0  0  0  0  0  0  0  0  0  0  0
    1.3985    1.0527   -1.0463 H   0  0  0  0  0  0  0  0  0  0  0  0
    0.9871   -0.9805   -1.4929 C   0  0  0  0  0  0  0  0  0  0  0  0
    1.6080   -1.7585   -0.7998 O   0  0  0  0  0  0  0  0  0  0  0  0
    0.7220   -1.4115   -2.7617 N   0  0  0  0  0  0  0  0  0  0  0  0
    1.2217   -2.2518   -3.0409 H   0  0  0  0  0  0  0  0  0  0  0  0
    0.4558   -0.7281   -3.4616 H   0  0  0  0  0  0  0  0  0  0  0  0
   -0.1622    1.8412    0.9067 C   0  0  0  0  0  0  0  0  0  0  0  0
    0.7324    2.3501    1.5649 O   0  0  0  0  0  0  0  0  0  0  0  0
   -1.1911    2.6485    0.4496 N   0  0  0  0  0  0  0  0  0  0  0  0
   -1.9459    2.2030   -0.0580 H   0  0  0  0  0  0  0  0  0  0  0  0
   -1.3291    4.0509    0.8262 C   0  0  0  0  0  0  0  0  0  0  0  0
   -0.4516    4.6221    0.5051 H   0  0  0  0  0  0  0  0  0  0  0  0
   -2.2147    4.4851    0.3525 H   0  0  0  0  0  0  0  0  0  0  0  0
   -1.4338    4.1477    1.9121 H   0  0  0  0  0  0  0  0  0  0  0  0
  1  2  1  0  0  0  0
  2  3  1  0  0  0  0
  2  4  1  0  0  0  0
  2  5  1  0  0  0  0
  5  6  2  0  0  0  0
  5  7  1  0  0  0  0
  7  8  1  0  0  0  0
  7  9  1  0  0  0  0
  9 10  1  0  0  0  0
  9 11  1  0  0  0  0
  9 19  1  0  0  0  0
 11 12  1  0  0  0  0
 11 13  1  0  0  0  0
 11 14  1  0  0  0  0
 14 15  2  0  0  0  0
 14 16  1  0  0  0  0
 16 17  1  0  0  0  0
 16 18  1  0  0  0  0
 19 20  2  0  0  0  0
 19 21  1  0  0  0  0
 21 22  1  0  0  0  0
 21 23  1  0  0  0  0
 23 24  1  0  0  0  0
 23 25  1  0  0  0  0
 23 26  1  0  0  0  0
M  END
$$$$

  -OEChem-01062216063D

 26 25  0     1  0  0  0  0  0999 V2000
   -2.6892   -3.3889    1.0391 H   0  0  0  0  0  0  0  0  0  0  0  0
   -2.7274   -2.4038    0.5651 C   0  0  0  0  0  0  0  0  0  0  0  0
   -3.6397   -1.8948    0.8845 H   0  0  0  0  0  0  0  0  0  0  0  0
   -2.7502   -2.5383   -0.5189 H   0  0  0  0  0  0  0  0  0  0  0  0
   -1.5105   -1.5890    0.9615 C   0  0  0  0  0  0  0  0  0  0  0  0
   -0.7204   -2.0420    1.7695 O   0  0  0  0  0  0  0  0  0  0  0  0
   -1.3502   -0.3124    0.4532 N   0  0  0  0  0  0  0  0  0  0  0  0
   -2.0228   -0.0539   -0.2609 H   0  0  0  0  0  0  0  0  0  0  0  0
   -0.0471    0.3859    0.4396 C   0  0  1  0  0  0  0  0  0  0  0  0
    0.6708   -0.1064    1.1089 H   0  0  0  0  0  0  0  0  0  0  0  0
    0.5098    0.3860   -0.9992 C   0  0  0  0  0  0  0  0  0  0  0  0
   -0.2420    0.7861   -1.6836 H   0  0  0  0  0  0  0  0  0  0  0  0
    1.3834    1.0434   -1.0469 H   0  0  0  0  0  0  0  0  0  0  0  0
    0.9538   -0.9889   -1.4794 C   0  0  0  0  0  0  0  0  0  0  0  0
    1.5703   -1.7683   -0.7834 O   0  0  0  0  0  0  0  0  0  0  0  0
    0.6810   -1.4252   -2.7445 N   0  0  0  0  0  0  0  0  0  0  0  0
    1.1793   -2.2673   -3.0205 H   0  0  0  0  0  0  0  0  0  0  0  0
    0.4270   -0.7400   -3.4473 H   0  0  0  0  0  0  0  0  0  0  0  0
   -0.1630    1.8491    0.9154 C   0  0  0  0  0  0  0  0  0  0  0  0
    0.8373    2.4476    1.2833 O   0  0  0  0  0  0  0  0  0  0  0  0
   -1.3305    2.5665    0.7161 N   0  0  0  0  0  0  0  0  0  0  0  0
   -2.1690    2.0227    0.5458 H   0  0  0  0  0  0  0  0  0  0  0  0
   -1.4766    3.9620    1.1153 C   0  0  0  0  0  0  0  0  0  0  0  0
   -0.7365    4.5869    0.6042 H   0  0  0  0  0  0  0  0  0  0  0  0
   -2.4738    4.3284    0.8541 H   0  0  0  0  0  0  0  0  0  0  0  0
   -1.3393    4.0679    2.1966 H   0  0  0  0  0  0  0  0  0  0  0  0
  1  2  1  0  0  0  0
  2  3  1  0  0  0  0
  2  4  1  0  0  0  0
  2  5  1  0  0  0  0
  5  6  2  0  0  0  0
  5  7  1  0  0  0  0
  7  8  1  0  0  0  0
  7  9  1  0  0  0  0
  9 10  1  0  0  0  0
  9 11  1  0  0  0  0
  9 19  1  0  0  0  0
 11 12  1  0  0  0  0
 11 13  1  0  0  0  0
 11 14  1  0  0  0  0
 14 15  2  0  0  0  0
 14 16  1  0  0  0  0
 16 17  1  0  0  0  0
 16 18  1  0  0  0  0
 19 20  2  0  0  0  0
 19 21  1  0  0  0  0
 21 22  1  0  0  0  0
 21 23  1  0  0  0  0
 23 24  1  0  0  0  0
 23 25  1  0  0  0  0
 23 26  1  0  0  0  0
M  END
$$$$

  -OEChem-01062216063D

 26 25  0     1  0  0  0  0  0999 V2000
   -2.6768   -3.3932    1.0107 H   0  0  0  0  0  0  0  0  0  0  0  0
   -2.7149   -2.4072    0.5384 C   0  0  0  0  0  0  0  0  0  0  0  0
   -3.6343   -1.9041    0.8472 H   0  0  0  0  0  0  0  0  0  0  0  0
   -2.7228   -2.5396   -0.5462 H   0  0  0  0  0  0  0  0  0  0  0  0
   -1.5081   -1.5858    0.9518 C   0  0  0  0  0  0  0  0  0  0  0  0
   -0.7306   -2.0295    1.7773 O   0  0  0  0  0  0  0  0  0  0  0  0
   -1.3459   -0.3083    0.4467 N   0  0  0  0  0  0  0  0  0  0  0  0
   -2.0118   -0.0474   -0.2739 H   0  0  0  0  0  0  0  0  0  0  0  0
   -0.0413    0.3885    0.4382 C   0  0  1  0  0  0  0  0  0  0  0  0
    0.6758   -0.1043    1.1077 H   0  0  0  0  0  0  0  0  0  0  0  0
    0.5113    0.3821   -1.0037 C   0  0  0  0  0  0  0  0  0  0  0  0
   -0.2412    0.7836   -1.6866 H   0  0  0  0  0  0  0  0  0  0  0  0
    1.3882    1.0342   -1.0590 H   0  0  0  0  0  0  0  0  0  0  0  0
    0.9496   -0.9955   -1.4808 C   0  0  0  0  0  0  0  0  0  0  0  0
    1.5661   -1.7742   -0.7837 O   0  0  0  0  0  0  0  0  0  0  0  0
    0.6685   -1.4362   -2.7428 N   0  0  0  0  0  0  0  0  0  0  0  0
    1.1645   -2.2796   -3.0190 H   0  0  0  0  0  0  0  0  0  0  0  0
    0.4121   -0.7524   -3.4463 H   0  0  0  0  0  0  0  0  0  0  0  0
   -0.1610    1.8515    0.9182 C   0  0  0  0  0  0  0  0  0  0  0  0
    0.8450    2.5317    1.0630 O   0  0  0  0  0  0  0  0  0  0  0  0
   -1.3983    2.4664    1.0019 N   0  0  0  0  0  0  0  0  0  0  0  0
   -2.2004    1.8454    1.0288 H   0  0  0  0  0  0  0  0  0  0  0  0
   -1.5676    3.8416    1.4573 C   0  0  0  0  0  0  0  0  0  0  0  0
   -1.0183    4.5317    0.8080 H   0  0  0  0  0  0  0  0  0  0  0  0
   -2.6257    4.1197    1.4363 H   0  0  0  0  0  0  0  0  0  0  0  0
   -1.1986    3.9541    2.4824 H   0  0  0  0  0  0  0  0  0  0  0  0
  1  2  1  0  0  0  0
  2  3  1  0  0  0  0
  2  4  1  0  0  0  0
  2  5  1  0  0  0  0
  5  6  2  0  0  0  0
  5  7  1  0  0  0  0
  7  8  1  0  0  0  0
  7  9  1  0  0  0  0
  9 10  1  0  0  0  0
  9 11  1  0  0  0  0
  9 19  1  0  0  0  0
 11 12  1  0  0  0  0
 11 13  1  0  0  0  0
 11 14  1  0  0  0  0
 14 15  2  0  0  0  0
 14 16  1  0  0  0  0
 16 17  1  0  0  0  0
 16 18  1  0  0  0  0
 19 20  2  0  0  0  0
 19 21  1  0  0  0  0
 21 22  1  0  0  0  0
 21 23  1  0  0  0  0
 23 24  1  0  0  0  0
 23 25  1  0  0  0  0
 23 26  1  0  0  0  0
M  END
$$$$

  -OEChem-01062216063D

 26 25  0     1  0  0  0  0  0999 V2000
   -2.6784   -3.3902    0.9922 H   0  0  0  0  0  0  0  0  0  0  0  0
   -2.7144   -2.4023    0.5232 C   0  0  0  0  0  0  0  0  0  0  0  0
   -3.6335   -1.8990    0.8319 H   0  0  0  0  0  0  0  0  0  0  0  0
   -2.7210   -2.5310   -0.5618 H   0  0  0  0  0  0  0  0  0  0  0  0
   -1.5069   -1.5839    0.9406 C   0  0  0  0  0  0  0  0  0  0  0  0
   -0.7346   -2.0270    1.7713 O   0  0  0  0  0  0  0  0  0  0  0  0
   -1.3406   -0.3046    0.4421 N   0  0  0  0  0  0  0  0  0  0  0  0
   -2.0139   -0.0273   -0.2661 H   0  0  0  0  0  0  0  0  0  0  0  0
   -0.0352    0.3907    0.4340 C   0  0  1  0  0  0  0  0  0  0  0  0
    0.6824   -0.1031    1.1016 H   0  0  0  0  0  0  0  0  0  0  0  0
    0.5128    0.3775   -1.0111 C   0  0  0  0  0  0  0  0  0  0  0  0
   -0.2415    0.7789   -1.6922 H   0  0  0  0  0  0  0  0  0  0  0  0
    1.3925    1.0248   -1.0760 H   0  0  0  0  0  0  0  0  0  0  0  0
    0.9459   -1.0027   -1.4837 C   0  0  0  0  0  0  0  0  0  0  0  0
    1.5630   -1.7801   -0.7852 O   0  0  0  0  0  0  0  0  0  0  0  0
    0.6689   -1.4417   -2.7471 N   0  0  0  0  0  0  0  0  0  0  0  0
    1.1658   -2.2842   -3.0242 H   0  0  0  0  0  0  0  0  0  0  0  0
    0.4159   -0.7552   -3.4493 H   0  0  0  0  0  0  0  0  0  0  0  0
   -0.1607    1.8521    0.9228 C   0  0  0  0  0  0  0  0  0  0  0  0
    0.7947    2.6133    0.8551 O   0  0  0  0  0  0  0  0  0  0  0  0
   -1.3896    2.3612    1.3043 N   0  0  0  0  0  0  0  0  0  0  0  0
   -2.1148    1.6747    1.4902 H   0  0  0  0  0  0  0  0  0  0  0  0
   -1.5639    3.7181    1.8095 C   0  0  0  0  0  0  0  0  0  0  0  0
   -1.2332    4.4503    1.0652 H   0  0  0  0  0  0  0  0  0  0  0  0
   -2.6184    3.9071    2.0317 H   0  0  0  0  0  0  0  0  0  0  0  0
   -0.9837    3.8624    2.7271 H   0  0  0  0  0  0  0  0  0  0  0  0
  1  2  1  0  0  0  0
  2  3  1  0  0  0  0
  2  4  1  0  0  0  0
  2  5  1  0  0  0  0
  5  6  2  0  0  0  0
  5  7  1  0  0  0  0
  7  8  1  0  0  0  0
  7  9  1  0  0  0  0
  9 10  1  0  0  0  0
  9 11  1  0  0  0  0
  9 19  1  0  0  0  0
 11 12  1  0  0  0  0
 11 13  1  0  0  0  0
 11 14  1  0  0  0  0
 14 15  2  0  0  0  0
 14 16  1  0  0  0  0
 16 17  1  0  0  0  0
 16 18  1  0  0  0  0
 19 20  2  0  0  0  0
 19 21  1  0  0  0  0
 21 22  1  0  0  0  0
 21 23  1  0  0  0  0
 23 24  1  0  0  0  0
 23 25  1  0  0  0  0
 23 26  1  0  0  0  0
M  END
$$$$

  -OEChem-01062216063D

 26 25  0     1  0  0  0  0  0999 V2000
   -2.6918   -3.3657    0.9833 H   0  0  0  0  0  0  0  0  0  0  0  0
   -2.7118   -2.3833    0.5026 C   0  0  0  0  0  0  0  0  0  0  0  0
   -3.6296   -1.8674    0.7940 H   0  0  0  0  0  0  0  0  0  0  0  0
   -2.7061   -2.5238   -0.5809 H   0  0  0  0  0  0  0  0  0  0  0  0
   -1.5006   -1.5732    0.9250 C   0  0  0  0  0  0  0  0  0  0  0  0
   -0.7303   -2.0230    1.7541 O   0  0  0  0  0  0  0  0  0  0  0  0
   -1.3275   -0.2912    0.4372 N   0  0  0  0  0  0  0  0  0  0  0  0
   -2.0111    0.0087   -0.2521 H   0  0  0  0  0  0  0  0  0  0  0  0
   -0.0196    0.3986    0.4301 C   0  0  1  0  0  0  0  0  0  0  0  0
    0.6966   -0.0996    1.0959 H   0  0  0  0  0  0  0  0  0  0  0  0
    0.5247    0.3776   -1.0173 C   0  0  0  0  0  0  0  0  0  0  0  0
   -0.2289    0.7817   -1.6975 H   0  0  0  0  0  0  0  0  0  0  0  0
    1.4090    1.0175   -1.0878 H   0  0  0  0  0  0  0  0  0  0  0  0
    0.9492   -1.0069   -1.4855 C   0  0  0  0  0  0  0  0  0  0  0  0
    1.5643   -1.7839   -0.7843 O   0  0  0  0  0  0  0  0  0  0  0  0
    0.6509   -1.4573   -2.7401 N   0  0  0  0  0  0  0  0  0  0  0  0
    1.1353   -2.3073   -3.0158 H   0  0  0  0  0  0  0  0  0  0  0  0
    0.3868   -0.7781   -3.4455 H   0  0  0  0  0  0  0  0  0  0  0  0
   -0.1522    1.8561    0.9334 C   0  0  0  0  0  0  0  0  0  0  0  0
    0.6958    2.6974    0.6671 O   0  0  0  0  0  0  0  0  0  0  0  0
   -1.2951    2.2563    1.6023 N   0  0  0  0  0  0  0  0  0  0  0  0
   -1.9149    1.5120    1.9104 H   0  0  0  0  0  0  0  0  0  0  0  0
   -1.4753    3.5955    2.1503 C   0  0  0  0  0  0  0  0  0  0  0  0
   -1.4005    4.3478    1.3580 H   0  0  0  0  0  0  0  0  0  0  0  0
   -2.4613    3.6840    2.6160 H   0  0  0  0  0  0  0  0  0  0  0  0
   -0.7132    3.8050    2.9082 H   0  0  0  0  0  0  0  0  0  0  0  0
  1  2  1  0  0  0  0
  2  3  1  0  0  0  0
  2  4  1  0  0  0  0
  2  5  1  0  0  0  0
  5  6  2  0  0  0  0
  5  7  1  0  0  0  0
  7  8  1  0  0  0  0
  7  9  1  0  0  0  0
  9 10  1  0  0  0  0
  9 11  1  0  0  0  0
  9 19  1  0  0  0  0
 11 12  1  0  0  0  0
 11 13  1  0  0  0  0
 11 14  1  0  0  0  0
 14 15  2  0  0  0  0
 14 16  1  0  0  0  0
 16 17  1  0  0  0  0
 16 18  1  0  0  0  0
 19 20  2  0  0  0  0
 19 21  1  0  0  0  0
 21 22  1  0  0  0  0
 21 23  1  0  0  0  0
 23 24  1  0  0  0  0
 23 25  1  0  0  0  0
 23 26  1  0  0  0  0
M  END
$$$$

  -OEChem-01062216063D

 26 25  0     1  0  0  0  0  0999 V2000
   -2.7189   -3.3381    0.9755 H   0  0  0  0  0  0  0  0  0  0  0  0
   -2.7398   -2.3435    0.5205 C   0  0  0  0  0  0  0  0  0  0  0  0
   -3.6360   -1.8189    0.8601 H   0  0  0  0  0  0  0  0  0  0  0  0
   -2.7792   -2.4568   -0.5654 H   0  0  0  0  0  0  0  0  0  0  0  0
   -1.4993   -1.5643    0.9151 C   0  0  0  0  0  0  0  0  0  0  0  0
   -0.7224   -2.0312    1.7286 O   0  0  0  0  0  0  0  0  0  0  0  0
   -1.3127   -0.2819    0.4352 N   0  0  0  0  0  0  0  0  0  0  0  0
   -2.0115    0.0465   -0.2254 H   0  0  0  0  0  0  0  0  0  0  0  0
   -0.0012    0.3985    0.4225 C   0  0  1  0  0  0  0  0  0  0  0  0
    0.7137   -0.1037    1.0864 H   0  0  0  0  0  0  0  0  0  0  0  0
    0.5441    0.3744   -1.0249 C   0  0  0  0  0  0  0  0  0  0  0  0
   -0.2059    0.7844   -1.7058 H   0  0  0  0  0  0  0  0  0  0  0  0
    1.4332    1.0084   -1.0934 H   0  0  0  0  0  0  0  0  0  0  0  0
    0.9611   -1.0116   -1.4937 C   0  0  0  0  0  0  0  0  0  0  0  0
    1.5716   -1.7917   -0.7918 O   0  0  0  0  0  0  0  0  0  0  0  0
    0.6689   -1.4561   -2.7517 N   0  0  0  0  0  0  0  0  0  0  0  0
    1.1530   -2.3058   -3.0289 H   0  0  0  0  0  0  0  0  0  0  0  0
    0.4104   -0.7728   -3.4553 H   0  0  0  0  0  0  0  0  0  0  0  0
   -0.1424    1.8508    0.9381 C   0  0  0  0  0  0  0  0  0  0  0  0
    0.5344    2.7642    0.4832 O   0  0  0  0  0  0  0  0  0  0  0  0
   -1.1225    2.1508    1.8665 N   0  0  0  0  0  0  0  0  0  0  0  0
   -1.6044    1.3587    2.2840 H   0  0  0  0  0  0  0  0  0  0  0  0
   -1.3105    3.4777    2.4403 C   0  0  0  0  0  0  0  0  0  0  0  0
   -1.5149    4.2111    1.6532 H   0  0  0  0  0  0  0  0  0  0  0  0
   -2.1566    3.4731    3.1342 H   0  0  0  0  0  0  0  0  0  0  0  0
   -0.4142    3.7885    2.9873 H   0  0  0  0  0  0  0  0  0  0  0  0
  1  2  1  0  0  0  0
  2  3  1  0  0  0  0
  2  4  1  0  0  0  0
  2  5  1  0  0  0  0
  5  6  2  0  0  0  0
  5  7  1  0  0  0  0
  7  8  1  0  0  0  0
  7  9  1  0  0  0  0
  9 10  1  0  0  0  0
  9 11  1  0  0  0  0
  9 19  1  0  0  0  0
 11 12  1  0  0  0  0
 11 13  1  0  0  0  0
 11 14  1  0  0  0  0
 14 15  2  0  0  0  0
 14 16  1  0  0  0  0
 16 17  1  0  0  0  0
 16 18  1  0  0  0  0
 19 20  2  0  0  0  0
 19 21  1  0  0  0  0
 21 22  1  0  0  0  0
 21 23  1  0  0  0  0
 23 24  1  0  0  0  0
 23 25  1  0  0  0  0
 23 26  1  0  0  0  0
M  END
$$$$

  -OEChem-01062216063D

 26 25  0     1  0  0  0  0  0999 V2000
   -2.7372   -3.3142    0.9655 H   0  0  0  0  0  0  0  0  0  0  0  0
   -2.7542   -2.3134    0.5244 C   0  0  0  0  0  0  0  0  0  0  0  0
   -3.6388   -1.7837    0.8856 H   0  0  0  0  0  0  0  0  0  0  0  0
   -2.8126   -2.4114   -0.5622 H   0  0  0  0  0  0  0  0  0  0  0  0
   -1.4986   -1.5532    0.9087 C   0  0  0  0  0  0  0  0  0  0  0  0
   -0.7168   -2.0347    1.7095 O   0  0  0  0  0  0  0  0  0  0  0  0
   -1.3008   -0.2705    0.4355 N   0  0  0  0  0  0  0  0  0  0  0  0
   -2.0097    0.0805   -0.2025 H   0  0  0  0  0  0  0  0  0  0  0  0
    0.0133    0.4015    0.4193 C   0  0  1  0  0  0  0  0  0  0  0  0
    0.7269   -0.1049    1.0810 H   0  0  0  0  0  0  0  0  0  0  0  0
    0.5606    0.3749   -1.0268 C   0  0  0  0  0  0  0  0  0  0  0  0
   -0.1880    0.7868   -1.7084 H   0  0  0  0  0  0  0  0  0  0  0  0
    1.4502    1.0080   -1.0924 H   0  0  0  0  0  0  0  0  0  0  0  0
    0.9720   -1.0126   -1.4956 C   0  0  0  0  0  0  0  0  0  0  0  0
    1.5783   -1.7943   -0.7915 O   0  0  0  0  0  0  0  0  0  0  0  0
    0.6708   -1.4600   -2.7504 N   0  0  0  0  0  0  0  0  0  0  0  0
    1.1451   -2.3147   -3.0290 H   0  0  0  0  0  0  0  0  0  0  0  0
    0.4005   -0.7808   -3.4535 H   0  0  0  0  0  0  0  0  0  0  0  0
   -0.1300    1.8487    0.9437 C   0  0  0  0  0  0  0  0  0  0  0  0
    0.3299    2.8076    0.3362 O   0  0  0  0  0  0  0  0  0  0  0  0
   -0.8793    2.0777    2.0826 N   0  0  0  0  0  0  0  0  0  0  0  0
   -1.2106    1.2564    2.5834 H   0  0  0  0  0  0  0  0  0  0  0  0
   -1.0669    3.3961    2.6752 C   0  0  0  0  0  0  0  0  0  0  0  0
   -1.5542    4.0703    1.9633 H   0  0  0  0  0  0  0  0  0  0  0  0
   -1.6959    3.3237    3.5676 H   0  0  0  0  0  0  0  0  0  0  0  0
   -0.1026    3.8263    2.9651 H   0  0  0  0  0  0  0  0  0  0  0  0
  1  2  1  0  0  0  0
  2  3  1  0  0  0  0
  2  4  1  0  0  0  0
  2  5  1  0  0  0  0
  5  6  2  0  0  0  0
  5  7  1  0  0  0  0
  7  8  1  0  0  0  0
  7  9  1  0  0  0  0
  9 10  1  0  0  0  0
  9 11  1  0  0  0  0
  9 19  1  0  0  0  0
 11 12  1  0  0  0  0
 11 13  1  0  0  0  0
 11 14  1  0  0  0  0
 14 15  2  0  0  0  0
 14 16  1  0  0  0  0
 16 17  1  0  0  0  0
 16 18  1  0  0  0  0
 19 20  2  0  0  0  0
 19 21  1  0  0  0  0
 21 22  1  0  0  0  0
 21 23  1  0  0  0  0
 23 24  1  0  0  0  0
 23 25  1  0  0  0  0
 23 26  1  0  0  0  0
M  END
$$$$

  -OEChem-01062216063D

 26 25  0     1  0  0  0  0  0999 V2000
   -2.7673   -3.2853    0.9882 H   0  0  0  0  0  0  0  0  0  0  0  0
   -2.7718   -2.2856    0.5445 C   0  0  0  0  0  0  0  0  0  0  0  0
   -3.6426   -1.7392    0.9148 H   0  0  0  0  0  0  0  0  0  0  0  0
   -2.8451   -2.3851   -0.5411 H   0  0  0  0  0  0  0  0  0  0  0  0
   -1.4986   -1.5463    0.9120 C   0  0  0  0  0  0  0  0  0  0  0  0
   -0.7125   -2.0420    1.7003 O   0  0  0  0  0  0  0  0  0  0  0  0
   -1.2879   -0.2653    0.4404 N   0  0  0  0  0  0  0  0  0  0  0  0
   -2.0023    0.1041   -0.1809 H   0  0  0  0  0  0  0  0  0  0  0  0
    0.0304    0.3947    0.4213 C   0  0  1  0  0  0  0  0  0  0  0  0
    0.7434   -0.1190    1.0781 H   0  0  0  0  0  0  0  0  0  0  0  0
    0.5764    0.3741   -1.0249 C   0  0  0  0  0  0  0  0  0  0  0  0
   -0.1712    0.7938   -1.7030 H   0  0  0  0  0  0  0  0  0  0  0  0
    1.4671    1.0061   -1.0853 H   0  0  0  0  0  0  0  0  0  0  0  0
    0.9776   -1.0126   -1.5044 C   0  0  0  0  0  0  0  0  0  0  0  0
    1.5791   -1.8023   -0.8048 O   0  0  0  0  0  0  0  0  0  0  0  0
    0.6767   -1.4485   -2.7634 N   0  0  0  0  0  0  0  0  0  0  0  0
    1.1423   -2.3060   -3.0474 H   0  0  0  0  0  0  0  0  0  0  0  0
    0.4079   -0.7640   -3.4619 H   0  0  0  0  0  0  0  0  0  0  0  0
   -0.1081    1.8393    0.9485 C   0  0  0  0  0  0  0  0  0  0  0  0
    0.1072    2.8125    0.2361 O   0  0  0  0  0  0  0  0  0  0  0  0
   -0.5770    2.0364    2.2333 N   0  0  0  0  0  0  0  0  0  0  0  0
   -0.7590    1.2042    2.7901 H   0  0  0  0  0  0  0  0  0  0  0  0
   -0.7755    3.3509    2.8307 C   0  0  0  0  0  0  0  0  0  0  0  0
   -1.5103    3.9254    2.2572 H   0  0  0  0  0  0  0  0  0  0  0  0
   -1.1415    3.2481    3.8567 H   0  0  0  0  0  0  0  0  0  0  0  0
    0.1672    3.9076    2.8542 H   0  0  0  0  0  0  0  0  0  0  0  0
  1  2  1  0  0  0  0
  2  3  1  0  0  0  0
  2  4  1  0  0  0  0
  2  5  1  0  0  0  0
  5  6  2  0  0  0  0
  5  7  1  0  0  0  0
  7  8  1  0  0  0  0
  7  9  1  0  0  0  0
  9 10  1  0  0  0  0
  9 11  1  0  0  0  0
  9 19  1  0  0  0  0
 11 12  1  0  0  0  0
 11 13  1  0  0  0  0
 11 14  1  0  0  0  0
 14 15  2  0  0  0  0
 14 16  1  0  0  0  0
 16 17  1  0  0  0  0
 16 18  1  0  0  0  0
 19 20  2  0  0  0  0
 19 21  1  0  0  0  0
 21 22  1  0  0  0  0
 21 23  1  0  0  0  0
 23 24  1  0  0  0  0
 23 25  1  0  0  0  0
 23 26  1  0  0  0  0
M  END
$$$$

  -OEChem-01062216063D

 26 25  0     1  0  0  0  0  0999 V2000
   -2.7935   -3.2715    1.0075 H   0  0  0  0  0  0  0  0  0  0  0  0
   -2.7951   -2.2676    0.5733 C   0  0  0  0  0  0  0  0  0  0  0  0
   -3.6477   -1.7120    0.9710 H   0  0  0  0  0  0  0  0  0  0  0  0
   -2.8985   -2.3558   -0.5108 H   0  0  0  0  0  0  0  0  0  0  0  0
   -1.5025   -1.5500    0.9140 C   0  0  0  0  0  0  0  0  0  0  0  0
   -0.7050   -2.0634    1.6798 O   0  0  0  0  0  0  0  0  0  0  0  0
   -1.2817   -0.2712    0.4415 N   0  0  0  0  0  0  0  0  0  0  0  0
   -2.0040    0.1191   -0.1581 H   0  0  0  0  0  0  0  0  0  0  0  0
    0.0385    0.3818    0.4251 C   0  0  1  0  0  0  0  0  0  0  0  0
    0.7502   -0.1377    1.0785 H   0  0  0  0  0  0  0  0  0  0  0  0
    0.5863    0.3697   -1.0198 C   0  0  0  0  0  0  0  0  0  0  0  0
   -0.1609    0.7936   -1.6960 H   0  0  0  0  0  0  0  0  0  0  0  0
    1.4758    1.0039   -1.0735 H   0  0  0  0  0  0  0  0  0  0  0  0
    0.9838   -1.0132   -1.5127 C   0  0  0  0  0  0  0  0  0  0  0  0
    1.5821   -1.8114   -0.8201 O   0  0  0  0  0  0  0  0  0  0  0  0
    0.6993   -1.4273   -2.7828 N   0  0  0  0  0  0  0  0  0  0  0  0
    1.1690   -2.2788   -3.0782 H   0  0  0  0  0  0  0  0  0  0  0  0
    0.4322   -0.7316   -3.4709 H   0  0  0  0  0  0  0  0  0  0  0  0
   -0.0943    1.8266    0.9489 C   0  0  0  0  0  0  0  0  0  0  0  0
   -0.1256    2.7851    0.1858 O   0  0  0  0  0  0  0  0  0  0  0  0
   -0.2593    2.0359    2.3048 N   0  0  0  0  0  0  0  0  0  0  0  0
   -0.2872    1.2118    2.9012 H   0  0  0  0  0  0  0  0  0  0  0  0
   -0.4449    3.3524    2.9023 C   0  0  0  0  0  0  0  0  0  0  0  0
   -1.3658    3.8150    2.5326 H   0  0  0  0  0  0  0  0  0  0  0  0
   -0.5129    3.2670    3.9909 H   0  0  0  0  0  0  0  0  0  0  0  0
    0.3998    4.0060    2.6601 H   0  0  0  0  0  0  0  0  0  0  0  0
  1  2  1  0  0  0  0
  2  3  1  0  0  0  0
  2  4  1  0  0  0  0
  2  5  1  0  0  0  0
  5  6  2  0  0  0  0
  5  7  1  0  0  0  0
  7  8  1  0  0  0  0
  7  9  1  0  0  0  0
  9 10  1  0  0  0  0
  9 11  1  0  0  0  0
  9 19  1  0  0  0  0
 11 12  1  0  0  0  0
 11 13  1  0  0  0  0
 11 14  1  0  0  0  0
 14 15  2  0  0  0  0
 14 16  1  0  0  0  0
 16 17  1  0  0  0  0
 16 18  1  0  0  0  0
 19 20  2  0  0  0  0
 19 21  1  0  0  0  0
 21 22  1  0  0  0  0
 21 23  1  0  0  0  0
 23 24  1  0  0  0  0
 23 25  1  0  0  0  0
 23 26  1  0  0  0  0
M  END
$$$$

  -OEChem-01062216063D

 26 25  0     1  0  0  0  0  0999 V2000
   -2.8271   -3.2559    1.0232 H   0  0  0  0  0  0  0  0  0  0  0  0
   -2.8291   -2.2398    0.6186 C   0  0  0  0  0  0  0  0  0  0  0  0
   -3.6435   -1.6773    1.0817 H   0  0  0  0  0  0  0  0  0  0  0  0
   -2.9967   -2.2923   -0.4597 H   0  0  0  0  0  0  0  0  0  0  0  0
   -1.5017   -1.5628    0.9037 C   0  0  0  0  0  0  0  0  0  0  0  0
   -0.6830   -2.1107    1.6218 O   0  0  0  0  0  0  0  0  0  0  0  0
   -1.2680   -0.2857    0.4333 N   0  0  0  0  0  0  0  0  0  0  0  0
   -2.0090    0.1428   -0.1154 H   0  0  0  0  0  0  0  0  0  0  0  0
    0.0511    0.3674    0.4222 C   0  0  1  0  0  0  0  0  0  0  0  0
    0.7603   -0.1571    1.0737 H   0  0  0  0  0  0  0  0  0  0  0  0
    0.6036    0.3686   -1.0204 C   0  0  0  0  0  0  0  0  0  0  0  0
   -0.1444    0.7939   -1.6950 H   0  0  0  0  0  0  0  0  0  0  0  0
    1.4897    1.0079   -1.0670 H   0  0  0  0  0  0  0  0  0  0  0  0
    1.0052   -1.0088   -1.5255 C   0  0  0  0  0  0  0  0  0  0  0  0
    1.6031   -1.8109   -0.8368 O   0  0  0  0  0  0  0  0  0  0  0  0
    0.7330   -1.4099   -2.8026 N   0  0  0  0  0  0  0  0  0  0  0  0
    1.2007   -2.2608   -3.1027 H   0  0  0  0  0  0  0  0  0  0  0  0
    0.4615   -0.7113   -3.4861 H   0  0  0  0  0  0  0  0  0  0  0  0
   -0.0812    1.8125    0.9423 C   0  0  0  0  0  0  0  0  0  0  0  0
   -0.3716    2.7306    0.1842 O   0  0  0  0  0  0  0  0  0  0  0  0
    0.0609    2.0662    2.2933 N   0  0  0  0  0  0  0  0  0  0  0  0
    0.2178    1.2668    2.9029 H   0  0  0  0  0  0  0  0  0  0  0  0
   -0.1187    3.3849    2.8879 C   0  0  0  0  0  0  0  0  0  0  0  0
   -1.1442    3.7378    2.7363 H   0  0  0  0  0  0  0  0  0  0  0  0
    0.0783    3.3442    3.9635 H   0  0  0  0  0  0  0  0  0  0  0  0
    0.5726    4.1052    2.4380 H   0  0  0  0  0  0  0  0  0  0  0  0
  1  2  1  0  0  0  0
  2  3  1  0  0  0  0
  2  4  1  0  0  0  0
  2  5  1  0  0  0  0
  5  6  2  0  0  0  0
  5  7  1  0  0  0  0
  7  8  1  0  0  0  0
  7  9  1  0  0  0  0
  9 10  1  0  0  0  0
  9 11  1  0  0  0  0
  9 19  1  0  0  0  0
 11 12  1  0  0  0  0
 11 13  1  0  0  0  0
 11 14  1  0  0  0  0
 14 15  2  0  0  0  0
 14 16  1  0  0  0  0
 16 17  1  0  0  0  0
 16 18  1  0  0  0  0
 19 20  2  0  0  0  0
 19 21  1  0  0  0  0
 21 22  1  0  0  0  0
 21 23  1  0  0  0  0
 23 24  1  0  0  0  0
 23 25  1  0  0  0  0
 23 26  1  0  0  0  0
M  END
$$$$

  -OEChem-01062216063D

 26 25  0     1  0  0  0  0  0999 V2000
   -2.8422   -3.2312    0.9939 H   0  0  0  0  0  0  0  0  0  0  0  0
   -2.8335   -2.2044    0.6172 C   0  0  0  0  0  0  0  0  0  0  0  0
   -3.6037   -1.6308    1.1386 H   0  0  0  0  0  0  0  0  0  0  0  0
   -3.0603   -2.2213   -0.4514 H   0  0  0  0  0  0  0  0  0  0  0  0
   -1.4725   -1.5754    0.8492 C   0  0  0  0  0  0  0  0  0  0  0  0
   -0.6346   -2.1695    1.5051 O   0  0  0  0  0  0  0  0  0  0  0  0
   -1.2236   -0.2967    0.3919 N   0  0  0  0  0  0  0  0  0  0  0  0
   -1.9879    0.1870   -0.0740 H   0  0  0  0  0  0  0  0  0  0  0  0
    0.0898    0.3664    0.4094 C   0  0  1  0  0  0  0  0  0  0  0  0
    0.7880   -0.1606    1.0706 H   0  0  0  0  0  0  0  0  0  0  0  0
    0.6717    0.3918   -1.0199 C   0  0  0  0  0  0  0  0  0  0  0  0
   -0.0648    0.8208   -1.7046 H   0  0  0  0  0  0  0  0  0  0  0  0
    1.5533    1.0385   -1.0395 H   0  0  0  0  0  0  0  0  0  0  0  0
    1.0968   -0.9754   -1.5340 C   0  0  0  0  0  0  0  0  0  0  0  0
    1.6881   -1.7792   -0.8415 O   0  0  0  0  0  0  0  0  0  0  0  0
    0.8233   -1.3789   -2.8100 N   0  0  0  0  0  0  0  0  0  0  0  0
    1.0092   -2.3544   -3.0249 H   0  0  0  0  0  0  0  0  0  0  0  0
    0.1997   -0.8281   -3.3896 H   0  0  0  0  0  0  0  0  0  0  0  0
   -0.0620    1.8078    0.9303 C   0  0  0  0  0  0  0  0  0  0  0  0
   -0.6074    2.6589    0.2373 O   0  0  0  0  0  0  0  0  0  0  0  0
    0.3484    2.1287    2.2103 N   0  0  0  0  0  0  0  0  0  0  0  0
    0.7189    1.3758    2.7849 H   0  0  0  0  0  0  0  0  0  0  0  0
    0.1645    3.4459    2.8066 C   0  0  0  0  0  0  0  0  0  0  0  0
   -0.9007    3.6897    2.8768 H   0  0  0  0  0  0  0  0  0  0  0  0
    0.5916    3.4675    3.8138 H   0  0  0  0  0  0  0  0  0  0  0  0
    0.6635    4.2121    2.2041 H   0  0  0  0  0  0  0  0  0  0  0  0
  1  2  1  0  0  0  0
  2  3  1  0  0  0  0
  2  4  1  0  0  0  0
  2  5  1  0  0  0  0
  5  6  2  0  0  0  0
  5  7  1  0  0  0  0
  7  8  1  0  0  0  0
  7  9  1  0  0  0  0
  9 10  1  0  0  0  0
  9 11  1  0  0  0  0
  9 19  1  0  0  0  0
 11 12  1  0  0  0  0
 11 13  1  0  0  0  0
 11 14  1  0  0  0  0
 14 15  2  0  0  0  0
 14 16  1  0  0  0  0
 16 17  1  0  0  0  0
 16 18  1  0  0  0  0
 19 20  2  0  0  0  0
 19 21  1  0  0  0  0
 21 22  1  0  0  0  0
 21 23  1  0  0  0  0
 23 24  1  0  0  0  0
 23 25  1  0  0  0  0
 23 26  1  0  0  0  0
M  END
$$$$

  -OEChem-01062216063D

 26 25  0     1  0  0  0  0  0999 V2000
   -2.8734   -3.2149    1.0239 H   0  0  0  0  0  0  0  0  0  0  0  0
   -2.8557   -2.1857    0.6544 C   0  0  0  0  0  0  0  0  0  0  0  0
   -3.5882   -1.5978    1.2125 H   0  0  0  0  0  0  0  0  0  0  0  0
   -3.1285   -2.1881   -0.4035 H   0  0  0  0  0  0  0  0  0  0  0  0
   -1.4711   -1.5916    0.8320 C   0  0  0  0  0  0  0  0  0  0  0  0
   -0.6179   -2.2155    1.4383 O   0  0  0  0  0  0  0  0  0  0  0  0
   -1.2136   -0.3148    0.3749 N   0  0  0  0  0  0  0  0  0  0  0  0
   -1.9951    0.2078   -0.0152 H   0  0  0  0  0  0  0  0  0  0  0  0
    0.0974    0.3521    0.4042 C   0  0  1  0  0  0  0  0  0  0  0  0
    0.7894   -0.1762    1.0707 H   0  0  0  0  0  0  0  0  0  0  0  0
    0.6858    0.3914   -1.0210 C   0  0  0  0  0  0  0  0  0  0  0  0
   -0.0508    0.8232   -1.7041 H   0  0  0  0  0  0  0  0  0  0  0  0
    1.5646    1.0420   -1.0326 H   0  0  0  0  0  0  0  0  0  0  0  0
    1.1187   -0.9693   -1.5461 C   0  0  0  0  0  0  0  0  0  0  0  0
    1.7102   -1.7768   -0.8580 O   0  0  0  0  0  0  0  0  0  0  0  0
    0.8528   -1.3620   -2.8271 N   0  0  0  0  0  0  0  0  0  0  0  0
    1.0298   -2.3398   -3.0399 H   0  0  0  0  0  0  0  0  0  0  0  0
    0.2069   -0.8198   -3.3901 H   0  0  0  0  0  0  0  0  0  0  0  0
   -0.0601    1.7949    0.9172 C   0  0  0  0  0  0  0  0  0  0  0  0
   -0.8065    2.5700    0.3300 O   0  0  0  0  0  0  0  0  0  0  0  0
    0.5998    2.2111    2.0579 N   0  0  0  0  0  0  0  0  0  0  0  0
    1.1498    1.5196    2.5613 H   0  0  0  0  0  0  0  0  0  0  0  0
    0.4416    3.5408    2.6337 C   0  0  0  0  0  0  0  0  0  0  0  0
   -0.5999    3.7098    2.9264 H   0  0  0  0  0  0  0  0  0  0  0  0
    1.0722    3.6457    3.5218 H   0  0  0  0  0  0  0  0  0  0  0  0
    0.7343    4.3090    1.9104 H   0  0  0  0  0  0  0  0  0  0  0  0
  1  2  1  0  0  0  0
  2  3  1  0  0  0  0
  2  4  1  0  0  0  0
  2  5  1  0  0  0  0
  5  6  2  0  0  0  0
  5  7  1  0  0  0  0
  7  8  1  0  0  0  0
  7  9  1  0  0  0  0
  9 10  1  0  0  0  0
  9 11  1  0  0  0  0
  9 19  1  0  0  0  0
 11 12  1  0  0  0  0
 11 13  1  0  0  0  0
 11 14  1  0  0  0  0
 14 15  2  0  0  0  0
 14 16  1  0  0  0  0
 16 17  1  0  0  0  0
 16 18  1  0  0  0  0
 19 20  2  0  0  0  0
 19 21  1  0  0  0  0
 21 22  1  0  0  0  0
 21 23  1  0  0  0  0
 23 24  1  0  0  0  0
 23 25  1  0  0  0  0
 23 26  1  0  0  0  0
M  END
$$$$

  -OEChem-01062216063D

 26 25  0     1  0  0  0  0  0999 V2000
   -2.8982   -3.2020    1.0592 H   0  0  0  0  0  0  0  0  0  0  0  0
   -2.8737   -2.1744    0.6855 C   0  0  0  0  0  0  0  0  0  0  0  0
   -3.5726   -1.5701    1.2688 H   0  0  0  0  0  0  0  0  0  0  0  0
   -3.1864   -2.1740   -0.3614 H   0  0  0  0  0  0  0  0  0  0  0  0
   -1.4716   -1.6076    0.8080 C   0  0  0  0  0  0  0  0  0  0  0  0
   -0.6042   -2.2560    1.3665 O   0  0  0  0  0  0  0  0  0  0  0  0
   -1.2123   -0.3303    0.3532 N   0  0  0  0  0  0  0  0  0  0  0  0
   -2.0088    0.2230    0.0423 H   0  0  0  0  0  0  0  0  0  0  0  0
    0.0942    0.3453    0.3963 C   0  0  1  0  0  0  0  0  0  0  0  0
    0.7801   -0.1811    1.0709 H   0  0  0  0  0  0  0  0  0  0  0  0
    0.6941    0.3956   -1.0230 C   0  0  0  0  0  0  0  0  0  0  0  0
   -0.0401    0.8263   -1.7094 H   0  0  0  0  0  0  0  0  0  0  0  0
    1.5690    1.0515   -1.0247 H   0  0  0  0  0  0  0  0  0  0  0  0
    1.1417   -0.9586   -1.5522 C   0  0  0  0  0  0  0  0  0  0  0  0
    1.7338   -1.7646   -0.8631 O   0  0  0  0  0  0  0  0  0  0  0  0
    0.8816   -1.3507   -2.8343 N   0  0  0  0  0  0  0  0  0  0  0  0
    1.0556   -2.3306   -3.0398 H   0  0  0  0  0  0  0  0  0  0  0  0
    0.2165   -0.8213   -3.3869 H   0  0  0  0  0  0  0  0  0  0  0  0
   -0.0709    1.7891    0.9040 C   0  0  0  0  0  0  0  0  0  0  0  0
   -0.9781    2.4863    0.4637 O   0  0  0  0  0  0  0  0  0  0  0  0
    0.7940    2.3056    1.8501 N   0  0  0  0  0  0  0  0  0  0  0  0
    1.5017    1.6830    2.2313 H   0  0  0  0  0  0  0  0  0  0  0  0
    0.6713    3.6515    2.3961 C   0  0  0  0  0  0  0  0  0  0  0  0
   -0.2880    3.7701    2.9107 H   0  0  0  0  0  0  0  0  0  0  0  0
    1.4750    3.8433    3.1134 H   0  0  0  0  0  0  0  0  0  0  0  0
    0.7374    4.3968    1.5965 H   0  0  0  0  0  0  0  0  0  0  0  0
  1  2  1  0  0  0  0
  2  3  1  0  0  0  0
  2  4  1  0  0  0  0
  2  5  1  0  0  0  0
  5  6  2  0  0  0  0
  5  7  1  0  0  0  0
  7  8  1  0  0  0  0
  7  9  1  0  0  0  0
  9 10  1  0  0  0  0
  9 11  1  0  0  0  0
  9 19  1  0  0  0  0
 11 12  1  0  0  0  0
 11 13  1  0  0  0  0
 11 14  1  0  0  0  0
 14 15  2  0  0  0  0
 14 16  1  0  0  0  0
 16 17  1  0  0  0  0
 16 18  1  0  0  0  0
 19 20  2  0  0  0  0
 19 21  1  0  0  0  0
 21 22  1  0  0  0  0
 21 23  1  0  0  0  0
 23 24  1  0  0  0  0
 23 25  1  0  0  0  0
 23 26  1  0  0  0  0
M  END
$$$$

  -OEChem-01062216063D

 26 25  0     1  0  0  0  0  0999 V2000
   -2.9110   -3.1900    1.0905 H   0  0  0  0  0  0  0  0  0  0  0  0
   -2.8848   -2.1632    0.7151 C   0  0  0  0  0  0  0  0  0  0  0  0
   -3.5523   -1.5480    1.3231 H   0  0  0  0  0  0  0  0  0  0  0  0
   -3.2360   -2.1582   -0.3193 H   0  0  0  0  0  0  0  0  0  0  0  0
   -1.4708   -1.6175    0.7854 C   0  0  0  0  0  0  0  0  0  0  0  0
   -0.5915   -2.2839    1.3022 O   0  0  0  0  0  0  0  0  0  0  0  0
   -1.2141   -0.3398    0.3308 N   0  0  0  0  0  0  0  0  0  0  0  0
   -2.0211    0.2349    0.0928 H   0  0  0  0  0  0  0  0  0  0  0  0
    0.0881    0.3440    0.3874 C   0  0  1  0  0  0  0  0  0  0  0  0
    0.7691   -0.1783    1.0701 H   0  0  0  0  0  0  0  0  0  0  0  0
    0.6963    0.3969   -1.0283 C   0  0  0  0  0  0  0  0  0  0  0  0
   -0.0380    0.8222   -1.7180 H   0  0  0  0  0  0  0  0  0  0  0  0
    1.5671    1.0581   -1.0266 H   0  0  0  0  0  0  0  0  0  0  0  0
    1.1559   -0.9541   -1.5562 C   0  0  0  0  0  0  0  0  0  0  0  0
    1.7494   -1.7558   -0.8637 O   0  0  0  0  0  0  0  0  0  0  0  0
    0.9087   -1.3471   -2.8407 N   0  0  0  0  0  0  0  0  0  0  0  0
    1.0855   -2.3276   -3.0409 H   0  0  0  0  0  0  0  0  0  0  0  0
    0.2367   -0.8261   -3.3931 H   0  0  0  0  0  0  0  0  0  0  0  0
   -0.0831    1.7900    0.8896 C   0  0  0  0  0  0  0  0  0  0  0  0
   -1.1088    2.4092    0.6281 O   0  0  0  0  0  0  0  0  0  0  0  0
    0.9302    2.4110    1.5956 N   0  0  0  0  0  0  0  0  0  0  0  0
    1.7492    1.8562    1.8306 H   0  0  0  0  0  0  0  0  0  0  0  0
    0.8285    3.7706    2.1118 C   0  0  0  0  0  0  0  0  0  0  0  0
    0.0017    3.8487    2.8255 H   0  0  0  0  0  0  0  0  0  0  0  0
    1.7543    4.0508    2.6231 H   0  0  0  0  0  0  0  0  0  0  0  0
    0.6578    4.4793    1.2946 H   0  0  0  0  0  0  0  0  0  0  0  0
  1  2  1  0  0  0  0
  2  3  1  0  0  0  0
  2  4  1  0  0  0  0
  2  5  1  0  0  0  0
  5  6  2  0  0  0  0
  5  7  1  0  0  0  0
  7  8  1  0  0  0  0
  7  9  1  0  0  0  0
  9 10  1  0  0  0  0
  9 11  1  0  0  0  0
  9 19  1  0  0  0  0
 11 12  1  0  0  0  0
 11 13  1  0  0  0  0
 11 14  1  0  0  0  0
 14 15  2  0  0  0  0
 14 16  1  0  0  0  0
 16 17  1  0  0  0  0
 16 18  1  0  0  0  0
 19 20  2  0  0  0  0
 19 21  1  0  0  0  0
 21 22  1  0  0  0  0
 21 23  1  0  0  0  0
 23 24  1  0  0  0  0
 23 25  1  0  0  0  0
 23 26  1  0  0  0  0
M  END
$$$$

  -OEChem-01062216063D

 26 25  0     1  0  0  0  0  0999 V2000
   -2.9154   -3.1769    1.1169 H   0  0  0  0  0  0  0  0  0  0  0  0
   -2.8894   -2.1507    0.7398 C   0  0  0  0  0  0  0  0  0  0  0  0
   -3.5289   -1.5274    1.3696 H   0  0  0  0  0  0  0  0  0  0  0  0
   -3.2750   -2.1417   -0.2823 H   0  0  0  0  0  0  0  0  0  0  0  0
   -1.4677   -1.6215    0.7626 C   0  0  0  0  0  0  0  0  0  0  0  0
   -0.5794   -2.3012    1.2451 O   0  0  0  0  0  0  0  0  0  0  0  0
   -1.2149   -0.3433    0.3074 N   0  0  0  0  0  0  0  0  0  0  0  0
   -2.0287    0.2458    0.1352 H   0  0  0  0  0  0  0  0  0  0  0  0
    0.0842    0.3463    0.3771 C   0  0  1  0  0  0  0  0  0  0  0  0
    0.7621   -0.1701    1.0677 H   0  0  0  0  0  0  0  0  0  0  0  0
    0.6979    0.3933   -1.0379 C   0  0  0  0  0  0  0  0  0  0  0  0
   -0.0364    0.8121   -1.7313 H   0  0  0  0  0  0  0  0  0  0  0  0
    1.5668    1.0565   -1.0402 H   0  0  0  0  0  0  0  0  0  0  0  0
    1.1651   -0.9573   -1.5608 C   0  0  0  0  0  0  0  0  0  0  0  0
    1.7601   -1.7541   -0.8643 O   0  0  0  0  0  0  0  0  0  0  0  0
    0.9285   -1.3522   -2.8467 N   0  0  0  0  0  0  0  0  0  0  0  0
    1.1064   -2.3337   -3.0411 H   0  0  0  0  0  0  0  0  0  0  0  0
    0.2524   -0.8384   -3.4006 H   0  0  0  0  0  0  0  0  0  0  0  0
   -0.0944    1.7951    0.8749 C   0  0  0  0  0  0  0  0  0  0  0  0
   -1.1948    2.3339    0.8166 O   0  0  0  0  0  0  0  0  0  0  0  0
    0.9968    2.5239    1.3109 N   0  0  0  0  0  0  0  0  0  0  0  0
    1.8857    2.0370    1.3894 H   0  0  0  0  0  0  0  0  0  0  0  0
    0.8990    3.8929    1.8026 C   0  0  0  0  0  0  0  0  0  0  0  0
    0.2523    3.9379    2.6852 H   0  0  0  0  0  0  0  0  0  0  0  0
    1.8892    4.2669    2.0797 H   0  0  0  0  0  0  0  0  0  0  0  0
    0.4865    4.5495    1.0294 H   0  0  0  0  0  0  0  0  0  0  0  0
  1  2  1  0  0  0  0
  2  3  1  0  0  0  0
  2  4  1  0  0  0  0
  2  5  1  0  0  0  0
  5  6  2  0  0  0  0
  5  7  1  0  0  0  0
  7  8  1  0  0  0  0
  7  9  1  0  0  0  0
  9 10  1  0  0  0  0
  9 11  1  0  0  0  0
  9 19  1  0  0  0  0
 11 12  1  0  0  0  0
 11 13  1  0  0  0  0
 11 14  1  0  0  0  0
 14 15  2  0  0  0  0
 14 16  1  0  0  0  0
 16 17  1  0  0  0  0
 16 18  1  0  0  0  0
 19 20  2  0  0  0  0
 19 21  1  0  0  0  0
 21 22  1  0  0  0  0
 21 23  1  0  0  0  0
 23 24  1  0  0  0  0
 23 25  1  0  0  0  0
 23 26  1  0  0  0  0
M  END
$$$$

  -OEChem-01062216063D

 26 25  0     1  0  0  0  0  0999 V2000
   -2.8822   -3.1502    1.1590 H   0  0  0  0  0  0  0  0  0  0  0  0
   -2.8738   -2.1296    0.7660 C   0  0  0  0  0  0  0  0  0  0  0  0
   -3.4644   -1.4923    1.4287 H   0  0  0  0  0  0  0  0  0  0  0  0
   -3.3275   -2.1314   -0.2278 H   0  0  0  0  0  0  0  0  0  0  0  0
   -1.4494   -1.6130    0.6838 C   0  0  0  0  0  0  0  0  0  0  0  0
   -0.5301   -2.3235    1.0532 O   0  0  0  0  0  0  0  0  0  0  0  0
   -1.2213   -0.3250    0.2402 N   0  0  0  0  0  0  0  0  0  0  0  0
   -2.0411    0.2795    0.2273 H   0  0  0  0  0  0  0  0  0  0  0  0
    0.0801    0.3587    0.3394 C   0  0  1  0  0  0  0  0  0  0  0  0
    0.8358   -0.2844    0.8067 H   0  0  0  0  0  0  0  0  0  0  0  0
    0.5167    0.7273   -1.0939 C   0  0  0  0  0  0  0  0  0  0  0  0
   -0.2920    1.2716   -1.5890 H   0  0  0  0  0  0  0  0  0  0  0  0
    1.3865    1.3880   -1.0617 H   0  0  0  0  0  0  0  0  0  0  0  0
    0.9048   -0.4793   -1.9366 C   0  0  0  0  0  0  0  0  0  0  0  0
    1.5711   -1.3941   -1.4960 O   0  0  0  0  0  0  0  0  0  0  0  0
    0.5055   -0.6069   -3.2364 N   0  0  0  0  0  0  0  0  0  0  0  0
    0.6500   -1.5246   -3.6483 H   0  0  0  0  0  0  0  0  0  0  0  0
   -0.2351   -0.0065   -3.5813 H   0  0  0  0  0  0  0  0  0  0  0  0
   -0.0305    1.6433    1.1898 C   0  0  0  0  0  0  0  0  0  0  0  0
   -1.1285    2.0416    1.5638 O   0  0  0  0  0  0  0  0  0  0  0  0
    1.0816    2.4360    1.4114 N   0  0  0  0  0  0  0  0  0  0  0  0
    1.9857    2.0591    1.1402 H   0  0  0  0  0  0  0  0  0  0  0  0
    1.0408    3.6748    2.1795 C   0  0  0  0  0  0  0  0  0  0  0  0
    0.7356    3.4752    3.2119 H   0  0  0  0  0  0  0  0  0  0  0  0
    2.0296    4.1431    2.1945 H   0  0  0  0  0  0  0  0  0  0  0  0
    0.3329    4.3808    1.7326 H   0  0  0  0  0  0  0  0  0  0  0  0
  1  2  1  0  0  0  0
  2  3  1  0  0  0  0
  2  4  1  0  0  0  0
  2  5  1  0  0  0  0
  5  6  2  0  0  0  0
  5  7  1  0  0  0  0
  7  8  1  0  0  0  0
  7  9  1  0  0  0  0
  9 10  1  0  0  0  0
  9 11  1  0  0  0  0
  9 19  1  0  0  0  0
 11 12  1  0  0  0  0
 11 13  1  0  0  0  0
 11 14  1  0  0  0  0
 14 15  2  0  0  0  0
 14 16  1  0  0  0  0
 16 17  1  0  0  0  0
 16 18  1  0  0  0  0
 19 20  2  0  0  0  0
 19 21  1  0  0  0  0
 21 22  1  0  0  0  0
 21 23  1  0  0  0  0
 23 24  1  0  0  0  0
 23 25  1  0  0  0  0
 23 26  1  0  0  0  0
M  END
$$$$

  -OEChem-01062216063D

 26 25  0     1  0  0  0  0  0999 V2000
   -2.8742   -3.1316    1.1711 H   0  0  0  0  0  0  0  0  0  0  0  0
   -2.8671   -2.1118    0.7763 C   0  0  0  0  0  0  0  0  0  0  0  0
   -3.4381   -1.4694    1.4513 H   0  0  0  0  0  0  0  0  0  0  0  0
   -3.3428   -2.1118   -0.2072 H   0  0  0  0  0  0  0  0  0  0  0  0
   -1.4414   -1.6052    0.6623 C   0  0  0  0  0  0  0  0  0  0  0  0
   -0.5183   -2.3277    0.9967 O   0  0  0  0  0  0  0  0  0  0  0  0
   -1.2180   -0.3148    0.2225 N   0  0  0  0  0  0  0  0  0  0  0  0
   -2.0365    0.2904    0.2528 H   0  0  0  0  0  0  0  0  0  0  0  0
    0.0848    0.3673    0.3253 C   0  0  1  0  0  0  0  0  0  0  0  0
    0.8396   -0.2742    0.7962 H   0  0  0  0  0  0  0  0  0  0  0  0
    0.5201    0.7187   -1.1154 C   0  0  0  0  0  0  0  0  0  0  0  0
   -0.2880    1.2589   -1.6158 H   0  0  0  0  0  0  0  0  0  0  0  0
    1.3933    1.3743   -1.0979 H   0  0  0  0  0  0  0  0  0  0  0  0
    0.9053   -0.4984   -1.9454 C   0  0  0  0  0  0  0  0  0  0  0  0
    1.5713   -1.4090   -1.4962 O   0  0  0  0  0  0  0  0  0  0  0  0
    0.5016   -0.6421   -3.2422 N   0  0  0  0  0  0  0  0  0  0  0  0
    0.6401   -1.5676   -3.6389 H   0  0  0  0  0  0  0  0  0  0  0  0
   -0.2426   -0.0481   -3.5903 H   0  0  0  0  0  0  0  0  0  0  0  0
   -0.0326    1.6496    1.1841 C   0  0  0  0  0  0  0  0  0  0  0  0
   -1.0835    1.9061    1.7616 O   0  0  0  0  0  0  0  0  0  0  0  0
    0.9652    2.6093    1.1760 N   0  0  0  0  0  0  0  0  0  0  0  0
    1.8505    2.3578    0.7456 H   0  0  0  0  0  0  0  0  0  0  0  0
    0.8864    3.8512    1.9367 C   0  0  0  0  0  0  0  0  0  0  0  0
    0.8247    3.6402    3.0095 H   0  0  0  0  0  0  0  0  0  0  0  0
    1.7748    4.4635    1.7544 H   0  0  0  0  0  0  0  0  0  0  0  0
    0.0042    4.4280    1.6394 H   0  0  0  0  0  0  0  0  0  0  0  0
  1  2  1  0  0  0  0
  2  3  1  0  0  0  0
  2  4  1  0  0  0  0
  2  5  1  0  0  0  0
  5  6  2  0  0  0  0
  5  7  1  0  0  0  0
  7  8  1  0  0  0  0
  7  9  1  0  0  0  0
  9 10  1  0  0  0  0
  9 11  1  0  0  0  0
  9 19  1  0  0  0  0
 11 12  1  0  0  0  0
 11 13  1  0  0  0  0
 11 14  1  0  0  0  0
 14 15  2  0  0  0  0
 14 16  1  0  0  0  0
 16 17  1  0  0  0  0
 16 18  1  0  0  0  0
 19 20  2  0  0  0  0
 19 21  1  0  0  0  0
 21 22  1  0  0  0  0
 21 23  1  0  0  0  0
 23 24  1  0  0  0  0
 23 25  1  0  0  0  0
 23 26  1  0  0  0  0
M  END
$$$$

  -OEChem-01062216063D

 26 25  0     1  0  0  0  0  0999 V2000
   -2.8659   -3.1139    1.1877 H   0  0  0  0  0  0  0  0  0  0  0  0
   -2.8625   -2.0955    0.7889 C   0  0  0  0  0  0  0  0  0  0  0  0
   -3.4178   -1.4487    1.4726 H   0  0  0  0  0  0  0  0  0  0  0  0
   -3.3573   -2.0971   -0.1850 H   0  0  0  0  0  0  0  0  0  0  0  0
   -1.4375   -1.5947    0.6454 C   0  0  0  0  0  0  0  0  0  0  0  0
   -0.5114   -2.3263    0.9498 O   0  0  0  0  0  0  0  0  0  0  0  0
   -1.2186   -0.3027    0.2070 N   0  0  0  0  0  0  0  0  0  0  0  0
   -2.0372    0.2998    0.2586 H   0  0  0  0  0  0  0  0  0  0  0  0
    0.0860    0.3775    0.3072 C   0  0  1  0  0  0  0  0  0  0  0  0
    0.8392   -0.2618    0.7843 H   0  0  0  0  0  0  0  0  0  0  0  0
    0.5272    0.7092   -1.1377 C   0  0  0  0  0  0  0  0  0  0  0  0
   -0.2755    1.2483   -1.6477 H   0  0  0  0  0  0  0  0  0  0  0  0
    1.4068    1.3560   -1.1258 H   0  0  0  0  0  0  0  0  0  0  0  0
    0.9124   -0.5187   -1.9523 C   0  0  0  0  0  0  0  0  0  0  0  0
    1.5748   -1.4260   -1.4922 O   0  0  0  0  0  0  0  0  0  0  0  0
    0.5050   -0.6802   -3.2458 N   0  0  0  0  0  0  0  0  0  0  0  0
    0.6390   -1.6131   -3.6265 H   0  0  0  0  0  0  0  0  0  0  0  0
   -0.2441   -0.0941   -3.5967 H   0  0  0  0  0  0  0  0  0  0  0  0
   -0.0383    1.6574    1.1731 C   0  0  0  0  0  0  0  0  0  0  0  0
   -0.9798    1.7755    1.9490 O   0  0  0  0  0  0  0  0  0  0  0  0
    0.7716    2.7615    0.9641 N   0  0  0  0  0  0  0  0  0  0  0  0
    1.5826    2.6381    0.3654 H   0  0  0  0  0  0  0  0  0  0  0  0
    0.6549    3.9960    1.7327 C   0  0  0  0  0  0  0  0  0  0  0  0
    0.8447    3.8060    2.7944 H   0  0  0  0  0  0  0  0  0  0  0  0
    1.3814    4.7328    1.3772 H   0  0  0  0  0  0  0  0  0  0  0  0
   -0.3479    4.4226    1.6248 H   0  0  0  0  0  0  0  0  0  0  0  0
  1  2  1  0  0  0  0
  2  3  1  0  0  0  0
  2  4  1  0  0  0  0
  2  5  1  0  0  0  0
  5  6  2  0  0  0  0
  5  7  1  0  0  0  0
  7  8  1  0  0  0  0
  7  9  1  0  0  0  0
  9 10  1  0  0  0  0
  9 11  1  0  0  0  0
  9 19  1  0  0  0  0
 11 12  1  0  0  0  0
 11 13  1  0  0  0  0
 11 14  1  0  0  0  0
 14 15  2  0  0  0  0
 14 16  1  0  0  0  0
 16 17  1  0  0  0  0
 16 18  1  0  0  0  0
 19 20  2  0  0  0  0
 19 21  1  0  0  0  0
 21 22  1  0  0  0  0
 21 23  1  0  0  0  0
 23 24  1  0  0  0  0
 23 25  1  0  0  0  0
 23 26  1  0  0  0  0
M  END
$$$$

  -OEChem-01062216063D

 26 25  0     1  0  0  0  0  0999 V2000
   -2.8639   -3.1133    1.1844 H   0  0  0  0  0  0  0  0  0  0  0  0
   -2.8650   -2.0840    0.8146 C   0  0  0  0  0  0  0  0  0  0  0  0
   -3.3940   -1.4530    1.5332 H   0  0  0  0  0  0  0  0  0  0  0  0
   -3.3883   -2.0543   -0.1438 H   0  0  0  0  0  0  0  0  0  0  0  0
   -1.4410   -1.5893    0.6432 C   0  0  0  0  0  0  0  0  0  0  0  0
   -0.5130   -2.3278    0.9231 O   0  0  0  0  0  0  0  0  0  0  0  0
   -1.2259   -0.2967    0.2036 N   0  0  0  0  0  0  0  0  0  0  0  0
   -2.0461    0.3027    0.2528 H   0  0  0  0  0  0  0  0  0  0  0  0
    0.0807    0.3811    0.2949 C   0  0  1  0  0  0  0  0  0  0  0  0
    0.8315   -0.2565    0.7780 H   0  0  0  0  0  0  0  0  0  0  0  0
    0.5331    0.7000   -1.1494 C   0  0  0  0  0  0  0  0  0  0  0  0
   -0.2620    1.2402   -1.6701 H   0  0  0  0  0  0  0  0  0  0  0  0
    1.4184    1.3391   -1.1305 H   0  0  0  0  0  0  0  0  0  0  0  0
    0.9206   -0.5335   -1.9548 C   0  0  0  0  0  0  0  0  0  0  0  0
    1.5772   -1.4407   -1.4872 O   0  0  0  0  0  0  0  0  0  0  0  0
    0.5319   -0.6944   -3.2541 N   0  0  0  0  0  0  0  0  0  0  0  0
    0.6749   -1.6262   -3.6346 H   0  0  0  0  0  0  0  0  0  0  0  0
   -0.2116   -0.1088   -3.6170 H   0  0  0  0  0  0  0  0  0  0  0  0
   -0.0473    1.6578    1.1647 C   0  0  0  0  0  0  0  0  0  0  0  0
   -0.8153    1.6603    2.1185 O   0  0  0  0  0  0  0  0  0  0  0  0
    0.5178    2.8665    0.7908 N   0  0  0  0  0  0  0  0  0  0  0  0
    1.1815    2.8561    0.0230 H   0  0  0  0  0  0  0  0  0  0  0  0
    0.3622    4.0956    1.5613 C   0  0  0  0  0  0  0  0  0  0  0  0
    0.7703    3.9700    2.5697 H   0  0  0  0  0  0  0  0  0  0  0  0
    0.8932    4.9183    1.0728 H   0  0  0  0  0  0  0  0  0  0  0  0
   -0.6954    4.3680    1.6407 H   0  0  0  0  0  0  0  0  0  0  0  0
  1  2  1  0  0  0  0
  2  3  1  0  0  0  0
  2  4  1  0  0  0  0
  2  5  1  0  0  0  0
  5  6  2  0  0  0  0
  5  7  1  0  0  0  0
  7  8  1  0  0  0  0
  7  9  1  0  0  0  0
  9 10  1  0  0  0  0
  9 11  1  0  0  0  0
  9 19  1  0  0  0  0
 11 12  1  0  0  0  0
 11 13  1  0  0  0  0
 11 14  1  0  0  0  0
 14 15  2  0  0  0  0
 14 16  1  0  0  0  0
 16 17  1  0  0  0  0
 16 18  1  0  0  0  0
 19 20  2  0  0  0  0
 19 21  1  0  0  0  0
 21 22  1  0  0  0  0
 21 23  1  0  0  0  0
 23 24  1  0  0  0  0
 23 25  1  0  0  0  0
 23 26  1  0  0  0  0
M  END
$$$$

  -OEChem-01062216063D

 26 25  0     1  0  0  0  0  0999 V2000
   -2.8632   -3.1213    1.1811 H   0  0  0  0  0  0  0  0  0  0  0  0
   -2.8671   -2.0911    0.8139 C   0  0  0  0  0  0  0  0  0  0  0  0
   -3.4044   -1.4652    1.5305 H   0  0  0  0  0  0  0  0  0  0  0  0
   -3.3844   -2.0621   -0.1477 H   0  0  0  0  0  0  0  0  0  0  0  0
   -1.4443   -1.5889    0.6534 C   0  0  0  0  0  0  0  0  0  0  0  0
   -0.5151   -2.3260    0.9320 O   0  0  0  0  0  0  0  0  0  0  0  0
   -1.2327   -0.2956    0.2128 N   0  0  0  0  0  0  0  0  0  0  0  0
   -2.0588    0.2962    0.2311 H   0  0  0  0  0  0  0  0  0  0  0  0
    0.0721    0.3864    0.2955 C   0  0  1  0  0  0  0  0  0  0  0  0
    0.8241   -0.2484    0.7815 H   0  0  0  0  0  0  0  0  0  0  0  0
    0.5322    0.7018   -1.1464 C   0  0  0  0  0  0  0  0  0  0  0  0
   -0.2616    1.2359   -1.6750 H   0  0  0  0  0  0  0  0  0  0  0  0
    1.4148    1.3458   -1.1178 H   0  0  0  0  0  0  0  0  0  0  0  0
    0.9278   -0.5330   -1.9467 C   0  0  0  0  0  0  0  0  0  0  0  0
    1.5837   -1.4383   -1.4749 O   0  0  0  0  0  0  0  0  0  0  0  0
    0.5459   -0.6979   -3.2477 N   0  0  0  0  0  0  0  0  0  0  0  0
    0.6929   -1.6303   -3.6250 H   0  0  0  0  0  0  0  0  0  0  0  0
   -0.1937   -0.1128   -3.6187 H   0  0  0  0  0  0  0  0  0  0  0  0
   -0.0554    1.6616    1.1649 C   0  0  0  0  0  0  0  0  0  0  0  0
   -0.5914    1.5876    2.2620 O   0  0  0  0  0  0  0  0  0  0  0  0
    0.2250    2.9244    0.6672 N   0  0  0  0  0  0  0  0  0  0  0  0
    0.6785    2.9830   -0.2386 H   0  0  0  0  0  0  0  0  0  0  0  0
    0.0453    4.1486    1.4404 C   0  0  0  0  0  0  0  0  0  0  0  0
    0.6700    4.1292    2.3397 H   0  0  0  0  0  0  0  0  0  0  0  0
    0.3278    5.0197    0.8416 H   0  0  0  0  0  0  0  0  0  0  0  0
   -1.0016    4.2627    1.7411 H   0  0  0  0  0  0  0  0  0  0  0  0
  1  2  1  0  0  0  0
  2  3  1  0  0  0  0
  2  4  1  0  0  0  0
  2  5  1  0  0  0  0
  5  6  2  0  0  0  0
  5  7  1  0  0  0  0
  7  8  1  0  0  0  0
  7  9  1  0  0  0  0
  9 10  1  0  0  0  0
  9 11  1  0  0  0  0
  9 19  1  0  0  0  0
 11 12  1  0  0  0  0
 11 13  1  0  0  0  0
 11 14  1  0  0  0  0
 14 15  2  0  0  0  0
 14 16  1  0  0  0  0
 16 17  1  0  0  0  0
 16 18  1  0  0  0  0
 19 20  2  0  0  0  0
 19 21  1  0  0  0  0
 21 22  1  0  0  0  0
 21 23  1  0  0  0  0
 23 24  1  0  0  0  0
 23 25  1  0  0  0  0
 23 26  1  0  0  0  0
M  END
$$$$

  -OEChem-01062216063D

 26 25  0     1  0  0  0  0  0999 V2000
   -2.8581   -3.1412    1.1746 H   0  0  0  0  0  0  0  0  0  0  0  0
   -2.8672   -2.1158    0.7941 C   0  0  0  0  0  0  0  0  0  0  0  0
   -3.4368   -1.4904    1.4855 H   0  0  0  0  0  0  0  0  0  0  0  0
   -3.3543   -2.1077   -0.1836 H   0  0  0  0  0  0  0  0  0  0  0  0
   -1.4482   -1.5924    0.6718 C   0  0  0  0  0  0  0  0  0  0  0  0
   -0.5166   -2.3157    0.9760 O   0  0  0  0  0  0  0  0  0  0  0  0
   -1.2430   -0.2983    0.2297 N   0  0  0  0  0  0  0  0  0  0  0  0
   -2.0770    0.2807    0.1967 H   0  0  0  0  0  0  0  0  0  0  0  0
    0.0565    0.3943    0.3043 C   0  0  1  0  0  0  0  0  0  0  0  0
    0.8131   -0.2352    0.7908 H   0  0  0  0  0  0  0  0  0  0  0  0
    0.5190    0.7114   -1.1360 C   0  0  0  0  0  0  0  0  0  0  0  0
   -0.2781    1.2334   -1.6710 H   0  0  0  0  0  0  0  0  0  0  0  0
    1.3926    1.3679   -1.1011 H   0  0  0  0  0  0  0  0  0  0  0  0
    0.9271   -0.5220   -1.9326 C   0  0  0  0  0  0  0  0  0  0  0  0
    1.5880   -1.4217   -1.4575 O   0  0  0  0  0  0  0  0  0  0  0  0
    0.5519   -0.6949   -3.2346 N   0  0  0  0  0  0  0  0  0  0  0  0
    0.7138   -1.6257   -3.6099 H   0  0  0  0  0  0  0  0  0  0  0  0
   -0.1888   -0.1170   -3.6144 H   0  0  0  0  0  0  0  0  0  0  0  0
   -0.0690    1.6693    1.1696 C   0  0  0  0  0  0  0  0  0  0  0  0
   -0.3166    1.5665    2.3619 O   0  0  0  0  0  0  0  0  0  0  0  0
   -0.0992    2.9344    0.6049 N   0  0  0  0  0  0  0  0  0  0  0  0
    0.1140    3.0138   -0.3838 H   0  0  0  0  0  0  0  0  0  0  0  0
   -0.2750    4.1543    1.3855 C   0  0  0  0  0  0  0  0  0  0  0  0
    0.5387    4.2658    2.1099 H   0  0  0  0  0  0  0  0  0  0  0  0
   -0.2753    5.0287    0.7277 H   0  0  0  0  0  0  0  0  0  0  0  0
   -1.2270    4.1302    1.9265 H   0  0  0  0  0  0  0  0  0  0  0  0
  1  2  1  0  0  0  0
  2  3  1  0  0  0  0
  2  4  1  0  0  0  0
  2  5  1  0  0  0  0
  5  6  2  0  0  0  0
  5  7  1  0  0  0  0
  7  8  1  0  0  0  0
  7  9  1  0  0  0  0
  9 10  1  0  0  0  0
  9 11  1  0  0  0  0
  9 19  1  0  0  0  0
 11 12  1  0  0  0  0
 11 13  1  0  0  0  0
 11 14  1  0  0  0  0
 14 15  2  0  0  0  0
 14 16  1  0  0  0  0
 16 17  1  0  0  0  0
 16 18  1  0  0  0  0
 19 20  2  0  0  0  0
 19 21  1  0  0  0  0
 21 22  1  0  0  0  0
 21 23  1  0  0  0  0
 23 24  1  0  0  0  0
 23 25  1  0  0  0  0
 23 26  1  0  0  0  0
M  END
$$$$

  -OEChem-01062216063D

 26 25  0     1  0  0  0  0  0999 V2000
   -2.8549   -3.1713    1.1569 H   0  0  0  0  0  0  0  0  0  0  0  0
   -2.8682   -2.1456    0.7773 C   0  0  0  0  0  0  0  0  0  0  0  0
   -3.4627   -1.5285    1.4553 H   0  0  0  0  0  0  0  0  0  0  0  0
   -3.3319   -2.1428   -0.2118 H   0  0  0  0  0  0  0  0  0  0  0  0
   -1.4533   -1.6043    0.6898 C   0  0  0  0  0  0  0  0  0  0  0  0
   -0.5215   -2.3134    1.0236 O   0  0  0  0  0  0  0  0  0  0  0  0
   -1.2527   -0.3094    0.2468 N   0  0  0  0  0  0  0  0  0  0  0  0
   -2.0925    0.2549    0.1600 H   0  0  0  0  0  0  0  0  0  0  0  0
    0.0416    0.3941    0.3194 C   0  0  1  0  0  0  0  0  0  0  0  0
    0.8032   -0.2313    0.8040 H   0  0  0  0  0  0  0  0  0  0  0  0
    0.5043    0.7220   -1.1168 C   0  0  0  0  0  0  0  0  0  0  0  0
   -0.2957    1.2372   -1.6533 H   0  0  0  0  0  0  0  0  0  0  0  0
    1.3688    1.3906   -1.0743 H   0  0  0  0  0  0  0  0  0  0  0  0
    0.9238   -0.5058   -1.9167 C   0  0  0  0  0  0  0  0  0  0  0  0
    1.5900   -1.4027   -1.4438 O   0  0  0  0  0  0  0  0  0  0  0  0
    0.5538   -0.6760   -3.2207 N   0  0  0  0  0  0  0  0  0  0  0  0
    0.7284   -1.6009   -3.6051 H   0  0  0  0  0  0  0  0  0  0  0  0
   -0.1768   -0.0918   -3.6100 H   0  0  0  0  0  0  0  0  0  0  0  0
   -0.0844    1.6702    1.1798 C   0  0  0  0  0  0  0  0  0  0  0  0
   -0.0128    1.5957    2.3967 O   0  0  0  0  0  0  0  0  0  0  0  0
   -0.4268    2.8880    0.6144 N   0  0  0  0  0  0  0  0  0  0  0  0
   -0.4634    2.9443   -0.3977 H   0  0  0  0  0  0  0  0  0  0  0  0
   -0.5927    4.1106    1.3928 C   0  0  0  0  0  0  0  0  0  0  0  0
    0.3408    4.3683    1.9044 H   0  0  0  0  0  0  0  0  0  0  0  0
   -0.8697    4.9421    0.7377 H   0  0  0  0  0  0  0  0  0  0  0  0
   -1.3814    3.9842    2.1421 H   0  0  0  0  0  0  0  0  0  0  0  0
  1  2  1  0  0  0  0
  2  3  1  0  0  0  0
  2  4  1  0  0  0  0
  2  5  1  0  0  0  0
  5  6  2  0  0  0  0
  5  7  1  0  0  0  0
  7  8  1  0  0  0  0
  7  9  1  0  0  0  0
  9 10  1  0  0  0  0
  9 11  1  0  0  0  0
  9 19  1  0  0  0  0
 11 12  1  0  0  0  0
 11 13  1  0  0  0  0
 11 14  1  0  0  0  0
 14 15  2  0  0  0  0
 14 16  1  0  0  0  0
 16 17  1  0  0  0  0
 16 18  1  0  0  0  0
 19 20  2  0  0  0  0
 19 21  1  0  0  0  0
 21 22  1  0  0  0  0
 21 23  1  0  0  0  0
 23 24  1  0  0  0  0
 23 25  1  0  0  0  0
 23 26  1  0  0  0  0
M  END
$$$$

  -OEChem-01062216063D

 26 25  0     1  0  0  0  0  0999 V2000
   -2.8590   -3.2246    1.1593 H   0  0  0  0  0  0  0  0  0  0  0  0
   -2.8783   -2.1974    0.7837 C   0  0  0  0  0  0  0  0  0  0  0  0
   -3.5325   -1.6016    1.4245 H   0  0  0  0  0  0  0  0  0  0  0  0
   -3.2781   -2.2036   -0.2329 H   0  0  0  0  0  0  0  0  0  0  0  0
   -1.4771   -1.6147    0.7871 C   0  0  0  0  0  0  0  0  0  0  0  0
   -0.5541   -2.2814    1.2186 O   0  0  0  0  0  0  0  0  0  0  0  0
   -1.2800   -0.3268    0.3228 N   0  0  0  0  0  0  0  0  0  0  0  0
   -2.1178    0.2032    0.1059 H   0  0  0  0  0  0  0  0  0  0  0  0
    0.0152    0.3784    0.3488 C   0  0  1  0  0  0  0  0  0  0  0  0
    0.7916   -0.2439    0.8137 H   0  0  0  0  0  0  0  0  0  0  0  0
    0.4352    0.7036   -1.1006 C   0  0  0  0  0  0  0  0  0  0  0  0
   -0.3798    1.2168   -1.6158 H   0  0  0  0  0  0  0  0  0  0  0  0
    1.2993    1.3741   -1.0837 H   0  0  0  0  0  0  0  0  0  0  0  0
    0.8294   -0.5287   -1.9061 C   0  0  0  0  0  0  0  0  0  0  0  0
    1.5070   -1.4262   -1.4508 O   0  0  0  0  0  0  0  0  0  0  0  0
    0.4560   -0.6812   -3.2116 N   0  0  0  0  0  0  0  0  0  0  0  0
    0.9032   -1.4479   -3.7074 H   0  0  0  0  0  0  0  0  0  0  0  0
    0.0996    0.1176   -3.7231 H   0  0  0  0  0  0  0  0  0  0  0  0
   -0.0801    1.6670    1.1924 C   0  0  0  0  0  0  0  0  0  0  0  0
    0.3761    1.7032    2.3246 O   0  0  0  0  0  0  0  0  0  0  0  0
   -0.7243    2.7904    0.6996 N   0  0  0  0  0  0  0  0  0  0  0  0
   -1.0837    2.7526   -0.2478 H   0  0  0  0  0  0  0  0  0  0  0  0
   -0.8663    4.0270    1.4603 C   0  0  0  0  0  0  0  0  0  0  0  0
    0.1172    4.4297    1.7249 H   0  0  0  0  0  0  0  0  0  0  0  0
   -1.3993    4.7777    0.8690 H   0  0  0  0  0  0  0  0  0  0  0  0
   -1.4319    3.8471    2.3807 H   0  0  0  0  0  0  0  0  0  0  0  0
  1  2  1  0  0  0  0
  2  3  1  0  0  0  0
  2  4  1  0  0  0  0
  2  5  1  0  0  0  0
  5  6  2  0  0  0  0
  5  7  1  0  0  0  0
  7  8  1  0  0  0  0
  7  9  1  0  0  0  0
  9 10  1  0  0  0  0
  9 11  1  0  0  0  0
  9 19  1  0  0  0  0
 11 12  1  0  0  0  0
 11 13  1  0  0  0  0
 11 14  1  0  0  0  0
 14 15  2  0  0  0  0
 14 16  1  0  0  0  0
 16 17  1  0  0  0  0
 16 18  1  0  0  0  0
 19 20  2  0  0  0  0
 19 21  1  0  0  0  0
 21 22  1  0  0  0  0
 21 23  1  0  0  0  0
 23 24  1  0  0  0  0
 23 25  1  0  0  0  0
 23 26  1  0  0  0  0
M  END
$$$$

  -OEChem-01062216063D

 26 25  0     1  0  0  0  0  0999 V2000
   -2.8286   -3.3003    1.1013 H   0  0  0  0  0  0  0  0  0  0  0  0
   -2.8572   -2.2825    0.7016 C   0  0  0  0  0  0  0  0  0  0  0  0
   -3.6072   -1.7100    1.2525 H   0  0  0  0  0  0  0  0  0  0  0  0
   -3.1415   -2.3284   -0.3522 H   0  0  0  0  0  0  0  0  0  0  0  0
   -1.4952   -1.6283    0.8449 C   0  0  0  0  0  0  0  0  0  0  0  0
   -0.5977   -2.2316    1.4044 O   0  0  0  0  0  0  0  0  0  0  0  0
   -1.3077   -0.3413    0.3738 N   0  0  0  0  0  0  0  0  0  0  0  0
   -2.1141    0.1082   -0.0453 H   0  0  0  0  0  0  0  0  0  0  0  0
   -0.0150    0.3713    0.3898 C   0  0  1  0  0  0  0  0  0  0  0  0
    0.7682   -0.2505    0.8441 H   0  0  0  0  0  0  0  0  0  0  0  0
    0.3939    0.7133   -1.0571 C   0  0  0  0  0  0  0  0  0  0  0  0
   -0.4231    1.2350   -1.5605 H   0  0  0  0  0  0  0  0  0  0  0  0
    1.2573    1.3847   -1.0368 H   0  0  0  0  0  0  0  0  0  0  0  0
    0.7870   -0.5104   -1.8745 C   0  0  0  0  0  0  0  0  0  0  0  0
    1.4697   -1.4112   -1.4329 O   0  0  0  0  0  0  0  0  0  0  0  0
    0.4098   -0.6483   -3.1802 N   0  0  0  0  0  0  0  0  0  0  0  0
    0.8736   -1.3992   -3.6848 H   0  0  0  0  0  0  0  0  0  0  0  0
    0.0768    0.1669   -3.6821 H   0  0  0  0  0  0  0  0  0  0  0  0
   -0.0931    1.6659    1.2245 C   0  0  0  0  0  0  0  0  0  0  0  0
    0.6914    1.8620    2.1399 O   0  0  0  0  0  0  0  0  0  0  0  0
   -0.9834    2.6714    0.8837 N   0  0  0  0  0  0  0  0  0  0  0  0
   -1.6110    2.5045    0.1058 H   0  0  0  0  0  0  0  0  0  0  0  0
   -1.0634    3.9415    1.5963 C   0  0  0  0  0  0  0  0  0  0  0  0
   -0.1086    4.4748    1.5374 H   0  0  0  0  0  0  0  0  0  0  0  0
   -1.8404    4.5744    1.1571 H   0  0  0  0  0  0  0  0  0  0  0  0
   -1.3083    3.7744    2.6506 H   0  0  0  0  0  0  0  0  0  0  0  0
  1  2  1  0  0  0  0
  2  3  1  0  0  0  0
  2  4  1  0  0  0  0
  2  5  1  0  0  0  0
  5  6  2  0  0  0  0
  5  7  1  0  0  0  0
  7  8  1  0  0  0  0
  7  9  1  0  0  0  0
  9 10  1  0  0  0  0
  9 11  1  0  0  0  0
  9 19  1  0  0  0  0
 11 12  1  0  0  0  0
 11 13  1  0  0  0  0
 11 14  1  0  0  0  0
 14 15  2  0  0  0  0
 14 16  1  0  0  0  0
 16 17  1  0  0  0  0
 16 18  1  0  0  0  0
 19 20  2  0  0  0  0
 19 21  1  0  0  0  0
 21 22  1  0  0  0  0
 21 23  1  0  0  0  0
 23 24  1  0  0  0  0
 23 25  1  0  0  0  0
 23 26  1  0  0  0  0
M  END
$$$$

  -OEChem-01062216063D

 26 25  0     1  0  0  0  0  0999 V2000
   -2.7472   -3.3592    1.0170 H   0  0  0  0  0  0  0  0  0  0  0  0
   -2.7771   -2.3656    0.5607 C   0  0  0  0  0  0  0  0  0  0  0  0
   -3.6603   -1.8371    0.9273 H   0  0  0  0  0  0  0  0  0  0  0  0
   -2.8497   -2.4812   -0.5233 H   0  0  0  0  0  0  0  0  0  0  0  0
   -1.5216   -1.5913    0.9170 C   0  0  0  0  0  0  0  0  0  0  0  0
   -0.7015   -2.0886    1.6677 O   0  0  0  0  0  0  0  0  0  0  0  0
   -1.3476   -0.3108    0.4233 N   0  0  0  0  0  0  0  0  0  0  0  0
   -2.0438   -0.0085   -0.2494 H   0  0  0  0  0  0  0  0  0  0  0  0
   -0.0422    0.3807    0.4272 C   0  0  1  0  0  0  0  0  0  0  0  0
    0.7370   -0.2503    0.8755 H   0  0  0  0  0  0  0  0  0  0  0  0
    0.3553    0.7146   -1.0237 C   0  0  0  0  0  0  0  0  0  0  0  0
   -0.4566    1.2547   -1.5164 H   0  0  0  0  0  0  0  0  0  0  0  0
    1.2324    1.3690   -1.0142 H   0  0  0  0  0  0  0  0  0  0  0  0
    0.7161   -0.5195   -1.8397 C   0  0  0  0  0  0  0  0  0  0  0  0
    1.3863   -1.4320   -1.4023 O   0  0  0  0  0  0  0  0  0  0  0  0
    0.3037   -0.6635   -3.1340 N   0  0  0  0  0  0  0  0  0  0  0  0
    0.7498   -1.4227   -3.6423 H   0  0  0  0  0  0  0  0  0  0  0  0
   -0.0092    0.1600   -3.6364 H   0  0  0  0  0  0  0  0  0  0  0  0
   -0.0806    1.6864    1.2461 C   0  0  0  0  0  0  0  0  0  0  0  0
    0.9093    2.0478    1.8648 O   0  0  0  0  0  0  0  0  0  0  0  0
   -1.1376    2.5703    1.1084 N   0  0  0  0  0  0  0  0  0  0  0  0
   -1.9796    2.2116    0.6728 H   0  0  0  0  0  0  0  0  0  0  0  0
   -1.2063    3.8394    1.8241 C   0  0  0  0  0  0  0  0  0  0  0  0
   -0.3552    4.4756    1.5594 H   0  0  0  0  0  0  0  0  0  0  0  0
   -2.1266    4.3713    1.5648 H   0  0  0  0  0  0  0  0  0  0  0  0
   -1.1955    3.6702    2.9061 H   0  0  0  0  0  0  0  0  0  0  0  0
  1  2  1  0  0  0  0
  2  3  1  0  0  0  0
  2  4  1  0  0  0  0
  2  5  1  0  0  0  0
  5  6  2  0  0  0  0
  5  7  1  0  0  0  0
  7  8  1  0  0  0  0
  7  9  1  0  0  0  0
  9 10  1  0  0  0  0
  9 11  1  0  0  0  0
  9 19  1  0  0  0  0
 11 12  1  0  0  0  0
 11 13  1  0  0  0  0
 11 14  1  0  0  0  0
 14 15  2  0  0  0  0
 14 16  1  0  0  0  0
 16 17  1  0  0  0  0
 16 18  1  0  0  0  0
 19 20  2  0  0  0  0
 19 21  1  0  0  0  0
 21 22  1  0  0  0  0
 21 23  1  0  0  0  0
 23 24  1  0  0  0  0
 23 25  1  0  0  0  0
 23 26  1  0  0  0  0
M  END
$$$$

  -OEChem-01062216063D

 26 25  0     1  0  0  0  0  0999 V2000
   -2.7285   -3.3734    0.9831 H   0  0  0  0  0  0  0  0  0  0  0  0
   -2.7540   -2.3850    0.5150 C   0  0  0  0  0  0  0  0  0  0  0  0
   -3.6611   -1.8673    0.8354 H   0  0  0  0  0  0  0  0  0  0  0  0
   -2.7757   -2.5124   -0.5701 H   0  0  0  0  0  0  0  0  0  0  0  0
   -1.5284   -1.5867    0.9183 C   0  0  0  0  0  0  0  0  0  0  0  0
   -0.7357   -2.0580    1.7140 O   0  0  0  0  0  0  0  0  0  0  0  0
   -1.3555   -0.3063    0.4252 N   0  0  0  0  0  0  0  0  0  0  0  0
   -2.0239   -0.0270   -0.2854 H   0  0  0  0  0  0  0  0  0  0  0  0
   -0.0461    0.3788    0.4348 C   0  0  1  0  0  0  0  0  0  0  0  0
    0.7308   -0.2558    0.8817 H   0  0  0  0  0  0  0  0  0  0  0  0
    0.3488    0.7130   -1.0169 C   0  0  0  0  0  0  0  0  0  0  0  0
   -0.4619    1.2594   -1.5049 H   0  0  0  0  0  0  0  0  0  0  0  0
    1.2295    1.3626   -1.0108 H   0  0  0  0  0  0  0  0  0  0  0  0
    0.7007   -0.5228   -1.8339 C   0  0  0  0  0  0  0  0  0  0  0  0
    1.3673   -1.4390   -1.3981 O   0  0  0  0  0  0  0  0  0  0  0  0
    0.2790   -0.6675   -3.1250 N   0  0  0  0  0  0  0  0  0  0  0  0
    0.7240   -1.4257   -3.6358 H   0  0  0  0  0  0  0  0  0  0  0  0
   -0.0317    0.1579   -3.6257 H   0  0  0  0  0  0  0  0  0  0  0  0
   -0.0775    1.6839    1.2557 C   0  0  0  0  0  0  0  0  0  0  0  0
    0.9688    2.1864    1.6395 O   0  0  0  0  0  0  0  0  0  0  0  0
   -1.2464    2.4180    1.3590 N   0  0  0  0  0  0  0  0  0  0  0  0
   -2.1055    1.9222    1.1468 H   0  0  0  0  0  0  0  0  0  0  0  0
   -1.3294    3.6706    2.1012 C   0  0  0  0  0  0  0  0  0  0  0  0
   -0.6431    4.4128    1.6798 H   0  0  0  0  0  0  0  0  0  0  0  0
   -2.3452    4.0741    2.0502 H   0  0  0  0  0  0  0  0  0  0  0  0
   -1.0715    3.5099    3.1534 H   0  0  0  0  0  0  0  0  0  0  0  0
  1  2  1  0  0  0  0
  2  3  1  0  0  0  0
  2  4  1  0  0  0  0
  2  5  1  0  0  0  0
  5  6  2  0  0  0  0
  5  7  1  0  0  0  0
  7  8  1  0  0  0  0
  7  9  1  0  0  0  0
  9 10  1  0  0  0  0
  9 11  1  0  0  0  0
  9 19  1  0  0  0  0
 11 12  1  0  0  0  0
 11 13  1  0  0  0  0
 11 14  1  0  0  0  0
 14 15  2  0  0  0  0
 14 16  1  0  0  0  0
 16 17  1  0  0  0  0
 16 18  1  0  0  0  0
 19 20  2  0  0  0  0
 19 21  1  0  0  0  0
 21 22  1  0  0  0  0
 21 23  1  0  0  0  0
 23 24  1  0  0  0  0
 23 25  1  0  0  0  0
 23 26  1  0  0  0  0
M  END
$$$$

  -OEChem-01062216063D

 26 25  0     1  0  0  0  0  0999 V2000
   -2.7325   -3.3695    0.9690 H   0  0  0  0  0  0  0  0  0  0  0  0
   -2.7497   -2.3854    0.4919 C   0  0  0  0  0  0  0  0  0  0  0  0
   -3.6588   -1.8624    0.7978 H   0  0  0  0  0  0  0  0  0  0  0  0
   -2.7603   -2.5224   -0.5921 H   0  0  0  0  0  0  0  0  0  0  0  0
   -1.5257   -1.5875    0.9012 C   0  0  0  0  0  0  0  0  0  0  0  0
   -0.7403   -2.0554    1.7064 O   0  0  0  0  0  0  0  0  0  0  0  0
   -1.3506   -0.3049    0.4148 N   0  0  0  0  0  0  0  0  0  0  0  0
   -2.0181   -0.0165   -0.2938 H   0  0  0  0  0  0  0  0  0  0  0  0
   -0.0416    0.3817    0.4321 C   0  0  1  0  0  0  0  0  0  0  0  0
    0.7350   -0.2531    0.8785 H   0  0  0  0  0  0  0  0  0  0  0  0
    0.3501    0.7132   -1.0220 C   0  0  0  0  0  0  0  0  0  0  0  0
   -0.4626    1.2576   -1.5089 H   0  0  0  0  0  0  0  0  0  0  0  0
    1.2303    1.3634   -1.0236 H   0  0  0  0  0  0  0  0  0  0  0  0
    0.7019   -0.5247   -1.8352 C   0  0  0  0  0  0  0  0  0  0  0  0
    1.3707   -1.4383   -1.3968 O   0  0  0  0  0  0  0  0  0  0  0  0
    0.2715   -0.6780   -3.1223 N   0  0  0  0  0  0  0  0  0  0  0  0
    0.7138   -1.4384   -3.6320 H   0  0  0  0  0  0  0  0  0  0  0  0
   -0.0455    0.1438   -3.6250 H   0  0  0  0  0  0  0  0  0  0  0  0
   -0.0756    1.6848    1.2591 C   0  0  0  0  0  0  0  0  0  0  0  0
    0.9543    2.3178    1.4456 O   0  0  0  0  0  0  0  0  0  0  0  0
   -1.2832    2.2541    1.6228 N   0  0  0  0  0  0  0  0  0  0  0  0
   -2.0928    1.6436    1.5738 H   0  0  0  0  0  0  0  0  0  0  0  0
   -1.3754    3.4754    2.4140 C   0  0  0  0  0  0  0  0  0  0  0  0
   -0.8859    4.3068    1.8957 H   0  0  0  0  0  0  0  0  0  0  0  0
   -2.4238    3.7422    2.5771 H   0  0  0  0  0  0  0  0  0  0  0  0
   -0.8958    3.3372    3.3888 H   0  0  0  0  0  0  0  0  0  0  0  0
  1  2  1  0  0  0  0
  2  3  1  0  0  0  0
  2  4  1  0  0  0  0
  2  5  1  0  0  0  0
  5  6  2  0  0  0  0
  5  7  1  0  0  0  0
  7  8  1  0  0  0  0
  7  9  1  0  0  0  0
  9 10  1  0  0  0  0
  9 11  1  0  0  0  0
  9 19  1  0  0  0  0
 11 12  1  0  0  0  0
 11 13  1  0  0  0  0
 11 14  1  0  0  0  0
 14 15  2  0  0  0  0
 14 16  1  0  0  0  0
 16 17  1  0  0  0  0
 16 18  1  0  0  0  0
 19 20  2  0  0  0  0
 19 21  1  0  0  0  0
 21 22  1  0  0  0  0
 21 23  1  0  0  0  0
 23 24  1  0  0  0  0
 23 25  1  0  0  0  0
 23 26  1  0  0  0  0
M  END
$$$$

  -OEChem-01062216063D

 26 25  0     1  0  0  0  0  0999 V2000
   -2.7334   -3.3607    0.9503 H   0  0  0  0  0  0  0  0  0  0  0  0
   -2.7485   -2.3747    0.4769 C   0  0  0  0  0  0  0  0  0  0  0  0
   -3.6576   -1.8513    0.7823 H   0  0  0  0  0  0  0  0  0  0  0  0
   -2.7563   -2.5081   -0.6077 H   0  0  0  0  0  0  0  0  0  0  0  0
   -1.5244   -1.5799    0.8910 C   0  0  0  0  0  0  0  0  0  0  0  0
   -0.7441   -2.0463    1.7021 O   0  0  0  0  0  0  0  0  0  0  0  0
   -1.3459   -0.2961    0.4104 N   0  0  0  0  0  0  0  0  0  0  0  0
   -2.0203    0.0071   -0.2857 H   0  0  0  0  0  0  0  0  0  0  0  0
   -0.0354    0.3878    0.4276 C   0  0  1  0  0  0  0  0  0  0  0  0
    0.7403   -0.2482    0.8730 H   0  0  0  0  0  0  0  0  0  0  0  0
    0.3508    0.7103   -1.0317 C   0  0  0  0  0  0  0  0  0  0  0  0
   -0.4628    1.2540   -1.5180 H   0  0  0  0  0  0  0  0  0  0  0  0
    1.2330    1.3573   -1.0448 H   0  0  0  0  0  0  0  0  0  0  0  0
    0.6968   -0.5331   -1.8388 C   0  0  0  0  0  0  0  0  0  0  0  0
    1.3660   -1.4451   -1.3970 O   0  0  0  0  0  0  0  0  0  0  0  0
    0.2690   -0.6880   -3.1266 N   0  0  0  0  0  0  0  0  0  0  0  0
    0.7118   -1.4490   -3.6348 H   0  0  0  0  0  0  0  0  0  0  0  0
   -0.0459    0.1339   -3.6307 H   0  0  0  0  0  0  0  0  0  0  0  0
   -0.0717    1.6878    1.2627 C   0  0  0  0  0  0  0  0  0  0  0  0
    0.8891    2.4453    1.2728 O   0  0  0  0  0  0  0  0  0  0  0  0
   -1.2402    2.0849    1.8877 N   0  0  0  0  0  0  0  0  0  0  0  0
   -1.9604    1.3732    1.9691 H   0  0  0  0  0  0  0  0  0  0  0  0
   -1.3301    3.2733    2.7276 C   0  0  0  0  0  0  0  0  0  0  0  0
   -1.0657    4.1689    2.1556 H   0  0  0  0  0  0  0  0  0  0  0  0
   -2.3507    3.3941    3.1033 H   0  0  0  0  0  0  0  0  0  0  0  0
   -0.6517    3.1892    3.5832 H   0  0  0  0  0  0  0  0  0  0  0  0
  1  2  1  0  0  0  0
  2  3  1  0  0  0  0
  2  4  1  0  0  0  0
  2  5  1  0  0  0  0
  5  6  2  0  0  0  0
  5  7  1  0  0  0  0
  7  8  1  0  0  0  0
  7  9  1  0  0  0  0
  9 10  1  0  0  0  0
  9 11  1  0  0  0  0
  9 19  1  0  0  0  0
 11 12  1  0  0  0  0
 11 13  1  0  0  0  0
 11 14  1  0  0  0  0
 14 15  2  0  0  0  0
 14 16  1  0  0  0  0
 16 17  1  0  0  0  0
 16 18  1  0  0  0  0
 19 20  2  0  0  0  0
 19 21  1  0  0  0  0
 21 22  1  0  0  0  0
 21 23  1  0  0  0  0
 23 24  1  0  0  0  0
 23 25  1  0  0  0  0
 23 26  1  0  0  0  0
M  END
$$$$

  -OEChem-01062216063D

 26 25  0     1  0  0  0  0  0999 V2000
   -2.7278   -3.3540    0.9068 H   0  0  0  0  0  0  0  0  0  0  0  0
   -2.7527   -2.3544    0.4634 C   0  0  0  0  0  0  0  0  0  0  0  0
   -3.6574   -1.8422    0.7993 H   0  0  0  0  0  0  0  0  0  0  0  0
   -2.7795   -2.4554   -0.6243 H   0  0  0  0  0  0  0  0  0  0  0  0
   -1.5231   -1.5693    0.8797 C   0  0  0  0  0  0  0  0  0  0  0  0
   -0.7459   -2.0406    1.6911 O   0  0  0  0  0  0  0  0  0  0  0  0
   -1.3374   -0.2836    0.4085 N   0  0  0  0  0  0  0  0  0  0  0  0
   -2.0247    0.0428   -0.2644 H   0  0  0  0  0  0  0  0  0  0  0  0
   -0.0249    0.3955    0.4237 C   0  0  1  0  0  0  0  0  0  0  0  0
    0.7492   -0.2436    0.8674 H   0  0  0  0  0  0  0  0  0  0  0  0
    0.3591    0.7096   -1.0391 C   0  0  0  0  0  0  0  0  0  0  0  0
   -0.4537    1.2546   -1.5254 H   0  0  0  0  0  0  0  0  0  0  0  0
    1.2450    1.3509   -1.0601 H   0  0  0  0  0  0  0  0  0  0  0  0
    0.6986   -0.5392   -1.8401 C   0  0  0  0  0  0  0  0  0  0  0  0
    1.3657   -1.4511   -1.3944 O   0  0  0  0  0  0  0  0  0  0  0  0
    0.2637   -0.7008   -3.1248 N   0  0  0  0  0  0  0  0  0  0  0  0
    0.7002   -1.4662   -3.6316 H   0  0  0  0  0  0  0  0  0  0  0  0
   -0.0543    0.1184   -3.6313 H   0  0  0  0  0  0  0  0  0  0  0  0
   -0.0652    1.6890    1.2715 C   0  0  0  0  0  0  0  0  0  0  0  0
    0.7695    2.5707    1.1158 O   0  0  0  0  0  0  0  0  0  0  0  0
   -1.1168    1.9158    2.1408 N   0  0  0  0  0  0  0  0  0  0  0  0
   -1.7143    1.1162    2.3325 H   0  0  0  0  0  0  0  0  0  0  0  0
   -1.1974    3.0812    3.0132 C   0  0  0  0  0  0  0  0  0  0  0  0
   -1.1897    4.0036    2.4229 H   0  0  0  0  0  0  0  0  0  0  0  0
   -2.1228    3.0540    3.5966 H   0  0  0  0  0  0  0  0  0  0  0  0
   -0.3499    3.0995    3.7066 H   0  0  0  0  0  0  0  0  0  0  0  0
  1  2  1  0  0  0  0
  2  3  1  0  0  0  0
  2  4  1  0  0  0  0
  2  5  1  0  0  0  0
  5  6  2  0  0  0  0
  5  7  1  0  0  0  0
  7  8  1  0  0  0  0
  7  9  1  0  0  0  0
  9 10  1  0  0  0  0
  9 11  1  0  0  0  0
  9 19  1  0  0  0  0
 11 12  1  0  0  0  0
 11 13  1  0  0  0  0
 11 14  1  0  0  0  0
 14 15  2  0  0  0  0
 14 16  1  0  0  0  0
 16 17  1  0  0  0  0
 16 18  1  0  0  0  0
 19 20  2  0  0  0  0
 19 21  1  0  0  0  0
 21 22  1  0  0  0  0
 21 23  1  0  0  0  0
 23 24  1  0  0  0  0
 23 25  1  0  0  0  0
 23 26  1  0  0  0  0
M  END
$$$$

  -OEChem-01062216063D

 26 25  0     1  0  0  0  0  0999 V2000
   -2.7514   -3.3200    0.9233 H   0  0  0  0  0  0  0  0  0  0  0  0
   -2.7655   -2.3222    0.4757 C   0  0  0  0  0  0  0  0  0  0  0  0
   -3.6579   -1.7940    0.8193 H   0  0  0  0  0  0  0  0  0  0  0  0
   -2.8064   -2.4270   -0.6111 H   0  0  0  0  0  0  0  0  0  0  0  0
   -1.5192   -1.5551    0.8746 C   0  0  0  0  0  0  0  0  0  0  0  0
   -0.7403   -2.0335    1.6808 O   0  0  0  0  0  0  0  0  0  0  0  0
   -1.3237   -0.2691    0.4102 N   0  0  0  0  0  0  0  0  0  0  0  0
   -2.0224    0.0793   -0.2396 H   0  0  0  0  0  0  0  0  0  0  0  0
   -0.0069    0.3995    0.4178 C   0  0  1  0  0  0  0  0  0  0  0  0
    0.7650   -0.2448    0.8571 H   0  0  0  0  0  0  0  0  0  0  0  0
    0.3751    0.7102   -1.0465 C   0  0  0  0  0  0  0  0  0  0  0  0
   -0.4347    1.2622   -1.5300 H   0  0  0  0  0  0  0  0  0  0  0  0
    1.2662    1.3441   -1.0700 H   0  0  0  0  0  0  0  0  0  0  0  0
    0.7023   -0.5413   -1.8474 C   0  0  0  0  0  0  0  0  0  0  0  0
    1.3641   -1.4574   -1.4020 O   0  0  0  0  0  0  0  0  0  0  0  0
    0.2613   -0.7008   -3.1301 N   0  0  0  0  0  0  0  0  0  0  0  0
    0.6888   -1.4702   -3.6385 H   0  0  0  0  0  0  0  0  0  0  0  0
   -0.0545    0.1201   -3.6353 H   0  0  0  0  0  0  0  0  0  0  0  0
   -0.0501    1.6849    1.2777 C   0  0  0  0  0  0  0  0  0  0  0  0
    0.5968    2.6798    0.9758 O   0  0  0  0  0  0  0  0  0  0  0  0
   -0.9131    1.7544    2.3558 N   0  0  0  0  0  0  0  0  0  0  0  0
   -1.3551    0.8809    2.6324 H   0  0  0  0  0  0  0  0  0  0  0  0
   -0.9963    2.9043    3.2478 C   0  0  0  0  0  0  0  0  0  0  0  0
   -1.2580    3.8073    2.6862 H   0  0  0  0  0  0  0  0  0  0  0  0
   -1.7652    2.7376    4.0084 H   0  0  0  0  0  0  0  0  0  0  0  0
   -0.0381    3.0679    3.7520 H   0  0  0  0  0  0  0  0  0  0  0  0
  1  2  1  0  0  0  0
  2  3  1  0  0  0  0
  2  4  1  0  0  0  0
  2  5  1  0  0  0  0
  5  6  2  0  0  0  0
  5  7  1  0  0  0  0
  7  8  1  0  0  0  0
  7  9  1  0  0  0  0
  9 10  1  0  0  0  0
  9 11  1  0  0  0  0
  9 19  1  0  0  0  0
 11 12  1  0  0  0  0
 11 13  1  0  0  0  0
 11 14  1  0  0  0  0
 14 15  2  0  0  0  0
 14 16  1  0  0  0  0
 16 17  1  0  0  0  0
 16 18  1  0  0  0  0
 19 20  2  0  0  0  0
 19 21  1  0  0  0  0
 21 22  1  0  0  0  0
 21 23  1  0  0  0  0
 23 24  1  0  0  0  0
 23 25  1  0  0  0  0
 23 26  1  0  0  0  0
M  END
$$$$

  -OEChem-01062216063D

 26 25  0     1  0  0  0  0  0999 V2000
   -2.7721   -3.2860    0.9517 H   0  0  0  0  0  0  0  0  0  0  0  0
   -2.7754   -2.2924    0.4946 C   0  0  0  0  0  0  0  0  0  0  0  0
   -3.6585   -1.7486    0.8383 H   0  0  0  0  0  0  0  0  0  0  0  0
   -2.8236   -2.4066   -0.5910 H   0  0  0  0  0  0  0  0  0  0  0  0
   -1.5166   -1.5383    0.8794 C   0  0  0  0  0  0  0  0  0  0  0  0
   -0.7346   -2.0221    1.6801 O   0  0  0  0  0  0  0  0  0  0  0  0
   -1.3119   -0.2542    0.4147 N   0  0  0  0  0  0  0  0  0  0  0  0
   -2.0186    0.1110   -0.2173 H   0  0  0  0  0  0  0  0  0  0  0  0
    0.0094    0.4023    0.4136 C   0  0  1  0  0  0  0  0  0  0  0  0
    0.7793   -0.2460    0.8502 H   0  0  0  0  0  0  0  0  0  0  0  0
    0.3914    0.7105   -1.0510 C   0  0  0  0  0  0  0  0  0  0  0  0
   -0.4146    1.2698   -1.5328 H   0  0  0  0  0  0  0  0  0  0  0  0
    1.2872    1.3382   -1.0724 H   0  0  0  0  0  0  0  0  0  0  0  0
    0.7063   -0.5425   -1.8546 C   0  0  0  0  0  0  0  0  0  0  0  0
    1.3613   -1.4643   -1.4105 O   0  0  0  0  0  0  0  0  0  0  0  0
    0.2592   -0.6983   -3.1356 N   0  0  0  0  0  0  0  0  0  0  0  0
    0.6789   -1.4698   -3.6472 H   0  0  0  0  0  0  0  0  0  0  0  0
   -0.0598    0.1237   -3.6372 H   0  0  0  0  0  0  0  0  0  0  0  0
   -0.0347    1.6827    1.2778 C   0  0  0  0  0  0  0  0  0  0  0  0
    0.3888    2.7563    0.8670 O   0  0  0  0  0  0  0  0  0  0  0  0
   -0.6498    1.6325    2.5143 N   0  0  0  0  0  0  0  0  0  0  0  0
   -0.9354    0.7116    2.8416 H   0  0  0  0  0  0  0  0  0  0  0  0
   -0.7300    2.7679    3.4242 C   0  0  0  0  0  0  0  0  0  0  0  0
   -1.2573    3.6023    2.9501 H   0  0  0  0  0  0  0  0  0  0  0  0
   -1.2740    2.4871    4.3311 H   0  0  0  0  0  0  0  0  0  0  0  0
    0.2733    3.1009    3.7101 H   0  0  0  0  0  0  0  0  0  0  0  0
  1  2  1  0  0  0  0
  2  3  1  0  0  0  0
  2  4  1  0  0  0  0
  2  5  1  0  0  0  0
  5  6  2  0  0  0  0
  5  7  1  0  0  0  0
  7  8  1  0  0  0  0
  7  9  1  0  0  0  0
  9 10  1  0  0  0  0
  9 11  1  0  0  0  0
  9 19  1  0  0  0  0
 11 12  1  0  0  0  0
 11 13  1  0  0  0  0
 11 14  1  0  0  0  0
 14 15  2  0  0  0  0
 14 16  1  0  0  0  0
 16 17  1  0  0  0  0
 16 18  1  0  0  0  0
 19 20  2  0  0  0  0
 19 21  1  0  0  0  0
 21 22  1  0  0  0  0
 21 23  1  0  0  0  0
 23 24  1  0  0  0  0
 23 25  1  0  0  0  0
 23 26  1  0  0  0  0
M  END
$$$$

  -OEChem-01062216063D

 26 25  0     1  0  0  0  0  0999 V2000
   -2.7677   -3.2797    0.9289 H   0  0  0  0  0  0  0  0  0  0  0  0
   -2.7936   -2.2631    0.5264 C   0  0  0  0  0  0  0  0  0  0  0  0
   -3.6546   -1.7383    0.9469 H   0  0  0  0  0  0  0  0  0  0  0  0
   -2.9024   -2.3196   -0.5593 H   0  0  0  0  0  0  0  0  0  0  0  0
   -1.5139   -1.5299    0.8814 C   0  0  0  0  0  0  0  0  0  0  0  0
   -0.7190   -2.0287    1.6607 O   0  0  0  0  0  0  0  0  0  0  0  0
   -1.3013   -0.2479    0.4154 N   0  0  0  0  0  0  0  0  0  0  0  0
   -2.0190    0.1368   -0.1922 H   0  0  0  0  0  0  0  0  0  0  0  0
    0.0223    0.4000    0.4091 C   0  0  1  0  0  0  0  0  0  0  0  0
    0.7912   -0.2513    0.8425 H   0  0  0  0  0  0  0  0  0  0  0  0
    0.4072    0.7085   -1.0537 C   0  0  0  0  0  0  0  0  0  0  0  0
   -0.3975    1.2699   -1.5356 H   0  0  0  0  0  0  0  0  0  0  0  0
    1.3032    1.3359   -1.0705 H   0  0  0  0  0  0  0  0  0  0  0  0
    0.7158   -0.5447   -1.8590 C   0  0  0  0  0  0  0  0  0  0  0  0
    1.3655   -1.4698   -1.4136 O   0  0  0  0  0  0  0  0  0  0  0  0
    0.2762   -0.6940   -3.1435 N   0  0  0  0  0  0  0  0  0  0  0  0
    0.6919   -1.4673   -3.6556 H   0  0  0  0  0  0  0  0  0  0  0  0
   -0.0414    0.1293   -3.6441 H   0  0  0  0  0  0  0  0  0  0  0  0
   -0.0195    1.6779    1.2730 C   0  0  0  0  0  0  0  0  0  0  0  0
    0.1625    2.7909    0.7939 O   0  0  0  0  0  0  0  0  0  0  0  0
   -0.3425    1.5604    2.6111 N   0  0  0  0  0  0  0  0  0  0  0  0
   -0.4900    0.6172    2.9664 H   0  0  0  0  0  0  0  0  0  0  0  0
   -0.4212    2.6898    3.5282 C   0  0  0  0  0  0  0  0  0  0  0  0
   -1.2037    3.3867    3.2107 H   0  0  0  0  0  0  0  0  0  0  0  0
   -0.6570    2.3406    4.5380 H   0  0  0  0  0  0  0  0  0  0  0  0
    0.5346    3.2232    3.5616 H   0  0  0  0  0  0  0  0  0  0  0  0
  1  2  1  0  0  0  0
  2  3  1  0  0  0  0
  2  4  1  0  0  0  0
  2  5  1  0  0  0  0
  5  6  2  0  0  0  0
  5  7  1  0  0  0  0
  7  8  1  0  0  0  0
  7  9  1  0  0  0  0
  9 10  1  0  0  0  0
  9 11  1  0  0  0  0
  9 19  1  0  0  0  0
 11 12  1  0  0  0  0
 11 13  1  0  0  0  0
 11 14  1  0  0  0  0
 14 15  2  0  0  0  0
 14 16  1  0  0  0  0
 16 17  1  0  0  0  0
 16 18  1  0  0  0  0
 19 20  2  0  0  0  0
 19 21  1  0  0  0  0
 21 22  1  0  0  0  0
 21 23  1  0  0  0  0
 23 24  1  0  0  0  0
 23 25  1  0  0  0  0
 23 26  1  0  0  0  0
M  END
$$$$

  -OEChem-01062216063D

 26 25  0     1  0  0  0  0  0999 V2000
   -2.7956   -3.2574    0.9709 H   0  0  0  0  0  0  0  0  0  0  0  0
   -2.8143   -2.2381    0.5746 C   0  0  0  0  0  0  0  0  0  0  0  0
   -3.6454   -1.6958    1.0321 H   0  0  0  0  0  0  0  0  0  0  0  0
   -2.9679   -2.2859   -0.5061 H   0  0  0  0  0  0  0  0  0  0  0  0
   -1.5047   -1.5365    0.8810 C   0  0  0  0  0  0  0  0  0  0  0  0
   -0.6886   -2.0627    1.6197 O   0  0  0  0  0  0  0  0  0  0  0  0
   -1.2824   -0.2565    0.4134 N   0  0  0  0  0  0  0  0  0  0  0  0
   -2.0173    0.1584   -0.1525 H   0  0  0  0  0  0  0  0  0  0  0  0
    0.0416    0.3873    0.4051 C   0  0  1  0  0  0  0  0  0  0  0  0
    0.8113   -0.2668    0.8327 H   0  0  0  0  0  0  0  0  0  0  0  0
    0.4243    0.7053   -1.0560 C   0  0  0  0  0  0  0  0  0  0  0  0
   -0.3824    1.2688   -1.5328 H   0  0  0  0  0  0  0  0  0  0  0  0
    1.3186    1.3351   -1.0686 H   0  0  0  0  0  0  0  0  0  0  0  0
    0.7290   -0.5399   -1.8745 C   0  0  0  0  0  0  0  0  0  0  0  0
    1.3785   -1.4697   -1.4386 O   0  0  0  0  0  0  0  0  0  0  0  0
    0.2932   -0.6729   -3.1620 N   0  0  0  0  0  0  0  0  0  0  0  0
    0.7049   -1.4421   -3.6831 H   0  0  0  0  0  0  0  0  0  0  0  0
   -0.0281    0.1550   -3.6523 H   0  0  0  0  0  0  0  0  0  0  0  0
    0.0010    1.6655    1.2657 C   0  0  0  0  0  0  0  0  0  0  0  0
   -0.0692    2.7793    0.7594 O   0  0  0  0  0  0  0  0  0  0  0  0
   -0.0097    1.5401    2.6413 N   0  0  0  0  0  0  0  0  0  0  0  0
   -0.0208    0.5938    3.0178 H   0  0  0  0  0  0  0  0  0  0  0  0
   -0.0999    2.6713    3.5554 C   0  0  0  0  0  0  0  0  0  0  0  0
   -1.0479    3.2013    3.4160 H   0  0  0  0  0  0  0  0  0  0  0  0
   -0.0445    2.3250    4.5919 H   0  0  0  0  0  0  0  0  0  0  0  0
    0.7247    3.3705    3.3817 H   0  0  0  0  0  0  0  0  0  0  0  0
  1  2  1  0  0  0  0
  2  3  1  0  0  0  0
  2  4  1  0  0  0  0
  2  5  1  0  0  0  0
  5  6  2  0  0  0  0
  5  7  1  0  0  0  0
  7  8  1  0  0  0  0
  7  9  1  0  0  0  0
  9 10  1  0  0  0  0
  9 11  1  0  0  0  0
  9 19  1  0  0  0  0
 11 12  1  0  0  0  0
 11 13  1  0  0  0  0
 11 14  1  0  0  0  0
 14 15  2  0  0  0  0
 14 16  1  0  0  0  0
 16 17  1  0  0  0  0
 16 18  1  0  0  0  0
 19 20  2  0  0  0  0
 19 21  1  0  0  0  0
 21 22  1  0  0  0  0
 21 23  1  0  0  0  0
 23 24  1  0  0  0  0
 23 25  1  0  0  0  0
 23 26  1  0  0  0  0
M  END
$$$$

  -OEChem-01062216063D

 26 25  0     1  0  0  0  0  0999 V2000
   -2.8380   -3.2326    1.0264 H   0  0  0  0  0  0  0  0  0  0  0  0
   -2.8390   -2.2162    0.6225 C   0  0  0  0  0  0  0  0  0  0  0  0
   -3.6311   -1.6433    1.1106 H   0  0  0  0  0  0  0  0  0  0  0  0
   -3.0402   -2.2659   -0.4504 H   0  0  0  0  0  0  0  0  0  0  0  0
   -1.4949   -1.5561    0.8670 C   0  0  0  0  0  0  0  0  0  0  0  0
   -0.6511   -2.1217    1.5430 O   0  0  0  0  0  0  0  0  0  0  0  0
   -1.2642   -0.2766    0.4022 N   0  0  0  0  0  0  0  0  0  0  0  0
   -2.0260    0.1839   -0.0885 H   0  0  0  0  0  0  0  0  0  0  0  0
    0.0559    0.3732    0.3984 C   0  0  1  0  0  0  0  0  0  0  0  0
    0.8277   -0.2811    0.8215 H   0  0  0  0  0  0  0  0  0  0  0  0
    0.4378    0.7044   -1.0592 C   0  0  0  0  0  0  0  0  0  0  0  0
   -0.3731    1.2647   -1.5324 H   0  0  0  0  0  0  0  0  0  0  0  0
    1.3260    1.3423   -1.0652 H   0  0  0  0  0  0  0  0  0  0  0  0
    0.7500   -0.5320   -1.8889 C   0  0  0  0  0  0  0  0  0  0  0  0
    1.4048   -1.4615   -1.4602 O   0  0  0  0  0  0  0  0  0  0  0  0
    0.3189   -0.6544   -3.1791 N   0  0  0  0  0  0  0  0  0  0  0  0
    0.7302   -1.4188   -3.7076 H   0  0  0  0  0  0  0  0  0  0  0  0
   -0.0173    0.1728   -3.6606 H   0  0  0  0  0  0  0  0  0  0  0  0
    0.0125    1.6528    1.2551 C   0  0  0  0  0  0  0  0  0  0  0  0
   -0.3203    2.7270    0.7676 O   0  0  0  0  0  0  0  0  0  0  0  0
    0.3106    1.5765    2.6018 N   0  0  0  0  0  0  0  0  0  0  0  0
    0.4834    0.6495    2.9854 H   0  0  0  0  0  0  0  0  0  0  0  0
    0.2207    2.7129    3.5097 C   0  0  0  0  0  0  0  0  0  0  0  0
   -0.8103    3.0772    3.5661 H   0  0  0  0  0  0  0  0  0  0  0  0
    0.5409    2.4201    4.5141 H   0  0  0  0  0  0  0  0  0  0  0  0
    0.8650    3.5293    3.1670 H   0  0  0  0  0  0  0  0  0  0  0  0
  1  2  1  0  0  0  0
  2  3  1  0  0  0  0
  2  4  1  0  0  0  0
  2  5  1  0  0  0  0
  5  6  2  0  0  0  0
  5  7  1  0  0  0  0
  7  8  1  0  0  0  0
  7  9  1  0  0  0  0
  9 10  1  0  0  0  0
  9 11  1  0  0  0  0
  9 19  1  0  0  0  0
 11 12  1  0  0  0  0
 11 13  1  0  0  0  0
 11 14  1  0  0  0  0
 14 15  2  0  0  0  0
 14 16  1  0  0  0  0
 16 17  1  0  0  0  0
 16 18  1  0  0  0  0
 19 20  2  0  0  0  0
 19 21  1  0  0  0  0
 21 22  1  0  0  0  0
 21 23  1  0  0  0  0
 23 24  1  0  0  0  0
 23 25  1  0  0  0  0
 23 26  1  0  0  0  0
M  END
$$$$

  -OEChem-01062216063D

 26 25  0     1  0  0  0  0  0999 V2000
   -2.8558   -3.2001    1.0259 H   0  0  0  0  0  0  0  0  0  0  0  0
   -2.8494   -2.1720    0.6528 C   0  0  0  0  0  0  0  0  0  0  0  0
   -3.5759   -1.5857    1.2207 H   0  0  0  0  0  0  0  0  0  0  0  0
   -3.1389   -2.1794   -0.4007 H   0  0  0  0  0  0  0  0  0  0  0  0
   -1.4649   -1.5708    0.8052 C   0  0  0  0  0  0  0  0  0  0  0  0
   -0.5954   -2.1915    1.3937 O   0  0  0  0  0  0  0  0  0  0  0  0
   -1.2208   -0.2897    0.3518 N   0  0  0  0  0  0  0  0  0  0  0  0
   -2.0118    0.2386   -0.0082 H   0  0  0  0  0  0  0  0  0  0  0  0
    0.0949    0.3675    0.3776 C   0  0  1  0  0  0  0  0  0  0  0  0
    0.8609   -0.2869    0.8103 H   0  0  0  0  0  0  0  0  0  0  0  0
    0.5039    0.7217   -1.0661 C   0  0  0  0  0  0  0  0  0  0  0  0
   -0.3011    1.2840   -1.5471 H   0  0  0  0  0  0  0  0  0  0  0  0
    1.3876    1.3654   -1.0457 H   0  0  0  0  0  0  0  0  0  0  0  0
    0.8409   -0.4996   -1.9086 C   0  0  0  0  0  0  0  0  0  0  0  0
    1.4935   -1.4308   -1.4799 O   0  0  0  0  0  0  0  0  0  0  0  0
    0.4249   -0.6124   -3.2047 N   0  0  0  0  0  0  0  0  0  0  0  0
    0.5833   -1.5071   -3.6594 H   0  0  0  0  0  0  0  0  0  0  0  0
   -0.2338    0.0578   -3.5859 H   0  0  0  0  0  0  0  0  0  0  0  0
    0.0247    1.6437    1.2359 C   0  0  0  0  0  0  0  0  0  0  0  0
   -0.5619    2.6359    0.8194 O   0  0  0  0  0  0  0  0  0  0  0  0
    0.5812    1.6573    2.5005 N   0  0  0  0  0  0  0  0  0  0  0  0
    0.9634    0.7814    2.8500 H   0  0  0  0  0  0  0  0  0  0  0  0
    0.4818    2.7944    3.4067 C   0  0  0  0  0  0  0  0  0  0  0  0
   -0.5661    3.0029    3.6469 H   0  0  0  0  0  0  0  0  0  0  0  0
    1.0157    2.5830    4.3382 H   0  0  0  0  0  0  0  0  0  0  0  0
    0.9235    3.6870    2.9513 H   0  0  0  0  0  0  0  0  0  0  0  0
  1  2  1  0  0  0  0
  2  3  1  0  0  0  0
  2  4  1  0  0  0  0
  2  5  1  0  0  0  0
  5  6  2  0  0  0  0
  5  7  1  0  0  0  0
  7  8  1  0  0  0  0
  7  9  1  0  0  0  0
  9 10  1  0  0  0  0
  9 11  1  0  0  0  0
  9 19  1  0  0  0  0
 11 12  1  0  0  0  0
 11 13  1  0  0  0  0
 11 14  1  0  0  0  0
 14 15  2  0  0  0  0
 14 16  1  0  0  0  0
 16 17  1  0  0  0  0
 16 18  1  0  0  0  0
 19 20  2  0  0  0  0
 19 21  1  0  0  0  0
 21 22  1  0  0  0  0
 21 23  1  0  0  0  0
 23 24  1  0  0  0  0
 23 25  1  0  0  0  0
 23 26  1  0  0  0  0
M  END
$$$$

  -OEChem-01062216063D

 26 25  0     1  0  0  0  0  0999 V2000
   -2.8803   -3.1821    1.0652 H   0  0  0  0  0  0  0  0  0  0  0  0
   -2.8647   -2.1550    0.6897 C   0  0  0  0  0  0  0  0  0  0  0  0
   -3.5475   -1.5493    1.2903 H   0  0  0  0  0  0  0  0  0  0  0  0
   -3.2047   -2.1555   -0.3485 H   0  0  0  0  0  0  0  0  0  0  0  0
   -1.4592   -1.5900    0.7747 C   0  0  0  0  0  0  0  0  0  0  0  0
   -0.5740   -2.2439    1.3003 O   0  0  0  0  0  0  0  0  0  0  0  0
   -1.2112   -0.3086    0.3242 N   0  0  0  0  0  0  0  0  0  0  0  0
   -2.0161    0.2557    0.0620 H   0  0  0  0  0  0  0  0  0  0  0  0
    0.1006    0.3557    0.3655 C   0  0  1  0  0  0  0  0  0  0  0  0
    0.8635   -0.2990    0.8035 H   0  0  0  0  0  0  0  0  0  0  0  0
    0.5180    0.7248   -1.0709 C   0  0  0  0  0  0  0  0  0  0  0  0
   -0.2875    1.2862   -1.5517 H   0  0  0  0  0  0  0  0  0  0  0  0
    1.3976    1.3738   -1.0396 H   0  0  0  0  0  0  0  0  0  0  0  0
    0.8687   -0.4870   -1.9219 C   0  0  0  0  0  0  0  0  0  0  0  0
    1.5243   -1.4172   -1.4953 O   0  0  0  0  0  0  0  0  0  0  0  0
    0.4524   -0.5978   -3.2182 N   0  0  0  0  0  0  0  0  0  0  0  0
    0.5929   -1.5027   -3.6584 H   0  0  0  0  0  0  0  0  0  0  0  0
   -0.2428    0.0482   -3.5757 H   0  0  0  0  0  0  0  0  0  0  0  0
    0.0194    1.6336    1.2195 C   0  0  0  0  0  0  0  0  0  0  0  0
   -0.7676    2.5213    0.9108 O   0  0  0  0  0  0  0  0  0  0  0  0
    0.8091    1.7772    2.3444 N   0  0  0  0  0  0  0  0  0  0  0  0
    1.3840    0.9837    2.6170 H   0  0  0  0  0  0  0  0  0  0  0  0
    0.7344    2.9308    3.2320 C   0  0  0  0  0  0  0  0  0  0  0  0
   -0.2649    3.0116    3.6723 H   0  0  0  0  0  0  0  0  0  0  0  0
    1.4630    2.8319    4.0423 H   0  0  0  0  0  0  0  0  0  0  0  0
    0.9534    3.8520    2.6821 H   0  0  0  0  0  0  0  0  0  0  0  0
  1  2  1  0  0  0  0
  2  3  1  0  0  0  0
  2  4  1  0  0  0  0
  2  5  1  0  0  0  0
  5  6  2  0  0  0  0
  5  7  1  0  0  0  0
  7  8  1  0  0  0  0
  7  9  1  0  0  0  0
  9 10  1  0  0  0  0
  9 11  1  0  0  0  0
  9 19  1  0  0  0  0
 11 12  1  0  0  0  0
 11 13  1  0  0  0  0
 11 14  1  0  0  0  0
 14 15  2  0  0  0  0
 14 16  1  0  0  0  0
 16 17  1  0  0  0  0
 16 18  1  0  0  0  0
 19 20  2  0  0  0  0
 19 21  1  0  0  0  0
 21 22  1  0  0  0  0
 21 23  1  0  0  0  0
 23 24  1  0  0  0  0
 23 25  1  0  0  0  0
 23 26  1  0  0  0  0
M  END
$$$$

  -OEChem-01062216063D

 26 25  0     1  0  0  0  0  0999 V2000
   -2.8939   -3.1737    1.1114 H   0  0  0  0  0  0  0  0  0  0  0  0
   -2.8782   -2.1468    0.7352 C   0  0  0  0  0  0  0  0  0  0  0  0
   -3.5213   -1.5299    1.3677 H   0  0  0  0  0  0  0  0  0  0  0  0
   -3.2674   -2.1408   -0.2857 H   0  0  0  0  0  0  0  0  0  0  0  0
   -1.4606   -1.6059    0.7535 C   0  0  0  0  0  0  0  0  0  0  0  0
   -0.5621   -2.2815    1.2263 O   0  0  0  0  0  0  0  0  0  0  0  0
   -1.2155   -0.3240    0.3022 N   0  0  0  0  0  0  0  0  0  0  0  0
   -2.0282    0.2608    0.1183 H   0  0  0  0  0  0  0  0  0  0  0  0
    0.0931    0.3467    0.3561 C   0  0  1  0  0  0  0  0  0  0  0  0
    0.8530   -0.3058    0.8020 H   0  0  0  0  0  0  0  0  0  0  0  0
    0.5189    0.7240   -1.0751 C   0  0  0  0  0  0  0  0  0  0  0  0
   -0.2874    1.2831   -1.5579 H   0  0  0  0  0  0  0  0  0  0  0  0
    1.3949    1.3773   -1.0359 H   0  0  0  0  0  0  0  0  0  0  0  0
    0.8826   -0.4807   -1.9306 C   0  0  0  0  0  0  0  0  0  0  0  0
    1.5406   -1.4088   -1.5036 O   0  0  0  0  0  0  0  0  0  0  0  0
    0.4895   -0.5792   -3.2350 N   0  0  0  0  0  0  0  0  0  0  0  0
    0.6390   -1.4806   -3.6795 H   0  0  0  0  0  0  0  0  0  0  0  0
   -0.2105    0.0616   -3.5926 H   0  0  0  0  0  0  0  0  0  0  0  0
    0.0042    1.6280    1.2048 C   0  0  0  0  0  0  0  0  0  0  0  0
   -0.9301    2.4036    1.0350 O   0  0  0  0  0  0  0  0  0  0  0  0
    0.9781    1.9208    2.1408 N   0  0  0  0  0  0  0  0  0  0  0  0
    1.7019    1.2244    2.2996 H   0  0  0  0  0  0  0  0  0  0  0  0
    0.9322    3.0973    3.0004 C   0  0  0  0  0  0  0  0  0  0  0  0
    0.0290    3.0846    3.6196 H   0  0  0  0  0  0  0  0  0  0  0  0
    1.8043    3.1173    3.6612 H   0  0  0  0  0  0  0  0  0  0  0  0
    0.9344    4.0120    2.3982 H   0  0  0  0  0  0  0  0  0  0  0  0
  1  2  1  0  0  0  0
  2  3  1  0  0  0  0
  2  4  1  0  0  0  0
  2  5  1  0  0  0  0
  5  6  2  0  0  0  0
  5  7  1  0  0  0  0
  7  8  1  0  0  0  0
  7  9  1  0  0  0  0
  9 10  1  0  0  0  0
  9 11  1  0  0  0  0
  9 19  1  0  0  0  0
 11 12  1  0  0  0  0
 11 13  1  0  0  0  0
 11 14  1  0  0  0  0
 14 15  2  0  0  0  0
 14 16  1  0  0  0  0
 16 17  1  0  0  0  0
 16 18  1  0  0  0  0
 19 20  2  0  0  0  0
 19 21  1  0  0  0  0
 21 22  1  0  0  0  0
 21 23  1  0  0  0  0
 23 24  1  0  0  0  0
 23 25  1  0  0  0  0
 23 26  1  0  0  0  0
M  END
$$$$

  -OEChem-01062216063D

 26 25  0     1  0  0  0  0  0999 V2000
   -2.8955   -3.1677    1.1302 H   0  0  0  0  0  0  0  0  0  0  0  0
   -2.8805   -2.1432    0.7476 C   0  0  0  0  0  0  0  0  0  0  0  0
   -3.5052   -1.5179    1.3902 H   0  0  0  0  0  0  0  0  0  0  0  0
   -3.2914   -2.1399   -0.2647 H   0  0  0  0  0  0  0  0  0  0  0  0
   -1.4590   -1.6124    0.7318 C   0  0  0  0  0  0  0  0  0  0  0  0
   -0.5527   -2.3008    1.1696 O   0  0  0  0  0  0  0  0  0  0  0  0
   -1.2189   -0.3292    0.2818 N   0  0  0  0  0  0  0  0  0  0  0  0
   -2.0360    0.2661    0.1593 H   0  0  0  0  0  0  0  0  0  0  0  0
    0.0857    0.3488    0.3514 C   0  0  1  0  0  0  0  0  0  0  0  0
    0.8434   -0.3001    0.8064 H   0  0  0  0  0  0  0  0  0  0  0  0
    0.5177    0.7282   -1.0773 C   0  0  0  0  0  0  0  0  0  0  0  0
   -0.2898    1.2815   -1.5644 H   0  0  0  0  0  0  0  0  0  0  0  0
    1.3895    1.3868   -1.0345 H   0  0  0  0  0  0  0  0  0  0  0  0
    0.8944   -0.4742   -1.9307 C   0  0  0  0  0  0  0  0  0  0  0  0
    1.5561   -1.3973   -1.4990 O   0  0  0  0  0  0  0  0  0  0  0  0
    0.5019   -0.5813   -3.2347 N   0  0  0  0  0  0  0  0  0  0  0  0
    0.6493   -1.4886   -3.6677 H   0  0  0  0  0  0  0  0  0  0  0  0
   -0.2141    0.0440   -3.5876 H   0  0  0  0  0  0  0  0  0  0  0  0
   -0.0099    1.6326    1.1966 C   0  0  0  0  0  0  0  0  0  0  0  0
   -1.0457    2.2890    1.1934 O   0  0  0  0  0  0  0  0  0  0  0  0
    1.0857    2.0859    1.9072 N   0  0  0  0  0  0  0  0  0  0  0  0
    1.9104    1.4916    1.9289 H   0  0  0  0  0  0  0  0  0  0  0  0
    1.0603    3.2848    2.7362 C   0  0  0  0  0  0  0  0  0  0  0  0
    0.3186    3.1822    3.5353 H   0  0  0  0  0  0  0  0  0  0  0  0
    2.0410    3.4497    3.1930 H   0  0  0  0  0  0  0  0  0  0  0  0
    0.8093    4.1631    2.1321 H   0  0  0  0  0  0  0  0  0  0  0  0
  1  2  1  0  0  0  0
  2  3  1  0  0  0  0
  2  4  1  0  0  0  0
  2  5  1  0  0  0  0
  5  6  2  0  0  0  0
  5  7  1  0  0  0  0
  7  8  1  0  0  0  0
  7  9  1  0  0  0  0
  9 10  1  0  0  0  0
  9 11  1  0  0  0  0
  9 19  1  0  0  0  0
 11 12  1  0  0  0  0
 11 13  1  0  0  0  0
 11 14  1  0  0  0  0
 14 15  2  0  0  0  0
 14 16  1  0  0  0  0
 16 17  1  0  0  0  0
 16 18  1  0  0  0  0
 19 20  2  0  0  0  0
 19 21  1  0  0  0  0
 21 22  1  0  0  0  0
 21 23  1  0  0  0  0
 23 24  1  0  0  0  0
 23 25  1  0  0  0  0
 23 26  1  0  0  0  0
M  END
$$$$

  -OEChem-01062216063D

 26 25  0     1  0  0  0  0  0999 V2000
   -2.8897   -3.1621    1.1459 H   0  0  0  0  0  0  0  0  0  0  0  0
   -2.8786   -2.1397    0.7574 C   0  0  0  0  0  0  0  0  0  0  0  0
   -3.4868   -1.5086    1.4101 H   0  0  0  0  0  0  0  0  0  0  0  0
   -3.3114   -2.1403   -0.2458 H   0  0  0  0  0  0  0  0  0  0  0  0
   -1.4558   -1.6149    0.7081 C   0  0  0  0  0  0  0  0  0  0  0  0
   -0.5418   -2.3135    1.1120 O   0  0  0  0  0  0  0  0  0  0  0  0
   -1.2226   -0.3294    0.2605 N   0  0  0  0  0  0  0  0  0  0  0  0
   -2.0422    0.2720    0.1967 H   0  0  0  0  0  0  0  0  0  0  0  0
    0.0793    0.3535    0.3465 C   0  0  1  0  0  0  0  0  0  0  0  0
    0.8357   -0.2917    0.8094 H   0  0  0  0  0  0  0  0  0  0  0  0
    0.5159    0.7303   -1.0825 C   0  0  0  0  0  0  0  0  0  0  0  0
   -0.2921    1.2784   -1.5745 H   0  0  0  0  0  0  0  0  0  0  0  0
    1.3851    1.3921   -1.0412 H   0  0  0  0  0  0  0  0  0  0  0  0
    0.9020   -0.4723   -1.9314 C   0  0  0  0  0  0  0  0  0  0  0  0
    1.5664   -1.3908   -1.4947 O   0  0  0  0  0  0  0  0  0  0  0  0
    0.5081   -0.5884   -3.2341 N   0  0  0  0  0  0  0  0  0  0  0  0
    0.6554   -1.5002   -3.6576 H   0  0  0  0  0  0  0  0  0  0  0  0
   -0.2216    0.0233   -3.5825 H   0  0  0  0  0  0  0  0  0  0  0  0
   -0.0233    1.6388    1.1918 C   0  0  0  0  0  0  0  0  0  0  0  0
   -1.1138    2.1707    1.3711 O   0  0  0  0  0  0  0  0  0  0  0  0
    1.1209    2.2598    1.6579 N   0  0  0  0  0  0  0  0  0  0  0  0
    2.0029    1.7686    1.5379 H   0  0  0  0  0  0  0  0  0  0  0  0
    1.0998    3.4811    2.4538 C   0  0  0  0  0  0  0  0  0  0  0  0
    0.5633    3.3162    3.3940 H   0  0  0  0  0  0  0  0  0  0  0  0
    2.1208    3.7973    2.6883 H   0  0  0  0  0  0  0  0  0  0  0  0
    0.6071    4.2893    1.9032 H   0  0  0  0  0  0  0  0  0  0  0  0
  1  2  1  0  0  0  0
  2  3  1  0  0  0  0
  2  4  1  0  0  0  0
  2  5  1  0  0  0  0
  5  6  2  0  0  0  0
  5  7  1  0  0  0  0
  7  8  1  0  0  0  0
  7  9  1  0  0  0  0
  9 10  1  0  0  0  0
  9 11  1  0  0  0  0
  9 19  1  0  0  0  0
 11 12  1  0  0  0  0
 11 13  1  0  0  0  0
 11 14  1  0  0  0  0
 14 15  2  0  0  0  0
 14 16  1  0  0  0  0
 16 17  1  0  0  0  0
 16 18  1  0  0  0  0
 19 20  2  0  0  0  0
 19 21  1  0  0  0  0
 21 22  1  0  0  0  0
 21 23  1  0  0  0  0
 23 24  1  0  0  0  0
 23 25  1  0  0  0  0
 23 26  1  0  0  0  0
M  END
$$$$

  -OEChem-01062216063D

 26 25  0     1  0  0  0  0  0999 V2000
   -2.8509   -3.1394    1.1876 H   0  0  0  0  0  0  0  0  0  0  0  0
   -2.8604   -2.1157    0.8026 C   0  0  0  0  0  0  0  0  0  0  0  0
   -3.4164   -1.4828    1.4988 H   0  0  0  0  0  0  0  0  0  0  0  0
   -3.3619   -2.1088   -0.1680 H   0  0  0  0  0  0  0  0  0  0  0  0
   -1.4414   -1.6001    0.6548 C   0  0  0  0  0  0  0  0  0  0  0  0
   -0.5040   -2.3190    0.9602 O   0  0  0  0  0  0  0  0  0  0  0  0
   -1.2348   -0.3069    0.2145 N   0  0  0  0  0  0  0  0  0  0  0  0
   -2.0541    0.2939    0.2710 H   0  0  0  0  0  0  0  0  0  0  0  0
    0.0702    0.3698    0.3140 C   0  0  1  0  0  0  0  0  0  0  0  0
    0.8770   -0.3445    0.5187 H   0  0  0  0  0  0  0  0  0  0  0  0
    0.3265    1.0605   -1.0408 C   0  0  0  0  0  0  0  0  0  0  0  0
   -0.5352    1.6802   -1.3026 H   0  0  0  0  0  0  0  0  0  0  0  0
    1.1953    1.7192   -0.9678 H   0  0  0  0  0  0  0  0  0  0  0  0
    0.6041    0.0723   -2.1657 C   0  0  0  0  0  0  0  0  0  0  0  0
    1.3161   -0.9008   -2.0163 O   0  0  0  0  0  0  0  0  0  0  0  0
    0.0607    0.2262   -3.4095 N   0  0  0  0  0  0  0  0  0  0  0  0
    0.1564   -0.5708   -4.0329 H   0  0  0  0  0  0  0  0  0  0  0  0
   -0.7005    0.8838   -3.5363 H   0  0  0  0  0  0  0  0  0  0  0  0
    0.0769    1.4154    1.4512 C   0  0  0  0  0  0  0  0  0  0  0  0
   -0.9649    1.7020    2.0311 O   0  0  0  0  0  0  0  0  0  0  0  0
    1.2133    2.1602    1.7123 N   0  0  0  0  0  0  0  0  0  0  0  0
    2.0765    1.8673    1.2627 H   0  0  0  0  0  0  0  0  0  0  0  0
    1.2773    3.1791    2.7536 C   0  0  0  0  0  0  0  0  0  0  0  0
    1.0854    2.7352    3.7363 H   0  0  0  0  0  0  0  0  0  0  0  0
    2.2690    3.6415    2.7696 H   0  0  0  0  0  0  0  0  0  0  0  0
    0.5349    3.9629    2.5700 H   0  0  0  0  0  0  0  0  0  0  0  0
  1  2  1  0  0  0  0
  2  3  1  0  0  0  0
  2  4  1  0  0  0  0
  2  5  1  0  0  0  0
  5  6  2  0  0  0  0
  5  7  1  0  0  0  0
  7  8  1  0  0  0  0
  7  9  1  0  0  0  0
  9 10  1  0  0  0  0
  9 11  1  0  0  0  0
  9 19  1  0  0  0  0
 11 12  1  0  0  0  0
 11 13  1  0  0  0  0
 11 14  1  0  0  0  0
 14 15  2  0  0  0  0
 14 16  1  0  0  0  0
 16 17  1  0  0  0  0
 16 18  1  0  0  0  0
 19 20  2  0  0  0  0
 19 21  1  0  0  0  0
 21 22  1  0  0  0  0
 21 23  1  0  0  0  0
 23 24  1  0  0  0  0
 23 25  1  0  0  0  0
 23 26  1  0  0  0  0
M  END
$$$$

  -OEChem-01062216063D

 26 25  0     1  0  0  0  0  0999 V2000
   -2.8378   -3.1244    1.1987 H   0  0  0  0  0  0  0  0  0  0  0  0
   -2.8528   -2.0981    0.8213 C   0  0  0  0  0  0  0  0  0  0  0  0
   -3.3806   -1.4669    1.5405 H   0  0  0  0  0  0  0  0  0  0  0  0
   -3.3867   -2.0809   -0.1317 H   0  0  0  0  0  0  0  0  0  0  0  0
   -1.4357   -1.5907    0.6311 C   0  0  0  0  0  0  0  0  0  0  0  0
   -0.4950   -2.3198    0.8999 O   0  0  0  0  0  0  0  0  0  0  0  0
   -1.2352   -0.2950    0.1940 N   0  0  0  0  0  0  0  0  0  0  0  0
   -2.0540    0.3026    0.2774 H   0  0  0  0  0  0  0  0  0  0  0  0
    0.0704    0.3812    0.3005 C   0  0  1  0  0  0  0  0  0  0  0  0
    0.8779   -0.3307    0.5111 H   0  0  0  0  0  0  0  0  0  0  0  0
    0.3274    1.0579   -1.0637 C   0  0  0  0  0  0  0  0  0  0  0  0
   -0.5343    1.6741   -1.3331 H   0  0  0  0  0  0  0  0  0  0  0  0
    1.1971    1.7158   -1.0032 H   0  0  0  0  0  0  0  0  0  0  0  0
    0.6082    0.0582   -2.1779 C   0  0  0  0  0  0  0  0  0  0  0  0
    1.3220   -0.9117   -2.0180 O   0  0  0  0  0  0  0  0  0  0  0  0
    0.0603    0.1941   -3.4216 N   0  0  0  0  0  0  0  0  0  0  0  0
    0.1562   -0.6130   -4.0317 H   0  0  0  0  0  0  0  0  0  0  0  0
   -0.7106    0.8399   -3.5506 H   0  0  0  0  0  0  0  0  0  0  0  0
    0.0691    1.4234    1.4451 C   0  0  0  0  0  0  0  0  0  0  0  0
   -0.9038    1.5240    2.1844 O   0  0  0  0  0  0  0  0  0  0  0  0
    1.0650    2.3805    1.5368 N   0  0  0  0  0  0  0  0  0  0  0  0
    1.8940    2.2446    0.9654 H   0  0  0  0  0  0  0  0  0  0  0  0
    1.0960    3.4012    2.5781 C   0  0  0  0  0  0  0  0  0  0  0  0
    1.1498    2.9366    3.5684 H   0  0  0  0  0  0  0  0  0  0  0  0
    1.9709    4.0459    2.4499 H   0  0  0  0  0  0  0  0  0  0  0  0
    0.1981    4.0263    2.5298 H   0  0  0  0  0  0  0  0  0  0  0  0
  1  2  1  0  0  0  0
  2  3  1  0  0  0  0
  2  4  1  0  0  0  0
  2  5  1  0  0  0  0
  5  6  2  0  0  0  0
  5  7  1  0  0  0  0
  7  8  1  0  0  0  0
  7  9  1  0  0  0  0
  9 10  1  0  0  0  0
  9 11  1  0  0  0  0
  9 19  1  0  0  0  0
 11 12  1  0  0  0  0
 11 13  1  0  0  0  0
 11 14  1  0  0  0  0
 14 15  2  0  0  0  0
 14 16  1  0  0  0  0
 16 17  1  0  0  0  0
 16 18  1  0  0  0  0
 19 20  2  0  0  0  0
 19 21  1  0  0  0  0
 21 22  1  0  0  0  0
 21 23  1  0  0  0  0
 23 24  1  0  0  0  0
 23 25  1  0  0  0  0
 23 26  1  0  0  0  0
M  END
$$$$

  -OEChem-01062216063D

 26 25  0     1  0  0  0  0  0999 V2000
   -2.8304   -3.1156    1.2026 H   0  0  0  0  0  0  0  0  0  0  0  0
   -2.8488   -2.0835    0.8416 C   0  0  0  0  0  0  0  0  0  0  0  0
   -3.3532   -1.4608    1.5846 H   0  0  0  0  0  0  0  0  0  0  0  0
   -3.4071   -2.0482   -0.0966 H   0  0  0  0  0  0  0  0  0  0  0  0
   -1.4342   -1.5814    0.6219 C   0  0  0  0  0  0  0  0  0  0  0  0
   -0.4919   -2.3204    0.8544 O   0  0  0  0  0  0  0  0  0  0  0  0
   -1.2392   -0.2839    0.1864 N   0  0  0  0  0  0  0  0  0  0  0  0
   -2.0588    0.3102    0.2812 H   0  0  0  0  0  0  0  0  0  0  0  0
    0.0677    0.3918    0.2874 C   0  0  1  0  0  0  0  0  0  0  0  0
    0.8747   -0.3192    0.5037 H   0  0  0  0  0  0  0  0  0  0  0  0
    0.3284    1.0508   -1.0862 C   0  0  0  0  0  0  0  0  0  0  0  0
   -0.5296    1.6684   -1.3649 H   0  0  0  0  0  0  0  0  0  0  0  0
    1.2041    1.7010   -1.0351 H   0  0  0  0  0  0  0  0  0  0  0  0
    0.6096    0.0370   -2.1879 C   0  0  0  0  0  0  0  0  0  0  0  0
    1.3214   -0.9320   -2.0167 O   0  0  0  0  0  0  0  0  0  0  0  0
    0.0716    0.1642   -3.4369 N   0  0  0  0  0  0  0  0  0  0  0  0
    0.1713   -0.6480   -4.0397 H   0  0  0  0  0  0  0  0  0  0  0  0
   -0.6978    0.8094   -3.5769 H   0  0  0  0  0  0  0  0  0  0  0  0
    0.0627    1.4297    1.4390 C   0  0  0  0  0  0  0  0  0  0  0  0
   -0.7754    1.3496    2.3294 O   0  0  0  0  0  0  0  0  0  0  0  0
    0.8473    2.5702    1.3915 N   0  0  0  0  0  0  0  0  0  0  0  0
    1.5831    2.5999    0.6925 H   0  0  0  0  0  0  0  0  0  0  0  0
    0.8409    3.5867    2.4379 C   0  0  0  0  0  0  0  0  0  0  0  0
    1.1399    3.1509    3.3972 H   0  0  0  0  0  0  0  0  0  0  0  0
    1.5409    4.3902    2.1891 H   0  0  0  0  0  0  0  0  0  0  0  0
   -0.1584    4.0219    2.5446 H   0  0  0  0  0  0  0  0  0  0  0  0
  1  2  1  0  0  0  0
  2  3  1  0  0  0  0
  2  4  1  0  0  0  0
  2  5  1  0  0  0  0
  5  6  2  0  0  0  0
  5  7  1  0  0  0  0
  7  8  1  0  0  0  0
  7  9  1  0  0  0  0
  9 10  1  0  0  0  0
  9 11  1  0  0  0  0
  9 19  1  0  0  0  0
 11 12  1  0  0  0  0
 11 13  1  0  0  0  0
 11 14  1  0  0  0  0
 14 15  2  0  0  0  0
 14 16  1  0  0  0  0
 16 17  1  0  0  0  0
 16 18  1  0  0  0  0
 19 20  2  0  0  0  0
 19 21  1  0  0  0  0
 21 22  1  0  0  0  0
 21 23  1  0  0  0  0
 23 24  1  0  0  0  0
 23 25  1  0  0  0  0
 23 26  1  0  0  0  0
M  END
$$$$

  -OEChem-01062216063D

 26 25  0     1  0  0  0  0  0999 V2000
   -2.8296   -3.1068    1.2111 H   0  0  0  0  0  0  0  0  0  0  0  0
   -2.8491   -2.0742    0.8519 C   0  0  0  0  0  0  0  0  0  0  0  0
   -3.3451   -1.4518    1.6006 H   0  0  0  0  0  0  0  0  0  0  0  0
   -3.4163   -2.0362   -0.0808 H   0  0  0  0  0  0  0  0  0  0  0  0
   -1.4353   -1.5751    0.6197 C   0  0  0  0  0  0  0  0  0  0  0  0
   -0.4939   -2.3218    0.8285 O   0  0  0  0  0  0  0  0  0  0  0  0
   -1.2418   -0.2762    0.1862 N   0  0  0  0  0  0  0  0  0  0  0  0
   -2.0637    0.3149    0.2711 H   0  0  0  0  0  0  0  0  0  0  0  0
    0.0660    0.3988    0.2797 C   0  0  1  0  0  0  0  0  0  0  0  0
    0.8717   -0.3124    0.5008 H   0  0  0  0  0  0  0  0  0  0  0  0
    0.3357    1.0468   -1.0973 C   0  0  0  0  0  0  0  0  0  0  0  0
   -0.5166    1.6679   -1.3850 H   0  0  0  0  0  0  0  0  0  0  0  0
    1.2177    1.6885   -1.0433 H   0  0  0  0  0  0  0  0  0  0  0  0
    0.6190    0.0249   -2.1916 C   0  0  0  0  0  0  0  0  0  0  0  0
    1.3261   -0.9458   -2.0130 O   0  0  0  0  0  0  0  0  0  0  0  0
    0.0828    0.1434   -3.4423 N   0  0  0  0  0  0  0  0  0  0  0  0
    0.1821   -0.6749   -4.0369 H   0  0  0  0  0  0  0  0  0  0  0  0
   -0.6875    0.7860   -3.5882 H   0  0  0  0  0  0  0  0  0  0  0  0
    0.0590    1.4316    1.4365 C   0  0  0  0  0  0  0  0  0  0  0  0
   -0.5839    1.1987    2.4522 O   0  0  0  0  0  0  0  0  0  0  0  0
    0.5809    2.7064    1.2857 N   0  0  0  0  0  0  0  0  0  0  0  0
    1.1476    2.8868    0.4633 H   0  0  0  0  0  0  0  0  0  0  0  0
    0.5322    3.7197    2.3343 C   0  0  0  0  0  0  0  0  0  0  0  0
    1.0653    3.3742    3.2264 H   0  0  0  0  0  0  0  0  0  0  0  0
    1.0006    4.6457    1.9875 H   0  0  0  0  0  0  0  0  0  0  0  0
   -0.5052    3.9404    2.6075 H   0  0  0  0  0  0  0  0  0  0  0  0
  1  2  1  0  0  0  0
  2  3  1  0  0  0  0
  2  4  1  0  0  0  0
  2  5  1  0  0  0  0
  5  6  2  0  0  0  0
  5  7  1  0  0  0  0
  7  8  1  0  0  0  0
  7  9  1  0  0  0  0
  9 10  1  0  0  0  0
  9 11  1  0  0  0  0
  9 19  1  0  0  0  0
 11 12  1  0  0  0  0
 11 13  1  0  0  0  0
 11 14  1  0  0  0  0
 14 15  2  0  0  0  0
 14 16  1  0  0  0  0
 16 17  1  0  0  0  0
 16 18  1  0  0  0  0
 19 20  2  0  0  0  0
 19 21  1  0  0  0  0
 21 22  1  0  0  0  0
 21 23  1  0  0  0  0
 23 24  1  0  0  0  0
 23 25  1  0  0  0  0
 23 26  1  0  0  0  0
M  END
$$$$

  -OEChem-01062216063D

 26 25  0     1  0  0  0  0  0999 V2000
   -2.8318   -3.1135    1.2071 H   0  0  0  0  0  0  0  0  0  0  0  0
   -2.8527   -2.0809    0.8473 C   0  0  0  0  0  0  0  0  0  0  0  0
   -3.3598   -1.4608    1.5905 H   0  0  0  0  0  0  0  0  0  0  0  0
   -3.4101   -2.0463   -0.0917 H   0  0  0  0  0  0  0  0  0  0  0  0
   -1.4388   -1.5748    0.6306 C   0  0  0  0  0  0  0  0  0  0  0  0
   -0.4972   -2.3204    0.8404 O   0  0  0  0  0  0  0  0  0  0  0  0
   -1.2470   -0.2756    0.1965 N   0  0  0  0  0  0  0  0  0  0  0  0
   -2.0750    0.3103    0.2484 H   0  0  0  0  0  0  0  0  0  0  0  0
    0.0589    0.4036    0.2832 C   0  0  1  0  0  0  0  0  0  0  0  0
    0.8650   -0.3063    0.5085 H   0  0  0  0  0  0  0  0  0  0  0  0
    0.3374    1.0479   -1.0930 C   0  0  0  0  0  0  0  0  0  0  0  0
   -0.5131    1.6668   -1.3902 H   0  0  0  0  0  0  0  0  0  0  0  0
    1.2193    1.6900   -1.0282 H   0  0  0  0  0  0  0  0  0  0  0  0
    0.6279    0.0243   -2.1838 C   0  0  0  0  0  0  0  0  0  0  0  0
    1.3336   -0.9464   -2.0009 O   0  0  0  0  0  0  0  0  0  0  0  0
    0.0955    0.1387   -3.4367 N   0  0  0  0  0  0  0  0  0  0  0  0
    0.2003   -0.6803   -4.0297 H   0  0  0  0  0  0  0  0  0  0  0  0
   -0.6745    0.7801   -3.5886 H   0  0  0  0  0  0  0  0  0  0  0  0
    0.0507    1.4353    1.4387 C   0  0  0  0  0  0  0  0  0  0  0  0
   -0.3452    1.1002    2.5464 O   0  0  0  0  0  0  0  0  0  0  0  0
    0.2752    2.7848    1.2165 N   0  0  0  0  0  0  0  0  0  0  0  0
    0.6192    3.0593    0.3024 H   0  0  0  0  0  0  0  0  0  0  0  0
    0.2030    3.7932    2.2685 C   0  0  0  0  0  0  0  0  0  0  0  0
    0.9395    3.5835    3.0514 H   0  0  0  0  0  0  0  0  0  0  0  0
    0.4088    4.7857    1.8561 H   0  0  0  0  0  0  0  0  0  0  0  0
   -0.7954    3.8075    2.7185 H   0  0  0  0  0  0  0  0  0  0  0  0
  1  2  1  0  0  0  0
  2  3  1  0  0  0  0
  2  4  1  0  0  0  0
  2  5  1  0  0  0  0
  5  6  2  0  0  0  0
  5  7  1  0  0  0  0
  7  8  1  0  0  0  0
  7  9  1  0  0  0  0
  9 10  1  0  0  0  0
  9 11  1  0  0  0  0
  9 19  1  0  0  0  0
 11 12  1  0  0  0  0
 11 13  1  0  0  0  0
 11 14  1  0  0  0  0
 14 15  2  0  0  0  0
 14 16  1  0  0  0  0
 16 17  1  0  0  0  0
 16 18  1  0  0  0  0
 19 20  2  0  0  0  0
 19 21  1  0  0  0  0
 21 22  1  0  0  0  0
 21 23  1  0  0  0  0
 23 24  1  0  0  0  0
 23 25  1  0  0  0  0
 23 26  1  0  0  0  0
M  END
$$$$

  -OEChem-01062216063D

 26 25  0     1  0  0  0  0  0999 V2000
   -2.8357   -3.1344    1.1899 H   0  0  0  0  0  0  0  0  0  0  0  0
   -2.8585   -2.1039    0.8240 C   0  0  0  0  0  0  0  0  0  0  0  0
   -3.3966   -1.4870    1.5478 H   0  0  0  0  0  0  0  0  0  0  0  0
   -3.3867   -2.0822   -0.1321 H   0  0  0  0  0  0  0  0  0  0  0  0
   -1.4447   -1.5815    0.6477 C   0  0  0  0  0  0  0  0  0  0  0  0
   -0.5020   -2.3163    0.8859 O   0  0  0  0  0  0  0  0  0  0  0  0
   -1.2550   -0.2818    0.2132 N   0  0  0  0  0  0  0  0  0  0  0  0
   -2.0910    0.2943    0.2147 H   0  0  0  0  0  0  0  0  0  0  0  0
    0.0455    0.4079    0.2962 C   0  0  1  0  0  0  0  0  0  0  0  0
    0.8548   -0.2982    0.5240 H   0  0  0  0  0  0  0  0  0  0  0  0
    0.3287    1.0536   -1.0776 C   0  0  0  0  0  0  0  0  0  0  0  0
   -0.5255    1.6627   -1.3833 H   0  0  0  0  0  0  0  0  0  0  0  0
    1.2024    1.7066   -1.0012 H   0  0  0  0  0  0  0  0  0  0  0  0
    0.6318    0.0318   -2.1671 C   0  0  0  0  0  0  0  0  0  0  0  0
    1.3415   -0.9353   -1.9819 O   0  0  0  0  0  0  0  0  0  0  0  0
    0.1037    0.1425   -3.4220 N   0  0  0  0  0  0  0  0  0  0  0  0
    0.2198   -0.6733   -4.0173 H   0  0  0  0  0  0  0  0  0  0  0  0
   -0.6652    0.7833   -3.5811 H   0  0  0  0  0  0  0  0  0  0  0  0
    0.0384    1.4422    1.4462 C   0  0  0  0  0  0  0  0  0  0  0  0
   -0.0578    1.0642    2.6041 O   0  0  0  0  0  0  0  0  0  0  0  0
   -0.0525    2.8025    1.1970 N   0  0  0  0  0  0  0  0  0  0  0  0
    0.0432    3.1119    0.2357 H   0  0  0  0  0  0  0  0  0  0  0  0
   -0.1222    3.8066    2.2530 C   0  0  0  0  0  0  0  0  0  0  0  0
    0.7754    3.7668    2.8792 H   0  0  0  0  0  0  0  0  0  0  0  0
   -0.1976    4.8083    1.8189 H   0  0  0  0  0  0  0  0  0  0  0  0
   -1.0004    3.6380    2.8854 H   0  0  0  0  0  0  0  0  0  0  0  0
  1  2  1  0  0  0  0
  2  3  1  0  0  0  0
  2  4  1  0  0  0  0
  2  5  1  0  0  0  0
  5  6  2  0  0  0  0
  5  7  1  0  0  0  0
  7  8  1  0  0  0  0
  7  9  1  0  0  0  0
  9 10  1  0  0  0  0
  9 11  1  0  0  0  0
  9 19  1  0  0  0  0
 11 12  1  0  0  0  0
 11 13  1  0  0  0  0
 11 14  1  0  0  0  0
 14 15  2  0  0  0  0
 14 16  1  0  0  0  0
 16 17  1  0  0  0  0
 16 18  1  0  0  0  0
 19 20  2  0  0  0  0
 19 21  1  0  0  0  0
 21 22  1  0  0  0  0
 21 23  1  0  0  0  0
 23 24  1  0  0  0  0
 23 25  1  0  0  0  0
 23 26  1  0  0  0  0
M  END
$$$$

  -OEChem-01062216063D

 26 25  0     1  0  0  0  0  0999 V2000
   -2.8433   -3.1949    1.2069 H   0  0  0  0  0  0  0  0  0  0  0  0
   -2.8739   -2.1689    0.8288 C   0  0  0  0  0  0  0  0  0  0  0  0
   -3.4727   -1.5612    1.5114 H   0  0  0  0  0  0  0  0  0  0  0  0
   -3.3437   -2.1720   -0.1575 H   0  0  0  0  0  0  0  0  0  0  0  0
   -1.4677   -1.6072    0.7315 C   0  0  0  0  0  0  0  0  0  0  0  0
   -0.5220   -2.3053    1.0519 O   0  0  0  0  0  0  0  0  0  0  0  0
   -1.2874   -0.3119    0.2806 N   0  0  0  0  0  0  0  0  0  0  0  0
   -2.1327    0.2392    0.1728 H   0  0  0  0  0  0  0  0  0  0  0  0
    0.0070    0.3921    0.3238 C   0  0  1  0  0  0  0  0  0  0  0  0
    0.8264   -0.3071    0.5376 H   0  0  0  0  0  0  0  0  0  0  0  0
    0.2572    1.0343   -1.0574 C   0  0  0  0  0  0  0  0  0  0  0  0
   -0.6096    1.6306   -1.3518 H   0  0  0  0  0  0  0  0  0  0  0  0
    1.1232    1.6995   -0.9968 H   0  0  0  0  0  0  0  0  0  0  0  0
    0.5463    0.0082   -2.1467 C   0  0  0  0  0  0  0  0  0  0  0  0
    1.2657   -0.9536   -1.9722 O   0  0  0  0  0  0  0  0  0  0  0  0
    0.0331    0.1365   -3.4063 N   0  0  0  0  0  0  0  0  0  0  0  0
    0.4138   -0.4989   -4.1025 H   0  0  0  0  0  0  0  0  0  0  0  0
   -0.3793    1.0178   -3.6901 H   0  0  0  0  0  0  0  0  0  0  0  0
    0.0266    1.4419    1.4572 C   0  0  0  0  0  0  0  0  0  0  0  0
    0.3182    1.1154    2.5972 O   0  0  0  0  0  0  0  0  0  0  0  0
   -0.3836    2.7462    1.2321 N   0  0  0  0  0  0  0  0  0  0  0  0
   -0.6085    3.0131    0.2801 H   0  0  0  0  0  0  0  0  0  0  0  0
   -0.4045    3.7674    2.2735 C   0  0  0  0  0  0  0  0  0  0  0  0
    0.5999    3.9167    2.6838 H   0  0  0  0  0  0  0  0  0  0  0  0
   -0.7559    4.7195    1.8646 H   0  0  0  0  0  0  0  0  0  0  0  0
   -1.0759    3.4718    3.0866 H   0  0  0  0  0  0  0  0  0  0  0  0
  1  2  1  0  0  0  0
  2  3  1  0  0  0  0
  2  4  1  0  0  0  0
  2  5  1  0  0  0  0
  5  6  2  0  0  0  0
  5  7  1  0  0  0  0
  7  8  1  0  0  0  0
  7  9  1  0  0  0  0
  9 10  1  0  0  0  0
  9 11  1  0  0  0  0
  9 19  1  0  0  0  0
 11 12  1  0  0  0  0
 11 13  1  0  0  0  0
 11 14  1  0  0  0  0
 14 15  2  0  0  0  0
 14 16  1  0  0  0  0
 16 17  1  0  0  0  0
 16 18  1  0  0  0  0
 19 20  2  0  0  0  0
 19 21  1  0  0  0  0
 21 22  1  0  0  0  0
 21 23  1  0  0  0  0
 23 24  1  0  0  0  0
 23 25  1  0  0  0  0
 23 26  1  0  0  0  0
M  END
$$$$

  -OEChem-01062216063D

 26 25  0     1  0  0  0  0  0999 V2000
   -2.8458   -3.2416    1.1410 H   0  0  0  0  0  0  0  0  0  0  0  0
   -2.8748   -2.2151    0.7641 C   0  0  0  0  0  0  0  0  0  0  0  0
   -3.5417   -1.6269    1.3986 H   0  0  0  0  0  0  0  0  0  0  0  0
   -3.2656   -2.2270   -0.2561 H   0  0  0  0  0  0  0  0  0  0  0  0
   -1.4810   -1.6154    0.7790 C   0  0  0  0  0  0  0  0  0  0  0  0
   -0.5510   -2.2736    1.2097 O   0  0  0  0  0  0  0  0  0  0  0  0
   -1.2953   -0.3234    0.3214 N   0  0  0  0  0  0  0  0  0  0  0  0
   -2.1317    0.1867    0.0583 H   0  0  0  0  0  0  0  0  0  0  0  0
   -0.0024    0.3854    0.3511 C   0  0  1  0  0  0  0  0  0  0  0  0
    0.8188   -0.3144    0.5568 H   0  0  0  0  0  0  0  0  0  0  0  0
    0.2416    1.0371   -1.0253 C   0  0  0  0  0  0  0  0  0  0  0  0
   -0.6238    1.6388   -1.3115 H   0  0  0  0  0  0  0  0  0  0  0  0
    1.1079    1.7021   -0.9611 H   0  0  0  0  0  0  0  0  0  0  0  0
    0.5261    0.0185   -2.1224 C   0  0  0  0  0  0  0  0  0  0  0  0
    1.2457   -0.9452   -1.9591 O   0  0  0  0  0  0  0  0  0  0  0  0
    0.0026    0.1530   -3.3772 N   0  0  0  0  0  0  0  0  0  0  0  0
    0.3923   -0.4708   -4.0791 H   0  0  0  0  0  0  0  0  0  0  0  0
   -0.3887    1.0459   -3.6548 H   0  0  0  0  0  0  0  0  0  0  0  0
    0.0301    1.4438    1.4744 C   0  0  0  0  0  0  0  0  0  0  0  0
    0.6756    1.2526    2.4931 O   0  0  0  0  0  0  0  0  0  0  0  0
   -0.6584    2.6387    1.3403 N   0  0  0  0  0  0  0  0  0  0  0  0
   -1.1892    2.7867    0.4896 H   0  0  0  0  0  0  0  0  0  0  0  0
   -0.6671    3.6744    2.3673 C   0  0  0  0  0  0  0  0  0  0  0  0
    0.3522    4.0179    2.5737 H   0  0  0  0  0  0  0  0  0  0  0  0
   -1.2601    4.5324    2.0364 H   0  0  0  0  0  0  0  0  0  0  0  0
   -1.1033    3.2891    3.2951 H   0  0  0  0  0  0  0  0  0  0  0  0
  1  2  1  0  0  0  0
  2  3  1  0  0  0  0
  2  4  1  0  0  0  0
  2  5  1  0  0  0  0
  5  6  2  0  0  0  0
  5  7  1  0  0  0  0
  7  8  1  0  0  0  0
  7  9  1  0  0  0  0
  9 10  1  0  0  0  0
  9 11  1  0  0  0  0
  9 19  1  0  0  0  0
 11 12  1  0  0  0  0
 11 13  1  0  0  0  0
 11 14  1  0  0  0  0
 14 15  2  0  0  0  0
 14 16  1  0  0  0  0
 16 17  1  0  0  0  0
 16 18  1  0  0  0  0
 19 20  2  0  0  0  0
 19 21  1  0  0  0  0
 21 22  1  0  0  0  0
 21 23  1  0  0  0  0
 23 24  1  0  0  0  0
 23 25  1  0  0  0  0
 23 26  1  0  0  0  0
M  END
$$$$

  -OEChem-01062216063D

 26 25  0     1  0  0  0  0  0999 V2000
   -2.7946   -3.3254    0.9981 H   0  0  0  0  0  0  0  0  0  0  0  0
   -2.8276   -2.3141    0.5824 C   0  0  0  0  0  0  0  0  0  0  0  0
   -3.6647   -1.7758    1.0330 H   0  0  0  0  0  0  0  0  0  0  0  0
   -2.9836   -2.3842   -0.4967 H   0  0  0  0  0  0  0  0  0  0  0  0
   -1.5263   -1.5894    0.8723 C   0  0  0  0  0  0  0  0  0  0  0  0
   -0.6682   -2.1374    1.5408 O   0  0  0  0  0  0  0  0  0  0  0  0
   -1.3423   -0.3043    0.3960 N   0  0  0  0  0  0  0  0  0  0  0  0
   -2.0719    0.0505   -0.2126 H   0  0  0  0  0  0  0  0  0  0  0  0
   -0.0375    0.3843    0.4101 C   0  0  1  0  0  0  0  0  0  0  0  0
    0.7737   -0.3298    0.6072 H   0  0  0  0  0  0  0  0  0  0  0  0
    0.2037    1.0389   -0.9637 C   0  0  0  0  0  0  0  0  0  0  0  0
   -0.6505    1.6640   -1.2345 H   0  0  0  0  0  0  0  0  0  0  0  0
    1.0845    1.6853   -0.9038 H   0  0  0  0  0  0  0  0  0  0  0  0
    0.4573    0.0174   -2.0649 C   0  0  0  0  0  0  0  0  0  0  0  0
    1.1592   -0.9612   -1.9123 O   0  0  0  0  0  0  0  0  0  0  0  0
   -0.1011    0.1511   -3.3043 N   0  0  0  0  0  0  0  0  0  0  0  0
    0.2707   -0.4769   -4.0124 H   0  0  0  0  0  0  0  0  0  0  0  0
   -0.4655    1.0569   -3.5782 H   0  0  0  0  0  0  0  0  0  0  0  0
    0.0347    1.4547    1.5185 C   0  0  0  0  0  0  0  0  0  0  0  0
    0.9865    1.4879    2.2837 O   0  0  0  0  0  0  0  0  0  0  0  0
   -0.8605    2.5116    1.5276 N   0  0  0  0  0  0  0  0  0  0  0  0
   -1.6768    2.4315    0.9322 H   0  0  0  0  0  0  0  0  0  0  0  0
   -0.8126    3.5845    2.5145 C   0  0  0  0  0  0  0  0  0  0  0  0
    0.1469    4.1099    2.4630 H   0  0  0  0  0  0  0  0  0  0  0  0
   -1.6114    4.3082    2.3266 H   0  0  0  0  0  0  0  0  0  0  0  0
   -0.9395    3.1814    3.5248 H   0  0  0  0  0  0  0  0  0  0  0  0
  1  2  1  0  0  0  0
  2  3  1  0  0  0  0
  2  4  1  0  0  0  0
  2  5  1  0  0  0  0
  5  6  2  0  0  0  0
  5  7  1  0  0  0  0
  7  8  1  0  0  0  0
  7  9  1  0  0  0  0
  9 10  1  0  0  0  0
  9 11  1  0  0  0  0
  9 19  1  0  0  0  0
 11 12  1  0  0  0  0
 11 13  1  0  0  0  0
 11 14  1  0  0  0  0
 14 15  2  0  0  0  0
 14 16  1  0  0  0  0
 16 17  1  0  0  0  0
 16 18  1  0  0  0  0
 19 20  2  0  0  0  0
 19 21  1  0  0  0  0
 21 22  1  0  0  0  0
 21 23  1  0  0  0  0
 23 24  1  0  0  0  0
 23 25  1  0  0  0  0
 23 26  1  0  0  0  0
M  END
$$$$

  -OEChem-01062216063D

 26 25  0     1  0  0  0  0  0999 V2000
   -2.7769   -3.3479    0.9670 H   0  0  0  0  0  0  0  0  0  0  0  0
   -2.8060   -2.3472    0.5265 C   0  0  0  0  0  0  0  0  0  0  0  0
   -3.6869   -1.8223    0.9035 H   0  0  0  0  0  0  0  0  0  0  0  0
   -2.8822   -2.4452   -0.5592 H   0  0  0  0  0  0  0  0  0  0  0  0
   -1.5480   -1.5813    0.8919 C   0  0  0  0  0  0  0  0  0  0  0  0
   -0.7305   -2.0844    1.6420 O   0  0  0  0  0  0  0  0  0  0  0  0
   -1.3632   -0.2996    0.4073 N   0  0  0  0  0  0  0  0  0  0  0  0
   -2.0404    0.0030   -0.2850 H   0  0  0  0  0  0  0  0  0  0  0  0
   -0.0485    0.3717    0.4259 C   0  0  1  0  0  0  0  0  0  0  0  0
    0.7550   -0.3515    0.6210 H   0  0  0  0  0  0  0  0  0  0  0  0
    0.1984    1.0347   -0.9420 C   0  0  0  0  0  0  0  0  0  0  0  0
   -0.6472    1.6757   -1.2028 H   0  0  0  0  0  0  0  0  0  0  0  0
    1.0885    1.6681   -0.8792 H   0  0  0  0  0  0  0  0  0  0  0  0
    0.4357    0.0197   -2.0518 C   0  0  0  0  0  0  0  0  0  0  0  0
    1.1244   -0.9699   -1.9090 O   0  0  0  0  0  0  0  0  0  0  0  0
   -0.1314    0.1676   -3.2856 N   0  0  0  0  0  0  0  0  0  0  0  0
    0.2341   -0.4548   -4.0018 H   0  0  0  0  0  0  0  0  0  0  0  0
   -0.4842    1.0812   -3.5492 H   0  0  0  0  0  0  0  0  0  0  0  0
    0.0386    1.4448    1.5289 C   0  0  0  0  0  0  0  0  0  0  0  0
    1.1067    1.6710    2.0784 O   0  0  0  0  0  0  0  0  0  0  0  0
   -1.0082    2.3306    1.7185 N   0  0  0  0  0  0  0  0  0  0  0  0
   -1.9044    2.0597    1.3286 H   0  0  0  0  0  0  0  0  0  0  0  0
   -0.9712    3.3964    2.7135 C   0  0  0  0  0  0  0  0  0  0  0  0
   -0.1431    4.0835    2.5098 H   0  0  0  0  0  0  0  0  0  0  0  0
   -1.9044    3.9672    2.6920 H   0  0  0  0  0  0  0  0  0  0  0  0
   -0.8424    2.9784    3.7175 H   0  0  0  0  0  0  0  0  0  0  0  0
  1  2  1  0  0  0  0
  2  3  1  0  0  0  0
  2  4  1  0  0  0  0
  2  5  1  0  0  0  0
  5  6  2  0  0  0  0
  5  7  1  0  0  0  0
  7  8  1  0  0  0  0
  7  9  1  0  0  0  0
  9 10  1  0  0  0  0
  9 11  1  0  0  0  0
  9 19  1  0  0  0  0
 11 12  1  0  0  0  0
 11 13  1  0  0  0  0
 11 14  1  0  0  0  0
 14 15  2  0  0  0  0
 14 16  1  0  0  0  0
 16 17  1  0  0  0  0
 16 18  1  0  0  0  0
 19 20  2  0  0  0  0
 19 21  1  0  0  0  0
 21 22  1  0  0  0  0
 21 23  1  0  0  0  0
 23 24  1  0  0  0  0
 23 25  1  0  0  0  0
 23 26  1  0  0  0  0
M  END
$$$$

  -OEChem-01062216063D

 26 25  0     1  0  0  0  0  0999 V2000
   -2.7739   -3.3540    0.9513 H   0  0  0  0  0  0  0  0  0  0  0  0
   -2.7924   -2.3631    0.4885 C   0  0  0  0  0  0  0  0  0  0  0  0
   -3.6929   -1.8384    0.8162 H   0  0  0  0  0  0  0  0  0  0  0  0
   -2.8213   -2.4847   -0.5970 H   0  0  0  0  0  0  0  0  0  0  0  0
   -1.5571   -1.5786    0.8890 C   0  0  0  0  0  0  0  0  0  0  0  0
   -0.7603   -2.0612    1.6744 O   0  0  0  0  0  0  0  0  0  0  0  0
   -1.3729   -0.2966    0.4058 N   0  0  0  0  0  0  0  0  0  0  0  0
   -2.0321   -0.0061   -0.3096 H   0  0  0  0  0  0  0  0  0  0  0  0
   -0.0544    0.3688    0.4294 C   0  0  1  0  0  0  0  0  0  0  0  0
    0.7465   -0.3577    0.6223 H   0  0  0  0  0  0  0  0  0  0  0  0
    0.1902    1.0321   -0.9390 C   0  0  0  0  0  0  0  0  0  0  0  0
   -0.6552    1.6755   -1.1952 H   0  0  0  0  0  0  0  0  0  0  0  0
    1.0821    1.6638   -0.8815 H   0  0  0  0  0  0  0  0  0  0  0  0
    0.4207    0.0154   -2.0484 C   0  0  0  0  0  0  0  0  0  0  0  0
    1.1065   -0.9767   -1.9070 O   0  0  0  0  0  0  0  0  0  0  0  0
   -0.1439    0.1678   -3.2826 N   0  0  0  0  0  0  0  0  0  0  0  0
    0.2238   -0.4530   -3.9990 H   0  0  0  0  0  0  0  0  0  0  0  0
   -0.4860    1.0861   -3.5446 H   0  0  0  0  0  0  0  0  0  0  0  0
    0.0417    1.4408    1.5337 C   0  0  0  0  0  0  0  0  0  0  0  0
    1.1379    1.8446    1.8949 O   0  0  0  0  0  0  0  0  0  0  0  0
   -1.0894    2.1272    1.9389 N   0  0  0  0  0  0  0  0  0  0  0  0
   -1.9780    1.6933    1.7111 H   0  0  0  0  0  0  0  0  0  0  0  0
   -1.0589    3.1656    2.9623 C   0  0  0  0  0  0  0  0  0  0  0  0
   -0.4034    3.9876    2.6557 H   0  0  0  0  0  0  0  0  0  0  0  0
   -2.0632    3.5689    3.1226 H   0  0  0  0  0  0  0  0  0  0  0  0
   -0.6922    2.7577    3.9104 H   0  0  0  0  0  0  0  0  0  0  0  0
  1  2  1  0  0  0  0
  2  3  1  0  0  0  0
  2  4  1  0  0  0  0
  2  5  1  0  0  0  0
  5  6  2  0  0  0  0
  5  7  1  0  0  0  0
  7  8  1  0  0  0  0
  7  9  1  0  0  0  0
  9 10  1  0  0  0  0
  9 11  1  0  0  0  0
  9 19  1  0  0  0  0
 11 12  1  0  0  0  0
 11 13  1  0  0  0  0
 11 14  1  0  0  0  0
 14 15  2  0  0  0  0
 14 16  1  0  0  0  0
 16 17  1  0  0  0  0
 16 18  1  0  0  0  0
 19 20  2  0  0  0  0
 19 21  1  0  0  0  0
 21 22  1  0  0  0  0
 21 23  1  0  0  0  0
 23 24  1  0  0  0  0
 23 25  1  0  0  0  0
 23 26  1  0  0  0  0
M  END
$$$$

  -OEChem-01062216063D

 26 25  0     1  0  0  0  0  0999 V2000
   -2.7877   -3.3388    0.9454 H   0  0  0  0  0  0  0  0  0  0  0  0
   -2.7875   -2.3577    0.4616 C   0  0  0  0  0  0  0  0  0  0  0  0
   -3.6922   -1.8204    0.7552 H   0  0  0  0  0  0  0  0  0  0  0  0
   -2.7899   -2.5013   -0.6217 H   0  0  0  0  0  0  0  0  0  0  0  0
   -1.5570   -1.5727    0.8757 C   0  0  0  0  0  0  0  0  0  0  0  0
   -0.7692   -2.0510    1.6728 O   0  0  0  0  0  0  0  0  0  0  0  0
   -1.3687   -0.2896    0.3986 N   0  0  0  0  0  0  0  0  0  0  0  0
   -2.0299    0.0125   -0.3104 H   0  0  0  0  0  0  0  0  0  0  0  0
   -0.0490    0.3744    0.4272 C   0  0  1  0  0  0  0  0  0  0  0  0
    0.7512   -0.3523    0.6200 H   0  0  0  0  0  0  0  0  0  0  0  0
    0.1910    1.0330   -0.9455 C   0  0  0  0  0  0  0  0  0  0  0  0
   -0.6549    1.6759   -1.2012 H   0  0  0  0  0  0  0  0  0  0  0  0
    1.0828    1.6652   -0.8965 H   0  0  0  0  0  0  0  0  0  0  0  0
    0.4196    0.0112   -2.0507 C   0  0  0  0  0  0  0  0  0  0  0  0
    1.1074   -0.9794   -1.9057 O   0  0  0  0  0  0  0  0  0  0  0  0
   -0.1556    0.1530   -3.2813 N   0  0  0  0  0  0  0  0  0  0  0  0
    0.2078   -0.4705   -3.9976 H   0  0  0  0  0  0  0  0  0  0  0  0
   -0.5063    1.0674   -3.5452 H   0  0  0  0  0  0  0  0  0  0  0  0
    0.0478    1.4435    1.5365 C   0  0  0  0  0  0  0  0  0  0  0  0
    1.1086    2.0173    1.7414 O   0  0  0  0  0  0  0  0  0  0  0  0
   -1.0954    1.9087    2.1611 N   0  0  0  0  0  0  0  0  0  0  0  0
   -1.9202    1.3253    2.0599 H   0  0  0  0  0  0  0  0  0  0  0  0
   -1.0673    2.9024    3.2275 C   0  0  0  0  0  0  0  0  0  0  0  0
   -0.6128    3.8335    2.8729 H   0  0  0  0  0  0  0  0  0  0  0  0
   -2.0842    3.1235    3.5653 H   0  0  0  0  0  0  0  0  0  0  0  0
   -0.4900    2.5315    4.0810 H   0  0  0  0  0  0  0  0  0  0  0  0
  1  2  1  0  0  0  0
  2  3  1  0  0  0  0
  2  4  1  0  0  0  0
  2  5  1  0  0  0  0
  5  6  2  0  0  0  0
  5  7  1  0  0  0  0
  7  8  1  0  0  0  0
  7  9  1  0  0  0  0
  9 10  1  0  0  0  0
  9 11  1  0  0  0  0
  9 19  1  0  0  0  0
 11 12  1  0  0  0  0
 11 13  1  0  0  0  0
 11 14  1  0  0  0  0
 14 15  2  0  0  0  0
 14 16  1  0  0  0  0
 16 17  1  0  0  0  0
 16 18  1  0  0  0  0
 19 20  2  0  0  0  0
 19 21  1  0  0  0  0
 21 22  1  0  0  0  0
 21 23  1  0  0  0  0
 23 24  1  0  0  0  0
 23 25  1  0  0  0  0
 23 26  1  0  0  0  0
M  END
$$$$

  -OEChem-01062216063D

 26 25  0     1  0  0  0  0  0999 V2000
   -2.7840   -3.3354    0.9169 H   0  0  0  0  0  0  0  0  0  0  0  0
   -2.7889   -2.3484    0.4455 C   0  0  0  0  0  0  0  0  0  0  0  0
   -3.6931   -1.8168    0.7510 H   0  0  0  0  0  0  0  0  0  0  0  0
   -2.7980   -2.4789   -0.6394 H   0  0  0  0  0  0  0  0  0  0  0  0
   -1.5574   -1.5663    0.8617 C   0  0  0  0  0  0  0  0  0  0  0  0
   -0.7751   -2.0422    1.6658 O   0  0  0  0  0  0  0  0  0  0  0  0
   -1.3664   -0.2809    0.3925 N   0  0  0  0  0  0  0  0  0  0  0  0
   -2.0344    0.0358   -0.3039 H   0  0  0  0  0  0  0  0  0  0  0  0
   -0.0464    0.3827    0.4240 C   0  0  1  0  0  0  0  0  0  0  0  0
    0.7526   -0.3451    0.6165 H   0  0  0  0  0  0  0  0  0  0  0  0
    0.1901    1.0348   -0.9539 C   0  0  0  0  0  0  0  0  0  0  0  0
   -0.6564    1.6763   -1.2110 H   0  0  0  0  0  0  0  0  0  0  0  0
    1.0822    1.6668   -0.9151 H   0  0  0  0  0  0  0  0  0  0  0  0
    0.4178    0.0066   -2.0527 C   0  0  0  0  0  0  0  0  0  0  0  0
    1.1074   -0.9822   -1.9024 O   0  0  0  0  0  0  0  0  0  0  0  0
   -0.1579    0.1418   -3.2839 N   0  0  0  0  0  0  0  0  0  0  0  0
    0.2061   -0.4847   -3.9971 H   0  0  0  0  0  0  0  0  0  0  0  0
   -0.5084    1.0551   -3.5525 H   0  0  0  0  0  0  0  0  0  0  0  0
    0.0501    1.4469    1.5413 C   0  0  0  0  0  0  0  0  0  0  0  0
    1.0260    2.1821    1.6117 O   0  0  0  0  0  0  0  0  0  0  0  0
   -1.0265    1.6863    2.3758 N   0  0  0  0  0  0  0  0  0  0  0  0
   -1.7499    0.9732    2.3746 H   0  0  0  0  0  0  0  0  0  0  0  0
   -0.9811    2.6384    3.4788 C   0  0  0  0  0  0  0  0  0  0  0  0
   -0.7491    3.6431    3.1095 H   0  0  0  0  0  0  0  0  0  0  0  0
   -1.9493    2.6743    3.9871 H   0  0  0  0  0  0  0  0  0  0  0  0
   -0.2167    2.3451    4.2061 H   0  0  0  0  0  0  0  0  0  0  0  0
  1  2  1  0  0  0  0
  2  3  1  0  0  0  0
  2  4  1  0  0  0  0
  2  5  1  0  0  0  0
  5  6  2  0  0  0  0
  5  7  1  0  0  0  0
  7  8  1  0  0  0  0
  7  9  1  0  0  0  0
  9 10  1  0  0  0  0
  9 11  1  0  0  0  0
  9 19  1  0  0  0  0
 11 12  1  0  0  0  0
 11 13  1  0  0  0  0
 11 14  1  0  0  0  0
 14 15  2  0  0  0  0
 14 16  1  0  0  0  0
 16 17  1  0  0  0  0
 16 18  1  0  0  0  0
 19 20  2  0  0  0  0
 19 21  1  0  0  0  0
 21 22  1  0  0  0  0
 21 23  1  0  0  0  0
 23 24  1  0  0  0  0
 23 25  1  0  0  0  0
 23 26  1  0  0  0  0
M  END
$$$$

  -OEChem-01062216063D

 26 25  0     1  0  0  0  0  0999 V2000
   -2.7908   -3.3154    0.9100 H   0  0  0  0  0  0  0  0  0  0  0  0
   -2.7909   -2.3289    0.4374 C   0  0  0  0  0  0  0  0  0  0  0  0
   -3.6955   -1.7943    0.7368 H   0  0  0  0  0  0  0  0  0  0  0  0
   -2.7939   -2.4608   -0.6474 H   0  0  0  0  0  0  0  0  0  0  0  0
   -1.5602   -1.5488    0.8598 C   0  0  0  0  0  0  0  0  0  0  0  0
   -0.7904   -2.0161    1.6814 O   0  0  0  0  0  0  0  0  0  0  0  0
   -1.3625   -0.2635    0.3958 N   0  0  0  0  0  0  0  0  0  0  0  0
   -2.0362    0.0662   -0.2889 H   0  0  0  0  0  0  0  0  0  0  0  0
   -0.0384    0.3915    0.4208 C   0  0  1  0  0  0  0  0  0  0  0  0
    0.7567   -0.3409    0.6100 H   0  0  0  0  0  0  0  0  0  0  0  0
    0.1949    1.0353   -0.9631 C   0  0  0  0  0  0  0  0  0  0  0  0
   -0.6490    1.6811   -1.2182 H   0  0  0  0  0  0  0  0  0  0  0  0
    1.0918    1.6609   -0.9350 H   0  0  0  0  0  0  0  0  0  0  0  0
    0.4110    0.0005   -2.0576 C   0  0  0  0  0  0  0  0  0  0  0  0
    1.0960   -0.9913   -1.9047 O   0  0  0  0  0  0  0  0  0  0  0  0
   -0.1649    0.1364   -3.2886 N   0  0  0  0  0  0  0  0  0  0  0  0
    0.1954   -0.4925   -4.0015 H   0  0  0  0  0  0  0  0  0  0  0  0
   -0.5107    1.0515   -3.5577 H   0  0  0  0  0  0  0  0  0  0  0  0
    0.0591    1.4476    1.5481 C   0  0  0  0  0  0  0  0  0  0  0  0
    0.8954    2.3407    1.5014 O   0  0  0  0  0  0  0  0  0  0  0  0
   -0.8784    1.4656    2.5646 N   0  0  0  0  0  0  0  0  0  0  0  0
   -1.4506    0.6290    2.6469 H   0  0  0  0  0  0  0  0  0  0  0  0
   -0.8145    2.3850    3.6940 C   0  0  0  0  0  0  0  0  0  0  0  0
   -0.8280    3.4231    3.3456 H   0  0  0  0  0  0  0  0  0  0  0  0
   -1.6739    2.2331    4.3539 H   0  0  0  0  0  0  0  0  0  0  0  0
    0.1012    2.2194    4.2711 H   0  0  0  0  0  0  0  0  0  0  0  0
  1  2  1  0  0  0  0
  2  3  1  0  0  0  0
  2  4  1  0  0  0  0
  2  5  1  0  0  0  0
  5  6  2  0  0  0  0
  5  7  1  0  0  0  0
  7  8  1  0  0  0  0
  7  9  1  0  0  0  0
  9 10  1  0  0  0  0
  9 11  1  0  0  0  0
  9 19  1  0  0  0  0
 11 12  1  0  0  0  0
 11 13  1  0  0  0  0
 11 14  1  0  0  0  0
 14 15  2  0  0  0  0
 14 16  1  0  0  0  0
 16 17  1  0  0  0  0
 16 18  1  0  0  0  0
 19 20  2  0  0  0  0
 19 21  1  0  0  0  0
 21 22  1  0  0  0  0
 21 23  1  0  0  0  0
 23 24  1  0  0  0  0
 23 25  1  0  0  0  0
 23 26  1  0  0  0  0
M  END
$$$$

  -OEChem-01062216063D

 26 25  0     1  0  0  0  0  0999 V2000
   -2.7855   -3.2888    0.8948 H   0  0  0  0  0  0  0  0  0  0  0  0
   -2.7906   -2.2942    0.4398 C   0  0  0  0  0  0  0  0  0  0  0  0
   -3.6918   -1.7648    0.7583 H   0  0  0  0  0  0  0  0  0  0  0  0
   -2.8052   -2.4066   -0.6470 H   0  0  0  0  0  0  0  0  0  0  0  0
   -1.5559   -1.5215    0.8626 C   0  0  0  0  0  0  0  0  0  0  0  0
   -0.7950   -1.9835    1.6964 O   0  0  0  0  0  0  0  0  0  0  0  0
   -1.3502   -0.2373    0.4021 N   0  0  0  0  0  0  0  0  0  0  0  0
   -2.0291    0.1052   -0.2711 H   0  0  0  0  0  0  0  0  0  0  0  0
   -0.0209    0.4050    0.4167 C   0  0  1  0  0  0  0  0  0  0  0  0
    0.7692   -0.3335    0.6029 H   0  0  0  0  0  0  0  0  0  0  0  0
    0.2122    1.0408   -0.9710 C   0  0  0  0  0  0  0  0  0  0  0  0
   -0.6267    1.6935   -1.2252 H   0  0  0  0  0  0  0  0  0  0  0  0
    1.1155    1.6575   -0.9495 H   0  0  0  0  0  0  0  0  0  0  0  0
    0.4128   -0.0034   -2.0594 C   0  0  0  0  0  0  0  0  0  0  0  0
    1.0892   -1.0005   -1.9009 O   0  0  0  0  0  0  0  0  0  0  0  0
   -0.1836    0.1176   -3.2820 N   0  0  0  0  0  0  0  0  0  0  0  0
    0.1579   -0.5245   -3.9922 H   0  0  0  0  0  0  0  0  0  0  0  0
   -0.5354    1.0285   -3.5573 H   0  0  0  0  0  0  0  0  0  0  0  0
    0.0770    1.4504    1.5533 C   0  0  0  0  0  0  0  0  0  0  0  0
    0.7167    2.4860    1.4165 O   0  0  0  0  0  0  0  0  0  0  0  0
   -0.6573    1.2643    2.7097 N   0  0  0  0  0  0  0  0  0  0  0  0
   -1.0563    0.3349    2.8319 H   0  0  0  0  0  0  0  0  0  0  0  0
   -0.5863    2.1571    3.8592 C   0  0  0  0  0  0  0  0  0  0  0  0
   -0.8603    3.1773    3.5708 H   0  0  0  0  0  0  0  0  0  0  0  0
   -1.2776    1.8231    4.6388 H   0  0  0  0  0  0  0  0  0  0  0  0
    0.4271    2.1678    4.2737 H   0  0  0  0  0  0  0  0  0  0  0  0
  1  2  1  0  0  0  0
  2  3  1  0  0  0  0
  2  4  1  0  0  0  0
  2  5  1  0  0  0  0
  5  6  2  0  0  0  0
  5  7  1  0  0  0  0
  7  8  1  0  0  0  0
  7  9  1  0  0  0  0
  9 10  1  0  0  0  0
  9 11  1  0  0  0  0
  9 19  1  0  0  0  0
 11 12  1  0  0  0  0
 11 13  1  0  0  0  0
 11 14  1  0  0  0  0
 14 15  2  0  0  0  0
 14 16  1  0  0  0  0
 16 17  1  0  0  0  0
 16 18  1  0  0  0  0
 19 20  2  0  0  0  0
 19 21  1  0  0  0  0
 21 22  1  0  0  0  0
 21 23  1  0  0  0  0
 23 24  1  0  0  0  0
 23 25  1  0  0  0  0
 23 26  1  0  0  0  0
M  END
$$$$

  -OEChem-01062216063D

 26 25  0     1  0  0  0  0  0999 V2000
   -2.7952   -3.2604    0.9466 H   0  0  0  0  0  0  0  0  0  0  0  0
   -2.8008   -2.2667    0.4897 C   0  0  0  0  0  0  0  0  0  0  0  0
   -3.6873   -1.7265    0.8302 H   0  0  0  0  0  0  0  0  0  0  0  0
   -2.8452   -2.3808   -0.5961 H   0  0  0  0  0  0  0  0  0  0  0  0
   -1.5468   -1.5069    0.8785 C   0  0  0  0  0  0  0  0  0  0  0  0
   -0.7719   -1.9725    1.6987 O   0  0  0  0  0  0  0  0  0  0  0  0
   -1.3367   -0.2261    0.4107 N   0  0  0  0  0  0  0  0  0  0  0  0
   -2.0273    0.1283   -0.2441 H   0  0  0  0  0  0  0  0  0  0  0  0
   -0.0034    0.4043    0.4085 C   0  0  1  0  0  0  0  0  0  0  0  0
    0.7848   -0.3371    0.5905 H   0  0  0  0  0  0  0  0  0  0  0  0
    0.2286    1.0382   -0.9798 C   0  0  0  0  0  0  0  0  0  0  0  0
   -0.6057    1.6986   -1.2287 H   0  0  0  0  0  0  0  0  0  0  0  0
    1.1370    1.6476   -0.9591 H   0  0  0  0  0  0  0  0  0  0  0  0
    0.4129   -0.0044   -2.0723 C   0  0  0  0  0  0  0  0  0  0  0  0
    1.0806   -1.0083   -1.9192 O   0  0  0  0  0  0  0  0  0  0  0  0
   -0.1736    0.1362   -3.2976 N   0  0  0  0  0  0  0  0  0  0  0  0
    0.1653   -0.5006   -4.0137 H   0  0  0  0  0  0  0  0  0  0  0  0
   -0.5177    1.0528   -3.5637 H   0  0  0  0  0  0  0  0  0  0  0  0
    0.0934    1.4462    1.5457 C   0  0  0  0  0  0  0  0  0  0  0  0
    0.5109    2.5815    1.3508 O   0  0  0  0  0  0  0  0  0  0  0  0
   -0.3814    1.1049    2.7979 N   0  0  0  0  0  0  0  0  0  0  0  0
   -0.6371    0.1258    2.9284 H   0  0  0  0  0  0  0  0  0  0  0  0
   -0.3108    1.9829    3.9584 C   0  0  0  0  0  0  0  0  0  0  0  0
   -0.8432    2.9197    3.7636 H   0  0  0  0  0  0  0  0  0  0  0  0
   -0.7711    1.4996    4.8256 H   0  0  0  0  0  0  0  0  0  0  0  0
    0.7317    2.2130    4.2016 H   0  0  0  0  0  0  0  0  0  0  0  0
  1  2  1  0  0  0  0
  2  3  1  0  0  0  0
  2  4  1  0  0  0  0
  2  5  1  0  0  0  0
  5  6  2  0  0  0  0
  5  7  1  0  0  0  0
  7  8  1  0  0  0  0
  7  9  1  0  0  0  0
  9 10  1  0  0  0  0
  9 11  1  0  0  0  0
  9 19  1  0  0  0  0
 11 12  1  0  0  0  0
 11 13  1  0  0  0  0
 11 14  1  0  0  0  0
 14 15  2  0  0  0  0
 14 16  1  0  0  0  0
 16 17  1  0  0  0  0
 16 18  1  0  0  0  0
 19 20  2  0  0  0  0
 19 21  1  0  0  0  0
 21 22  1  0  0  0  0
 21 23  1  0  0  0  0
 23 24  1  0  0  0  0
 23 25  1  0  0  0  0
 23 26  1  0  0  0  0
M  END
$$$$

  -OEChem-01062216063D

 26 25  0     1  0  0  0  0  0999 V2000
   -2.8038   -3.2293    1.0027 H   0  0  0  0  0  0  0  0  0  0  0  0
   -2.8054   -2.2391    0.5380 C   0  0  0  0  0  0  0  0  0  0  0  0
   -3.6739   -1.6817    0.8973 H   0  0  0  0  0  0  0  0  0  0  0  0
   -2.8793   -2.3605   -0.5455 H   0  0  0  0  0  0  0  0  0  0  0  0
   -1.5299   -1.4972    0.8889 C   0  0  0  0  0  0  0  0  0  0  0  0
   -0.7327   -1.9797    1.6785 O   0  0  0  0  0  0  0  0  0  0  0  0
   -1.3160   -0.2189    0.4154 N   0  0  0  0  0  0  0  0  0  0  0  0
   -2.0217    0.1552   -0.2120 H   0  0  0  0  0  0  0  0  0  0  0  0
    0.0204    0.4007    0.4008 C   0  0  1  0  0  0  0  0  0  0  0  0
    0.8076   -0.3434    0.5755 H   0  0  0  0  0  0  0  0  0  0  0  0
    0.2485    1.0367   -0.9862 C   0  0  0  0  0  0  0  0  0  0  0  0
   -0.5833    1.7033   -1.2286 H   0  0  0  0  0  0  0  0  0  0  0  0
    1.1602    1.6409   -0.9654 H   0  0  0  0  0  0  0  0  0  0  0  0
    0.4168   -0.0028   -2.0839 C   0  0  0  0  0  0  0  0  0  0  0  0
    1.0774   -1.0128   -1.9383 O   0  0  0  0  0  0  0  0  0  0  0  0
   -0.1732    0.1499   -3.3061 N   0  0  0  0  0  0  0  0  0  0  0  0
    0.1542   -0.4873   -4.0271 H   0  0  0  0  0  0  0  0  0  0  0  0
   -0.5132    1.0702   -3.5649 H   0  0  0  0  0  0  0  0  0  0  0  0
    0.1207    1.4403    1.5364 C   0  0  0  0  0  0  0  0  0  0  0  0
    0.3025    2.6318    1.3146 O   0  0  0  0  0  0  0  0  0  0  0  0
   -0.0545    1.0054    2.8356 N   0  0  0  0  0  0  0  0  0  0  0  0
   -0.2183    0.0058    2.9633 H   0  0  0  0  0  0  0  0  0  0  0  0
   -0.0063    1.8792    4.0000 C   0  0  0  0  0  0  0  0  0  0  0  0
   -0.7871    2.6442    3.9373 H   0  0  0  0  0  0  0  0  0  0  0  0
   -0.1629    1.2986    4.9142 H   0  0  0  0  0  0  0  0  0  0  0  0
    0.9683    2.3738    4.0671 H   0  0  0  0  0  0  0  0  0  0  0  0
  1  2  1  0  0  0  0
  2  3  1  0  0  0  0
  2  4  1  0  0  0  0
  2  5  1  0  0  0  0
  5  6  2  0  0  0  0
  5  7  1  0  0  0  0
  7  8  1  0  0  0  0
  7  9  1  0  0  0  0
  9 10  1  0  0  0  0
  9 11  1  0  0  0  0
  9 19  1  0  0  0  0
 11 12  1  0  0  0  0
 11 13  1  0  0  0  0
 11 14  1  0  0  0  0
 14 15  2  0  0  0  0
 14 16  1  0  0  0  0
 16 17  1  0  0  0  0
 16 18  1  0  0  0  0
 19 20  2  0  0  0  0
 19 21  1  0  0  0  0
 21 22  1  0  0  0  0
 21 23  1  0  0  0  0
 23 24  1  0  0  0  0
 23 25  1  0  0  0  0
 23 26  1  0  0  0  0
M  END
$$$$

  -OEChem-01062216063D

 26 25  0     1  0  0  0  0  0999 V2000
   -2.7992   -3.2293    0.9964 H   0  0  0  0  0  0  0  0  0  0  0  0
   -2.8222   -2.2128    0.5935 C   0  0  0  0  0  0  0  0  0  0  0  0
   -3.6489   -1.6681    1.0559 H   0  0  0  0  0  0  0  0  0  0  0  0
   -2.9879   -2.2677   -0.4852 H   0  0  0  0  0  0  0  0  0  0  0  0
   -1.5099   -1.5077    0.8805 C   0  0  0  0  0  0  0  0  0  0  0  0
   -0.6790   -2.0253    1.6112 O   0  0  0  0  0  0  0  0  0  0  0  0
   -1.2920   -0.2298    0.4068 N   0  0  0  0  0  0  0  0  0  0  0  0
   -2.0264    0.1836   -0.1600 H   0  0  0  0  0  0  0  0  0  0  0  0
    0.0401    0.3954    0.3902 C   0  0  1  0  0  0  0  0  0  0  0  0
    0.8319   -0.3446    0.5600 H   0  0  0  0  0  0  0  0  0  0  0  0
    0.2650    1.0376   -0.9943 C   0  0  0  0  0  0  0  0  0  0  0  0
   -0.5726    1.6979   -1.2350 H   0  0  0  0  0  0  0  0  0  0  0  0
    1.1709    1.6502   -0.9690 H   0  0  0  0  0  0  0  0  0  0  0  0
    0.4378    0.0034   -2.0963 C   0  0  0  0  0  0  0  0  0  0  0  0
    1.1038   -1.0033   -1.9529 O   0  0  0  0  0  0  0  0  0  0  0  0
   -0.1529    0.1552   -3.3183 N   0  0  0  0  0  0  0  0  0  0  0  0
    0.1733   -0.4814   -4.0403 H   0  0  0  0  0  0  0  0  0  0  0  0
   -0.5030    1.0721   -3.5751 H   0  0  0  0  0  0  0  0  0  0  0  0
    0.1348    1.4362    1.5225 C   0  0  0  0  0  0  0  0  0  0  0  0
    0.0656    2.6399    1.3019 O   0  0  0  0  0  0  0  0  0  0  0  0
    0.2777    0.9813    2.8187 N   0  0  0  0  0  0  0  0  0  0  0  0
    0.2281   -0.0287    2.9551 H   0  0  0  0  0  0  0  0  0  0  0  0
    0.3122    1.8562    3.9829 C   0  0  0  0  0  0  0  0  0  0  0  0
   -0.6381    2.3895    4.0888 H   0  0  0  0  0  0  0  0  0  0  0  0
    0.4854    1.2702    4.8907 H   0  0  0  0  0  0  0  0  0  0  0  0
    1.1199    2.5895    3.8875 H   0  0  0  0  0  0  0  0  0  0  0  0
  1  2  1  0  0  0  0
  2  3  1  0  0  0  0
  2  4  1  0  0  0  0
  2  5  1  0  0  0  0
  5  6  2  0  0  0  0
  5  7  1  0  0  0  0
  7  8  1  0  0  0  0
  7  9  1  0  0  0  0
  9 10  1  0  0  0  0
  9 11  1  0  0  0  0
  9 19  1  0  0  0  0
 11 12  1  0  0  0  0
 11 13  1  0  0  0  0
 11 14  1  0  0  0  0
 14 15  2  0  0  0  0
 14 16  1  0  0  0  0
 16 17  1  0  0  0  0
 16 18  1  0  0  0  0
 19 20  2  0  0  0  0
 19 21  1  0  0  0  0
 21 22  1  0  0  0  0
 21 23  1  0  0  0  0
 23 24  1  0  0  0  0
 23 25  1  0  0  0  0
 23 26  1  0  0  0  0
M  END
$$$$

  -OEChem-01062216063D

 26 25  0     1  0  0  0  0  0999 V2000
   -2.8290   -3.2149    1.0571 H   0  0  0  0  0  0  0  0  0  0  0  0
   -2.8443   -2.1970    0.6574 C   0  0  0  0  0  0  0  0  0  0  0  0
   -3.6170   -1.6252    1.1768 H   0  0  0  0  0  0  0  0  0  0  0  0
   -3.0859   -2.2421   -0.4073 H   0  0  0  0  0  0  0  0  0  0  0  0
   -1.4919   -1.5389    0.8542 C   0  0  0  0  0  0  0  0  0  0  0  0
   -0.6231   -2.1031    1.5013 O   0  0  0  0  0  0  0  0  0  0  0  0
   -1.2724   -0.2595    0.3853 N   0  0  0  0  0  0  0  0  0  0  0  0
   -2.0463    0.2124   -0.0736 H   0  0  0  0  0  0  0  0  0  0  0  0
    0.0508    0.3815    0.3764 C   0  0  1  0  0  0  0  0  0  0  0  0
    0.8504   -0.3507    0.5422 H   0  0  0  0  0  0  0  0  0  0  0  0
    0.2718    1.0366   -1.0018 C   0  0  0  0  0  0  0  0  0  0  0  0
   -0.5749    1.6860   -1.2406 H   0  0  0  0  0  0  0  0  0  0  0  0
    1.1677    1.6631   -0.9673 H   0  0  0  0  0  0  0  0  0  0  0  0
    0.4612    0.0150   -2.1130 C   0  0  0  0  0  0  0  0  0  0  0  0
    1.1399   -0.9842   -1.9766 O   0  0  0  0  0  0  0  0  0  0  0  0
   -0.1151    0.1787   -3.3404 N   0  0  0  0  0  0  0  0  0  0  0  0
    0.2204   -0.4470   -4.0675 H   0  0  0  0  0  0  0  0  0  0  0  0
   -0.4799    1.0926   -3.5873 H   0  0  0  0  0  0  0  0  0  0  0  0
    0.1339    1.4252    1.5057 C   0  0  0  0  0  0  0  0  0  0  0  0
   -0.2001    2.5896    1.3189 O   0  0  0  0  0  0  0  0  0  0  0  0
    0.5853    1.0293    2.7495 N   0  0  0  0  0  0  0  0  0  0  0  0
    0.7168    0.0283    2.8886 H   0  0  0  0  0  0  0  0  0  0  0  0
    0.6243    1.9137    3.9068 C   0  0  0  0  0  0  0  0  0  0  0  0
   -0.3863    2.2379    4.1752 H   0  0  0  0  0  0  0  0  0  0  0  0
    1.0622    1.3939    4.7643 H   0  0  0  0  0  0  0  0  0  0  0  0
    1.2333    2.7983    3.6929 H   0  0  0  0  0  0  0  0  0  0  0  0
  1  2  1  0  0  0  0
  2  3  1  0  0  0  0
  2  4  1  0  0  0  0
  2  5  1  0  0  0  0
  5  6  2  0  0  0  0
  5  7  1  0  0  0  0
  7  8  1  0  0  0  0
  7  9  1  0  0  0  0
  9 10  1  0  0  0  0
  9 11  1  0  0  0  0
  9 19  1  0  0  0  0
 11 12  1  0  0  0  0
 11 13  1  0  0  0  0
 11 14  1  0  0  0  0
 14 15  2  0  0  0  0
 14 16  1  0  0  0  0
 16 17  1  0  0  0  0
 16 18  1  0  0  0  0
 19 20  2  0  0  0  0
 19 21  1  0  0  0  0
 21 22  1  0  0  0  0
 21 23  1  0  0  0  0
 23 24  1  0  0  0  0
 23 25  1  0  0  0  0
 23 26  1  0  0  0  0
M  END
$$$$

  -OEChem-01062216063D

 26 25  0     1  0  0  0  0  0999 V2000
   -2.8518   -3.2038    1.1103 H   0  0  0  0  0  0  0  0  0  0  0  0
   -2.8634   -2.1800    0.7256 C   0  0  0  0  0  0  0  0  0  0  0  0
   -3.5701   -1.5900    1.3141 H   0  0  0  0  0  0  0  0  0  0  0  0
   -3.1927   -2.2006   -0.3160 H   0  0  0  0  0  0  0  0  0  0  0  0
   -1.4766   -1.5715    0.8184 C   0  0  0  0  0  0  0  0  0  0  0  0
   -0.5766   -2.1845    1.3708 O   0  0  0  0  0  0  0  0  0  0  0  0
   -1.2554   -0.2904    0.3539 N   0  0  0  0  0  0  0  0  0  0  0  0
   -2.0609    0.2397    0.0323 H   0  0  0  0  0  0  0  0  0  0  0  0
    0.0608    0.3645    0.3583 C   0  0  1  0  0  0  0  0  0  0  0  0
    0.8655   -0.3619    0.5238 H   0  0  0  0  0  0  0  0  0  0  0  0
    0.2816    1.0346   -1.0118 C   0  0  0  0  0  0  0  0  0  0  0  0
   -0.5722    1.6751   -1.2493 H   0  0  0  0  0  0  0  0  0  0  0  0
    1.1692    1.6718   -0.9665 H   0  0  0  0  0  0  0  0  0  0  0  0
    0.4881    0.0273   -2.1332 C   0  0  0  0  0  0  0  0  0  0  0  0
    1.1777   -0.9653   -2.0031 O   0  0  0  0  0  0  0  0  0  0  0  0
   -0.0766    0.2018   -3.3646 N   0  0  0  0  0  0  0  0  0  0  0  0
    0.2674   -0.4129   -4.0970 H   0  0  0  0  0  0  0  0  0  0  0  0
   -0.4616    1.1098   -3.6017 H   0  0  0  0  0  0  0  0  0  0  0  0
    0.1287    1.4116    1.4854 C   0  0  0  0  0  0  0  0  0  0  0  0
   -0.4509    2.4855    1.3698 O   0  0  0  0  0  0  0  0  0  0  0  0
    0.8492    1.1392    2.6324 N   0  0  0  0  0  0  0  0  0  0  0  0
    1.1954    0.1880    2.7413 H   0  0  0  0  0  0  0  0  0  0  0  0
    0.8945    2.0377    3.7790 C   0  0  0  0  0  0  0  0  0  0  0  0
   -0.1075    2.1739    4.1989 H   0  0  0  0  0  0  0  0  0  0  0  0
    1.5437    1.6242    4.5568 H   0  0  0  0  0  0  0  0  0  0  0  0
    1.2899    3.0156    3.4846 H   0  0  0  0  0  0  0  0  0  0  0  0
  1  2  1  0  0  0  0
  2  3  1  0  0  0  0
  2  4  1  0  0  0  0
  2  5  1  0  0  0  0
  5  6  2  0  0  0  0
  5  7  1  0  0  0  0
  7  8  1  0  0  0  0
  7  9  1  0  0  0  0
  9 10  1  0  0  0  0
  9 11  1  0  0  0  0
  9 19  1  0  0  0  0
 11 12  1  0  0  0  0
 11 13  1  0  0  0  0
 11 14  1  0  0  0  0
 14 15  2  0  0  0  0
 14 16  1  0  0  0  0
 16 17  1  0  0  0  0
 16 18  1  0  0  0  0
 19 20  2  0  0  0  0
 19 21  1  0  0  0  0
 21 22  1  0  0  0  0
 21 23  1  0  0  0  0
 23 24  1  0  0  0  0
 23 25  1  0  0  0  0
 23 26  1  0  0  0  0
M  END
$$$$

  -OEChem-01062216063D

 26 25  0     1  0  0  0  0  0999 V2000
   -2.8638   -3.1657    1.1226 H   0  0  0  0  0  0  0  0  0  0  0  0
   -2.8629   -2.1409    0.7408 C   0  0  0  0  0  0  0  0  0  0  0  0
   -3.5073   -1.5278    1.3755 H   0  0  0  0  0  0  0  0  0  0  0  0
   -3.2608   -2.1450   -0.2767 H   0  0  0  0  0  0  0  0  0  0  0  0
   -1.4516   -1.5841    0.7427 C   0  0  0  0  0  0  0  0  0  0  0  0
   -0.5368   -2.2490    1.2015 O   0  0  0  0  0  0  0  0  0  0  0  0
   -1.2243   -0.2987    0.2924 N   0  0  0  0  0  0  0  0  0  0  0  0
   -2.0426    0.2839    0.1335 H   0  0  0  0  0  0  0  0  0  0  0  0
    0.0882    0.3628    0.3348 C   0  0  1  0  0  0  0  0  0  0  0  0
    0.8905   -0.3634    0.5121 H   0  0  0  0  0  0  0  0  0  0  0  0
    0.3387    1.0557   -1.0175 C   0  0  0  0  0  0  0  0  0  0  0  0
   -0.5117    1.6973   -1.2639 H   0  0  0  0  0  0  0  0  0  0  0  0
    1.2225    1.6952   -0.9415 H   0  0  0  0  0  0  0  0  0  0  0  0
    0.5773    0.0687   -2.1508 C   0  0  0  0  0  0  0  0  0  0  0  0
    1.2693   -0.9221   -2.0186 O   0  0  0  0  0  0  0  0  0  0  0  0
    0.0236    0.2475   -3.3866 N   0  0  0  0  0  0  0  0  0  0  0  0
    0.1164   -0.5252   -4.0397 H   0  0  0  0  0  0  0  0  0  0  0  0
   -0.6912    0.9546   -3.5185 H   0  0  0  0  0  0  0  0  0  0  0  0
    0.1251    1.4037    1.4680 C   0  0  0  0  0  0  0  0  0  0  0  0
   -0.6659    2.3401    1.4591 O   0  0  0  0  0  0  0  0  0  0  0  0
    1.0467    1.2916    2.4914 N   0  0  0  0  0  0  0  0  0  0  0  0
    1.6080    0.4438    2.5208 H   0  0  0  0  0  0  0  0  0  0  0  0
    1.0977    2.2076    3.6239 C   0  0  0  0  0  0  0  0  0  0  0  0
    0.1570    2.1777    4.1838 H   0  0  0  0  0  0  0  0  0  0  0  0
    1.9121    1.9282    4.2994 H   0  0  0  0  0  0  0  0  0  0  0  0
    1.2717    3.2326    3.2799 H   0  0  0  0  0  0  0  0  0  0  0  0
  1  2  1  0  0  0  0
  2  3  1  0  0  0  0
  2  4  1  0  0  0  0
  2  5  1  0  0  0  0
  5  6  2  0  0  0  0
  5  7  1  0  0  0  0
  7  8  1  0  0  0  0
  7  9  1  0  0  0  0
  9 10  1  0  0  0  0
  9 11  1  0  0  0  0
  9 19  1  0  0  0  0
 11 12  1  0  0  0  0
 11 13  1  0  0  0  0
 11 14  1  0  0  0  0
 14 15  2  0  0  0  0
 14 16  1  0  0  0  0
 16 17  1  0  0  0  0
 16 18  1  0  0  0  0
 19 20  2  0  0  0  0
 19 21  1  0  0  0  0
 21 22  1  0  0  0  0
 21 23  1  0  0  0  0
 23 24  1  0  0  0  0
 23 25  1  0  0  0  0
 23 26  1  0  0  0  0
M  END
$$$$

  -OEChem-01062216063D

 26 25  0     1  0  0  0  0  0999 V2000
   -2.8697   -3.1629    1.1449 H   0  0  0  0  0  0  0  0  0  0  0  0
   -2.8683   -2.1394    0.7593 C   0  0  0  0  0  0  0  0  0  0  0  0
   -3.4890   -1.5174    1.4089 H   0  0  0  0  0  0  0  0  0  0  0  0
   -3.2929   -2.1424   -0.2474 H   0  0  0  0  0  0  0  0  0  0  0  0
   -1.4518   -1.5974    0.7207 C   0  0  0  0  0  0  0  0  0  0  0  0
   -0.5301   -2.2806    1.1366 O   0  0  0  0  0  0  0  0  0  0  0  0
   -1.2269   -0.3109    0.2718 N   0  0  0  0  0  0  0  0  0  0  0  0
   -2.0469    0.2843    0.1808 H   0  0  0  0  0  0  0  0  0  0  0  0
    0.0832    0.3556    0.3302 C   0  0  1  0  0  0  0  0  0  0  0  0
    0.8857   -0.3683    0.5146 H   0  0  0  0  0  0  0  0  0  0  0  0
    0.3386    1.0562   -1.0163 C   0  0  0  0  0  0  0  0  0  0  0  0
   -0.5143    1.6943   -1.2632 H   0  0  0  0  0  0  0  0  0  0  0  0
    1.2185    1.6997   -0.9321 H   0  0  0  0  0  0  0  0  0  0  0  0
    0.5897    0.0778   -2.1545 C   0  0  0  0  0  0  0  0  0  0  0  0
    1.2866   -0.9096   -2.0236 O   0  0  0  0  0  0  0  0  0  0  0  0
    0.0390    0.2586   -3.3914 N   0  0  0  0  0  0  0  0  0  0  0  0
    0.1277   -0.5193   -4.0390 H   0  0  0  0  0  0  0  0  0  0  0  0
   -0.6912    0.9513   -3.5151 H   0  0  0  0  0  0  0  0  0  0  0  0
    0.1119    1.3999    1.4607 C   0  0  0  0  0  0  0  0  0  0  0  0
   -0.8141    2.1956    1.5730 O   0  0  0  0  0  0  0  0  0  0  0  0
    1.1951    1.4814    2.3152 N   0  0  0  0  0  0  0  0  0  0  0  0
    1.9039    0.7558    2.2423 H   0  0  0  0  0  0  0  0  0  0  0  0
    1.2731    2.4330    3.4167 C   0  0  0  0  0  0  0  0  0  0  0  0
    0.4561    2.2661    4.1266 H   0  0  0  0  0  0  0  0  0  0  0  0
    2.2228    2.3187    3.9483 H   0  0  0  0  0  0  0  0  0  0  0  0
    1.2096    3.4597    3.0411 H   0  0  0  0  0  0  0  0  0  0  0  0
  1  2  1  0  0  0  0
  2  3  1  0  0  0  0
  2  4  1  0  0  0  0
  2  5  1  0  0  0  0
  5  6  2  0  0  0  0
  5  7  1  0  0  0  0
  7  8  1  0  0  0  0
  7  9  1  0  0  0  0
  9 10  1  0  0  0  0
  9 11  1  0  0  0  0
  9 19  1  0  0  0  0
 11 12  1  0  0  0  0
 11 13  1  0  0  0  0
 11 14  1  0  0  0  0
 14 15  2  0  0  0  0
 14 16  1  0  0  0  0
 16 17  1  0  0  0  0
 16 18  1  0  0  0  0
 19 20  2  0  0  0  0
 19 21  1  0  0  0  0
 21 22  1  0  0  0  0
 21 23  1  0  0  0  0
 23 24  1  0  0  0  0
 23 25  1  0  0  0  0
 23 26  1  0  0  0  0
M  END
$$$$

  -OEChem-01062216063D

 26 25  0     1  0  0  0  0  0999 V2000
   -2.8708   -3.1564    1.1623 H   0  0  0  0  0  0  0  0  0  0  0  0
   -2.8702   -2.1349    0.7716 C   0  0  0  0  0  0  0  0  0  0  0  0
   -3.4707   -1.5047    1.4322 H   0  0  0  0  0  0  0  0  0  0  0  0
   -3.3182   -2.1392   -0.2249 H   0  0  0  0  0  0  0  0  0  0  0  0
   -1.4507   -1.6042    0.6980 C   0  0  0  0  0  0  0  0  0  0  0  0
   -0.5236   -2.3014    1.0768 O   0  0  0  0  0  0  0  0  0  0  0  0
   -1.2303   -0.3160    0.2518 N   0  0  0  0  0  0  0  0  0  0  0  0
   -2.0505    0.2854    0.2209 H   0  0  0  0  0  0  0  0  0  0  0  0
    0.0770    0.3558    0.3266 C   0  0  1  0  0  0  0  0  0  0  0  0
    0.8802   -0.3654    0.5188 H   0  0  0  0  0  0  0  0  0  0  0  0
    0.3362    1.0594   -1.0172 C   0  0  0  0  0  0  0  0  0  0  0  0
   -0.5193    1.6922   -1.2680 H   0  0  0  0  0  0  0  0  0  0  0  0
    1.2120    1.7079   -0.9291 H   0  0  0  0  0  0  0  0  0  0  0  0
    0.6002    0.0834   -2.1548 C   0  0  0  0  0  0  0  0  0  0  0  0
    1.3026   -0.8994   -2.0200 O   0  0  0  0  0  0  0  0  0  0  0  0
    0.0512    0.2579   -3.3933 N   0  0  0  0  0  0  0  0  0  0  0  0
    0.1411   -0.5269   -4.0325 H   0  0  0  0  0  0  0  0  0  0  0  0
   -0.6969    0.9321   -3.5120 H   0  0  0  0  0  0  0  0  0  0  0  0
    0.0977    1.4024    1.4565 C   0  0  0  0  0  0  0  0  0  0  0  0
   -0.9178    2.0394    1.7142 O   0  0  0  0  0  0  0  0  0  0  0  0
    1.2762    1.6969    2.1164 N   0  0  0  0  0  0  0  0  0  0  0  0
    2.0832    1.1109    1.9183 H   0  0  0  0  0  0  0  0  0  0  0  0
    1.3671    2.6794    3.1896 C   0  0  0  0  0  0  0  0  0  0  0  0
    0.7291    2.3883    4.0307 H   0  0  0  0  0  0  0  0  0  0  0  0
    2.3987    2.7545    3.5468 H   0  0  0  0  0  0  0  0  0  0  0  0
    1.0532    3.6664    2.8338 H   0  0  0  0  0  0  0  0  0  0  0  0
  1  2  1  0  0  0  0
  2  3  1  0  0  0  0
  2  4  1  0  0  0  0
  2  5  1  0  0  0  0
  5  6  2  0  0  0  0
  5  7  1  0  0  0  0
  7  8  1  0  0  0  0
  7  9  1  0  0  0  0
  9 10  1  0  0  0  0
  9 11  1  0  0  0  0
  9 19  1  0  0  0  0
 11 12  1  0  0  0  0
 11 13  1  0  0  0  0
 11 14  1  0  0  0  0
 14 15  2  0  0  0  0
 14 16  1  0  0  0  0
 16 17  1  0  0  0  0
 16 18  1  0  0  0  0
 19 20  2  0  0  0  0
 19 21  1  0  0  0  0
 21 22  1  0  0  0  0
 21 23  1  0  0  0  0
 23 24  1  0  0  0  0
 23 25  1  0  0  0  0
 23 26  1  0  0  0  0
M  END
$$$$

  -OEChem-01062216063D

 26 25  0     1  0  0  0  0  0999 V2000
   -2.8619   -3.1504    1.1781 H   0  0  0  0  0  0  0  0  0  0  0  0
   -2.8671   -2.1283    0.7887 C   0  0  0  0  0  0  0  0  0  0  0  0
   -3.4451   -1.4959    1.4670 H   0  0  0  0  0  0  0  0  0  0  0  0
   -3.3432   -2.1287   -0.1947 H   0  0  0  0  0  0  0  0  0  0  0  0
   -1.4476   -1.6048    0.6757 C   0  0  0  0  0  0  0  0  0  0  0  0
   -0.5143   -2.3130    1.0168 O   0  0  0  0  0  0  0  0  0  0  0  0
   -1.2345   -0.3143    0.2320 N   0  0  0  0  0  0  0  0  0  0  0  0
   -2.0549    0.2876    0.2468 H   0  0  0  0  0  0  0  0  0  0  0  0
    0.0707    0.3616    0.3218 C   0  0  1  0  0  0  0  0  0  0  0  0
    0.8757   -0.3560    0.5216 H   0  0  0  0  0  0  0  0  0  0  0  0
    0.3311    1.0617   -1.0250 C   0  0  0  0  0  0  0  0  0  0  0  0
   -0.5278    1.6872   -1.2822 H   0  0  0  0  0  0  0  0  0  0  0  0
    1.2019    1.7169   -0.9399 H   0  0  0  0  0  0  0  0  0  0  0  0
    0.6056    0.0825   -2.1578 C   0  0  0  0  0  0  0  0  0  0  0  0
    1.3134   -0.8952   -2.0160 O   0  0  0  0  0  0  0  0  0  0  0  0
    0.0606    0.2484   -3.3992 N   0  0  0  0  0  0  0  0  0  0  0  0
    0.1541   -0.5417   -4.0314 H   0  0  0  0  0  0  0  0  0  0  0  0
   -0.6958    0.9127   -3.5204 H   0  0  0  0  0  0  0  0  0  0  0  0
    0.0841    1.4091    1.4533 C   0  0  0  0  0  0  0  0  0  0  0  0
   -0.9704    1.8776    1.8687 O   0  0  0  0  0  0  0  0  0  0  0  0
    1.2827    1.9274    1.9085 N   0  0  0  0  0  0  0  0  0  0  0  0
    2.1377    1.4829    1.5849 H   0  0  0  0  0  0  0  0  0  0  0  0
    1.3696    2.9319    2.9617 C   0  0  0  0  0  0  0  0  0  0  0  0
    0.9448    2.5463    3.8946 H   0  0  0  0  0  0  0  0  0  0  0  0
    2.4149    3.2010    3.1420 H   0  0  0  0  0  0  0  0  0  0  0  0
    0.8256    3.8378    2.6742 H   0  0  0  0  0  0  0  0  0  0  0  0
  1  2  1  0  0  0  0
  2  3  1  0  0  0  0
  2  4  1  0  0  0  0
  2  5  1  0  0  0  0
  5  6  2  0  0  0  0
  5  7  1  0  0  0  0
  7  8  1  0  0  0  0
  7  9  1  0  0  0  0
  9 10  1  0  0  0  0
  9 11  1  0  0  0  0
  9 19  1  0  0  0  0
 11 12  1  0  0  0  0
 11 13  1  0  0  0  0
 11 14  1  0  0  0  0
 14 15  2  0  0  0  0
 14 16  1  0  0  0  0
 16 17  1  0  0  0  0
 16 18  1  0  0  0  0
 19 20  2  0  0  0  0
 19 21  1  0  0  0  0
 21 22  1  0  0  0  0
 21 23  1  0  0  0  0
 23 24  1  0  0  0  0
 23 25  1  0  0  0  0
 23 26  1  0  0  0  0
M  END
$$$$

  -OEChem-01062216063D

 26 25  0     1  0  0  0  0  0999 V2000
   -2.8051   -3.1451    1.2210 H   0  0  0  0  0  0  0  0  0  0  0  0
   -2.8406   -2.1171    0.8495 C   0  0  0  0  0  0  0  0  0  0  0  0
   -3.3632   -1.4967    1.5817 H   0  0  0  0  0  0  0  0  0  0  0  0
   -3.3918   -2.1020   -0.0936 H   0  0  0  0  0  0  0  0  0  0  0  0
   -1.4342   -1.5901    0.6351 C   0  0  0  0  0  0  0  0  0  0  0  0
   -0.4761   -2.3063    0.8800 O   0  0  0  0  0  0  0  0  0  0  0  0
   -1.2554   -0.2920    0.1959 N   0  0  0  0  0  0  0  0  0  0  0  0
   -2.0767    0.2983    0.2960 H   0  0  0  0  0  0  0  0  0  0  0  0
    0.0512    0.3810    0.2967 C   0  0  1  0  0  0  0  0  0  0  0  0
    0.8713   -0.3442    0.2282 H   0  0  0  0  0  0  0  0  0  0  0  0
    0.1479    1.3689   -0.8832 C   0  0  0  0  0  0  0  0  0  0  0  0
   -0.7380    2.0093   -0.8967 H   0  0  0  0  0  0  0  0  0  0  0  0
    1.0198    2.0161   -0.7607 H   0  0  0  0  0  0  0  0  0  0  0  0
    0.2925    0.6676   -2.2268 C   0  0  0  0  0  0  0  0  0  0  0  0
    1.0171   -0.2954   -2.3831 O   0  0  0  0  0  0  0  0  0  0  0  0
   -0.3853    1.0888   -3.3354 N   0  0  0  0  0  0  0  0  0  0  0  0
   -0.3581    0.4615   -4.1346 H   0  0  0  0  0  0  0  0  0  0  0  0
   -1.1498    1.7462   -3.2278 H   0  0  0  0  0  0  0  0  0  0  0  0
    0.2076    1.1330    1.6380 C   0  0  0  0  0  0  0  0  0  0  0  0
   -0.7540    1.2690    2.3868 O   0  0  0  0  0  0  0  0  0  0  0  0
    1.3728    1.8248    1.9180 N   0  0  0  0  0  0  0  0  0  0  0  0
    2.1752    1.6436    1.3211 H   0  0  0  0  0  0  0  0  0  0  0  0
    1.5771    2.5708    3.1540 C   0  0  0  0  0  0  0  0  0  0  0  0
    1.5004    1.9048    4.0199 H   0  0  0  0  0  0  0  0  0  0  0  0
    2.5695    3.0315    3.1580 H   0  0  0  0  0  0  0  0  0  0  0  0
    0.8289    3.3645    3.2519 H   0  0  0  0  0  0  0  0  0  0  0  0
  1  2  1  0  0  0  0
  2  3  1  0  0  0  0
  2  4  1  0  0  0  0
  2  5  1  0  0  0  0
  5  6  2  0  0  0  0
  5  7  1  0  0  0  0
  7  8  1  0  0  0  0
  7  9  1  0  0  0  0
  9 10  1  0  0  0  0
  9 11  1  0  0  0  0
  9 19  1  0  0  0  0
 11 12  1  0  0  0  0
 11 13  1  0  0  0  0
 11 14  1  0  0  0  0
 14 15  2  0  0  0  0
 14 16  1  0  0  0  0
 16 17  1  0  0  0  0
 16 18  1  0  0  0  0
 19 20  2  0  0  0  0
 19 21  1  0  0  0  0
 21 22  1  0  0  0  0
 21 23  1  0  0  0  0
 23 24  1  0  0  0  0
 23 25  1  0  0  0  0
 23 26  1  0  0  0  0
M  END
$$$$

  -OEChem-01062216063D

 26 25  0     1  0  0  0  0  0999 V2000
   -2.7925   -3.1325    1.2283 H   0  0  0  0  0  0  0  0  0  0  0  0
   -2.8331   -2.1014    0.8662 C   0  0  0  0  0  0  0  0  0  0  0  0
   -3.3301   -1.4843    1.6188 H   0  0  0  0  0  0  0  0  0  0  0  0
   -3.4121   -2.0754   -0.0597 H   0  0  0  0  0  0  0  0  0  0  0  0
   -1.4302   -1.5804    0.6163 C   0  0  0  0  0  0  0  0  0  0  0  0
   -0.4715   -2.3081    0.8206 O   0  0  0  0  0  0  0  0  0  0  0  0
   -1.2561   -0.2790    0.1828 N   0  0  0  0  0  0  0  0  0  0  0  0
   -2.0771    0.3078    0.3006 H   0  0  0  0  0  0  0  0  0  0  0  0
    0.0512    0.3936    0.2884 C   0  0  1  0  0  0  0  0  0  0  0  0
    0.8733   -0.3298    0.2237 H   0  0  0  0  0  0  0  0  0  0  0  0
    0.1433    1.3697   -0.9048 C   0  0  0  0  0  0  0  0  0  0  0  0
   -0.7443    2.0074   -0.9252 H   0  0  0  0  0  0  0  0  0  0  0  0
    1.0138    2.0205   -0.7968 H   0  0  0  0  0  0  0  0  0  0  0  0
    0.2909    0.6536   -2.2410 C   0  0  0  0  0  0  0  0  0  0  0  0
    1.0199   -0.3074   -2.3871 O   0  0  0  0  0  0  0  0  0  0  0  0
   -0.3888    1.0585   -3.3544 N   0  0  0  0  0  0  0  0  0  0  0  0
   -0.3589    0.4197   -4.1443 H   0  0  0  0  0  0  0  0  0  0  0  0
   -1.1601    1.7088   -3.2536 H   0  0  0  0  0  0  0  0  0  0  0  0
    0.2042    1.1392    1.6378 C   0  0  0  0  0  0  0  0  0  0  0  0
   -0.6709    1.0564    2.4925 O   0  0  0  0  0  0  0  0  0  0  0  0
    1.2082    2.0750    1.8208 N   0  0  0  0  0  0  0  0  0  0  0  0
    1.9633    2.0831    1.1412 H   0  0  0  0  0  0  0  0  0  0  0  0
    1.3789    2.8269    3.0591 C   0  0  0  0  0  0  0  0  0  0  0  0
    1.5495    2.1465    3.9003 H   0  0  0  0  0  0  0  0  0  0  0  0
    2.2382    3.4994    2.9780 H   0  0  0  0  0  0  0  0  0  0  0  0
    0.4890    3.4298    3.2684 H   0  0  0  0  0  0  0  0  0  0  0  0
  1  2  1  0  0  0  0
  2  3  1  0  0  0  0
  2  4  1  0  0  0  0
  2  5  1  0  0  0  0
  5  6  2  0  0  0  0
  5  7  1  0  0  0  0
  7  8  1  0  0  0  0
  7  9  1  0  0  0  0
  9 10  1  0  0  0  0
  9 11  1  0  0  0  0
  9 19  1  0  0  0  0
 11 12  1  0  0  0  0
 11 13  1  0  0  0  0
 11 14  1  0  0  0  0
 14 15  2  0  0  0  0
 14 16  1  0  0  0  0
 16 17  1  0  0  0  0
 16 18  1  0  0  0  0
 19 20  2  0  0  0  0
 19 21  1  0  0  0  0
 21 22  1  0  0  0  0
 21 23  1  0  0  0  0
 23 24  1  0  0  0  0
 23 25  1  0  0  0  0
 23 26  1  0  0  0  0
M  END
$$$$

  -OEChem-01062216063D

 26 25  0     1  0  0  0  0  0999 V2000
   -2.7852   -3.1208    1.2348 H   0  0  0  0  0  0  0  0  0  0  0  0
   -2.8274   -2.0852    0.8858 C   0  0  0  0  0  0  0  0  0  0  0  0
   -3.2990   -1.4733    1.6587 H   0  0  0  0  0  0  0  0  0  0  0  0
   -3.4300   -2.0438   -0.0243 H   0  0  0  0  0  0  0  0  0  0  0  0
   -1.4278   -1.5716    0.6049 C   0  0  0  0  0  0  0  0  0  0  0  0
   -0.4706   -2.3121    0.7644 O   0  0  0  0  0  0  0  0  0  0  0  0
   -1.2583   -0.2675    0.1761 N   0  0  0  0  0  0  0  0  0  0  0  0
   -2.0798    0.3158    0.3038 H   0  0  0  0  0  0  0  0  0  0  0  0
    0.0492    0.4059    0.2792 C   0  0  1  0  0  0  0  0  0  0  0  0
    0.8719   -0.3177    0.2195 H   0  0  0  0  0  0  0  0  0  0  0  0
    0.1435    1.3682   -0.9264 C   0  0  0  0  0  0  0  0  0  0  0  0
   -0.7428    2.0072   -0.9560 H   0  0  0  0  0  0  0  0  0  0  0  0
    1.0173    2.0155   -0.8291 H   0  0  0  0  0  0  0  0  0  0  0  0
    0.2944    0.6367   -2.2544 C   0  0  0  0  0  0  0  0  0  0  0  0
    1.0235   -0.3255   -2.3900 O   0  0  0  0  0  0  0  0  0  0  0  0
   -0.3839    1.0297   -3.3730 N   0  0  0  0  0  0  0  0  0  0  0  0
   -0.3522    0.3817   -4.1555 H   0  0  0  0  0  0  0  0  0  0  0  0
   -1.1588    1.6765   -3.2788 H   0  0  0  0  0  0  0  0  0  0  0  0
    0.1994    1.1445    1.6358 C   0  0  0  0  0  0  0  0  0  0  0  0
   -0.5263    0.8530    2.5791 O   0  0  0  0  0  0  0  0  0  0  0  0
    0.9772    2.2850    1.7533 N   0  0  0  0  0  0  0  0  0  0  0  0
    1.6268    2.4831    0.9986 H   0  0  0  0  0  0  0  0  0  0  0  0
    1.1087    3.0359    2.9972 C   0  0  0  0  0  0  0  0  0  0  0  0
    1.5241    2.4002    3.7864 H   0  0  0  0  0  0  0  0  0  0  0  0
    1.7759    3.8913    2.8541 H   0  0  0  0  0  0  0  0  0  0  0  0
    0.1332    3.4112    3.3243 H   0  0  0  0  0  0  0  0  0  0  0  0
  1  2  1  0  0  0  0
  2  3  1  0  0  0  0
  2  4  1  0  0  0  0
  2  5  1  0  0  0  0
  5  6  2  0  0  0  0
  5  7  1  0  0  0  0
  7  8  1  0  0  0  0
  7  9  1  0  0  0  0
  9 10  1  0  0  0  0
  9 11  1  0  0  0  0
  9 19  1  0  0  0  0
 11 12  1  0  0  0  0
 11 13  1  0  0  0  0
 11 14  1  0  0  0  0
 14 15  2  0  0  0  0
 14 16  1  0  0  0  0
 16 17  1  0  0  0  0
 16 18  1  0  0  0  0
 19 20  2  0  0  0  0
 19 21  1  0  0  0  0
 21 22  1  0  0  0  0
 21 23  1  0  0  0  0
 23 24  1  0  0  0  0
 23 25  1  0  0  0  0
 23 26  1  0  0  0  0
M  END
$$$$

  -OEChem-01062216063D

 26 25  0     1  0  0  0  0  0999 V2000
   -2.7837   -3.1118    1.2462 H   0  0  0  0  0  0  0  0  0  0  0  0
   -2.8272   -2.0753    0.8999 C   0  0  0  0  0  0  0  0  0  0  0  0
   -3.2872   -1.4642    1.6806 H   0  0  0  0  0  0  0  0  0  0  0  0
   -3.4418   -2.0309   -0.0024 H   0  0  0  0  0  0  0  0  0  0  0  0
   -1.4292   -1.5657    0.6027 C   0  0  0  0  0  0  0  0  0  0  0  0
   -0.4752   -2.3153    0.7338 O   0  0  0  0  0  0  0  0  0  0  0  0
   -1.2604   -0.2601    0.1772 N   0  0  0  0  0  0  0  0  0  0  0  0
   -2.0845    0.3211    0.2945 H   0  0  0  0  0  0  0  0  0  0  0  0
    0.0472    0.4147    0.2732 C   0  0  1  0  0  0  0  0  0  0  0  0
    0.8694   -0.3102    0.2186 H   0  0  0  0  0  0  0  0  0  0  0  0
    0.1492    1.3670   -0.9394 C   0  0  0  0  0  0  0  0  0  0  0  0
   -0.7319    2.0128   -0.9774 H   0  0  0  0  0  0  0  0  0  0  0  0
    1.0308    2.0045   -0.8427 H   0  0  0  0  0  0  0  0  0  0  0  0
    0.3028    0.6250   -2.2616 C   0  0  0  0  0  0  0  0  0  0  0  0
    1.0284   -0.3405   -2.3893 O   0  0  0  0  0  0  0  0  0  0  0  0
   -0.3726    1.0104   -3.3846 N   0  0  0  0  0  0  0  0  0  0  0  0
   -0.3397    0.3555   -4.1613 H   0  0  0  0  0  0  0  0  0  0  0  0
   -1.1485    1.6569   -3.2970 H   0  0  0  0  0  0  0  0  0  0  0  0
    0.1964    1.1475    1.6337 C   0  0  0  0  0  0  0  0  0  0  0  0
   -0.3205    0.6815    2.6409 O   0  0  0  0  0  0  0  0  0  0  0  0
    0.7002    2.4360    1.7154 N   0  0  0  0  0  0  0  0  0  0  0  0
    1.1709    2.8064    0.8963 H   0  0  0  0  0  0  0  0  0  0  0  0
    0.7888    3.1824    2.9659 C   0  0  0  0  0  0  0  0  0  0  0  0
    1.4293    2.6565    3.6818 H   0  0  0  0  0  0  0  0  0  0  0  0
    1.2128    4.1746    2.7850 H   0  0  0  0  0  0  0  0  0  0  0  0
   -0.2046    3.3084    3.4092 H   0  0  0  0  0  0  0  0  0  0  0  0
  1  2  1  0  0  0  0
  2  3  1  0  0  0  0
  2  4  1  0  0  0  0
  2  5  1  0  0  0  0
  5  6  2  0  0  0  0
  5  7  1  0  0  0  0
  7  8  1  0  0  0  0
  7  9  1  0  0  0  0
  9 10  1  0  0  0  0
  9 11  1  0  0  0  0
  9 19  1  0  0  0  0
 11 12  1  0  0  0  0
 11 13  1  0  0  0  0
 11 14  1  0  0  0  0
 14 15  2  0  0  0  0
 14 16  1  0  0  0  0
 16 17  1  0  0  0  0
 16 18  1  0  0  0  0
 19 20  2  0  0  0  0
 19 21  1  0  0  0  0
 21 22  1  0  0  0  0
 21 23  1  0  0  0  0
 23 24  1  0  0  0  0
 23 25  1  0  0  0  0
 23 26  1  0  0  0  0
M  END
$$$$

  -OEChem-01062216063D

 26 25  0     1  0  0  0  0  0999 V2000
   -2.7894   -3.1214    1.2318 H   0  0  0  0  0  0  0  0  0  0  0  0
   -2.8330   -2.0809    0.8977 C   0  0  0  0  0  0  0  0  0  0  0  0
   -3.2992   -1.4802    1.6823 H   0  0  0  0  0  0  0  0  0  0  0  0
   -3.4416   -2.0269   -0.0078 H   0  0  0  0  0  0  0  0  0  0  0  0
   -1.4344   -1.5654    0.6145 C   0  0  0  0  0  0  0  0  0  0  0  0
   -0.4815   -2.3162    0.7412 O   0  0  0  0  0  0  0  0  0  0  0  0
   -1.2663   -0.2595    0.1884 N   0  0  0  0  0  0  0  0  0  0  0  0
   -2.0956    0.3184    0.2792 H   0  0  0  0  0  0  0  0  0  0  0  0
    0.0388    0.4204    0.2777 C   0  0  1  0  0  0  0  0  0  0  0  0
    0.8611   -0.3051    0.2287 H   0  0  0  0  0  0  0  0  0  0  0  0
    0.1521    1.3677   -0.9370 C   0  0  0  0  0  0  0  0  0  0  0  0
   -0.7276    2.0145   -0.9866 H   0  0  0  0  0  0  0  0  0  0  0  0
    1.0353    2.0025   -0.8294 H   0  0  0  0  0  0  0  0  0  0  0  0
    0.3137    0.6209   -2.2560 C   0  0  0  0  0  0  0  0  0  0  0  0
    1.0372   -0.3467   -2.3769 O   0  0  0  0  0  0  0  0  0  0  0  0
   -0.3543    1.0024   -3.3847 N   0  0  0  0  0  0  0  0  0  0  0  0
   -0.3134    0.3467   -4.1604 H   0  0  0  0  0  0  0  0  0  0  0  0
   -1.1279    1.6527   -3.3074 H   0  0  0  0  0  0  0  0  0  0  0  0
    0.1866    1.1532    1.6363 C   0  0  0  0  0  0  0  0  0  0  0  0
   -0.0656    0.5671    2.6794 O   0  0  0  0  0  0  0  0  0  0  0  0
    0.3855    2.5234    1.7046 N   0  0  0  0  0  0  0  0  0  0  0  0
    0.6096    3.0091    0.8427 H   0  0  0  0  0  0  0  0  0  0  0  0
    0.4558    3.2613    2.9614 C   0  0  0  0  0  0  0  0  0  0  0  0
    1.2829    2.8920    3.5768 H   0  0  0  0  0  0  0  0  0  0  0  0
    0.6175    4.3259    2.7670 H   0  0  0  0  0  0  0  0  0  0  0  0
   -0.4776    3.1518    3.5236 H   0  0  0  0  0  0  0  0  0  0  0  0
  1  2  1  0  0  0  0
  2  3  1  0  0  0  0
  2  4  1  0  0  0  0
  2  5  1  0  0  0  0
  5  6  2  0  0  0  0
  5  7  1  0  0  0  0
  7  8  1  0  0  0  0
  7  9  1  0  0  0  0
  9 10  1  0  0  0  0
  9 11  1  0  0  0  0
  9 19  1  0  0  0  0
 11 12  1  0  0  0  0
 11 13  1  0  0  0  0
 11 14  1  0  0  0  0
 14 15  2  0  0  0  0
 14 16  1  0  0  0  0
 16 17  1  0  0  0  0
 16 18  1  0  0  0  0
 19 20  2  0  0  0  0
 19 21  1  0  0  0  0
 21 22  1  0  0  0  0
 21 23  1  0  0  0  0
 23 24  1  0  0  0  0
 23 25  1  0  0  0  0
 23 26  1  0  0  0  0
M  END
$$$$

  -OEChem-01062216063D

 26 25  0     1  0  0  0  0  0999 V2000
   -2.8039   -3.1672    1.2660 H   0  0  0  0  0  0  0  0  0  0  0  0
   -2.8520   -2.1381    0.8986 C   0  0  0  0  0  0  0  0  0  0  0  0
   -3.3798   -1.5274    1.6348 H   0  0  0  0  0  0  0  0  0  0  0  0
   -3.4054   -2.1258   -0.0432 H   0  0  0  0  0  0  0  0  0  0  0  0
   -1.4515   -1.5955    0.6837 C   0  0  0  0  0  0  0  0  0  0  0  0
   -0.4916   -2.3235    0.8707 O   0  0  0  0  0  0  0  0  0  0  0  0
   -1.2904   -0.2930    0.2453 N   0  0  0  0  0  0  0  0  0  0  0  0
   -2.1343    0.2702    0.2483 H   0  0  0  0  0  0  0  0  0  0  0  0
    0.0057    0.4058    0.3029 C   0  0  1  0  0  0  0  0  0  0  0  0
    0.8338   -0.3132    0.2475 H   0  0  0  0  0  0  0  0  0  0  0  0
    0.0940    1.3452   -0.9194 C   0  0  0  0  0  0  0  0  0  0  0  0
   -0.7963    1.9773   -0.9662 H   0  0  0  0  0  0  0  0  0  0  0  0
    0.9688    1.9934   -0.8196 H   0  0  0  0  0  0  0  0  0  0  0  0
    0.2459    0.5901   -2.2348 C   0  0  0  0  0  0  0  0  0  0  0  0
    0.9762   -0.3717   -2.3601 O   0  0  0  0  0  0  0  0  0  0  0  0
   -0.4130    0.9812   -3.3660 N   0  0  0  0  0  0  0  0  0  0  0  0
   -0.1302    0.5193   -4.2264 H   0  0  0  0  0  0  0  0  0  0  0  0
   -0.8704    1.8853   -3.3947 H   0  0  0  0  0  0  0  0  0  0  0  0
    0.1756    1.1573    1.6460 C   0  0  0  0  0  0  0  0  0  0  0  0
    0.2795    0.5378    2.6935 O   0  0  0  0  0  0  0  0  0  0  0  0
    0.0507    2.5359    1.7204 N   0  0  0  0  0  0  0  0  0  0  0  0
   -0.0269    3.0499    0.8497 H   0  0  0  0  0  0  0  0  0  0  0  0
    0.1548    3.2827    2.9695 C   0  0  0  0  0  0  0  0  0  0  0  0
    1.1387    3.1302    3.4258 H   0  0  0  0  0  0  0  0  0  0  0  0
    0.0215    4.3529    2.7843 H   0  0  0  0  0  0  0  0  0  0  0  0
   -0.6152    2.9566    3.6768 H   0  0  0  0  0  0  0  0  0  0  0  0
  1  2  1  0  0  0  0
  2  3  1  0  0  0  0
  2  4  1  0  0  0  0
  2  5  1  0  0  0  0
  5  6  2  0  0  0  0
  5  7  1  0  0  0  0
  7  8  1  0  0  0  0
  7  9  1  0  0  0  0
  9 10  1  0  0  0  0
  9 11  1  0  0  0  0
  9 19  1  0  0  0  0
 11 12  1  0  0  0  0
 11 13  1  0  0  0  0
 11 14  1  0  0  0  0
 14 15  2  0  0  0  0
 14 16  1  0  0  0  0
 16 17  1  0  0  0  0
 16 18  1  0  0  0  0
 19 20  2  0  0  0  0
 19 21  1  0  0  0  0
 21 22  1  0  0  0  0
 21 23  1  0  0  0  0
 23 24  1  0  0  0  0
 23 25  1  0  0  0  0
 23 26  1  0  0  0  0
M  END
$$$$

  -OEChem-01062216063D

 26 25  0     1  0  0  0  0  0999 V2000
   -2.8287   -3.2093    1.2002 H   0  0  0  0  0  0  0  0  0  0  0  0
   -2.8700   -2.1836    0.8225 C   0  0  0  0  0  0  0  0  0  0  0  0
   -3.4730   -1.5823    1.5069 H   0  0  0  0  0  0  0  0  0  0  0  0
   -3.3420   -2.1907   -0.1628 H   0  0  0  0  0  0  0  0  0  0  0  0
   -1.4692   -1.6084    0.7222 C   0  0  0  0  0  0  0  0  0  0  0  0
   -0.5136   -2.3049    1.0152 O   0  0  0  0  0  0  0  0  0  0  0  0
   -1.2999   -0.3081    0.2819 N   0  0  0  0  0  0  0  0  0  0  0  0
   -2.1487    0.2326    0.1553 H   0  0  0  0  0  0  0  0  0  0  0  0
   -0.0092    0.4014    0.3327 C   0  0  1  0  0  0  0  0  0  0  0  0
    0.8205   -0.3158    0.2760 H   0  0  0  0  0  0  0  0  0  0  0  0
    0.0782    1.3451   -0.8851 C   0  0  0  0  0  0  0  0  0  0  0  0
   -0.8148    1.9724   -0.9344 H   0  0  0  0  0  0  0  0  0  0  0  0
    0.9477    1.9998   -0.7758 H   0  0  0  0  0  0  0  0  0  0  0  0
    0.2348    0.5952   -2.2025 C   0  0  0  0  0  0  0  0  0  0  0  0
    0.9672   -0.3641   -2.3324 O   0  0  0  0  0  0  0  0  0  0  0  0
   -0.4260    0.9875   -3.3320 N   0  0  0  0  0  0  0  0  0  0  0  0
   -0.1281    0.5363   -4.1929 H   0  0  0  0  0  0  0  0  0  0  0  0
   -0.8620    1.9021   -3.3610 H   0  0  0  0  0  0  0  0  0  0  0  0
    0.1672    1.1628    1.6669 C   0  0  0  0  0  0  0  0  0  0  0  0
    0.6534    0.6124    2.6422 O   0  0  0  0  0  0  0  0  0  0  0  0
   -0.2613    2.4741    1.7997 N   0  0  0  0  0  0  0  0  0  0  0  0
   -0.6562    2.9276    0.9835 H   0  0  0  0  0  0  0  0  0  0  0  0
   -0.1187    3.2409    3.0324 C   0  0  0  0  0  0  0  0  0  0  0  0
    0.9365    3.3181    3.3155 H   0  0  0  0  0  0  0  0  0  0  0  0
   -0.5153    4.2518    2.8982 H   0  0  0  0  0  0  0  0  0  0  0  0
   -0.6678    2.7596    3.8487 H   0  0  0  0  0  0  0  0  0  0  0  0
  1  2  1  0  0  0  0
  2  3  1  0  0  0  0
  2  4  1  0  0  0  0
  2  5  1  0  0  0  0
  5  6  2  0  0  0  0
  5  7  1  0  0  0  0
  7  8  1  0  0  0  0
  7  9  1  0  0  0  0
  9 10  1  0  0  0  0
  9 11  1  0  0  0  0
  9 19  1  0  0  0  0
 11 12  1  0  0  0  0
 11 13  1  0  0  0  0
 11 14  1  0  0  0  0
 14 15  2  0  0  0  0
 14 16  1  0  0  0  0
 16 17  1  0  0  0  0
 16 18  1  0  0  0  0
 19 20  2  0  0  0  0
 19 21  1  0  0  0  0
 21 22  1  0  0  0  0
 21 23  1  0  0  0  0
 23 24  1  0  0  0  0
 23 25  1  0  0  0  0
 23 26  1  0  0  0  0
M  END
$$$$

  -OEChem-01062216063D

 26 25  0     1  0  0  0  0  0999 V2000
   -2.8374   -3.2763    1.0501 H   0  0  0  0  0  0  0  0  0  0  0  0
   -2.8693   -2.2567    0.6557 C   0  0  0  0  0  0  0  0  0  0  0  0
   -3.6345   -1.6946    1.1962 H   0  0  0  0  0  0  0  0  0  0  0  0
   -3.1337   -2.2988   -0.4036 H   0  0  0  0  0  0  0  0  0  0  0  0
   -1.5171   -1.5896    0.8265 C   0  0  0  0  0  0  0  0  0  0  0  0
   -0.6117   -2.1954    1.3707 O   0  0  0  0  0  0  0  0  0  0  0  0
   -1.3317   -0.2994    0.3658 N   0  0  0  0  0  0  0  0  0  0  0  0
   -2.1122    0.1237   -0.1244 H   0  0  0  0  0  0  0  0  0  0  0  0
   -0.0322    0.3961    0.3858 C   0  0  1  0  0  0  0  0  0  0  0  0
    0.7842   -0.3363    0.3203 H   0  0  0  0  0  0  0  0  0  0  0  0
    0.0564    1.3391   -0.8307 C   0  0  0  0  0  0  0  0  0  0  0  0
   -0.8214    1.9882   -0.8651 H   0  0  0  0  0  0  0  0  0  0  0  0
    0.9402    1.9758   -0.7294 H   0  0  0  0  0  0  0  0  0  0  0  0
    0.1815    0.5863   -2.1493 C   0  0  0  0  0  0  0  0  0  0  0  0
    0.8928   -0.3873   -2.2906 O   0  0  0  0  0  0  0  0  0  0  0  0
   -0.5006    0.9825   -3.2645 N   0  0  0  0  0  0  0  0  0  0  0  0
   -0.2113    0.5319   -4.1289 H   0  0  0  0  0  0  0  0  0  0  0  0
   -0.8926    1.9172   -3.2912 H   0  0  0  0  0  0  0  0  0  0  0  0
    0.1825    1.1764    1.7017 C   0  0  0  0  0  0  0  0  0  0  0  0
    1.0454    0.8346    2.4956 O   0  0  0  0  0  0  0  0  0  0  0  0
   -0.4898    2.3662    1.9301 N   0  0  0  0  0  0  0  0  0  0  0  0
   -1.2358    2.6117    1.2895 H   0  0  0  0  0  0  0  0  0  0  0  0
   -0.3105    3.1613    3.1396 C   0  0  0  0  0  0  0  0  0  0  0  0
    0.7315    3.4848    3.2353 H   0  0  0  0  0  0  0  0  0  0  0  0
   -0.9457    4.0515    3.1062 H   0  0  0  0  0  0  0  0  0  0  0  0
   -0.5796    2.5762    4.0255 H   0  0  0  0  0  0  0  0  0  0  0  0
  1  2  1  0  0  0  0
  2  3  1  0  0  0  0
  2  4  1  0  0  0  0
  2  5  1  0  0  0  0
  5  6  2  0  0  0  0
  5  7  1  0  0  0  0
  7  8  1  0  0  0  0
  7  9  1  0  0  0  0
  9 10  1  0  0  0  0
  9 11  1  0  0  0  0
  9 19  1  0  0  0  0
 11 12  1  0  0  0  0
 11 13  1  0  0  0  0
 11 14  1  0  0  0  0
 14 15  2  0  0  0  0
 14 16  1  0  0  0  0
 16 17  1  0  0  0  0
 16 18  1  0  0  0  0
 19 20  2  0  0  0  0
 19 21  1  0  0  0  0
 21 22  1  0  0  0  0
 21 23  1  0  0  0  0
 23 24  1  0  0  0  0
 23 25  1  0  0  0  0
 23 26  1  0  0  0  0
M  END
$$$$

  -OEChem-01062216063D

 26 25  0     1  0  0  0  0  0999 V2000
   -2.8221   -3.3139    0.9836 H   0  0  0  0  0  0  0  0  0  0  0  0
   -2.8473   -2.3091    0.5519 C   0  0  0  0  0  0  0  0  0  0  0  0
   -3.7032   -1.7703    0.9654 H   0  0  0  0  0  0  0  0  0  0  0  0
   -2.9655   -2.3960   -0.5310 H   0  0  0  0  0  0  0  0  0  0  0  0
   -1.5623   -1.5701    0.8759 C   0  0  0  0  0  0  0  0  0  0  0  0
   -0.7161   -2.1034    1.5709 O   0  0  0  0  0  0  0  0  0  0  0  0
   -1.3738   -0.2865    0.3992 N   0  0  0  0  0  0  0  0  0  0  0  0
   -2.0639    0.0352   -0.2717 H   0  0  0  0  0  0  0  0  0  0  0  0
   -0.0571    0.3774    0.4157 C   0  0  1  0  0  0  0  0  0  0  0  0
    0.7429   -0.3723    0.3463 H   0  0  0  0  0  0  0  0  0  0  0  0
    0.0501    1.3314   -0.7889 C   0  0  0  0  0  0  0  0  0  0  0  0
   -0.8085    2.0067   -0.8076 H   0  0  0  0  0  0  0  0  0  0  0  0
    0.9522    1.9421   -0.6848 H   0  0  0  0  0  0  0  0  0  0  0  0
    0.1475    0.5896   -2.1151 C   0  0  0  0  0  0  0  0  0  0  0  0
    0.8312   -0.4017   -2.2705 O   0  0  0  0  0  0  0  0  0  0  0  0
   -0.5479    1.0032   -3.2155 N   0  0  0  0  0  0  0  0  0  0  0  0
   -0.2745    0.5567   -4.0871 H   0  0  0  0  0  0  0  0  0  0  0  0
   -0.9096    1.9507   -3.2314 H   0  0  0  0  0  0  0  0  0  0  0  0
    0.1795    1.1606    1.7236 C   0  0  0  0  0  0  0  0  0  0  0  0
    1.2390    1.0516    2.3229 O   0  0  0  0  0  0  0  0  0  0  0  0
   -0.6796    2.1868    2.0789 N   0  0  0  0  0  0  0  0  0  0  0  0
   -1.5852    2.1995    1.6227 H   0  0  0  0  0  0  0  0  0  0  0  0
   -0.4846    3.0032    3.2714 C   0  0  0  0  0  0  0  0  0  0  0  0
    0.4723    3.5335    3.2211 H   0  0  0  0  0  0  0  0  0  0  0  0
   -1.2845    3.7447    3.3581 H   0  0  0  0  0  0  0  0  0  0  0  0
   -0.4926    2.3761    4.1693 H   0  0  0  0  0  0  0  0  0  0  0  0
  1  2  1  0  0  0  0
  2  3  1  0  0  0  0
  2  4  1  0  0  0  0
  2  5  1  0  0  0  0
  5  6  2  0  0  0  0
  5  7  1  0  0  0  0
  7  8  1  0  0  0  0
  7  9  1  0  0  0  0
  9 10  1  0  0  0  0
  9 11  1  0  0  0  0
  9 19  1  0  0  0  0
 11 12  1  0  0  0  0
 11 13  1  0  0  0  0
 11 14  1  0  0  0  0
 14 15  2  0  0  0  0
 14 16  1  0  0  0  0
 16 17  1  0  0  0  0
 16 18  1  0  0  0  0
 19 20  2  0  0  0  0
 19 21  1  0  0  0  0
 21 22  1  0  0  0  0
 21 23  1  0  0  0  0
 23 24  1  0  0  0  0
 23 25  1  0  0  0  0
 23 26  1  0  0  0  0
M  END
$$$$

  -OEChem-01062216063D

 26 25  0     1  0  0  0  0  0999 V2000
   -2.8233   -3.3205    0.9665 H   0  0  0  0  0  0  0  0  0  0  0  0
   -2.8390   -2.3253    0.5129 C   0  0  0  0  0  0  0  0  0  0  0  0
   -3.7193   -1.7879    0.8731 H   0  0  0  0  0  0  0  0  0  0  0  0
   -2.9043   -2.4357   -0.5722 H   0  0  0  0  0  0  0  0  0  0  0  0
   -1.5785   -1.5655    0.8810 C   0  0  0  0  0  0  0  0  0  0  0  0
   -0.7576   -2.0735    1.6241 O   0  0  0  0  0  0  0  0  0  0  0  0
   -1.3858   -0.2843    0.4005 N   0  0  0  0  0  0  0  0  0  0  0  0
   -2.0467    0.0134   -0.3104 H   0  0  0  0  0  0  0  0  0  0  0  0
   -0.0607    0.3644    0.4209 C   0  0  1  0  0  0  0  0  0  0  0  0
    0.7324   -0.3924    0.3491 H   0  0  0  0  0  0  0  0  0  0  0  0
    0.0535    1.3265   -0.7757 C   0  0  0  0  0  0  0  0  0  0  0  0
   -0.7977    2.0118   -0.7836 H   0  0  0  0  0  0  0  0  0  0  0  0
    0.9623    1.9271   -0.6700 H   0  0  0  0  0  0  0  0  0  0  0  0
    0.1391    0.5931   -2.1070 C   0  0  0  0  0  0  0  0  0  0  0  0
    0.8114   -0.4048   -2.2714 O   0  0  0  0  0  0  0  0  0  0  0  0
   -0.5646    1.0149   -3.1988 N   0  0  0  0  0  0  0  0  0  0  0  0
   -0.2990    0.5735   -4.0754 H   0  0  0  0  0  0  0  0  0  0  0  0
   -0.9203    1.9649   -3.2052 H   0  0  0  0  0  0  0  0  0  0  0  0
    0.1855    1.1469    1.7265 C   0  0  0  0  0  0  0  0  0  0  0  0
    1.3211    1.2579    2.1657 O   0  0  0  0  0  0  0  0  0  0  0  0
   -0.8095    1.9610    2.2388 N   0  0  0  0  0  0  0  0  0  0  0  0
   -1.7525    1.7686    1.9176 H   0  0  0  0  0  0  0  0  0  0  0  0
   -0.6311    2.7605    3.4450 C   0  0  0  0  0  0  0  0  0  0  0  0
    0.1824    3.4814    3.3109 H   0  0  0  0  0  0  0  0  0  0  0  0
   -1.5471    3.3144    3.6711 H   0  0  0  0  0  0  0  0  0  0  0  0
   -0.3938    2.1170    4.2987 H   0  0  0  0  0  0  0  0  0  0  0  0
  1  2  1  0  0  0  0
  2  3  1  0  0  0  0
  2  4  1  0  0  0  0
  2  5  1  0  0  0  0
  5  6  2  0  0  0  0
  5  7  1  0  0  0  0
  7  8  1  0  0  0  0
  7  9  1  0  0  0  0
  9 10  1  0  0  0  0
  9 11  1  0  0  0  0
  9 19  1  0  0  0  0
 11 12  1  0  0  0  0
 11 13  1  0  0  0  0
 11 14  1  0  0  0  0
 14 15  2  0  0  0  0
 14 16  1  0  0  0  0
 16 17  1  0  0  0  0
 16 18  1  0  0  0  0
 19 20  2  0  0  0  0
 19 21  1  0  0  0  0
 21 22  1  0  0  0  0
 21 23  1  0  0  0  0
 23 24  1  0  0  0  0
 23 25  1  0  0  0  0
 23 26  1  0  0  0  0
M  END
$$$$

  -OEChem-01062216063D

 26 25  0     1  0  0  0  0  0999 V2000
   -2.8232   -3.3245    0.9395 H   0  0  0  0  0  0  0  0  0  0  0  0
   -2.8315   -2.3342    0.4752 C   0  0  0  0  0  0  0  0  0  0  0  0
   -3.7274   -1.8003    0.8006 H   0  0  0  0  0  0  0  0  0  0  0  0
   -2.8604   -2.4571   -0.6104 H   0  0  0  0  0  0  0  0  0  0  0  0
   -1.5894   -1.5606    0.8758 C   0  0  0  0  0  0  0  0  0  0  0  0
   -0.7881   -2.0521    1.6508 O   0  0  0  0  0  0  0  0  0  0  0  0
   -1.3923   -0.2800    0.3966 N   0  0  0  0  0  0  0  0  0  0  0  0
   -2.0382    0.0119   -0.3306 H   0  0  0  0  0  0  0  0  0  0  0  0
   -0.0625    0.3603    0.4240 C   0  0  1  0  0  0  0  0  0  0  0  0
    0.7273   -0.3993    0.3505 H   0  0  0  0  0  0  0  0  0  0  0  0
    0.0496    1.3235   -0.7721 C   0  0  0  0  0  0  0  0  0  0  0  0
   -0.8007    2.0102   -0.7752 H   0  0  0  0  0  0  0  0  0  0  0  0
    0.9595    1.9231   -0.6717 H   0  0  0  0  0  0  0  0  0  0  0  0
    0.1293    0.5898   -2.1032 C   0  0  0  0  0  0  0  0  0  0  0  0
    0.7991   -0.4098   -2.2692 O   0  0  0  0  0  0  0  0  0  0  0  0
   -0.5780    1.0127   -3.1922 N   0  0  0  0  0  0  0  0  0  0  0  0
   -0.3150    0.5722   -4.0701 H   0  0  0  0  0  0  0  0  0  0  0  0
   -0.9293    1.9643   -3.1968 H   0  0  0  0  0  0  0  0  0  0  0  0
    0.1923    1.1423    1.7292 C   0  0  0  0  0  0  0  0  0  0  0  0
    1.3339    1.4577    2.0350 O   0  0  0  0  0  0  0  0  0  0  0  0
   -0.8658    1.7149    2.4121 N   0  0  0  0  0  0  0  0  0  0  0  0
   -1.7842    1.3404    2.1965 H   0  0  0  0  0  0  0  0  0  0  0  0
   -0.6916    2.4777    3.6422 C   0  0  0  0  0  0  0  0  0  0  0  0
   -0.0513    3.3486    3.4665 H   0  0  0  0  0  0  0  0  0  0  0  0
   -1.6600    2.8314    4.0087 H   0  0  0  0  0  0  0  0  0  0  0  0
   -0.2328    1.8543    4.4169 H   0  0  0  0  0  0  0  0  0  0  0  0
  1  2  1  0  0  0  0
  2  3  1  0  0  0  0
  2  4  1  0  0  0  0
  2  5  1  0  0  0  0
  5  6  2  0  0  0  0
  5  7  1  0  0  0  0
  7  8  1  0  0  0  0
  7  9  1  0  0  0  0
  9 10  1  0  0  0  0
  9 11  1  0  0  0  0
  9 19  1  0  0  0  0
 11 12  1  0  0  0  0
 11 13  1  0  0  0  0
 11 14  1  0  0  0  0
 14 15  2  0  0  0  0
 14 16  1  0  0  0  0
 16 17  1  0  0  0  0
 16 18  1  0  0  0  0
 19 20  2  0  0  0  0
 19 21  1  0  0  0  0
 21 22  1  0  0  0  0
 21 23  1  0  0  0  0
 23 24  1  0  0  0  0
 23 25  1  0  0  0  0
 23 26  1  0  0  0  0
M  END
$$$$

  -OEChem-01062216063D

 26 25  0     1  0  0  0  0  0999 V2000
   -2.8218   -3.3219    0.9081 H   0  0  0  0  0  0  0  0  0  0  0  0
   -2.8318   -2.3279    0.4516 C   0  0  0  0  0  0  0  0  0  0  0  0
   -3.7302   -1.7991    0.7786 H   0  0  0  0  0  0  0  0  0  0  0  0
   -2.8574   -2.4421   -0.6351 H   0  0  0  0  0  0  0  0  0  0  0  0
   -1.5932   -1.5542    0.8617 C   0  0  0  0  0  0  0  0  0  0  0  0
   -0.8029   -2.0387    1.6525 O   0  0  0  0  0  0  0  0  0  0  0  0
   -1.3927   -0.2723    0.3886 N   0  0  0  0  0  0  0  0  0  0  0  0
   -2.0398    0.0297   -0.3336 H   0  0  0  0  0  0  0  0  0  0  0  0
   -0.0624    0.3682    0.4229 C   0  0  1  0  0  0  0  0  0  0  0  0
    0.7272   -0.3913    0.3503 H   0  0  0  0  0  0  0  0  0  0  0  0
    0.0458    1.3257   -0.7795 C   0  0  0  0  0  0  0  0  0  0  0  0
   -0.8074    2.0086   -0.7857 H   0  0  0  0  0  0  0  0  0  0  0  0
    0.9526    1.9311   -0.6859 H   0  0  0  0  0  0  0  0  0  0  0  0
    0.1293    0.5847   -2.1064 C   0  0  0  0  0  0  0  0  0  0  0  0
    0.8039   -0.4130   -2.2666 O   0  0  0  0  0  0  0  0  0  0  0  0
   -0.5813    0.9971   -3.1973 N   0  0  0  0  0  0  0  0  0  0  0  0
   -0.3143    0.5551   -4.0732 H   0  0  0  0  0  0  0  0  0  0  0  0
   -0.9399    1.9462   -3.2058 H   0  0  0  0  0  0  0  0  0  0  0  0
    0.1949    1.1482    1.7312 C   0  0  0  0  0  0  0  0  0  0  0  0
    1.2890    1.6592    1.9298 O   0  0  0  0  0  0  0  0  0  0  0  0
   -0.8521    1.4573    2.5804 N   0  0  0  0  0  0  0  0  0  0  0  0
   -1.6959    0.9075    2.4509 H   0  0  0  0  0  0  0  0  0  0  0  0
   -0.6651    2.1643    3.8415 C   0  0  0  0  0  0  0  0  0  0  0  0
   -0.2198    3.1494    3.6670 H   0  0  0  0  0  0  0  0  0  0  0  0
   -1.6276    2.3061    4.3419 H   0  0  0  0  0  0  0  0  0  0  0  0
   -0.0083    1.5934    4.5063 H   0  0  0  0  0  0  0  0  0  0  0  0
  1  2  1  0  0  0  0
  2  3  1  0  0  0  0
  2  4  1  0  0  0  0
  2  5  1  0  0  0  0
  5  6  2  0  0  0  0
  5  7  1  0  0  0  0
  7  8  1  0  0  0  0
  7  9  1  0  0  0  0
  9 10  1  0  0  0  0
  9 11  1  0  0  0  0
  9 19  1  0  0  0  0
 11 12  1  0  0  0  0
 11 13  1  0  0  0  0
 11 14  1  0  0  0  0
 14 15  2  0  0  0  0
 14 16  1  0  0  0  0
 16 17  1  0  0  0  0
 16 18  1  0  0  0  0
 19 20  2  0  0  0  0
 19 21  1  0  0  0  0
 21 22  1  0  0  0  0
 21 23  1  0  0  0  0
 23 24  1  0  0  0  0
 23 25  1  0  0  0  0
 23 26  1  0  0  0  0
M  END
$$$$

  -OEChem-01062216063D

 26 25  0     1  0  0  0  0  0999 V2000
   -2.8461   -3.2959    0.9102 H   0  0  0  0  0  0  0  0  0  0  0  0
   -2.8330   -2.3141    0.4283 C   0  0  0  0  0  0  0  0  0  0  0  0
   -3.7334   -1.7675    0.7183 H   0  0  0  0  0  0  0  0  0  0  0  0
   -2.8328   -2.4554   -0.6553 H   0  0  0  0  0  0  0  0  0  0  0  0
   -1.5961   -1.5432    0.8489 C   0  0  0  0  0  0  0  0  0  0  0  0
   -0.8190   -2.0220    1.6566 O   0  0  0  0  0  0  0  0  0  0  0  0
   -1.3899   -0.2591    0.3858 N   0  0  0  0  0  0  0  0  0  0  0  0
   -2.0422    0.0579   -0.3253 H   0  0  0  0  0  0  0  0  0  0  0  0
   -0.0591    0.3809    0.4229 C   0  0  1  0  0  0  0  0  0  0  0  0
    0.7293   -0.3791    0.3489 H   0  0  0  0  0  0  0  0  0  0  0  0
    0.0427    1.3326   -0.7867 C   0  0  0  0  0  0  0  0  0  0  0  0
   -0.8119    2.0136   -0.7949 H   0  0  0  0  0  0  0  0  0  0  0  0
    0.9477    1.9418   -0.7046 H   0  0  0  0  0  0  0  0  0  0  0  0
    0.1257    0.5816   -2.1076 C   0  0  0  0  0  0  0  0  0  0  0  0
    0.8038   -0.4149   -2.2609 O   0  0  0  0  0  0  0  0  0  0  0  0
   -0.5923    0.9811   -3.1983 N   0  0  0  0  0  0  0  0  0  0  0  0
   -0.3271    0.5349   -4.0723 H   0  0  0  0  0  0  0  0  0  0  0  0
   -0.9580    1.9274   -3.2113 H   0  0  0  0  0  0  0  0  0  0  0  0
    0.2003    1.1533    1.7384 C   0  0  0  0  0  0  0  0  0  0  0  0
    1.1981    1.8533    1.8543 O   0  0  0  0  0  0  0  0  0  0  0  0
   -0.7614    1.1928    2.7312 N   0  0  0  0  0  0  0  0  0  0  0  0
   -1.4747    0.4718    2.6686 H   0  0  0  0  0  0  0  0  0  0  0  0
   -0.5479    1.8499    4.0146 C   0  0  0  0  0  0  0  0  0  0  0  0
   -0.3149    2.9101    3.8692 H   0  0  0  0  0  0  0  0  0  0  0  0
   -1.4497    1.7778    4.6301 H   0  0  0  0  0  0  0  0  0  0  0  0
    0.2802    1.3776    4.5536 H   0  0  0  0  0  0  0  0  0  0  0  0
  1  2  1  0  0  0  0
  2  3  1  0  0  0  0
  2  4  1  0  0  0  0
  2  5  1  0  0  0  0
  5  6  2  0  0  0  0
  5  7  1  0  0  0  0
  7  8  1  0  0  0  0
  7  9  1  0  0  0  0
  9 10  1  0  0  0  0
  9 11  1  0  0  0  0
  9 19  1  0  0  0  0
 11 12  1  0  0  0  0
 11 13  1  0  0  0  0
 11 14  1  0  0  0  0
 14 15  2  0  0  0  0
 14 16  1  0  0  0  0
 16 17  1  0  0  0  0
 16 18  1  0  0  0  0
 19 20  2  0  0  0  0
 19 21  1  0  0  0  0
 21 22  1  0  0  0  0
 21 23  1  0  0  0  0
 23 24  1  0  0  0  0
 23 25  1  0  0  0  0
 23 26  1  0  0  0  0
M  END
$$$$

  -OEChem-01062216063D

 26 25  0     1  0  0  0  0  0999 V2000
   -2.8504   -3.2833    0.8871 H   0  0  0  0  0  0  0  0  0  0  0  0
   -2.8394   -2.2946    0.4195 C   0  0  0  0  0  0  0  0  0  0  0  0
   -3.7399   -1.7530    0.7187 H   0  0  0  0  0  0  0  0  0  0  0  0
   -2.8408   -2.4206   -0.6661 H   0  0  0  0  0  0  0  0  0  0  0  0
   -1.6031   -1.5277    0.8490 C   0  0  0  0  0  0  0  0  0  0  0  0
   -0.8398   -2.0000    1.6747 O   0  0  0  0  0  0  0  0  0  0  0  0
   -1.3894   -0.2429    0.3937 N   0  0  0  0  0  0  0  0  0  0  0  0
   -2.0474    0.0870   -0.3062 H   0  0  0  0  0  0  0  0  0  0  0  0
   -0.0552    0.3904    0.4241 C   0  0  1  0  0  0  0  0  0  0  0  0
    0.7280   -0.3743    0.3462 H   0  0  0  0  0  0  0  0  0  0  0  0
    0.0442    1.3352   -0.7928 C   0  0  0  0  0  0  0  0  0  0  0  0
   -0.8070    2.0206   -0.7994 H   0  0  0  0  0  0  0  0  0  0  0  0
    0.9531    1.9397   -0.7225 H   0  0  0  0  0  0  0  0  0  0  0  0
    0.1177    0.5760   -2.1093 C   0  0  0  0  0  0  0  0  0  0  0  0
    0.7919   -0.4241   -2.2586 O   0  0  0  0  0  0  0  0  0  0  0  0
   -0.5979    0.9759   -3.2015 N   0  0  0  0  0  0  0  0  0  0  0  0
   -0.3355    0.5251   -4.0741 H   0  0  0  0  0  0  0  0  0  0  0  0
   -0.9559    1.9252   -3.2179 H   0  0  0  0  0  0  0  0  0  0  0  0
    0.2109    1.1514    1.7474 C   0  0  0  0  0  0  0  0  0  0  0  0
    1.0560    2.0364    1.8005 O   0  0  0  0  0  0  0  0  0  0  0  0
   -0.5945    0.9337    2.8498 N   0  0  0  0  0  0  0  0  0  0  0  0
   -1.1222    0.0628    2.8252 H   0  0  0  0  0  0  0  0  0  0  0  0
   -0.3551    1.5624    4.1428 C   0  0  0  0  0  0  0  0  0  0  0  0
   -0.3668    2.6534    4.0478 H   0  0  0  0  0  0  0  0  0  0  0  0
   -1.1344    1.2717    4.8535 H   0  0  0  0  0  0  0  0  0  0  0  0
    0.6159    1.2541    4.5442 H   0  0  0  0  0  0  0  0  0  0  0  0
  1  2  1  0  0  0  0
  2  3  1  0  0  0  0
  2  4  1  0  0  0  0
  2  5  1  0  0  0  0
  5  6  2  0  0  0  0
  5  7  1  0  0  0  0
  7  8  1  0  0  0  0
  7  9  1  0  0  0  0
  9 10  1  0  0  0  0
  9 11  1  0  0  0  0
  9 19  1  0  0  0  0
 11 12  1  0  0  0  0
 11 13  1  0  0  0  0
 11 14  1  0  0  0  0
 14 15  2  0  0  0  0
 14 16  1  0  0  0  0
 16 17  1  0  0  0  0
 16 18  1  0  0  0  0
 19 20  2  0  0  0  0
 19 21  1  0  0  0  0
 21 22  1  0  0  0  0
 21 23  1  0  0  0  0
 23 24  1  0  0  0  0
 23 25  1  0  0  0  0
 23 26  1  0  0  0  0
M  END
$$$$

  -OEChem-01062216063D

 26 25  0     1  0  0  0  0  0999 V2000
   -2.8378   -3.2760    0.8737 H   0  0  0  0  0  0  0  0  0  0  0  0
   -2.8500   -2.2672    0.4516 C   0  0  0  0  0  0  0  0  0  0  0  0
   -3.7336   -1.7410    0.8204 H   0  0  0  0  0  0  0  0  0  0  0  0
   -2.9067   -2.3445   -0.6370 H   0  0  0  0  0  0  0  0  0  0  0  0
   -1.5936   -1.5181    0.8532 C   0  0  0  0  0  0  0  0  0  0  0  0
   -0.8139   -2.0066    1.6553 O   0  0  0  0  0  0  0  0  0  0  0  0
   -1.3754   -0.2331    0.4002 N   0  0  0  0  0  0  0  0  0  0  0  0
   -2.0539    0.1204   -0.2676 H   0  0  0  0  0  0  0  0  0  0  0  0
   -0.0414    0.3995    0.4199 C   0  0  1  0  0  0  0  0  0  0  0  0
    0.7409   -0.3657    0.3395 H   0  0  0  0  0  0  0  0  0  0  0  0
    0.0557    1.3381   -0.8023 C   0  0  0  0  0  0  0  0  0  0  0  0
   -0.7935    2.0262   -0.8088 H   0  0  0  0  0  0  0  0  0  0  0  0
    0.9670    1.9397   -0.7377 H   0  0  0  0  0  0  0  0  0  0  0  0
    0.1235    0.5731   -2.1157 C   0  0  0  0  0  0  0  0  0  0  0  0
    0.7959   -0.4289   -2.2617 O   0  0  0  0  0  0  0  0  0  0  0  0
   -0.5907    0.9723   -3.2091 N   0  0  0  0  0  0  0  0  0  0  0  0
   -0.3329    0.5170   -4.0805 H   0  0  0  0  0  0  0  0  0  0  0  0
   -0.9481    1.9219   -3.2275 H   0  0  0  0  0  0  0  0  0  0  0  0
    0.2219    1.1538    1.7481 C   0  0  0  0  0  0  0  0  0  0  0  0
    0.8692    2.1939    1.7709 O   0  0  0  0  0  0  0  0  0  0  0  0
   -0.3674    0.7096    2.9167 N   0  0  0  0  0  0  0  0  0  0  0  0
   -0.7309   -0.2440    2.8801 H   0  0  0  0  0  0  0  0  0  0  0  0
   -0.1143    1.3114    4.2193 C   0  0  0  0  0  0  0  0  0  0  0  0
   -0.3919    2.3706    4.2133 H   0  0  0  0  0  0  0  0  0  0  0  0
   -0.7049    0.8056    4.9891 H   0  0  0  0  0  0  0  0  0  0  0  0
    0.9455    1.2260    4.4809 H   0  0  0  0  0  0  0  0  0  0  0  0
  1  2  1  0  0  0  0
  2  3  1  0  0  0  0
  2  4  1  0  0  0  0
  2  5  1  0  0  0  0
  5  6  2  0  0  0  0
  5  7  1  0  0  0  0
  7  8  1  0  0  0  0
  7  9  1  0  0  0  0
  9 10  1  0  0  0  0
  9 11  1  0  0  0  0
  9 19  1  0  0  0  0
 11 12  1  0  0  0  0
 11 13  1  0  0  0  0
 11 14  1  0  0  0  0
 14 15  2  0  0  0  0
 14 16  1  0  0  0  0
 16 17  1  0  0  0  0
 16 18  1  0  0  0  0
 19 20  2  0  0  0  0
 19 21  1  0  0  0  0
 21 22  1  0  0  0  0
 21 23  1  0  0  0  0
 23 24  1  0  0  0  0
 23 25  1  0  0  0  0
 23 26  1  0  0  0  0
M  END
$$$$

  -OEChem-01062216063D

 26 25  0     1  0  0  0  0  0999 V2000
   -2.8497   -3.2479    0.9348 H   0  0  0  0  0  0  0  0  0  0  0  0
   -2.8581   -2.2390    0.5124 C   0  0  0  0  0  0  0  0  0  0  0  0
   -3.7104   -1.6916    0.9223 H   0  0  0  0  0  0  0  0  0  0  0  0
   -2.9680   -2.3141   -0.5722 H   0  0  0  0  0  0  0  0  0  0  0  0
   -1.5669   -1.5197    0.8522 C   0  0  0  0  0  0  0  0  0  0  0  0
   -0.7480   -2.0399    1.5945 O   0  0  0  0  0  0  0  0  0  0  0  0
   -1.3509   -0.2335    0.4004 N   0  0  0  0  0  0  0  0  0  0  0  0
   -2.0611    0.1520   -0.2146 H   0  0  0  0  0  0  0  0  0  0  0  0
   -0.0212    0.4051    0.4096 C   0  0  1  0  0  0  0  0  0  0  0  0
    0.7655   -0.3549    0.3257 H   0  0  0  0  0  0  0  0  0  0  0  0
    0.0695    1.3432   -0.8131 C   0  0  0  0  0  0  0  0  0  0  0  0
   -0.7830    2.0274   -0.8180 H   0  0  0  0  0  0  0  0  0  0  0  0
    0.9785    1.9485   -0.7481 H   0  0  0  0  0  0  0  0  0  0  0  0
    0.1355    0.5784   -2.1266 C   0  0  0  0  0  0  0  0  0  0  0  0
    0.8109   -0.4216   -2.2735 O   0  0  0  0  0  0  0  0  0  0  0  0
   -0.5815    0.9752   -3.2190 N   0  0  0  0  0  0  0  0  0  0  0  0
   -0.3256    0.5201   -4.0913 H   0  0  0  0  0  0  0  0  0  0  0  0
   -0.9444    1.9226   -3.2356 H   0  0  0  0  0  0  0  0  0  0  0  0
    0.2330    1.1544    1.7407 C   0  0  0  0  0  0  0  0  0  0  0  0
    0.6536    2.3052    1.7606 O   0  0  0  0  0  0  0  0  0  0  0  0
   -0.0869    0.5366    2.9344 N   0  0  0  0  0  0  0  0  0  0  0  0
   -0.3343   -0.4535    2.8702 H   0  0  0  0  0  0  0  0  0  0  0  0
    0.1677    1.1215    4.2441 C   0  0  0  0  0  0  0  0  0  0  0  0
   -0.3580    2.0766    4.3466 H   0  0  0  0  0  0  0  0  0  0  0  0
   -0.1842    0.4484    5.0319 H   0  0  0  0  0  0  0  0  0  0  0  0
    1.2401    1.2915    4.3853 H   0  0  0  0  0  0  0  0  0  0  0  0
  1  2  1  0  0  0  0
  2  3  1  0  0  0  0
  2  4  1  0  0  0  0
  2  5  1  0  0  0  0
  5  6  2  0  0  0  0
  5  7  1  0  0  0  0
  7  8  1  0  0  0  0
  7  9  1  0  0  0  0
  9 10  1  0  0  0  0
  9 11  1  0  0  0  0
  9 19  1  0  0  0  0
 11 12  1  0  0  0  0
 11 13  1  0  0  0  0
 11 14  1  0  0  0  0
 14 15  2  0  0  0  0
 14 16  1  0  0  0  0
 16 17  1  0  0  0  0
 16 18  1  0  0  0  0
 19 20  2  0  0  0  0
 19 21  1  0  0  0  0
 21 22  1  0  0  0  0
 21 23  1  0  0  0  0
 23 24  1  0  0  0  0
 23 25  1  0  0  0  0
 23 26  1  0  0  0  0
M  END
$$$$

  -OEChem-01062216063D

 26 25  0     1  0  0  0  0  0999 V2000
   -2.8301   -3.2342    0.9822 H   0  0  0  0  0  0  0  0  0  0  0  0
   -2.8567   -2.2113    0.5959 C   0  0  0  0  0  0  0  0  0  0  0  0
   -3.6668   -1.6685    1.0891 H   0  0  0  0  0  0  0  0  0  0  0  0
   -3.0510   -2.2474   -0.4788 H   0  0  0  0  0  0  0  0  0  0  0  0
   -1.5326   -1.5198    0.8599 C   0  0  0  0  0  0  0  0  0  0  0  0
   -0.6795   -2.0632    1.5462 O   0  0  0  0  0  0  0  0  0  0  0  0
   -1.3183   -0.2355    0.4012 N   0  0  0  0  0  0  0  0  0  0  0  0
   -2.0570    0.1807   -0.1578 H   0  0  0  0  0  0  0  0  0  0  0  0
    0.0119    0.3978    0.3903 C   0  0  1  0  0  0  0  0  0  0  0  0
    0.7979   -0.3618    0.2957 H   0  0  0  0  0  0  0  0  0  0  0  0
    0.0957    1.3401   -0.8286 C   0  0  0  0  0  0  0  0  0  0  0  0
   -0.7537    2.0281   -0.8218 H   0  0  0  0  0  0  0  0  0  0  0  0
    1.0074    1.9412   -0.7646 H   0  0  0  0  0  0  0  0  0  0  0  0
    0.1426    0.5835   -2.1474 C   0  0  0  0  0  0  0  0  0  0  0  0
    0.8105   -0.4198   -2.3063 O   0  0  0  0  0  0  0  0  0  0  0  0
   -0.5737    0.9978   -3.2338 N   0  0  0  0  0  0  0  0  0  0  0  0
   -0.3271    0.5470   -4.1108 H   0  0  0  0  0  0  0  0  0  0  0  0
   -0.9325    1.9469   -3.2404 H   0  0  0  0  0  0  0  0  0  0  0  0
    0.2692    1.1435    1.7197 C   0  0  0  0  0  0  0  0  0  0  0  0
    0.4477    2.3556    1.7561 O   0  0  0  0  0  0  0  0  0  0  0  0
    0.2525    0.4247    2.8987 N   0  0  0  0  0  0  0  0  0  0  0  0
    0.0655   -0.5778    2.8164 H   0  0  0  0  0  0  0  0  0  0  0  0
    0.4491    1.0124    4.2167 C   0  0  0  0  0  0  0  0  0  0  0  0
   -0.3417    1.7376    4.4340 H   0  0  0  0  0  0  0  0  0  0  0  0
    0.4257    0.2329    4.9843 H   0  0  0  0  0  0  0  0  0  0  0  0
    1.4179    1.5199    4.2694 H   0  0  0  0  0  0  0  0  0  0  0  0
  1  2  1  0  0  0  0
  2  3  1  0  0  0  0
  2  4  1  0  0  0  0
  2  5  1  0  0  0  0
  5  6  2  0  0  0  0
  5  7  1  0  0  0  0
  7  8  1  0  0  0  0
  7  9  1  0  0  0  0
  9 10  1  0  0  0  0
  9 11  1  0  0  0  0
  9 19  1  0  0  0  0
 11 12  1  0  0  0  0
 11 13  1  0  0  0  0
 11 14  1  0  0  0  0
 14 15  2  0  0  0  0
 14 16  1  0  0  0  0
 16 17  1  0  0  0  0
 16 18  1  0  0  0  0
 19 20  2  0  0  0  0
 19 21  1  0  0  0  0
 21 22  1  0  0  0  0
 21 23  1  0  0  0  0
 23 24  1  0  0  0  0
 23 25  1  0  0  0  0
 23 26  1  0  0  0  0
M  END
$$$$

  -OEChem-01062216063D

 26 25  0     1  0  0  0  0  0999 V2000
   -2.8073   -3.2148    1.0569 H   0  0  0  0  0  0  0  0  0  0  0  0
   -2.8400   -2.1952    0.6624 C   0  0  0  0  0  0  0  0  0  0  0  0
   -3.6241   -1.6399    1.1827 H   0  0  0  0  0  0  0  0  0  0  0  0
   -3.0782   -2.2387   -0.4032 H   0  0  0  0  0  0  0  0  0  0  0  0
   -1.4999   -1.5144    0.8666 C   0  0  0  0  0  0  0  0  0  0  0  0
   -0.6204   -2.0653    1.5133 O   0  0  0  0  0  0  0  0  0  0  0  0
   -1.2932   -0.2330    0.3962 N   0  0  0  0  0  0  0  0  0  0  0  0
   -2.0522    0.2047   -0.1174 H   0  0  0  0  0  0  0  0  0  0  0  0
    0.0367    0.3959    0.3725 C   0  0  1  0  0  0  0  0  0  0  0  0
    0.8235   -0.3621    0.2705 H   0  0  0  0  0  0  0  0  0  0  0  0
    0.1138    1.3428   -0.8423 C   0  0  0  0  0  0  0  0  0  0  0  0
   -0.7352    2.0315   -0.8272 H   0  0  0  0  0  0  0  0  0  0  0  0
    1.0262    1.9434   -0.7796 H   0  0  0  0  0  0  0  0  0  0  0  0
    0.1462    0.5915   -2.1645 C   0  0  0  0  0  0  0  0  0  0  0  0
    0.8090   -0.4138   -2.3323 O   0  0  0  0  0  0  0  0  0  0  0  0
   -0.5746    1.0150   -3.2443 N   0  0  0  0  0  0  0  0  0  0  0  0
   -0.3401    0.5655   -4.1252 H   0  0  0  0  0  0  0  0  0  0  0  0
   -0.9329    1.9644   -3.2430 H   0  0  0  0  0  0  0  0  0  0  0  0
    0.2906    1.1442    1.6979 C   0  0  0  0  0  0  0  0  0  0  0  0
    0.2355    2.3668    1.7683 O   0  0  0  0  0  0  0  0  0  0  0  0
    0.5822    0.4030    2.8257 N   0  0  0  0  0  0  0  0  0  0  0  0
    0.4664   -0.6092    2.7370 H   0  0  0  0  0  0  0  0  0  0  0  0
    0.7478    0.9832    4.1514 C   0  0  0  0  0  0  0  0  0  0  0  0
   -0.1819    1.4593    4.4796 H   0  0  0  0  0  0  0  0  0  0  0  0
    1.0136    0.2044    4.8727 H   0  0  0  0  0  0  0  0  0  0  0  0
    1.5458    1.7330    4.1449 H   0  0  0  0  0  0  0  0  0  0  0  0
  1  2  1  0  0  0  0
  2  3  1  0  0  0  0
  2  4  1  0  0  0  0
  2  5  1  0  0  0  0
  5  6  2  0  0  0  0
  5  7  1  0  0  0  0
  7  8  1  0  0  0  0
  7  9  1  0  0  0  0
  9 10  1  0  0  0  0
  9 11  1  0  0  0  0
  9 19  1  0  0  0  0
 11 12  1  0  0  0  0
 11 13  1  0  0  0  0
 11 14  1  0  0  0  0
 14 15  2  0  0  0  0
 14 16  1  0  0  0  0
 16 17  1  0  0  0  0
 16 18  1  0  0  0  0
 19 20  2  0  0  0  0
 19 21  1  0  0  0  0
 21 22  1  0  0  0  0
 21 23  1  0  0  0  0
 23 24  1  0  0  0  0
 23 25  1  0  0  0  0
 23 26  1  0  0  0  0
M  END
$$$$

  -OEChem-01062216063D

 26 25  0     1  0  0  0  0  0999 V2000
   -2.8048   -3.2077    1.1168 H   0  0  0  0  0  0  0  0  0  0  0  0
   -2.8394   -2.1897    0.7189 C   0  0  0  0  0  0  0  0  0  0  0  0
   -3.5835   -1.6174    1.2781 H   0  0  0  0  0  0  0  0  0  0  0  0
   -3.1362   -2.2336   -0.3317 H   0  0  0  0  0  0  0  0  0  0  0  0
   -1.4777   -1.5330    0.8460 C   0  0  0  0  0  0  0  0  0  0  0  0
   -0.5688   -2.1058    1.4298 O   0  0  0  0  0  0  0  0  0  0  0  0
   -1.2790   -0.2513    0.3736 N   0  0  0  0  0  0  0  0  0  0  0  0
   -2.0699    0.2300   -0.0443 H   0  0  0  0  0  0  0  0  0  0  0  0
    0.0433    0.3897    0.3563 C   0  0  1  0  0  0  0  0  0  0  0  0
    0.8385   -0.3592    0.2529 H   0  0  0  0  0  0  0  0  0  0  0  0
    0.1174    1.3444   -0.8517 C   0  0  0  0  0  0  0  0  0  0  0  0
   -0.7391    2.0239   -0.8373 H   0  0  0  0  0  0  0  0  0  0  0  0
    1.0225    1.9543   -0.7786 H   0  0  0  0  0  0  0  0  0  0  0  0
    0.1618    0.6034   -2.1795 C   0  0  0  0  0  0  0  0  0  0  0  0
    0.8346   -0.3948   -2.3511 O   0  0  0  0  0  0  0  0  0  0  0  0
   -0.5487    1.0355   -3.2629 N   0  0  0  0  0  0  0  0  0  0  0  0
   -0.3066    0.5957   -4.1466 H   0  0  0  0  0  0  0  0  0  0  0  0
   -0.9208    1.9795   -3.2533 H   0  0  0  0  0  0  0  0  0  0  0  0
    0.2789    1.1426    1.6804 C   0  0  0  0  0  0  0  0  0  0  0  0
   -0.0228    2.3246    1.8019 O   0  0  0  0  0  0  0  0  0  0  0  0
    0.8685    0.4681    2.7313 N   0  0  0  0  0  0  0  0  0  0  0  0
    0.9161   -0.5470    2.6354 H   0  0  0  0  0  0  0  0  0  0  0  0
    1.0514    1.0548    4.0522 C   0  0  0  0  0  0  0  0  0  0  0  0
    0.0822    1.2896    4.5042 H   0  0  0  0  0  0  0  0  0  0  0  0
    1.5802    0.3544    4.7056 H   0  0  0  0  0  0  0  0  0  0  0  0
    1.6420    1.9746    3.9854 H   0  0  0  0  0  0  0  0  0  0  0  0
  1  2  1  0  0  0  0
  2  3  1  0  0  0  0
  2  4  1  0  0  0  0
  2  5  1  0  0  0  0
  5  6  2  0  0  0  0
  5  7  1  0  0  0  0
  7  8  1  0  0  0  0
  7  9  1  0  0  0  0
  9 10  1  0  0  0  0
  9 11  1  0  0  0  0
  9 19  1  0  0  0  0
 11 12  1  0  0  0  0
 11 13  1  0  0  0  0
 11 14  1  0  0  0  0
 14 15  2  0  0  0  0
 14 16  1  0  0  0  0
 16 17  1  0  0  0  0
 16 18  1  0  0  0  0
 19 20  2  0  0  0  0
 19 21  1  0  0  0  0
 21 22  1  0  0  0  0
 21 23  1  0  0  0  0
 23 24  1  0  0  0  0
 23 25  1  0  0  0  0
 23 26  1  0  0  0  0
M  END
$$$$

  -OEChem-01062216063D

 26 25  0     1  0  0  0  0  0999 V2000
   -2.8134   -3.2028    1.1638 H   0  0  0  0  0  0  0  0  0  0  0  0
   -2.8470   -2.1794    0.7794 C   0  0  0  0  0  0  0  0  0  0  0  0
   -3.5232   -1.5903    1.4036 H   0  0  0  0  0  0  0  0  0  0  0  0
   -3.2307   -2.2013   -0.2435 H   0  0  0  0  0  0  0  0  0  0  0  0
   -1.4585   -1.5683    0.7981 C   0  0  0  0  0  0  0  0  0  0  0  0
   -0.5218   -2.1875    1.2803 O   0  0  0  0  0  0  0  0  0  0  0  0
   -1.2636   -0.2836    0.3325 N   0  0  0  0  0  0  0  0  0  0  0  0
   -2.0870    0.2630    0.0974 H   0  0  0  0  0  0  0  0  0  0  0  0
    0.0503    0.3738    0.3339 C   0  0  1  0  0  0  0  0  0  0  0  0
    0.8550   -0.3644    0.2301 H   0  0  0  0  0  0  0  0  0  0  0  0
    0.1214    1.3421   -0.8624 C   0  0  0  0  0  0  0  0  0  0  0  0
   -0.7455    2.0083   -0.8482 H   0  0  0  0  0  0  0  0  0  0  0  0
    1.0164    1.9642   -0.7744 H   0  0  0  0  0  0  0  0  0  0  0  0
    0.1866    0.6177   -2.1990 C   0  0  0  0  0  0  0  0  0  0  0  0
    0.8746   -0.3692   -2.3763 O   0  0  0  0  0  0  0  0  0  0  0  0
   -0.5140    1.0584   -3.2856 N   0  0  0  0  0  0  0  0  0  0  0  0
   -0.2661    0.6294   -4.1729 H   0  0  0  0  0  0  0  0  0  0  0  0
   -0.9116    1.9915   -3.2651 H   0  0  0  0  0  0  0  0  0  0  0  0
    0.2652    1.1294    1.6592 C   0  0  0  0  0  0  0  0  0  0  0  0
   -0.2895    2.2045    1.8572 O   0  0  0  0  0  0  0  0  0  0  0  0
    1.1145    0.6063    2.6149 N   0  0  0  0  0  0  0  0  0  0  0  0
    1.4021   -0.3616    2.4802 H   0  0  0  0  0  0  0  0  0  0  0  0
    1.3055    1.2142    3.9256 C   0  0  0  0  0  0  0  0  0  0  0  0
    0.3605    1.2387    4.4782 H   0  0  0  0  0  0  0  0  0  0  0  0
    2.0327    0.6385    4.5062 H   0  0  0  0  0  0  0  0  0  0  0  0
    1.6807    2.2377    3.8226 H   0  0  0  0  0  0  0  0  0  0  0  0
  1  2  1  0  0  0  0
  2  3  1  0  0  0  0
  2  4  1  0  0  0  0
  2  5  1  0  0  0  0
  5  6  2  0  0  0  0
  5  7  1  0  0  0  0
  7  8  1  0  0  0  0
  7  9  1  0  0  0  0
  9 10  1  0  0  0  0
  9 11  1  0  0  0  0
  9 19  1  0  0  0  0
 11 12  1  0  0  0  0
 11 13  1  0  0  0  0
 11 14  1  0  0  0  0
 14 15  2  0  0  0  0
 14 16  1  0  0  0  0
 16 17  1  0  0  0  0
 16 18  1  0  0  0  0
 19 20  2  0  0  0  0
 19 21  1  0  0  0  0
 21 22  1  0  0  0  0
 21 23  1  0  0  0  0
 23 24  1  0  0  0  0
 23 25  1  0  0  0  0
 23 26  1  0  0  0  0
M  END
$$$$

  -OEChem-01062216063D

 26 25  0     1  0  0  0  0  0999 V2000
   -2.8186   -3.1943    1.2116 H   0  0  0  0  0  0  0  0  0  0  0  0
   -2.8522   -2.1731    0.8217 C   0  0  0  0  0  0  0  0  0  0  0  0
   -3.4822   -1.5662    1.4764 H   0  0  0  0  0  0  0  0  0  0  0  0
   -3.2898   -2.1932   -0.1793 H   0  0  0  0  0  0  0  0  0  0  0  0
   -1.4525   -1.5911    0.7625 C   0  0  0  0  0  0  0  0  0  0  0  0
   -0.5030   -2.2401    1.1741 O   0  0  0  0  0  0  0  0  0  0  0  0
   -1.2629   -0.3038    0.3008 N   0  0  0  0  0  0  0  0  0  0  0  0
   -2.0935    0.2699    0.1840 H   0  0  0  0  0  0  0  0  0  0  0  0
    0.0465    0.3634    0.3198 C   0  0  1  0  0  0  0  0  0  0  0  0
    0.8555   -0.3702    0.2196 H   0  0  0  0  0  0  0  0  0  0  0  0
    0.1218    1.3423   -0.8666 C   0  0  0  0  0  0  0  0  0  0  0  0
   -0.7510    2.0008   -0.8541 H   0  0  0  0  0  0  0  0  0  0  0  0
    1.0108    1.9707   -0.7651 H   0  0  0  0  0  0  0  0  0  0  0  0
    0.2051    0.6304   -2.2092 C   0  0  0  0  0  0  0  0  0  0  0  0
    0.9031   -0.3494   -2.3869 O   0  0  0  0  0  0  0  0  0  0  0  0
   -0.4854    1.0753   -3.3007 N   0  0  0  0  0  0  0  0  0  0  0  0
   -0.2333    0.6501   -4.1885 H   0  0  0  0  0  0  0  0  0  0  0  0
   -0.9009    2.0003   -3.2768 H   0  0  0  0  0  0  0  0  0  0  0  0
    0.2491    1.1222    1.6445 C   0  0  0  0  0  0  0  0  0  0  0  0
   -0.4976    2.0495    1.9367 O   0  0  0  0  0  0  0  0  0  0  0  0
    1.3031    0.7987    2.4772 N   0  0  0  0  0  0  0  0  0  0  0  0
    1.7993   -0.0655    2.2711 H   0  0  0  0  0  0  0  0  0  0  0  0
    1.5149    1.4328    3.7724 C   0  0  0  0  0  0  0  0  0  0  0  0
    0.6624    1.2468    4.4341 H   0  0  0  0  0  0  0  0  0  0  0  0
    2.4162    1.0320    4.2461 H   0  0  0  0  0  0  0  0  0  0  0  0
    1.6402    2.5142    3.6538 H   0  0  0  0  0  0  0  0  0  0  0  0
  1  2  1  0  0  0  0
  2  3  1  0  0  0  0
  2  4  1  0  0  0  0
  2  5  1  0  0  0  0
  5  6  2  0  0  0  0
  5  7  1  0  0  0  0
  7  8  1  0  0  0  0
  7  9  1  0  0  0  0
  9 10  1  0  0  0  0
  9 11  1  0  0  0  0
  9 19  1  0  0  0  0
 11 12  1  0  0  0  0
 11 13  1  0  0  0  0
 11 14  1  0  0  0  0
 14 15  2  0  0  0  0
 14 16  1  0  0  0  0
 16 17  1  0  0  0  0
 16 18  1  0  0  0  0
 19 20  2  0  0  0  0
 19 21  1  0  0  0  0
 21 22  1  0  0  0  0
 21 23  1  0  0  0  0
 23 24  1  0  0  0  0
 23 25  1  0  0  0  0
 23 26  1  0  0  0  0
M  END
$$$$

  -OEChem-01062216063D

 26 25  0     1  0  0  0  0  0999 V2000
   -2.8181   -3.1548    1.2067 H   0  0  0  0  0  0  0  0  0  0  0  0
   -2.8452   -2.1322    0.8199 C   0  0  0  0  0  0  0  0  0  0  0  0
   -3.4266   -1.5117    1.5062 H   0  0  0  0  0  0  0  0  0  0  0  0
   -3.3320   -2.1391   -0.1583 H   0  0  0  0  0  0  0  0  0  0  0  0
   -1.4361   -1.5846    0.6927 C   0  0  0  0  0  0  0  0  0  0  0  0
   -0.4846   -2.2682    1.0370 O   0  0  0  0  0  0  0  0  0  0  0  0
   -1.2425   -0.2934    0.2430 N   0  0  0  0  0  0  0  0  0  0  0  0
   -2.0671    0.3012    0.2375 H   0  0  0  0  0  0  0  0  0  0  0  0
    0.0676    0.3726    0.3003 C   0  0  1  0  0  0  0  0  0  0  0  0
    0.8777   -0.3617    0.2137 H   0  0  0  0  0  0  0  0  0  0  0  0
    0.1698    1.3654   -0.8710 C   0  0  0  0  0  0  0  0  0  0  0  0
   -0.7020    2.0252   -0.8687 H   0  0  0  0  0  0  0  0  0  0  0  0
    1.0573    1.9914   -0.7440 H   0  0  0  0  0  0  0  0  0  0  0  0
    0.2834    0.6710   -2.2204 C   0  0  0  0  0  0  0  0  0  0  0  0
    0.9858   -0.3064   -2.3932 O   0  0  0  0  0  0  0  0  0  0  0  0
   -0.4033    1.1128   -3.3155 N   0  0  0  0  0  0  0  0  0  0  0  0
   -0.3901    0.5047   -4.1294 H   0  0  0  0  0  0  0  0  0  0  0  0
   -1.1357    1.8048   -3.2003 H   0  0  0  0  0  0  0  0  0  0  0  0
    0.2419    1.1237    1.6332 C   0  0  0  0  0  0  0  0  0  0  0  0
   -0.6496    1.8654    2.0313 O   0  0  0  0  0  0  0  0  0  0  0  0
    1.4235    1.0262    2.3431 N   0  0  0  0  0  0  0  0  0  0  0  0
    2.0890    0.3200    2.0391 H   0  0  0  0  0  0  0  0  0  0  0  0
    1.6364    1.6815    3.6274 C   0  0  0  0  0  0  0  0  0  0  0  0
    0.9161    1.3173    4.3674 H   0  0  0  0  0  0  0  0  0  0  0  0
    2.6461    1.4736    3.9945 H   0  0  0  0  0  0  0  0  0  0  0  0
    1.5227    2.7661    3.5279 H   0  0  0  0  0  0  0  0  0  0  0  0
  1  2  1  0  0  0  0
  2  3  1  0  0  0  0
  2  4  1  0  0  0  0
  2  5  1  0  0  0  0
  5  6  2  0  0  0  0
  5  7  1  0  0  0  0
  7  8  1  0  0  0  0
  7  9  1  0  0  0  0
  9 10  1  0  0  0  0
  9 11  1  0  0  0  0
  9 19  1  0  0  0  0
 11 12  1  0  0  0  0
 11 13  1  0  0  0  0
 11 14  1  0  0  0  0
 14 15  2  0  0  0  0
 14 16  1  0  0  0  0
 16 17  1  0  0  0  0
 16 18  1  0  0  0  0
 19 20  2  0  0  0  0
 19 21  1  0  0  0  0
 21 22  1  0  0  0  0
 21 23  1  0  0  0  0
 23 24  1  0  0  0  0
 23 25  1  0  0  0  0
 23 26  1  0  0  0  0
M  END
$$$$

  -OEChem-01062216063D

 26 25  0     1  0  0  0  0  0999 V2000
   -2.8182   -3.1507    1.2224 H   0  0  0  0  0  0  0  0  0  0  0  0
   -2.8459   -2.1277    0.8368 C   0  0  0  0  0  0  0  0  0  0  0  0
   -3.4004   -1.5016    1.5400 H   0  0  0  0  0  0  0  0  0  0  0  0
   -3.3611   -2.1285   -0.1266 H   0  0  0  0  0  0  0  0  0  0  0  0
   -1.4358   -1.5936    0.6692 C   0  0  0  0  0  0  0  0  0  0  0  0
   -0.4821   -2.2909    0.9777 O   0  0  0  0  0  0  0  0  0  0  0  0
   -1.2461   -0.3009    0.2213 N   0  0  0  0  0  0  0  0  0  0  0  0
   -2.0685    0.2954    0.2642 H   0  0  0  0  0  0  0  0  0  0  0  0
    0.0622    0.3686    0.2959 C   0  0  1  0  0  0  0  0  0  0  0  0
    0.8760   -0.3627    0.2168 H   0  0  0  0  0  0  0  0  0  0  0  0
    0.1669    1.3659   -0.8713 C   0  0  0  0  0  0  0  0  0  0  0  0
   -0.7089    2.0203   -0.8730 H   0  0  0  0  0  0  0  0  0  0  0  0
    1.0498    1.9970   -0.7375 H   0  0  0  0  0  0  0  0  0  0  0  0
    0.2940    0.6772   -2.2225 C   0  0  0  0  0  0  0  0  0  0  0  0
    1.0035   -0.2953   -2.3936 O   0  0  0  0  0  0  0  0  0  0  0  0
   -0.3924    1.1159   -3.3190 N   0  0  0  0  0  0  0  0  0  0  0  0
   -0.3767    0.5035   -4.1298 H   0  0  0  0  0  0  0  0  0  0  0  0
   -1.1390    1.7920   -3.2000 H   0  0  0  0  0  0  0  0  0  0  0  0
    0.2265    1.1226    1.6294 C   0  0  0  0  0  0  0  0  0  0  0  0
   -0.7419    1.6758    2.1393 O   0  0  0  0  0  0  0  0  0  0  0  0
    1.4793    1.2829    2.1912 N   0  0  0  0  0  0  0  0  0  0  0  0
    2.2429    0.7472    1.7866 H   0  0  0  0  0  0  0  0  0  0  0  0
    1.7016    1.9760    3.4541 C   0  0  0  0  0  0  0  0  0  0  0  0
    1.1657    1.4735    4.2662 H   0  0  0  0  0  0  0  0  0  0  0  0
    2.7684    1.9864    3.6969 H   0  0  0  0  0  0  0  0  0  0  0  0
    1.3529    3.0120    3.3892 H   0  0  0  0  0  0  0  0  0  0  0  0
  1  2  1  0  0  0  0
  2  3  1  0  0  0  0
  2  4  1  0  0  0  0
  2  5  1  0  0  0  0
  5  6  2  0  0  0  0
  5  7  1  0  0  0  0
  7  8  1  0  0  0  0
  7  9  1  0  0  0  0
  9 10  1  0  0  0  0
  9 11  1  0  0  0  0
  9 19  1  0  0  0  0
 11 12  1  0  0  0  0
 11 13  1  0  0  0  0
 11 14  1  0  0  0  0
 14 15  2  0  0  0  0
 14 16  1  0  0  0  0
 16 17  1  0  0  0  0
 16 18  1  0  0  0  0
 19 20  2  0  0  0  0
 19 21  1  0  0  0  0
 21 22  1  0  0  0  0
 21 23  1  0  0  0  0
 23 24  1  0  0  0  0
 23 25  1  0  0  0  0
 23 26  1  0  0  0  0
M  END
$$$$

  -OEChem-01062216063D

 26 25  0     1  0  0  0  0  0999 V2000
   -2.8138   -3.1480    1.2263 H   0  0  0  0  0  0  0  0  0  0  0  0
   -2.8445   -2.1234    0.8452 C   0  0  0  0  0  0  0  0  0  0  0  0
   -3.3814   -1.4979    1.5626 H   0  0  0  0  0  0  0  0  0  0  0  0
   -3.3795   -2.1182   -0.1073 H   0  0  0  0  0  0  0  0  0  0  0  0
   -1.4356   -1.5951    0.6507 C   0  0  0  0  0  0  0  0  0  0  0  0
   -0.4798   -2.3033    0.9260 O   0  0  0  0  0  0  0  0  0  0  0  0
   -1.2506   -0.3001    0.2063 N   0  0  0  0  0  0  0  0  0  0  0  0
   -2.0713    0.2947    0.2855 H   0  0  0  0  0  0  0  0  0  0  0  0
    0.0567    0.3710    0.2959 C   0  0  1  0  0  0  0  0  0  0  0  0
    0.8736   -0.3573    0.2232 H   0  0  0  0  0  0  0  0  0  0  0  0
    0.1588    1.3666   -0.8743 C   0  0  0  0  0  0  0  0  0  0  0  0
   -0.7217    2.0145   -0.8803 H   0  0  0  0  0  0  0  0  0  0  0  0
    1.0367    2.0046   -0.7422 H   0  0  0  0  0  0  0  0  0  0  0  0
    0.2954    0.6758   -2.2239 C   0  0  0  0  0  0  0  0  0  0  0  0
    1.0124   -0.2917   -2.3896 O   0  0  0  0  0  0  0  0  0  0  0  0
   -0.3870    1.1081   -3.3253 N   0  0  0  0  0  0  0  0  0  0  0  0
   -0.3650    0.4913   -4.1327 H   0  0  0  0  0  0  0  0  0  0  0  0
   -1.1417    1.7756   -3.2108 H   0  0  0  0  0  0  0  0  0  0  0  0
    0.2155    1.1251    1.6323 C   0  0  0  0  0  0  0  0  0  0  0  0
   -0.7776    1.4763    2.2605 O   0  0  0  0  0  0  0  0  0  0  0  0
    1.4638    1.5530    2.0464 N   0  0  0  0  0  0  0  0  0  0  0  0
    2.2705    1.1941    1.5424 H   0  0  0  0  0  0  0  0  0  0  0  0
    1.6824    2.2798    3.2914 C   0  0  0  0  0  0  0  0  0  0  0  0
    1.3650    1.6764    4.1485 H   0  0  0  0  0  0  0  0  0  0  0  0
    2.7439    2.5175    3.4092 H   0  0  0  0  0  0  0  0  0  0  0  0
    1.1173    3.2178    3.2925 H   0  0  0  0  0  0  0  0  0  0  0  0
  1  2  1  0  0  0  0
  2  3  1  0  0  0  0
  2  4  1  0  0  0  0
  2  5  1  0  0  0  0
  5  6  2  0  0  0  0
  5  7  1  0  0  0  0
  7  8  1  0  0  0  0
  7  9  1  0  0  0  0
  9 10  1  0  0  0  0
  9 11  1  0  0  0  0
  9 19  1  0  0  0  0
 11 12  1  0  0  0  0
 11 13  1  0  0  0  0
 11 14  1  0  0  0  0
 14 15  2  0  0  0  0
 14 16  1  0  0  0  0
 16 17  1  0  0  0  0
 16 18  1  0  0  0  0
 19 20  2  0  0  0  0
 19 21  1  0  0  0  0
 21 22  1  0  0  0  0
 21 23  1  0  0  0  0
 23 24  1  0  0  0  0
 23 25  1  0  0  0  0
 23 26  1  0  0  0  0
M  END
$$$$

  -OEChem-01062216063D

 26 25  0     1  0  0  0  0  0999 V2000
   -2.7484   -3.1617    1.2451 H   0  0  0  0  0  0  0  0  0  0  0  0
   -2.8105   -2.1259    0.9004 C   0  0  0  0  0  0  0  0  0  0  0  0
   -3.2815   -1.5236    1.6812 H   0  0  0  0  0  0  0  0  0  0  0  0
   -3.4253   -2.0904   -0.0020 H   0  0  0  0  0  0  0  0  0  0  0  0
   -1.4227   -1.5903    0.6039 C   0  0  0  0  0  0  0  0  0  0  0  0
   -0.4475   -2.3097    0.7581 O   0  0  0  0  0  0  0  0  0  0  0  0
   -1.2715   -0.2847    0.1749 N   0  0  0  0  0  0  0  0  0  0  0  0
   -2.0946    0.2931    0.3143 H   0  0  0  0  0  0  0  0  0  0  0  0
    0.0344    0.3879    0.2842 C   0  0  1  0  0  0  0  0  0  0  0  0
    0.8339   -0.2850   -0.0497 H   0  0  0  0  0  0  0  0  0  0  0  0
   -0.0064    1.6261   -0.6335 C   0  0  0  0  0  0  0  0  0  0  0  0
   -0.8892    2.2264   -0.3981 H   0  0  0  0  0  0  0  0  0  0  0  0
    0.8723    2.2520   -0.4596 H   0  0  0  0  0  0  0  0  0  0  0  0
   -0.0133    1.2599   -2.1115 C   0  0  0  0  0  0  0  0  0  0  0  0
    0.6921    0.3805   -2.5665 O   0  0  0  0  0  0  0  0  0  0  0  0
   -0.8135    1.9076   -3.0093 N   0  0  0  0  0  0  0  0  0  0  0  0
   -0.8720    1.4919   -3.9348 H   0  0  0  0  0  0  0  0  0  0  0  0
   -1.5539    2.5126   -2.6713 H   0  0  0  0  0  0  0  0  0  0  0  0
    0.3607    0.8065    1.7379 C   0  0  0  0  0  0  0  0  0  0  0  0
   -0.5074    0.7693    2.6034 O   0  0  0  0  0  0  0  0  0  0  0  0
    1.5526    1.4486    2.0250 N   0  0  0  0  0  0  0  0  0  0  0  0
    2.2785    1.4162    1.3146 H   0  0  0  0  0  0  0  0  0  0  0  0
    1.9081    1.9032    3.3643 C   0  0  0  0  0  0  0  0  0  0  0  0
    1.9301    1.0591    4.0618 H   0  0  0  0  0  0  0  0  0  0  0  0
    2.8974    2.3705    3.3546 H   0  0  0  0  0  0  0  0  0  0  0  0
    1.1829    2.6402    3.7252 H   0  0  0  0  0  0  0  0  0  0  0  0
  1  2  1  0  0  0  0
  2  3  1  0  0  0  0
  2  4  1  0  0  0  0
  2  5  1  0  0  0  0
  5  6  2  0  0  0  0
  5  7  1  0  0  0  0
  7  8  1  0  0  0  0
  7  9  1  0  0  0  0
  9 10  1  0  0  0  0
  9 11  1  0  0  0  0
  9 19  1  0  0  0  0
 11 12  1  0  0  0  0
 11 13  1  0  0  0  0
 11 14  1  0  0  0  0
 14 15  2  0  0  0  0
 14 16  1  0  0  0  0
 16 17  1  0  0  0  0
 16 18  1  0  0  0  0
 19 20  2  0  0  0  0
 19 21  1  0  0  0  0
 21 22  1  0  0  0  0
 21 23  1  0  0  0  0
 23 24  1  0  0  0  0
 23 25  1  0  0  0  0
 23 26  1  0  0  0  0
M  END
$$$$

  -OEChem-01062216063D

 26 25  0     1  0  0  0  0  0999 V2000
   -2.7468   -3.1644    1.1968 H   0  0  0  0  0  0  0  0  0  0  0  0
   -2.8045   -2.1108    0.9094 C   0  0  0  0  0  0  0  0  0  0  0  0
   -3.2360   -1.5438    1.7379 H   0  0  0  0  0  0  0  0  0  0  0  0
   -3.4518   -2.0189    0.0343 H   0  0  0  0  0  0  0  0  0  0  0  0
   -1.4198   -1.5805    0.5893 C   0  0  0  0  0  0  0  0  0  0  0  0
   -0.4484   -2.3131    0.6978 O   0  0  0  0  0  0  0  0  0  0  0  0
   -1.2708   -0.2709    0.1698 N   0  0  0  0  0  0  0  0  0  0  0  0
   -2.0935    0.3038    0.3222 H   0  0  0  0  0  0  0  0  0  0  0  0
    0.0356    0.4020    0.2840 C   0  0  1  0  0  0  0  0  0  0  0  0
    0.8374   -0.2693   -0.0479 H   0  0  0  0  0  0  0  0  0  0  0  0
   -0.0151    1.6308   -0.6501 C   0  0  0  0  0  0  0  0  0  0  0  0
   -0.9016    2.2284   -0.4221 H   0  0  0  0  0  0  0  0  0  0  0  0
    0.8593    2.2659   -0.4915 H   0  0  0  0  0  0  0  0  0  0  0  0
   -0.0179    1.2460   -2.1239 C   0  0  0  0  0  0  0  0  0  0  0  0
    0.6947    0.3674   -2.5681 O   0  0  0  0  0  0  0  0  0  0  0  0
   -0.8234    1.8744   -3.0306 N   0  0  0  0  0  0  0  0  0  0  0  0
   -0.8786    1.4418   -3.9487 H   0  0  0  0  0  0  0  0  0  0  0  0
   -1.5738    2.4708   -2.7001 H   0  0  0  0  0  0  0  0  0  0  0  0
    0.3648    0.8125    1.7437 C   0  0  0  0  0  0  0  0  0  0  0  0
   -0.4102    0.5442    2.6551 O   0  0  0  0  0  0  0  0  0  0  0  0
    1.3848    1.7109    2.0094 N   0  0  0  0  0  0  0  0  0  0  0  0
    2.0591    1.8758    1.2678 H   0  0  0  0  0  0  0  0  0  0  0  0
    1.7039    2.1784    3.3540 C   0  0  0  0  0  0  0  0  0  0  0  0
    1.9638    1.3340    4.0013 H   0  0  0  0  0  0  0  0  0  0  0  0
    2.5544    2.8663    3.3235 H   0  0  0  0  0  0  0  0  0  0  0  0
    0.8495    2.7066    3.7902 H   0  0  0  0  0  0  0  0  0  0  0  0
  1  2  1  0  0  0  0
  2  3  1  0  0  0  0
  2  4  1  0  0  0  0
  2  5  1  0  0  0  0
  5  6  2  0  0  0  0
  5  7  1  0  0  0  0
  7  8  1  0  0  0  0
  7  9  1  0  0  0  0
  9 10  1  0  0  0  0
  9 11  1  0  0  0  0
  9 19  1  0  0  0  0
 11 12  1  0  0  0  0
 11 13  1  0  0  0  0
 11 14  1  0  0  0  0
 14 15  2  0  0  0  0
 14 16  1  0  0  0  0
 16 17  1  0  0  0  0
 16 18  1  0  0  0  0
 19 20  2  0  0  0  0
 19 21  1  0  0  0  0
 21 22  1  0  0  0  0
 21 23  1  0  0  0  0
 23 24  1  0  0  0  0
 23 25  1  0  0  0  0
 23 26  1  0  0  0  0
M  END
$$$$

  -OEChem-01062216063D

 26 25  0     1  0  0  0  0  0999 V2000
   -2.7257   -3.1741    1.2976 H   0  0  0  0  0  0  0  0  0  0  0  0
   -2.8008   -2.1372    0.9584 C   0  0  0  0  0  0  0  0  0  0  0  0
   -3.2433   -1.5383    1.7581 H   0  0  0  0  0  0  0  0  0  0  0  0
   -3.4478   -2.0992    0.0789 H   0  0  0  0  0  0  0  0  0  0  0  0
   -1.4243   -1.6002    0.6142 C   0  0  0  0  0  0  0  0  0  0  0  0
   -0.4516   -2.3354    0.6841 O   0  0  0  0  0  0  0  0  0  0  0  0
   -1.2879   -0.2886    0.1951 N   0  0  0  0  0  0  0  0  0  0  0  0
   -2.1178    0.2780    0.3359 H   0  0  0  0  0  0  0  0  0  0  0  0
    0.0136    0.3982    0.2881 C   0  0  1  0  0  0  0  0  0  0  0  0
    0.8172   -0.2691   -0.0482 H   0  0  0  0  0  0  0  0  0  0  0  0
   -0.0634    1.6107   -0.6683 C   0  0  0  0  0  0  0  0  0  0  0  0
   -0.9544    2.2020   -0.4410 H   0  0  0  0  0  0  0  0  0  0  0  0
    0.8069    2.2566   -0.5367 H   0  0  0  0  0  0  0  0  0  0  0  0
   -0.0778    1.1995   -2.1354 C   0  0  0  0  0  0  0  0  0  0  0  0
    0.6400    0.3227   -2.5738 O   0  0  0  0  0  0  0  0  0  0  0  0
   -0.8788    1.8246   -3.0487 N   0  0  0  0  0  0  0  0  0  0  0  0
   -0.7203    1.5880   -4.0245 H   0  0  0  0  0  0  0  0  0  0  0  0
   -1.3634    2.6786   -2.7958 H   0  0  0  0  0  0  0  0  0  0  0  0
    0.3632    0.8137    1.7458 C   0  0  0  0  0  0  0  0  0  0  0  0
   -0.2365    0.3244    2.6954 O   0  0  0  0  0  0  0  0  0  0  0  0
    1.1452    1.9286    2.0034 N   0  0  0  0  0  0  0  0  0  0  0  0
    1.6946    2.2958    1.2330 H   0  0  0  0  0  0  0  0  0  0  0  0
    1.4398    2.4029    3.3515 C   0  0  0  0  0  0  0  0  0  0  0  0
    1.9555    1.6266    3.9269 H   0  0  0  0  0  0  0  0  0  0  0  0
    2.0824    3.2874    3.3092 H   0  0  0  0  0  0  0  0  0  0  0  0
    0.5162    2.6741    3.8738 H   0  0  0  0  0  0  0  0  0  0  0  0
  1  2  1  0  0  0  0
  2  3  1  0  0  0  0
  2  4  1  0  0  0  0
  2  5  1  0  0  0  0
  5  6  2  0  0  0  0
  5  7  1  0  0  0  0
  7  8  1  0  0  0  0
  7  9  1  0  0  0  0
  9 10  1  0  0  0  0
  9 11  1  0  0  0  0
  9 19  1  0  0  0  0
 11 12  1  0  0  0  0
 11 13  1  0  0  0  0
 11 14  1  0  0  0  0
 14 15  2  0  0  0  0
 14 16  1  0  0  0  0
 16 17  1  0  0  0  0
 16 18  1  0  0  0  0
 19 20  2  0  0  0  0
 19 21  1  0  0  0  0
 21 22  1  0  0  0  0
 21 23  1  0  0  0  0
 23 24  1  0  0  0  0
 23 25  1  0  0  0  0
 23 26  1  0  0  0  0
M  END
$$$$

  -OEChem-01062216063D

 26 25  0     1  0  0  0  0  0999 V2000
   -2.7277   -3.1789    1.2684 H   0  0  0  0  0  0  0  0  0  0  0  0
   -2.8009   -2.1296    0.9692 C   0  0  0  0  0  0  0  0  0  0  0  0
   -3.2206   -1.5570    1.7996 H   0  0  0  0  0  0  0  0  0  0  0  0
   -3.4664   -2.0545    0.1062 H   0  0  0  0  0  0  0  0  0  0  0  0
   -1.4270   -1.5924    0.6147 C   0  0  0  0  0  0  0  0  0  0  0  0
   -0.4600   -2.3369    0.6465 O   0  0  0  0  0  0  0  0  0  0  0  0
   -1.2930   -0.2784    0.2008 N   0  0  0  0  0  0  0  0  0  0  0  0
   -2.1269    0.2842    0.3321 H   0  0  0  0  0  0  0  0  0  0  0  0
    0.0047    0.4165    0.2898 C   0  0  1  0  0  0  0  0  0  0  0  0
    0.8105   -0.2526   -0.0379 H   0  0  0  0  0  0  0  0  0  0  0  0
   -0.0652    1.6163   -0.6831 C   0  0  0  0  0  0  0  0  0  0  0  0
   -0.9565    2.2126   -0.4710 H   0  0  0  0  0  0  0  0  0  0  0  0
    0.8090    2.2580   -0.5544 H   0  0  0  0  0  0  0  0  0  0  0  0
   -0.0676    1.1855   -2.1452 C   0  0  0  0  0  0  0  0  0  0  0  0
    0.6528    0.3039   -2.5687 O   0  0  0  0  0  0  0  0  0  0  0  0
   -0.8674    1.7935   -3.0709 N   0  0  0  0  0  0  0  0  0  0  0  0
   -0.7046    1.5404   -4.0419 H   0  0  0  0  0  0  0  0  0  0  0  0
   -1.3540    2.6512   -2.8351 H   0  0  0  0  0  0  0  0  0  0  0  0
    0.3551    0.8296    1.7486 C   0  0  0  0  0  0  0  0  0  0  0  0
   -0.0079    0.1475    2.6976 O   0  0  0  0  0  0  0  0  0  0  0  0
    0.8551    2.0893    2.0410 N   0  0  0  0  0  0  0  0  0  0  0  0
    1.1946    2.6482    1.2656 H   0  0  0  0  0  0  0  0  0  0  0  0
    1.1327    2.5446    3.3997 C   0  0  0  0  0  0  0  0  0  0  0  0
    1.8629    1.8864    3.8825 H   0  0  0  0  0  0  0  0  0  0  0  0
    1.5396    3.5602    3.3833 H   0  0  0  0  0  0  0  0  0  0  0  0
    0.2152    2.5511    3.9976 H   0  0  0  0  0  0  0  0  0  0  0  0
  1  2  1  0  0  0  0
  2  3  1  0  0  0  0
  2  4  1  0  0  0  0
  2  5  1  0  0  0  0
  5  6  2  0  0  0  0
  5  7  1  0  0  0  0
  7  8  1  0  0  0  0
  7  9  1  0  0  0  0
  9 10  1  0  0  0  0
  9 11  1  0  0  0  0
  9 19  1  0  0  0  0
 11 12  1  0  0  0  0
 11 13  1  0  0  0  0
 11 14  1  0  0  0  0
 14 15  2  0  0  0  0
 14 16  1  0  0  0  0
 16 17  1  0  0  0  0
 16 18  1  0  0  0  0
 19 20  2  0  0  0  0
 19 21  1  0  0  0  0
 21 22  1  0  0  0  0
 21 23  1  0  0  0  0
 23 24  1  0  0  0  0
 23 25  1  0  0  0  0
 23 26  1  0  0  0  0
M  END
$$$$

  -OEChem-01062216063D

 26 25  0     1  0  0  0  0  0999 V2000
   -2.7451   -3.1899    1.2400 H   0  0  0  0  0  0  0  0  0  0  0  0
   -2.8097   -2.1316    0.9719 C   0  0  0  0  0  0  0  0  0  0  0  0
   -3.2217   -1.5797    1.8200 H   0  0  0  0  0  0  0  0  0  0  0  0
   -3.4774   -2.0259    0.1137 H   0  0  0  0  0  0  0  0  0  0  0  0
   -1.4323   -1.5967    0.6279 C   0  0  0  0  0  0  0  0  0  0  0  0
   -0.4701   -2.3461    0.6567 O   0  0  0  0  0  0  0  0  0  0  0  0
   -1.2954   -0.2836    0.2122 N   0  0  0  0  0  0  0  0  0  0  0  0
   -2.1350    0.2763    0.3138 H   0  0  0  0  0  0  0  0  0  0  0  0
   -0.0016    0.4188    0.2939 C   0  0  1  0  0  0  0  0  0  0  0  0
    0.8053   -0.2523   -0.0279 H   0  0  0  0  0  0  0  0  0  0  0  0
   -0.0613    1.6142   -0.6833 C   0  0  0  0  0  0  0  0  0  0  0  0
   -0.9518    2.2147   -0.4805 H   0  0  0  0  0  0  0  0  0  0  0  0
    0.8174    2.2492   -0.5458 H   0  0  0  0  0  0  0  0  0  0  0  0
   -0.0566    1.1803   -2.1447 C   0  0  0  0  0  0  0  0  0  0  0  0
    0.6620    0.2956   -2.5641 O   0  0  0  0  0  0  0  0  0  0  0  0
   -0.8487    1.7903   -3.0757 N   0  0  0  0  0  0  0  0  0  0  0  0
   -0.6755    1.5377   -4.0451 H   0  0  0  0  0  0  0  0  0  0  0  0
   -1.3248    2.6552   -2.8457 H   0  0  0  0  0  0  0  0  0  0  0  0
    0.3477    0.8366    1.7499 C   0  0  0  0  0  0  0  0  0  0  0  0
    0.2788    0.0336    2.6686 O   0  0  0  0  0  0  0  0  0  0  0  0
    0.5411    2.1669    2.0902 N   0  0  0  0  0  0  0  0  0  0  0  0
    0.6076    2.8407    1.3353 H   0  0  0  0  0  0  0  0  0  0  0  0
    0.7996    2.6174    3.4540 C   0  0  0  0  0  0  0  0  0  0  0  0
    1.7049    2.1444    3.8493 H   0  0  0  0  0  0  0  0  0  0  0  0
    0.9396    3.7025    3.4746 H   0  0  0  0  0  0  0  0  0  0  0  0
   -0.0427    2.3658    4.1071 H   0  0  0  0  0  0  0  0  0  0  0  0
  1  2  1  0  0  0  0
  2  3  1  0  0  0  0
  2  4  1  0  0  0  0
  2  5  1  0  0  0  0
  5  6  2  0  0  0  0
  5  7  1  0  0  0  0
  7  8  1  0  0  0  0
  7  9  1  0  0  0  0
  9 10  1  0  0  0  0
  9 11  1  0  0  0  0
  9 19  1  0  0  0  0
 11 12  1  0  0  0  0
 11 13  1  0  0  0  0
 11 14  1  0  0  0  0
 14 15  2  0  0  0  0
 14 16  1  0  0  0  0
 16 17  1  0  0  0  0
 16 18  1  0  0  0  0
 19 20  2  0  0  0  0
 19 21  1  0  0  0  0
 21 22  1  0  0  0  0
 21 23  1  0  0  0  0
 23 24  1  0  0  0  0
 23 25  1  0  0  0  0
 23 26  1  0  0  0  0
M  END
$$$$

  -OEChem-01062216063D

 26 25  0     1  0  0  0  0  0999 V2000
   -2.7727   -3.1888    1.2624 H   0  0  0  0  0  0  0  0  0  0  0  0
   -2.8365   -2.1488    0.9296 C   0  0  0  0  0  0  0  0  0  0  0  0
   -3.3208   -1.5606    1.7125 H   0  0  0  0  0  0  0  0  0  0  0  0
   -3.4405   -2.1065    0.0201 H   0  0  0  0  0  0  0  0  0  0  0  0
   -1.4466   -1.6042    0.6560 C   0  0  0  0  0  0  0  0  0  0  0  0
   -0.4832   -2.3451    0.7475 O   0  0  0  0  0  0  0  0  0  0  0  0
   -1.3000   -0.2937    0.2369 N   0  0  0  0  0  0  0  0  0  0  0  0
   -2.1480    0.2617    0.2659 H   0  0  0  0  0  0  0  0  0  0  0  0
   -0.0104    0.4166    0.3109 C   0  0  1  0  0  0  0  0  0  0  0  0
    0.7978   -0.2549   -0.0079 H   0  0  0  0  0  0  0  0  0  0  0  0
   -0.0640    1.6120   -0.6651 C   0  0  0  0  0  0  0  0  0  0  0  0
   -0.9557    2.2124   -0.4686 H   0  0  0  0  0  0  0  0  0  0  0  0
    0.8143    2.2458   -0.5148 H   0  0  0  0  0  0  0  0  0  0  0  0
   -0.0560    1.1792   -2.1268 C   0  0  0  0  0  0  0  0  0  0  0  0
    0.6606    0.2932   -2.5461 O   0  0  0  0  0  0  0  0  0  0  0  0
   -0.8417    1.7934   -3.0606 N   0  0  0  0  0  0  0  0  0  0  0  0
   -0.6510    1.5474   -4.0284 H   0  0  0  0  0  0  0  0  0  0  0  0
   -1.2922    2.6732   -2.8360 H   0  0  0  0  0  0  0  0  0  0  0  0
    0.3386    0.8430    1.7610 C   0  0  0  0  0  0  0  0  0  0  0  0
    0.6245    0.0157    2.6122 O   0  0  0  0  0  0  0  0  0  0  0  0
    0.2211    2.1643    2.1642 N   0  0  0  0  0  0  0  0  0  0  0  0
   -0.0128    2.8541    1.4590 H   0  0  0  0  0  0  0  0  0  0  0  0
    0.4948    2.6151    3.5246 C   0  0  0  0  0  0  0  0  0  0  0  0
    1.5371    2.4128    3.7930 H   0  0  0  0  0  0  0  0  0  0  0  0
    0.3184    3.6915    3.6093 H   0  0  0  0  0  0  0  0  0  0  0  0
   -0.1586    2.1017    4.2381 H   0  0  0  0  0  0  0  0  0  0  0  0
  1  2  1  0  0  0  0
  2  3  1  0  0  0  0
  2  4  1  0  0  0  0
  2  5  1  0  0  0  0
  5  6  2  0  0  0  0
  5  7  1  0  0  0  0
  7  8  1  0  0  0  0
  7  9  1  0  0  0  0
  9 10  1  0  0  0  0
  9 11  1  0  0  0  0
  9 19  1  0  0  0  0
 11 12  1  0  0  0  0
 11 13  1  0  0  0  0
 11 14  1  0  0  0  0
 14 15  2  0  0  0  0
 14 16  1  0  0  0  0
 16 17  1  0  0  0  0
 16 18  1  0  0  0  0
 19 20  2  0  0  0  0
 19 21  1  0  0  0  0
 21 22  1  0  0  0  0
 21 23  1  0  0  0  0
 23 24  1  0  0  0  0
 23 25  1  0  0  0  0
 23 26  1  0  0  0  0
M  END
$$$$

  -OEChem-01062216063D

 26 25  0     1  0  0  0  0  0999 V2000
   -2.8421   -3.2373    1.1350 H   0  0  0  0  0  0  0  0  0  0  0  0
   -2.8816   -2.2083    0.7661 C   0  0  0  0  0  0  0  0  0  0  0  0
   -3.5243   -1.6229    1.4275 H   0  0  0  0  0  0  0  0  0  0  0  0
   -3.3072   -2.2118   -0.2402 H   0  0  0  0  0  0  0  0  0  0  0  0
   -1.4866   -1.6120    0.7364 C   0  0  0  0  0  0  0  0  0  0  0  0
   -0.5340   -2.2980    1.0582 O   0  0  0  0  0  0  0  0  0  0  0  0
   -1.3142   -0.3082    0.3097 N   0  0  0  0  0  0  0  0  0  0  0  0
   -2.1568    0.2058    0.0765 H   0  0  0  0  0  0  0  0  0  0  0  0
   -0.0281    0.4100    0.3641 C   0  0  1  0  0  0  0  0  0  0  0  0
    0.7761   -0.2660    0.0430 H   0  0  0  0  0  0  0  0  0  0  0  0
   -0.0833    1.6037   -0.6119 C   0  0  0  0  0  0  0  0  0  0  0  0
   -0.9722    2.2071   -0.4137 H   0  0  0  0  0  0  0  0  0  0  0  0
    0.7959    2.2368   -0.4606 H   0  0  0  0  0  0  0  0  0  0  0  0
   -0.0845    1.1676   -2.0721 C   0  0  0  0  0  0  0  0  0  0  0  0
    0.6253    0.2786   -2.4962 O   0  0  0  0  0  0  0  0  0  0  0  0
   -0.8805    1.7771   -2.9998 N   0  0  0  0  0  0  0  0  0  0  0  0
   -0.6801    1.5376   -3.9675 H   0  0  0  0  0  0  0  0  0  0  0  0
   -1.2974    2.6741   -2.7775 H   0  0  0  0  0  0  0  0  0  0  0  0
    0.3406    0.8577    1.7997 C   0  0  0  0  0  0  0  0  0  0  0  0
    1.0603    0.1726    2.5089 O   0  0  0  0  0  0  0  0  0  0  0  0
   -0.0614    2.0936    2.2813 N   0  0  0  0  0  0  0  0  0  0  0  0
   -0.6714    2.6530    1.6962 H   0  0  0  0  0  0  0  0  0  0  0  0
    0.2854    2.5835    3.6109 C   0  0  0  0  0  0  0  0  0  0  0  0
    1.3731    2.6223    3.7339 H   0  0  0  0  0  0  0  0  0  0  0  0
   -0.1140    3.5910    3.7605 H   0  0  0  0  0  0  0  0  0  0  0  0
   -0.1320    1.9266    4.3814 H   0  0  0  0  0  0  0  0  0  0  0  0
  1  2  1  0  0  0  0
  2  3  1  0  0  0  0
  2  4  1  0  0  0  0
  2  5  1  0  0  0  0
  5  6  2  0  0  0  0
  5  7  1  0  0  0  0
  7  8  1  0  0  0  0
  7  9  1  0  0  0  0
  9 10  1  0  0  0  0
  9 11  1  0  0  0  0
  9 19  1  0  0  0  0
 11 12  1  0  0  0  0
 11 13  1  0  0  0  0
 11 14  1  0  0  0  0
 14 15  2  0  0  0  0
 14 16  1  0  0  0  0
 16 17  1  0  0  0  0
 16 18  1  0  0  0  0
 19 20  2  0  0  0  0
 19 21  1  0  0  0  0
 21 22  1  0  0  0  0
 21 23  1  0  0  0  0
 23 24  1  0  0  0  0
 23 25  1  0  0  0  0
 23 26  1  0  0  0  0
M  END
$$$$

  -OEChem-01062216063D

 26 25  0     1  0  0  0  0  0999 V2000
   -2.8577   -3.3032    0.9500 H   0  0  0  0  0  0  0  0  0  0  0  0
   -2.8890   -2.2783    0.5691 C   0  0  0  0  0  0  0  0  0  0  0  0
   -3.7094   -1.7469    1.0573 H   0  0  0  0  0  0  0  0  0  0  0  0
   -3.0711   -2.3107   -0.5078 H   0  0  0  0  0  0  0  0  0  0  0  0
   -1.5737   -1.5763    0.8528 C   0  0  0  0  0  0  0  0  0  0  0  0
   -0.7061   -2.1538    1.4816 O   0  0  0  0  0  0  0  0  0  0  0  0
   -1.3768   -0.2868    0.3952 N   0  0  0  0  0  0  0  0  0  0  0  0
   -2.0862    0.0664   -0.2388 H   0  0  0  0  0  0  0  0  0  0  0  0
   -0.0657    0.3873    0.4224 C   0  0  1  0  0  0  0  0  0  0  0  0
    0.7091   -0.3187    0.0944 H   0  0  0  0  0  0  0  0  0  0  0  0
   -0.0886    1.5859   -0.5471 C   0  0  0  0  0  0  0  0  0  0  0  0
   -0.9464    2.2262   -0.3286 H   0  0  0  0  0  0  0  0  0  0  0  0
    0.8182    2.1816   -0.4056 H   0  0  0  0  0  0  0  0  0  0  0  0
   -0.1327    1.1558   -2.0072 C   0  0  0  0  0  0  0  0  0  0  0  0
    0.5319    0.2396   -2.4466 O   0  0  0  0  0  0  0  0  0  0  0  0
   -0.9467    1.7782   -2.9100 N   0  0  0  0  0  0  0  0  0  0  0  0
   -0.7696    1.5404   -3.8827 H   0  0  0  0  0  0  0  0  0  0  0  0
   -1.3183    2.6930   -2.6782 H   0  0  0  0  0  0  0  0  0  0  0  0
    0.3411    0.8488    1.8410 C   0  0  0  0  0  0  0  0  0  0  0  0
    1.3566    0.4143    2.3637 O   0  0  0  0  0  0  0  0  0  0  0  0
   -0.2648    1.9568    2.4109 N   0  0  0  0  0  0  0  0  0  0  0  0
   -1.1411    2.2616    2.0022 H   0  0  0  0  0  0  0  0  0  0  0  0
    0.1306    2.4985    3.7062 C   0  0  0  0  0  0  0  0  0  0  0  0
    1.1804    2.8099    3.6870 H   0  0  0  0  0  0  0  0  0  0  0  0
   -0.4820    3.3701    3.9553 H   0  0  0  0  0  0  0  0  0  0  0  0
    0.0011    1.7464    4.4915 H   0  0  0  0  0  0  0  0  0  0  0  0
  1  2  1  0  0  0  0
  2  3  1  0  0  0  0
  2  4  1  0  0  0  0
  2  5  1  0  0  0  0
  5  6  2  0  0  0  0
  5  7  1  0  0  0  0
  7  8  1  0  0  0  0
  7  9  1  0  0  0  0
  9 10  1  0  0  0  0
  9 11  1  0  0  0  0
  9 19  1  0  0  0  0
 11 12  1  0  0  0  0
 11 13  1  0  0  0  0
 11 14  1  0  0  0  0
 14 15  2  0  0  0  0
 14 16  1  0  0  0  0
 16 17  1  0  0  0  0
 16 18  1  0  0  0  0
 19 20  2  0  0  0  0
 19 21  1  0  0  0  0
 21 22  1  0  0  0  0
 21 23  1  0  0  0  0
 23 24  1  0  0  0  0
 23 25  1  0  0  0  0
 23 26  1  0  0  0  0
M  END
$$$$

  -OEChem-01062216063D

 26 25  0     1  0  0  0  0  0999 V2000
   -2.8682   -3.2993    0.9665 H   0  0  0  0  0  0  0  0  0  0  0  0
   -2.8809   -2.2951    0.5333 C   0  0  0  0  0  0  0  0  0  0  0  0
   -3.7391   -1.7500    0.9336 H   0  0  0  0  0  0  0  0  0  0  0  0
   -2.9845   -2.3827   -0.5509 H   0  0  0  0  0  0  0  0  0  0  0  0
   -1.5956   -1.5642    0.8738 C   0  0  0  0  0  0  0  0  0  0  0  0
   -0.7588   -2.1049    1.5738 O   0  0  0  0  0  0  0  0  0  0  0  0
   -1.3936   -0.2811    0.4023 N   0  0  0  0  0  0  0  0  0  0  0  0
   -2.0625    0.0316   -0.2948 H   0  0  0  0  0  0  0  0  0  0  0  0
   -0.0697    0.3685    0.4220 C   0  0  1  0  0  0  0  0  0  0  0  0
    0.6932   -0.3481    0.0894 H   0  0  0  0  0  0  0  0  0  0  0  0
   -0.0776    1.5762   -0.5336 C   0  0  0  0  0  0  0  0  0  0  0  0
   -0.9195    2.2316   -0.2975 H   0  0  0  0  0  0  0  0  0  0  0  0
    0.8423    2.1523   -0.3948 H   0  0  0  0  0  0  0  0  0  0  0  0
   -0.1446    1.1606   -1.9963 C   0  0  0  0  0  0  0  0  0  0  0  0
    0.4967    0.2349   -2.4510 O   0  0  0  0  0  0  0  0  0  0  0  0
   -0.9617    1.8031   -2.8820 N   0  0  0  0  0  0  0  0  0  0  0  0
   -0.7981    1.5750   -3.8594 H   0  0  0  0  0  0  0  0  0  0  0  0
   -1.3131    2.7223   -2.6353 H   0  0  0  0  0  0  0  0  0  0  0  0
    0.3466    0.8301    1.8352 C   0  0  0  0  0  0  0  0  0  0  0  0
    1.4844    0.6262    2.2334 O   0  0  0  0  0  0  0  0  0  0  0  0
   -0.4390    1.7430    2.5182 N   0  0  0  0  0  0  0  0  0  0  0  0
   -1.4030    1.8235    2.2128 H   0  0  0  0  0  0  0  0  0  0  0  0
   -0.0747    2.2711    3.8277 C   0  0  0  0  0  0  0  0  0  0  0  0
    0.8749    2.8139    3.7718 H   0  0  0  0  0  0  0  0  0  0  0  0
   -0.8445    2.9612    4.1856 H   0  0  0  0  0  0  0  0  0  0  0  0
    0.0276    1.4571    4.5533 H   0  0  0  0  0  0  0  0  0  0  0  0
  1  2  1  0  0  0  0
  2  3  1  0  0  0  0
  2  4  1  0  0  0  0
  2  5  1  0  0  0  0
  5  6  2  0  0  0  0
  5  7  1  0  0  0  0
  7  8  1  0  0  0  0
  7  9  1  0  0  0  0
  9 10  1  0  0  0  0
  9 11  1  0  0  0  0
  9 19  1  0  0  0  0
 11 12  1  0  0  0  0
 11 13  1  0  0  0  0
 11 14  1  0  0  0  0
 14 15  2  0  0  0  0
 14 16  1  0  0  0  0
 16 17  1  0  0  0  0
 16 18  1  0  0  0  0
 19 20  2  0  0  0  0
 19 21  1  0  0  0  0
 21 22  1  0  0  0  0
 21 23  1  0  0  0  0
 23 24  1  0  0  0  0
 23 25  1  0  0  0  0
 23 26  1  0  0  0  0
M  END
$$$$

  -OEChem-01062216063D

 26 25  0     1  0  0  0  0  0999 V2000
   -2.8824   -3.2904    0.9766 H   0  0  0  0  0  0  0  0  0  0  0  0
   -2.8790   -2.3004    0.5116 C   0  0  0  0  0  0  0  0  0  0  0  0
   -3.7488   -1.7423    0.8657 H   0  0  0  0  0  0  0  0  0  0  0  0
   -2.9466   -2.4217   -0.5723 H   0  0  0  0  0  0  0  0  0  0  0  0
   -1.6039   -1.5614    0.8714 C   0  0  0  0  0  0  0  0  0  0  0  0
   -0.7799   -2.0885    1.5970 O   0  0  0  0  0  0  0  0  0  0  0  0
   -1.3967   -0.2804    0.3970 N   0  0  0  0  0  0  0  0  0  0  0  0
   -2.0508    0.0243   -0.3177 H   0  0  0  0  0  0  0  0  0  0  0  0
   -0.0662    0.3565    0.4183 C   0  0  1  0  0  0  0  0  0  0  0  0
    0.6921   -0.3632    0.0822 H   0  0  0  0  0  0  0  0  0  0  0  0
   -0.0706    1.5715   -0.5270 C   0  0  0  0  0  0  0  0  0  0  0  0
   -0.9056    2.2313   -0.2786 H   0  0  0  0  0  0  0  0  0  0  0  0
    0.8543    2.1399   -0.3895 H   0  0  0  0  0  0  0  0  0  0  0  0
   -0.1484    1.1670   -1.9920 C   0  0  0  0  0  0  0  0  0  0  0  0
    0.4839    0.2398   -2.4565 O   0  0  0  0  0  0  0  0  0  0  0  0
   -0.9736    1.8147   -2.8664 N   0  0  0  0  0  0  0  0  0  0  0  0
   -0.8197    1.5909   -3.8463 H   0  0  0  0  0  0  0  0  0  0  0  0
   -1.3173    2.7349   -2.6123 H   0  0  0  0  0  0  0  0  0  0  0  0
    0.3564    0.8169    1.8293 C   0  0  0  0  0  0  0  0  0  0  0  0
    1.5420    0.8476    2.1281 O   0  0  0  0  0  0  0  0  0  0  0  0
   -0.5522    1.4832    2.6324 N   0  0  0  0  0  0  0  0  0  0  0  0
   -1.5306    1.3459    2.4011 H   0  0  0  0  0  0  0  0  0  0  0  0
   -0.2121    1.9832    3.9589 C   0  0  0  0  0  0  0  0  0  0  0  0
    0.5952    2.7204    3.8954 H   0  0  0  0  0  0  0  0  0  0  0  0
   -1.0819    2.4642    4.4162 H   0  0  0  0  0  0  0  0  0  0  0  0
    0.1114    1.1613    4.6063 H   0  0  0  0  0  0  0  0  0  0  0  0
  1  2  1  0  0  0  0
  2  3  1  0  0  0  0
  2  4  1  0  0  0  0
  2  5  1  0  0  0  0
  5  6  2  0  0  0  0
  5  7  1  0  0  0  0
  7  8  1  0  0  0  0
  7  9  1  0  0  0  0
  9 10  1  0  0  0  0
  9 11  1  0  0  0  0
  9 19  1  0  0  0  0
 11 12  1  0  0  0  0
 11 13  1  0  0  0  0
 11 14  1  0  0  0  0
 14 15  2  0  0  0  0
 14 16  1  0  0  0  0
 16 17  1  0  0  0  0
 16 18  1  0  0  0  0
 19 20  2  0  0  0  0
 19 21  1  0  0  0  0
 21 22  1  0  0  0  0
 21 23  1  0  0  0  0
 23 24  1  0  0  0  0
 23 25  1  0  0  0  0
 23 26  1  0  0  0  0
M  END
$$$$

  -OEChem-01062216063D

 26 25  0     1  0  0  0  0  0999 V2000
   -2.8783   -3.3005    0.9234 H   0  0  0  0  0  0  0  0  0  0  0  0
   -2.8815   -2.3002    0.4810 C   0  0  0  0  0  0  0  0  0  0  0  0
   -3.7572   -1.7572    0.8440 H   0  0  0  0  0  0  0  0  0  0  0  0
   -2.9449   -2.3981   -0.6056 H   0  0  0  0  0  0  0  0  0  0  0  0
   -1.6142   -1.5578    0.8612 C   0  0  0  0  0  0  0  0  0  0  0  0
   -0.8047   -2.0765    1.6093 O   0  0  0  0  0  0  0  0  0  0  0  0
   -1.4004   -0.2772    0.3893 N   0  0  0  0  0  0  0  0  0  0  0  0
   -2.0470    0.0294   -0.3317 H   0  0  0  0  0  0  0  0  0  0  0  0
   -0.0668    0.3557    0.4195 C   0  0  1  0  0  0  0  0  0  0  0  0
    0.6912   -0.3639    0.0834 H   0  0  0  0  0  0  0  0  0  0  0  0
   -0.0732    1.5709   -0.5263 C   0  0  0  0  0  0  0  0  0  0  0  0
   -0.9099    2.2288   -0.2774 H   0  0  0  0  0  0  0  0  0  0  0  0
    0.8501    2.1429   -0.3910 H   0  0  0  0  0  0  0  0  0  0  0  0
   -0.1488    1.1641   -1.9906 C   0  0  0  0  0  0  0  0  0  0  0  0
    0.4866    0.2375   -2.4529 O   0  0  0  0  0  0  0  0  0  0  0  0
   -0.9800    1.8039   -2.8651 N   0  0  0  0  0  0  0  0  0  0  0  0
   -0.8255    1.5793   -3.8446 H   0  0  0  0  0  0  0  0  0  0  0  0
   -1.3280    2.7228   -2.6122 H   0  0  0  0  0  0  0  0  0  0  0  0
    0.3613    0.8186    1.8292 C   0  0  0  0  0  0  0  0  0  0  0  0
    1.5374    1.0744    2.0498 O   0  0  0  0  0  0  0  0  0  0  0  0
   -0.5934    1.2080    2.7513 N   0  0  0  0  0  0  0  0  0  0  0  0
   -1.5327    0.8639    2.5791 H   0  0  0  0  0  0  0  0  0  0  0  0
   -0.2523    1.6600    4.0944 C   0  0  0  0  0  0  0  0  0  0  0  0
    0.3895    2.5465    4.0505 H   0  0  0  0  0  0  0  0  0  0  0  0
   -1.1596    1.9206    4.6476 H   0  0  0  0  0  0  0  0  0  0  0  0
    0.2744    0.8705    4.6408 H   0  0  0  0  0  0  0  0  0  0  0  0
  1  2  1  0  0  0  0
  2  3  1  0  0  0  0
  2  4  1  0  0  0  0
  2  5  1  0  0  0  0
  5  6  2  0  0  0  0
  5  7  1  0  0  0  0
  7  8  1  0  0  0  0
  7  9  1  0  0  0  0
  9 10  1  0  0  0  0
  9 11  1  0  0  0  0
  9 19  1  0  0  0  0
 11 12  1  0  0  0  0
 11 13  1  0  0  0  0
 11 14  1  0  0  0  0
 14 15  2  0  0  0  0
 14 16  1  0  0  0  0
 16 17  1  0  0  0  0
 16 18  1  0  0  0  0
 19 20  2  0  0  0  0
 19 21  1  0  0  0  0
 21 22  1  0  0  0  0
 21 23  1  0  0  0  0
 23 24  1  0  0  0  0
 23 25  1  0  0  0  0
 23 26  1  0  0  0  0
M  END
$$$$

  -OEChem-01062216063D

 26 25  0     1  0  0  0  0  0999 V2000
   -2.9067   -3.2813    0.9103 H   0  0  0  0  0  0  0  0  0  0  0  0
   -2.8860   -2.2921    0.4438 C   0  0  0  0  0  0  0  0  0  0  0  0
   -3.7698   -1.7342    0.7619 H   0  0  0  0  0  0  0  0  0  0  0  0
   -2.9114   -2.4160   -0.6419 H   0  0  0  0  0  0  0  0  0  0  0  0
   -1.6273   -1.5494    0.8501 C   0  0  0  0  0  0  0  0  0  0  0  0
   -0.8387   -2.0605    1.6256 O   0  0  0  0  0  0  0  0  0  0  0  0
   -1.4035   -0.2684    0.3854 N   0  0  0  0  0  0  0  0  0  0  0  0
   -2.0462    0.0469   -0.3353 H   0  0  0  0  0  0  0  0  0  0  0  0
   -0.0689    0.3641    0.4248 C   0  0  1  0  0  0  0  0  0  0  0  0
    0.6901   -0.3548    0.0902 H   0  0  0  0  0  0  0  0  0  0  0  0
   -0.0842    1.5744   -0.5294 C   0  0  0  0  0  0  0  0  0  0  0  0
   -0.9262    2.2269   -0.2843 H   0  0  0  0  0  0  0  0  0  0  0  0
    0.8328    2.1571   -0.4005 H   0  0  0  0  0  0  0  0  0  0  0  0
   -0.1546    1.1581   -1.9910 C   0  0  0  0  0  0  0  0  0  0  0  0
    0.4890    0.2338   -2.4468 O   0  0  0  0  0  0  0  0  0  0  0  0
   -0.9882    1.7881   -2.8703 N   0  0  0  0  0  0  0  0  0  0  0  0
   -0.8279    1.5635   -3.8488 H   0  0  0  0  0  0  0  0  0  0  0  0
   -1.3445    2.7047   -2.6204 H   0  0  0  0  0  0  0  0  0  0  0  0
    0.3642    0.8276    1.8359 C   0  0  0  0  0  0  0  0  0  0  0  0
    1.4845    1.2923    2.0024 O   0  0  0  0  0  0  0  0  0  0  0  0
   -0.5604    0.9259    2.8595 N   0  0  0  0  0  0  0  0  0  0  0  0
   -1.4013    0.3711    2.7304 H   0  0  0  0  0  0  0  0  0  0  0  0
   -0.1928    1.3162    4.2148 C   0  0  0  0  0  0  0  0  0  0  0  0
    0.2608    2.3130    4.2181 H   0  0  0  0  0  0  0  0  0  0  0  0
   -1.0802    1.3408    4.8544 H   0  0  0  0  0  0  0  0  0  0  0  0
    0.5218    0.6021    4.6375 H   0  0  0  0  0  0  0  0  0  0  0  0
  1  2  1  0  0  0  0
  2  3  1  0  0  0  0
  2  4  1  0  0  0  0
  2  5  1  0  0  0  0
  5  6  2  0  0  0  0
  5  7  1  0  0  0  0
  7  8  1  0  0  0  0
  7  9  1  0  0  0  0
  9 10  1  0  0  0  0
  9 11  1  0  0  0  0
  9 19  1  0  0  0  0
 11 12  1  0  0  0  0
 11 13  1  0  0  0  0
 11 14  1  0  0  0  0
 14 15  2  0  0  0  0
 14 16  1  0  0  0  0
 16 17  1  0  0  0  0
 16 18  1  0  0  0  0
 19 20  2  0  0  0  0
 19 21  1  0  0  0  0
 21 22  1  0  0  0  0
 21 23  1  0  0  0  0
 23 24  1  0  0  0  0
 23 25  1  0  0  0  0
 23 26  1  0  0  0  0
M  END
$$$$

  -OEChem-01062216063D

 26 25  0     1  0  0  0  0  0999 V2000
   -2.9249   -3.2749    0.8554 H   0  0  0  0  0  0  0  0  0  0  0  0
   -2.9035   -2.2741    0.4147 C   0  0  0  0  0  0  0  0  0  0  0  0
   -3.7824   -1.7207    0.7539 H   0  0  0  0  0  0  0  0  0  0  0  0
   -2.9380   -2.3701   -0.6734 H   0  0  0  0  0  0  0  0  0  0  0  0
   -1.6385   -1.5475    0.8302 C   0  0  0  0  0  0  0  0  0  0  0  0
   -0.8642   -2.0658    1.6161 O   0  0  0  0  0  0  0  0  0  0  0  0
   -1.4018   -0.2630    0.3834 N   0  0  0  0  0  0  0  0  0  0  0  0
   -2.0520    0.0760   -0.3198 H   0  0  0  0  0  0  0  0  0  0  0  0
   -0.0682    0.3730    0.4327 C   0  0  1  0  0  0  0  0  0  0  0  0
    0.6918   -0.3434    0.0965 H   0  0  0  0  0  0  0  0  0  0  0  0
   -0.0932    1.5793   -0.5296 C   0  0  0  0  0  0  0  0  0  0  0  0
   -0.9417    2.2248   -0.2894 H   0  0  0  0  0  0  0  0  0  0  0  0
    0.8172    2.1736   -0.4079 H   0  0  0  0  0  0  0  0  0  0  0  0
   -0.1560    1.1527   -1.9886 C   0  0  0  0  0  0  0  0  0  0  0  0
    0.4981    0.2316   -2.4363 O   0  0  0  0  0  0  0  0  0  0  0  0
   -0.9912    1.7710   -2.8747 N   0  0  0  0  0  0  0  0  0  0  0  0
   -0.8243    1.5433   -3.8513 H   0  0  0  0  0  0  0  0  0  0  0  0
   -1.3556    2.6861   -2.6305 H   0  0  0  0  0  0  0  0  0  0  0  0
    0.3695    0.8274    1.8492 C   0  0  0  0  0  0  0  0  0  0  0  0
    1.3810    1.5043    1.9861 O   0  0  0  0  0  0  0  0  0  0  0  0
   -0.4514    0.6304    2.9442 N   0  0  0  0  0  0  0  0  0  0  0  0
   -1.1201   -0.1287    2.8312 H   0  0  0  0  0  0  0  0  0  0  0  0
   -0.0515    0.9897    4.2989 C   0  0  0  0  0  0  0  0  0  0  0  0
    0.1705    2.0600    4.3634 H   0  0  0  0  0  0  0  0  0  0  0  0
   -0.8582    0.7637    5.0025 H   0  0  0  0  0  0  0  0  0  0  0  0
    0.8390    0.4266    4.5968 H   0  0  0  0  0  0  0  0  0  0  0  0
  1  2  1  0  0  0  0
  2  3  1  0  0  0  0
  2  4  1  0  0  0  0
  2  5  1  0  0  0  0
  5  6  2  0  0  0  0
  5  7  1  0  0  0  0
  7  8  1  0  0  0  0
  7  9  1  0  0  0  0
  9 10  1  0  0  0  0
  9 11  1  0  0  0  0
  9 19  1  0  0  0  0
 11 12  1  0  0  0  0
 11 13  1  0  0  0  0
 11 14  1  0  0  0  0
 14 15  2  0  0  0  0
 14 16  1  0  0  0  0
 16 17  1  0  0  0  0
 16 18  1  0  0  0  0
 19 20  2  0  0  0  0
 19 21  1  0  0  0  0
 21 22  1  0  0  0  0
 21 23  1  0  0  0  0
 23 24  1  0  0  0  0
 23 25  1  0  0  0  0
 23 26  1  0  0  0  0
M  END
$$$$

  -OEChem-01062216063D

 26 25  0     1  0  0  0  0  0999 V2000
   -2.9473   -3.2597    0.8387 H   0  0  0  0  0  0  0  0  0  0  0  0
   -2.9256   -2.2459    0.4287 C   0  0  0  0  0  0  0  0  0  0  0  0
   -3.7754   -1.6864    0.8269 H   0  0  0  0  0  0  0  0  0  0  0  0
   -3.0137   -2.3056   -0.6589 H   0  0  0  0  0  0  0  0  0  0  0  0
   -1.6275   -1.5576    0.8055 C   0  0  0  0  0  0  0  0  0  0  0  0
   -0.8272   -2.1170    1.5366 O   0  0  0  0  0  0  0  0  0  0  0  0
   -1.3842   -0.2672    0.3798 N   0  0  0  0  0  0  0  0  0  0  0  0
   -2.0686    0.1174   -0.2646 H   0  0  0  0  0  0  0  0  0  0  0  0
   -0.0577    0.3831    0.4350 C   0  0  1  0  0  0  0  0  0  0  0  0
    0.7082   -0.3254    0.0961 H   0  0  0  0  0  0  0  0  0  0  0  0
   -0.0965    1.5848   -0.5349 C   0  0  0  0  0  0  0  0  0  0  0  0
   -0.9530    2.2217   -0.2994 H   0  0  0  0  0  0  0  0  0  0  0  0
    0.8063    2.1913   -0.4182 H   0  0  0  0  0  0  0  0  0  0  0  0
   -0.1483    1.1509   -1.9923 C   0  0  0  0  0  0  0  0  0  0  0  0
    0.5204    0.2372   -2.4342 O   0  0  0  0  0  0  0  0  0  0  0  0
   -0.9868    1.7565   -2.8840 N   0  0  0  0  0  0  0  0  0  0  0  0
   -0.8144    1.5269   -3.8592 H   0  0  0  0  0  0  0  0  0  0  0  0
   -1.3628    2.6680   -2.6444 H   0  0  0  0  0  0  0  0  0  0  0  0
    0.3770    0.8264    1.8592 C   0  0  0  0  0  0  0  0  0  0  0  0
    1.2248    1.6992    2.0024 O   0  0  0  0  0  0  0  0  0  0  0  0
   -0.2714    0.3500    2.9833 N   0  0  0  0  0  0  0  0  0  0  0  0
   -0.7607   -0.5340    2.8386 H   0  0  0  0  0  0  0  0  0  0  0  0
    0.1464    0.6855    4.3389 C   0  0  0  0  0  0  0  0  0  0  0  0
    0.1164    1.7692    4.4928 H   0  0  0  0  0  0  0  0  0  0  0  0
   -0.5235    0.2169    5.0662 H   0  0  0  0  0  0  0  0  0  0  0  0
    1.1655    0.3307    4.5244 H   0  0  0  0  0  0  0  0  0  0  0  0
  1  2  1  0  0  0  0
  2  3  1  0  0  0  0
  2  4  1  0  0  0  0
  2  5  1  0  0  0  0
  5  6  2  0  0  0  0
  5  7  1  0  0  0  0
  7  8  1  0  0  0  0
  7  9  1  0  0  0  0
  9 10  1  0  0  0  0
  9 11  1  0  0  0  0
  9 19  1  0  0  0  0
 11 12  1  0  0  0  0
 11 13  1  0  0  0  0
 11 14  1  0  0  0  0
 14 15  2  0  0  0  0
 14 16  1  0  0  0  0
 16 17  1  0  0  0  0
 16 18  1  0  0  0  0
 19 20  2  0  0  0  0
 19 21  1  0  0  0  0
 21 22  1  0  0  0  0
 21 23  1  0  0  0  0
 23 24  1  0  0  0  0
 23 25  1  0  0  0  0
 23 26  1  0  0  0  0
M  END
$$$$

  -OEChem-01062216063D

 26 25  0     1  0  0  0  0  0999 V2000
   -2.9411   -3.2603    0.8422 H   0  0  0  0  0  0  0  0  0  0  0  0
   -2.9434   -2.2224    0.4974 C   0  0  0  0  0  0  0  0  0  0  0  0
   -3.7366   -1.6797    1.0173 H   0  0  0  0  0  0  0  0  0  0  0  0
   -3.1452   -2.2104   -0.5765 H   0  0  0  0  0  0  0  0  0  0  0  0
   -1.6009   -1.5750    0.7797 C   0  0  0  0  0  0  0  0  0  0  0  0
   -0.7490   -2.1837    1.4072 O   0  0  0  0  0  0  0  0  0  0  0  0
   -1.3637   -0.2775    0.3710 N   0  0  0  0  0  0  0  0  0  0  0  0
   -2.1031    0.1658   -0.1659 H   0  0  0  0  0  0  0  0  0  0  0  0
   -0.0478    0.3931    0.4268 C   0  0  1  0  0  0  0  0  0  0  0  0
    0.7265   -0.3059    0.0875 H   0  0  0  0  0  0  0  0  0  0  0  0
   -0.0945    1.5908   -0.5486 C   0  0  0  0  0  0  0  0  0  0  0  0
   -0.9587    2.2199   -0.3203 H   0  0  0  0  0  0  0  0  0  0  0  0
    0.8017    2.2063   -0.4292 H   0  0  0  0  0  0  0  0  0  0  0  0
   -0.1319    1.1514   -2.0049 C   0  0  0  0  0  0  0  0  0  0  0  0
    0.5511    0.2439   -2.4380 O   0  0  0  0  0  0  0  0  0  0  0  0
   -0.9549    1.7578   -2.9106 N   0  0  0  0  0  0  0  0  0  0  0  0
   -0.7691    1.5262   -3.8828 H   0  0  0  0  0  0  0  0  0  0  0  0
   -1.3370    2.6683   -2.6769 H   0  0  0  0  0  0  0  0  0  0  0  0
    0.3777    0.8255    1.8584 C   0  0  0  0  0  0  0  0  0  0  0  0
    1.0104    1.8595    2.0379 O   0  0  0  0  0  0  0  0  0  0  0  0
   -0.0369    0.1144    2.9688 N   0  0  0  0  0  0  0  0  0  0  0  0
   -0.3803   -0.8283    2.7727 H   0  0  0  0  0  0  0  0  0  0  0  0
    0.3886    0.4287    4.3268 C   0  0  0  0  0  0  0  0  0  0  0  0
    0.0858    1.4454    4.5980 H   0  0  0  0  0  0  0  0  0  0  0  0
   -0.0700   -0.2674    5.0356 H   0  0  0  0  0  0  0  0  0  0  0  0
    1.4771    0.3486    4.4159 H   0  0  0  0  0  0  0  0  0  0  0  0
  1  2  1  0  0  0  0
  2  3  1  0  0  0  0
  2  4  1  0  0  0  0
  2  5  1  0  0  0  0
  5  6  2  0  0  0  0
  5  7  1  0  0  0  0
  7  8  1  0  0  0  0
  7  9  1  0  0  0  0
  9 10  1  0  0  0  0
  9 11  1  0  0  0  0
  9 19  1  0  0  0  0
 11 12  1  0  0  0  0
 11 13  1  0  0  0  0
 11 14  1  0  0  0  0
 14 15  2  0  0  0  0
 14 16  1  0  0  0  0
 16 17  1  0  0  0  0
 16 18  1  0  0  0  0
 19 20  2  0  0  0  0
 19 21  1  0  0  0  0
 21 22  1  0  0  0  0
 21 23  1  0  0  0  0
 23 24  1  0  0  0  0
 23 25  1  0  0  0  0
 23 26  1  0  0  0  0
M  END
$$$$

  -OEChem-01062216063D

 26 25  0     1  0  0  0  0  0999 V2000
   -2.9320   -3.2472    0.9181 H   0  0  0  0  0  0  0  0  0  0  0  0
   -2.9381   -2.2084    0.5759 C   0  0  0  0  0  0  0  0  0  0  0  0
   -3.6840   -1.6532    1.1499 H   0  0  0  0  0  0  0  0  0  0  0  0
   -3.2124   -2.1895   -0.4818 H   0  0  0  0  0  0  0  0  0  0  0  0
   -1.5674   -1.5870    0.7669 C   0  0  0  0  0  0  0  0  0  0  0  0
   -0.6770   -2.2266    1.3052 O   0  0  0  0  0  0  0  0  0  0  0  0
   -1.3395   -0.2862    0.3619 N   0  0  0  0  0  0  0  0  0  0  0  0
   -2.1188    0.1980   -0.0735 H   0  0  0  0  0  0  0  0  0  0  0  0
   -0.0303    0.3951    0.4110 C   0  0  1  0  0  0  0  0  0  0  0  0
    0.7488   -0.2963    0.0673 H   0  0  0  0  0  0  0  0  0  0  0  0
   -0.0832    1.5943   -0.5614 C   0  0  0  0  0  0  0  0  0  0  0  0
   -0.9502    2.2189   -0.3308 H   0  0  0  0  0  0  0  0  0  0  0  0
    0.8108    2.2125   -0.4377 H   0  0  0  0  0  0  0  0  0  0  0  0
   -0.1206    1.1596   -2.0191 C   0  0  0  0  0  0  0  0  0  0  0  0
    0.5663    0.2562   -2.4550 O   0  0  0  0  0  0  0  0  0  0  0  0
   -0.9372    1.7731   -2.9256 N   0  0  0  0  0  0  0  0  0  0  0  0
   -0.7477    1.5470   -3.8984 H   0  0  0  0  0  0  0  0  0  0  0  0
   -1.3234    2.6807   -2.6877 H   0  0  0  0  0  0  0  0  0  0  0  0
    0.3865    0.8204    1.8459 C   0  0  0  0  0  0  0  0  0  0  0  0
    0.7863    1.9556    2.0776 O   0  0  0  0  0  0  0  0  0  0  0  0
    0.2439   -0.0524    2.9071 N   0  0  0  0  0  0  0  0  0  0  0  0
   -0.0030   -1.0149    2.6634 H   0  0  0  0  0  0  0  0  0  0  0  0
    0.6618    0.2476    4.2701 C   0  0  0  0  0  0  0  0  0  0  0  0
    0.1204    1.1182    4.6545 H   0  0  0  0  0  0  0  0  0  0  0  0
    0.4529   -0.6046    4.9237 H   0  0  0  0  0  0  0  0  0  0  0  0
    1.7361    0.4559    4.3042 H   0  0  0  0  0  0  0  0  0  0  0  0
  1  2  1  0  0  0  0
  2  3  1  0  0  0  0
  2  4  1  0  0  0  0
  2  5  1  0  0  0  0
  5  6  2  0  0  0  0
  5  7  1  0  0  0  0
  7  8  1  0  0  0  0
  7  9  1  0  0  0  0
  9 10  1  0  0  0  0
  9 11  1  0  0  0  0
  9 19  1  0  0  0  0
 11 12  1  0  0  0  0
 11 13  1  0  0  0  0
 11 14  1  0  0  0  0
 14 15  2  0  0  0  0
 14 16  1  0  0  0  0
 16 17  1  0  0  0  0
 16 18  1  0  0  0  0
 19 20  2  0  0  0  0
 19 21  1  0  0  0  0
 21 22  1  0  0  0  0
 21 23  1  0  0  0  0
 23 24  1  0  0  0  0
 23 25  1  0  0  0  0
 23 26  1  0  0  0  0
M  END
$$$$

  -OEChem-01062216063D

 26 25  0     1  0  0  0  0  0999 V2000
   -2.8936   -3.2287    1.0242 H   0  0  0  0  0  0  0  0  0  0  0  0
   -2.9071   -2.1936    0.6712 C   0  0  0  0  0  0  0  0  0  0  0  0
   -3.6092   -1.6221    1.2831 H   0  0  0  0  0  0  0  0  0  0  0  0
   -3.2451   -2.1817   -0.3678 H   0  0  0  0  0  0  0  0  0  0  0  0
   -1.5195   -1.5888    0.7719 C   0  0  0  0  0  0  0  0  0  0  0  0
   -0.6025   -2.2406    1.2488 O   0  0  0  0  0  0  0  0  0  0  0  0
   -1.3040   -0.2896    0.3551 N   0  0  0  0  0  0  0  0  0  0  0  0
   -2.1063    0.2171   -0.0067 H   0  0  0  0  0  0  0  0  0  0  0  0
    0.0058    0.3879    0.3798 C   0  0  1  0  0  0  0  0  0  0  0  0
    0.7809   -0.3016    0.0238 H   0  0  0  0  0  0  0  0  0  0  0  0
   -0.0539    1.5933   -0.5826 C   0  0  0  0  0  0  0  0  0  0  0  0
   -0.9141    2.2207   -0.3347 H   0  0  0  0  0  0  0  0  0  0  0  0
    0.8458    2.2040   -0.4621 H   0  0  0  0  0  0  0  0  0  0  0  0
   -0.1183    1.1733   -2.0433 C   0  0  0  0  0  0  0  0  0  0  0  0
    0.5552    0.2690   -2.4983 O   0  0  0  0  0  0  0  0  0  0  0  0
   -0.9433    1.8048   -2.9297 N   0  0  0  0  0  0  0  0  0  0  0  0
   -0.7748    1.5880   -3.9083 H   0  0  0  0  0  0  0  0  0  0  0  0
   -1.3239    2.7097   -2.6731 H   0  0  0  0  0  0  0  0  0  0  0  0
    0.4253    0.8084    1.8120 C   0  0  0  0  0  0  0  0  0  0  0  0
    0.5851    1.9876    2.1063 O   0  0  0  0  0  0  0  0  0  0  0  0
    0.5755   -0.1478    2.7966 N   0  0  0  0  0  0  0  0  0  0  0  0
    0.3763   -1.1143    2.5244 H   0  0  0  0  0  0  0  0  0  0  0  0
    0.9190    0.1482    4.1806 C   0  0  0  0  0  0  0  0  0  0  0  0
    0.1499    0.7777    4.6400 H   0  0  0  0  0  0  0  0  0  0  0  0
    0.9972   -0.7794    4.7556 H   0  0  0  0  0  0  0  0  0  0  0  0
    1.8804    0.6696    4.2334 H   0  0  0  0  0  0  0  0  0  0  0  0
  1  2  1  0  0  0  0
  2  3  1  0  0  0  0
  2  4  1  0  0  0  0
  2  5  1  0  0  0  0
  5  6  2  0  0  0  0
  5  7  1  0  0  0  0
  7  8  1  0  0  0  0
  7  9  1  0  0  0  0
  9 10  1  0  0  0  0
  9 11  1  0  0  0  0
  9 19  1  0  0  0  0
 11 12  1  0  0  0  0
 11 13  1  0  0  0  0
 11 14  1  0  0  0  0
 14 15  2  0  0  0  0
 14 16  1  0  0  0  0
 16 17  1  0  0  0  0
 16 18  1  0  0  0  0
 19 20  2  0  0  0  0
 19 21  1  0  0  0  0
 21 22  1  0  0  0  0
 21 23  1  0  0  0  0
 23 24  1  0  0  0  0
 23 25  1  0  0  0  0
 23 26  1  0  0  0  0
M  END
$$$$

  -OEChem-01062216063D

 26 25  0     1  0  0  0  0  0999 V2000
   -2.8363   -3.2198    1.1053 H   0  0  0  0  0  0  0  0  0  0  0  0
   -2.8665   -2.1901    0.7381 C   0  0  0  0  0  0  0  0  0  0  0  0
   -3.5546   -1.6142    1.3617 H   0  0  0  0  0  0  0  0  0  0  0  0
   -3.2337   -2.1952   -0.2912 H   0  0  0  0  0  0  0  0  0  0  0  0
   -1.4800   -1.5763    0.7899 C   0  0  0  0  0  0  0  0  0  0  0  0
   -0.5433   -2.2170    1.2446 O   0  0  0  0  0  0  0  0  0  0  0  0
   -1.2817   -0.2809    0.3530 N   0  0  0  0  0  0  0  0  0  0  0  0
   -2.0963    0.2337    0.0321 H   0  0  0  0  0  0  0  0  0  0  0  0
    0.0292    0.3900    0.3564 C   0  0  1  0  0  0  0  0  0  0  0  0
    0.8008   -0.2997   -0.0071 H   0  0  0  0  0  0  0  0  0  0  0  0
   -0.0335    1.5989   -0.5998 C   0  0  0  0  0  0  0  0  0  0  0  0
   -0.8877    2.2296   -0.3397 H   0  0  0  0  0  0  0  0  0  0  0  0
    0.8704    2.2038   -0.4823 H   0  0  0  0  0  0  0  0  0  0  0  0
   -0.1212    1.1854   -2.0612 C   0  0  0  0  0  0  0  0  0  0  0  0
    0.5392    0.2773   -2.5276 O   0  0  0  0  0  0  0  0  0  0  0  0
   -0.9526    1.8260   -2.9351 N   0  0  0  0  0  0  0  0  0  0  0  0
   -0.8012    1.6101   -3.9166 H   0  0  0  0  0  0  0  0  0  0  0  0
   -1.3277    2.7307   -2.6700 H   0  0  0  0  0  0  0  0  0  0  0  0
    0.4454    0.8132    1.7851 C   0  0  0  0  0  0  0  0  0  0  0  0
    0.3849    1.9842    2.1429 O   0  0  0  0  0  0  0  0  0  0  0  0
    0.8869   -0.1455    2.6751 N   0  0  0  0  0  0  0  0  0  0  0  0
    0.7402   -1.1165    2.3867 H   0  0  0  0  0  0  0  0  0  0  0  0
    1.1974    0.1341    4.0705 C   0  0  0  0  0  0  0  0  0  0  0  0
    0.3104    0.5059    4.5937 H   0  0  0  0  0  0  0  0  0  0  0  0
    1.5394   -0.7774    4.5698 H   0  0  0  0  0  0  0  0  0  0  0  0
    1.9910    0.8849    4.1431 H   0  0  0  0  0  0  0  0  0  0  0  0
  1  2  1  0  0  0  0
  2  3  1  0  0  0  0
  2  4  1  0  0  0  0
  2  5  1  0  0  0  0
  5  6  2  0  0  0  0
  5  7  1  0  0  0  0
  7  8  1  0  0  0  0
  7  9  1  0  0  0  0
  9 10  1  0  0  0  0
  9 11  1  0  0  0  0
  9 19  1  0  0  0  0
 11 12  1  0  0  0  0
 11 13  1  0  0  0  0
 11 14  1  0  0  0  0
 14 15  2  0  0  0  0
 14 16  1  0  0  0  0
 16 17  1  0  0  0  0
 16 18  1  0  0  0  0
 19 20  2  0  0  0  0
 19 21  1  0  0  0  0
 21 22  1  0  0  0  0
 21 23  1  0  0  0  0
 23 24  1  0  0  0  0
 23 25  1  0  0  0  0
 23 26  1  0  0  0  0
M  END
$$$$

  -OEChem-01062216063D

 26 25  0     1  0  0  0  0  0999 V2000
   -2.7897   -3.2190    1.1686 H   0  0  0  0  0  0  0  0  0  0  0  0
   -2.8369   -2.1946    0.7887 C   0  0  0  0  0  0  0  0  0  0  0  0
   -3.5083   -1.6136    1.4255 H   0  0  0  0  0  0  0  0  0  0  0  0
   -3.2355   -2.2155   -0.2285 H   0  0  0  0  0  0  0  0  0  0  0  0
   -1.4528   -1.5732    0.7892 C   0  0  0  0  0  0  0  0  0  0  0  0
   -0.4960   -2.2017    1.2202 O   0  0  0  0  0  0  0  0  0  0  0  0
   -1.2747   -0.2808    0.3359 N   0  0  0  0  0  0  0  0  0  0  0  0
   -2.1029    0.2484    0.0802 H   0  0  0  0  0  0  0  0  0  0  0  0
    0.0344    0.3887    0.3364 C   0  0  1  0  0  0  0  0  0  0  0  0
    0.8090   -0.2979   -0.0267 H   0  0  0  0  0  0  0  0  0  0  0  0
   -0.0260    1.6018   -0.6123 C   0  0  0  0  0  0  0  0  0  0  0  0
   -0.8800    2.2318   -0.3492 H   0  0  0  0  0  0  0  0  0  0  0  0
    0.8783    2.2044   -0.4888 H   0  0  0  0  0  0  0  0  0  0  0  0
   -0.1175    1.1971   -2.0759 C   0  0  0  0  0  0  0  0  0  0  0  0
    0.5396    0.2894   -2.5481 O   0  0  0  0  0  0  0  0  0  0  0  0
   -0.9421    1.8515   -2.9462 N   0  0  0  0  0  0  0  0  0  0  0  0
   -0.7924    1.6434   -3.9296 H   0  0  0  0  0  0  0  0  0  0  0  0
   -1.3179    2.7532   -2.6720 H   0  0  0  0  0  0  0  0  0  0  0  0
    0.4301    0.8166    1.7665 C   0  0  0  0  0  0  0  0  0  0  0  0
    0.1526    1.9335    2.1893 O   0  0  0  0  0  0  0  0  0  0  0  0
    1.1444   -0.0602    2.5588 N   0  0  0  0  0  0  0  0  0  0  0  0
    1.1279   -1.0346    2.2510 H   0  0  0  0  0  0  0  0  0  0  0  0
    1.4792    0.2218    3.9484 C   0  0  0  0  0  0  0  0  0  0  0  0
    0.5693    0.3400    4.5459 H   0  0  0  0  0  0  0  0  0  0  0  0
    2.0674   -0.5996    4.3685 H   0  0  0  0  0  0  0  0  0  0  0  0
    2.0710    1.1403    4.0210 H   0  0  0  0  0  0  0  0  0  0  0  0
  1  2  1  0  0  0  0
  2  3  1  0  0  0  0
  2  4  1  0  0  0  0
  2  5  1  0  0  0  0
  5  6  2  0  0  0  0
  5  7  1  0  0  0  0
  7  8  1  0  0  0  0
  7  9  1  0  0  0  0
  9 10  1  0  0  0  0
  9 11  1  0  0  0  0
  9 19  1  0  0  0  0
 11 12  1  0  0  0  0
 11 13  1  0  0  0  0
 11 14  1  0  0  0  0
 14 15  2  0  0  0  0
 14 16  1  0  0  0  0
 16 17  1  0  0  0  0
 16 18  1  0  0  0  0
 19 20  2  0  0  0  0
 19 21  1  0  0  0  0
 21 22  1  0  0  0  0
 21 23  1  0  0  0  0
 23 24  1  0  0  0  0
 23 25  1  0  0  0  0
 23 26  1  0  0  0  0
M  END
$$$$

  -OEChem-01062216063D

 26 25  0     1  0  0  0  0  0999 V2000
   -2.7662   -3.2139    1.2270 H   0  0  0  0  0  0  0  0  0  0  0  0
   -2.8234   -2.1930    0.8390 C   0  0  0  0  0  0  0  0  0  0  0  0
   -3.4526   -1.5980    1.5055 H   0  0  0  0  0  0  0  0  0  0  0  0
   -3.2778   -2.2192   -0.1544 H   0  0  0  0  0  0  0  0  0  0  0  0
   -1.4352   -1.5868    0.7562 C   0  0  0  0  0  0  0  0  0  0  0  0
   -0.4610   -2.2265    1.1262 O   0  0  0  0  0  0  0  0  0  0  0  0
   -1.2729   -0.2930    0.3017 N   0  0  0  0  0  0  0  0  0  0  0  0
   -2.1125    0.2638    0.1728 H   0  0  0  0  0  0  0  0  0  0  0  0
    0.0320    0.3824    0.3152 C   0  0  1  0  0  0  0  0  0  0  0  0
    0.8120   -0.2981   -0.0476 H   0  0  0  0  0  0  0  0  0  0  0  0
   -0.0249    1.6041   -0.6217 C   0  0  0  0  0  0  0  0  0  0  0  0
   -0.8848    2.2269   -0.3606 H   0  0  0  0  0  0  0  0  0  0  0  0
    0.8747    2.2104   -0.4838 H   0  0  0  0  0  0  0  0  0  0  0  0
   -0.1039    1.2125   -2.0900 C   0  0  0  0  0  0  0  0  0  0  0  0
    0.5608    0.3111   -2.5637 O   0  0  0  0  0  0  0  0  0  0  0  0
   -0.9184    1.8747   -2.9640 N   0  0  0  0  0  0  0  0  0  0  0  0
   -0.7650    1.6717   -3.9478 H   0  0  0  0  0  0  0  0  0  0  0  0
   -1.3099    2.7679   -2.6847 H   0  0  0  0  0  0  0  0  0  0  0  0
    0.4092    0.8110    1.7480 C   0  0  0  0  0  0  0  0  0  0  0  0
   -0.0951    1.8108    2.2472 O   0  0  0  0  0  0  0  0  0  0  0  0
    1.3671    0.1007    2.4447 N   0  0  0  0  0  0  0  0  0  0  0  0
    1.5726   -0.8305    2.0844 H   0  0  0  0  0  0  0  0  0  0  0  0
    1.7205    0.3999    3.8264 C   0  0  0  0  0  0  0  0  0  0  0  0
    0.8530    0.2681    4.4814 H   0  0  0  0  0  0  0  0  0  0  0  0
    2.5173   -0.2690    4.1653 H   0  0  0  0  0  0  0  0  0  0  0  0
    2.0767    1.4316    3.9162 H   0  0  0  0  0  0  0  0  0  0  0  0
  1  2  1  0  0  0  0
  2  3  1  0  0  0  0
  2  4  1  0  0  0  0
  2  5  1  0  0  0  0
  5  6  2  0  0  0  0
  5  7  1  0  0  0  0
  7  8  1  0  0  0  0
  7  9  1  0  0  0  0
  9 10  1  0  0  0  0
  9 11  1  0  0  0  0
  9 19  1  0  0  0  0
 11 12  1  0  0  0  0
 11 13  1  0  0  0  0
 11 14  1  0  0  0  0
 14 15  2  0  0  0  0
 14 16  1  0  0  0  0
 16 17  1  0  0  0  0
 16 18  1  0  0  0  0
 19 20  2  0  0  0  0
 19 21  1  0  0  0  0
 21 22  1  0  0  0  0
 21 23  1  0  0  0  0
 23 24  1  0  0  0  0
 23 25  1  0  0  0  0
 23 26  1  0  0  0  0
M  END
$$$$

  -OEChem-01062216063D

 26 25  0     1  0  0  0  0  0999 V2000
   -2.7583   -3.2105    1.2602 H   0  0  0  0  0  0  0  0  0  0  0  0
   -2.8204   -2.1905    0.8703 C   0  0  0  0  0  0  0  0  0  0  0  0
   -3.4146   -1.5855    1.5593 H   0  0  0  0  0  0  0  0  0  0  0  0
   -3.3156   -2.2154   -0.1035 H   0  0  0  0  0  0  0  0  0  0  0  0
   -1.4304   -1.5999    0.7281 C   0  0  0  0  0  0  0  0  0  0  0  0
   -0.4495   -2.2563    1.0450 O   0  0  0  0  0  0  0  0  0  0  0  0
   -1.2751   -0.3053    0.2738 N   0  0  0  0  0  0  0  0  0  0  0  0
   -2.1144    0.2657    0.2371 H   0  0  0  0  0  0  0  0  0  0  0  0
    0.0277    0.3739    0.3005 C   0  0  1  0  0  0  0  0  0  0  0  0
    0.8102   -0.3043   -0.0602 H   0  0  0  0  0  0  0  0  0  0  0  0
   -0.0270    1.6022   -0.6261 C   0  0  0  0  0  0  0  0  0  0  0  0
   -0.8906    2.2201   -0.3649 H   0  0  0  0  0  0  0  0  0  0  0  0
    0.8702    2.2098   -0.4791 H   0  0  0  0  0  0  0  0  0  0  0  0
   -0.0960    1.2214   -2.0978 C   0  0  0  0  0  0  0  0  0  0  0  0
    0.5750    0.3252   -2.5729 O   0  0  0  0  0  0  0  0  0  0  0  0
   -0.9021    1.8910   -2.9738 N   0  0  0  0  0  0  0  0  0  0  0  0
   -0.7466    1.6915   -3.9580 H   0  0  0  0  0  0  0  0  0  0  0  0
   -1.3037    2.7786   -2.6909 H   0  0  0  0  0  0  0  0  0  0  0  0
    0.3954    0.8061    1.7339 C   0  0  0  0  0  0  0  0  0  0  0  0
   -0.2933    1.6393    2.3127 O   0  0  0  0  0  0  0  0  0  0  0  0
    1.5427    0.3247    2.3347 N   0  0  0  0  0  0  0  0  0  0  0  0
    1.9716   -0.4887    1.8987 H   0  0  0  0  0  0  0  0  0  0  0  0
    1.9113    0.6505    3.7068 C   0  0  0  0  0  0  0  0  0  0  0  0
    1.1440    0.2982    4.4040 H   0  0  0  0  0  0  0  0  0  0  0  0
    2.8613    0.1736    3.9657 H   0  0  0  0  0  0  0  0  0  0  0  0
    2.0266    1.7329    3.8263 H   0  0  0  0  0  0  0  0  0  0  0  0
  1  2  1  0  0  0  0
  2  3  1  0  0  0  0
  2  4  1  0  0  0  0
  2  5  1  0  0  0  0
  5  6  2  0  0  0  0
  5  7  1  0  0  0  0
  7  8  1  0  0  0  0
  7  9  1  0  0  0  0
  9 10  1  0  0  0  0
  9 11  1  0  0  0  0
  9 19  1  0  0  0  0
 11 12  1  0  0  0  0
 11 13  1  0  0  0  0
 11 14  1  0  0  0  0
 14 15  2  0  0  0  0
 14 16  1  0  0  0  0
 16 17  1  0  0  0  0
 16 18  1  0  0  0  0
 19 20  2  0  0  0  0
 19 21  1  0  0  0  0
 21 22  1  0  0  0  0
 21 23  1  0  0  0  0
 23 24  1  0  0  0  0
 23 25  1  0  0  0  0
 23 26  1  0  0  0  0
M  END
$$$$

  -OEChem-01062216063D

 26 25  0     1  0  0  0  0  0999 V2000
   -2.7587   -3.2068    1.2753 H   0  0  0  0  0  0  0  0  0  0  0  0
   -2.8221   -2.1870    0.8854 C   0  0  0  0  0  0  0  0  0  0  0  0
   -3.3923   -1.5759    1.5893 H   0  0  0  0  0  0  0  0  0  0  0  0
   -3.3430   -2.2088   -0.0749 H   0  0  0  0  0  0  0  0  0  0  0  0
   -1.4309   -1.6093    0.7058 C   0  0  0  0  0  0  0  0  0  0  0  0
   -0.4488   -2.2797    0.9875 O   0  0  0  0  0  0  0  0  0  0  0  0
   -1.2780   -0.3140    0.2520 N   0  0  0  0  0  0  0  0  0  0  0  0
   -2.1146    0.2622    0.2657 H   0  0  0  0  0  0  0  0  0  0  0  0
    0.0240    0.3673    0.2950 C   0  0  1  0  0  0  0  0  0  0  0  0
    0.8100   -0.3101   -0.0601 H   0  0  0  0  0  0  0  0  0  0  0  0
   -0.0288    1.6002   -0.6242 C   0  0  0  0  0  0  0  0  0  0  0  0
   -0.8968    2.2126   -0.3648 H   0  0  0  0  0  0  0  0  0  0  0  0
    0.8646    2.2112   -0.4681 H   0  0  0  0  0  0  0  0  0  0  0  0
   -0.0854    1.2274   -2.0987 C   0  0  0  0  0  0  0  0  0  0  0  0
    0.5932    0.3366   -2.5729 O   0  0  0  0  0  0  0  0  0  0  0  0
   -0.8911    1.8956   -2.9765 N   0  0  0  0  0  0  0  0  0  0  0  0
   -0.7397    1.6951   -3.9612 H   0  0  0  0  0  0  0  0  0  0  0  0
   -1.3119    2.7735   -2.6917 H   0  0  0  0  0  0  0  0  0  0  0  0
    0.3819    0.8041    1.7295 C   0  0  0  0  0  0  0  0  0  0  0  0
   -0.4309    1.4439    2.3879 O   0  0  0  0  0  0  0  0  0  0  0  0
    1.6517    0.5879    2.2305 N   0  0  0  0  0  0  0  0  0  0  0  0
    2.2447   -0.0550    1.7118 H   0  0  0  0  0  0  0  0  0  0  0  0
    2.0392    0.9513    3.5878 C   0  0  0  0  0  0  0  0  0  0  0  0
    1.4236    0.4158    4.3183 H   0  0  0  0  0  0  0  0  0  0  0  0
    3.0882    0.6941    3.7630 H   0  0  0  0  0  0  0  0  0  0  0  0
    1.9181    2.0281    3.7459 H   0  0  0  0  0  0  0  0  0  0  0  0
  1  2  1  0  0  0  0
  2  3  1  0  0  0  0
  2  4  1  0  0  0  0
  2  5  1  0  0  0  0
  5  6  2  0  0  0  0
  5  7  1  0  0  0  0
  7  8  1  0  0  0  0
  7  9  1  0  0  0  0
  9 10  1  0  0  0  0
  9 11  1  0  0  0  0
  9 19  1  0  0  0  0
 11 12  1  0  0  0  0
 11 13  1  0  0  0  0
 11 14  1  0  0  0  0
 14 15  2  0  0  0  0
 14 16  1  0  0  0  0
 16 17  1  0  0  0  0
 16 18  1  0  0  0  0
 19 20  2  0  0  0  0
 19 21  1  0  0  0  0
 21 22  1  0  0  0  0
 21 23  1  0  0  0  0
 23 24  1  0  0  0  0
 23 25  1  0  0  0  0
 23 26  1  0  0  0  0
M  END
$$$$

  -OEChem-01062216063D

 26 25  0     1  0  0  0  0  0999 V2000
   -2.7544   -3.2039    1.2952 H   0  0  0  0  0  0  0  0  0  0  0  0
   -2.8212   -2.1840    0.9064 C   0  0  0  0  0  0  0  0  0  0  0  0
   -3.3627   -1.5675    1.6280 H   0  0  0  0  0  0  0  0  0  0  0  0
   -3.3728   -2.2017   -0.0365 H   0  0  0  0  0  0  0  0  0  0  0  0
   -1.4314   -1.6185    0.6823 C   0  0  0  0  0  0  0  0  0  0  0  0
   -0.4481   -2.3017    0.9254 O   0  0  0  0  0  0  0  0  0  0  0  0
   -1.2830   -0.3219    0.2300 N   0  0  0  0  0  0  0  0  0  0  0  0
   -2.1166    0.2555    0.2901 H   0  0  0  0  0  0  0  0  0  0  0  0
    0.0183    0.3612    0.2906 C   0  0  1  0  0  0  0  0  0  0  0  0
    0.8095   -0.3140   -0.0576 H   0  0  0  0  0  0  0  0  0  0  0  0
   -0.0321    1.5979   -0.6229 C   0  0  0  0  0  0  0  0  0  0  0  0
   -0.9051    2.2047   -0.3677 H   0  0  0  0  0  0  0  0  0  0  0  0
    0.8572    2.2126   -0.4580 H   0  0  0  0  0  0  0  0  0  0  0  0
   -0.0747    1.2322   -2.0995 C   0  0  0  0  0  0  0  0  0  0  0  0
    0.6123    0.3467   -2.5712 O   0  0  0  0  0  0  0  0  0  0  0  0
   -0.8749    1.9023   -2.9806 N   0  0  0  0  0  0  0  0  0  0  0  0
   -0.7188    1.7058   -3.9653 H   0  0  0  0  0  0  0  0  0  0  0  0
   -1.3121    2.7711   -2.6929 H   0  0  0  0  0  0  0  0  0  0  0  0
    0.3666    0.8008    1.7271 C   0  0  0  0  0  0  0  0  0  0  0  0
   -0.5157    1.2280    2.4639 O   0  0  0  0  0  0  0  0  0  0  0  0
    1.6864    0.8736    2.1322 N   0  0  0  0  0  0  0  0  0  0  0  0
    2.3778    0.4263    1.5361 H   0  0  0  0  0  0  0  0  0  0  0  0
    2.0806    1.2787    3.4757 C   0  0  0  0  0  0  0  0  0  0  0  0
    1.6584    0.5958    4.2204 H   0  0  0  0  0  0  0  0  0  0  0  0
    3.1705    1.2647    3.5703 H   0  0  0  0  0  0  0  0  0  0  0  0
    1.7294    2.2937    3.6889 H   0  0  0  0  0  0  0  0  0  0  0  0
  1  2  1  0  0  0  0
  2  3  1  0  0  0  0
  2  4  1  0  0  0  0
  2  5  1  0  0  0  0
  5  6  2  0  0  0  0
  5  7  1  0  0  0  0
  7  8  1  0  0  0  0
  7  9  1  0  0  0  0
  9 10  1  0  0  0  0
  9 11  1  0  0  0  0
  9 19  1  0  0  0  0
 11 12  1  0  0  0  0
 11 13  1  0  0  0  0
 11 14  1  0  0  0  0
 14 15  2  0  0  0  0
 14 16  1  0  0  0  0
 16 17  1  0  0  0  0
 16 18  1  0  0  0  0
 19 20  2  0  0  0  0
 19 21  1  0  0  0  0
 21 22  1  0  0  0  0
 21 23  1  0  0  0  0
 23 24  1  0  0  0  0
 23 25  1  0  0  0  0
 23 26  1  0  0  0  0
M  END
$$$$

  -OEChem-01062216063D

 26 25  0     1  0  0  0  0  0999 V2000
   -2.7574   -3.1673    1.2515 H   0  0  0  0  0  0  0  0  0  0  0  0
   -2.8173   -2.1381    0.8866 C   0  0  0  0  0  0  0  0  0  0  0  0
   -3.3207   -1.5271    1.6400 H   0  0  0  0  0  0  0  0  0  0  0  0
   -3.4017   -2.1249   -0.0364 H   0  0  0  0  0  0  0  0  0  0  0  0
   -1.4251   -1.5942    0.6264 C   0  0  0  0  0  0  0  0  0  0  0  0
   -0.4487   -2.3019    0.8215 O   0  0  0  0  0  0  0  0  0  0  0  0
   -1.2699   -0.2923    0.1900 N   0  0  0  0  0  0  0  0  0  0  0  0
   -2.0945    0.2890    0.3061 H   0  0  0  0  0  0  0  0  0  0  0  0
    0.0357    0.3812    0.2854 C   0  0  1  0  0  0  0  0  0  0  0  0
    0.8313   -0.2947   -0.0516 H   0  0  0  0  0  0  0  0  0  0  0  0
    0.0027    1.6230   -0.6246 C   0  0  0  0  0  0  0  0  0  0  0  0
   -0.8733    2.2306   -0.3821 H   0  0  0  0  0  0  0  0  0  0  0  0
    0.8890    2.2370   -0.4450 H   0  0  0  0  0  0  0  0  0  0  0  0
   -0.0129    1.2657   -2.1044 C   0  0  0  0  0  0  0  0  0  0  0  0
    0.6829    0.3826   -2.5670 O   0  0  0  0  0  0  0  0  0  0  0  0
   -0.8115    1.9253   -2.9950 N   0  0  0  0  0  0  0  0  0  0  0  0
   -0.8737    1.5209   -3.9253 H   0  0  0  0  0  0  0  0  0  0  0  0
   -1.5419    2.5390   -2.6514 H   0  0  0  0  0  0  0  0  0  0  0  0
    0.3652    0.8051    1.7333 C   0  0  0  0  0  0  0  0  0  0  0  0
   -0.5396    0.9990    2.5384 O   0  0  0  0  0  0  0  0  0  0  0  0
    1.6576    1.1616    2.0735 N   0  0  0  0  0  0  0  0  0  0  0  0
    2.3931    0.9235    1.4136 H   0  0  0  0  0  0  0  0  0  0  0  0
    2.0347    1.5930    3.4141 C   0  0  0  0  0  0  0  0  0  0  0  0
    1.8233    0.8041    4.1436 H   0  0  0  0  0  0  0  0  0  0  0  0
    3.1041    1.8222    3.4514 H   0  0  0  0  0  0  0  0  0  0  0  0
    1.4797    2.4934    3.6978 H   0  0  0  0  0  0  0  0  0  0  0  0
  1  2  1  0  0  0  0
  2  3  1  0  0  0  0
  2  4  1  0  0  0  0
  2  5  1  0  0  0  0
  5  6  2  0  0  0  0
  5  7  1  0  0  0  0
  7  8  1  0  0  0  0
  7  9  1  0  0  0  0
  9 10  1  0  0  0  0
  9 11  1  0  0  0  0
  9 19  1  0  0  0  0
 11 12  1  0  0  0  0
 11 13  1  0  0  0  0
 11 14  1  0  0  0  0
 14 15  2  0  0  0  0
 14 16  1  0  0  0  0
 16 17  1  0  0  0  0
 16 18  1  0  0  0  0
 19 20  2  0  0  0  0
 19 21  1  0  0  0  0
 21 22  1  0  0  0  0
 21 23  1  0  0  0  0
 23 24  1  0  0  0  0
 23 25  1  0  0  0  0
 23 26  1  0  0  0  0
M  END
$$$$

  -OEChem-01062216063D

 26 25  0     1  0  0  0  0  0999 V2000
   -2.7099   -3.2422    1.2272 H   0  0  0  0  0  0  0  0  0  0  0  0
   -2.7917   -2.1906    0.9389 C   0  0  0  0  0  0  0  0  0  0  0  0
   -3.2190   -1.6299    1.7738 H   0  0  0  0  0  0  0  0  0  0  0  0
   -3.4553   -2.1122    0.0747 H   0  0  0  0  0  0  0  0  0  0  0  0
   -1.4225   -1.6371    0.5942 C   0  0  0  0  0  0  0  0  0  0  0  0
   -0.4389   -2.3602    0.6509 O   0  0  0  0  0  0  0  0  0  0  0  0
   -1.2941   -0.3237    0.1806 N   0  0  0  0  0  0  0  0  0  0  0  0
   -2.1278    0.2383    0.3172 H   0  0  0  0  0  0  0  0  0  0  0  0
    0.0031    0.3664    0.2940 C   0  0  1  0  0  0  0  0  0  0  0  0
    0.7550   -0.1851   -0.2839 H   0  0  0  0  0  0  0  0  0  0  0  0
   -0.1724    1.7796   -0.2989 C   0  0  0  0  0  0  0  0  0  0  0  0
   -1.0318    2.2668    0.1697 H   0  0  0  0  0  0  0  0  0  0  0  0
    0.7083    2.3904   -0.0853 H   0  0  0  0  0  0  0  0  0  0  0  0
   -0.3526    1.7609   -1.8107 C   0  0  0  0  0  0  0  0  0  0  0  0
    0.3081    1.0423   -2.5352 O   0  0  0  0  0  0  0  0  0  0  0  0
   -1.2491    2.5794   -2.4370 N   0  0  0  0  0  0  0  0  0  0  0  0
   -1.1848    2.6190   -3.4505 H   0  0  0  0  0  0  0  0  0  0  0  0
   -1.6746    3.3411   -1.9200 H   0  0  0  0  0  0  0  0  0  0  0  0
    0.5307    0.4604    1.7491 C   0  0  0  0  0  0  0  0  0  0  0  0
   -0.2190    0.2528    2.6972 O   0  0  0  0  0  0  0  0  0  0  0  0
    1.7427    1.0795    2.0034 N   0  0  0  0  0  0  0  0  0  0  0  0
    2.3718    1.2020    1.2150 H   0  0  0  0  0  0  0  0  0  0  0  0
    2.2703    1.2694    3.3499 C   0  0  0  0  0  0  0  0  0  0  0  0
    2.3811    0.3053    3.8574 H   0  0  0  0  0  0  0  0  0  0  0  0
    3.2508    1.7531    3.3075 H   0  0  0  0  0  0  0  0  0  0  0  0
    1.5991    1.9027    3.9395 H   0  0  0  0  0  0  0  0  0  0  0  0
  1  2  1  0  0  0  0
  2  3  1  0  0  0  0
  2  4  1  0  0  0  0
  2  5  1  0  0  0  0
  5  6  2  0  0  0  0
  5  7  1  0  0  0  0
  7  8  1  0  0  0  0
  7  9  1  0  0  0  0
  9 10  1  0  0  0  0
  9 11  1  0  0  0  0
  9 19  1  0  0  0  0
 11 12  1  0  0  0  0
 11 13  1  0  0  0  0
 11 14  1  0  0  0  0
 14 15  2  0  0  0  0
 14 16  1  0  0  0  0
 16 17  1  0  0  0  0
 16 18  1  0  0  0  0
 19 20  2  0  0  0  0
 19 21  1  0  0  0  0
 21 22  1  0  0  0  0
 21 23  1  0  0  0  0
 23 24  1  0  0  0  0
 23 25  1  0  0  0  0
 23 26  1  0  0  0  0
M  END
$$$$

  -OEChem-01062216063D

 26 25  0     1  0  0  0  0  0999 V2000
   -2.7214   -3.2370    1.1812 H   0  0  0  0  0  0  0  0  0  0  0  0
   -2.7923   -2.1732    0.9377 C   0  0  0  0  0  0  0  0  0  0  0  0
   -3.1863   -1.6393    1.8059 H   0  0  0  0  0  0  0  0  0  0  0  0
   -3.4778   -2.0488    0.0963 H   0  0  0  0  0  0  0  0  0  0  0  0
   -1.4227   -1.6290    0.5785 C   0  0  0  0  0  0  0  0  0  0  0  0
   -0.4506   -2.3692    0.5817 O   0  0  0  0  0  0  0  0  0  0  0  0
   -1.2882   -0.3107    0.1813 N   0  0  0  0  0  0  0  0  0  0  0  0
   -2.1191    0.2509    0.3330 H   0  0  0  0  0  0  0  0  0  0  0  0
    0.0109    0.3771    0.3022 C   0  0  1  0  0  0  0  0  0  0  0  0
    0.7636   -0.1721   -0.2766 H   0  0  0  0  0  0  0  0  0  0  0  0
   -0.1811    1.7851   -0.3055 C   0  0  0  0  0  0  0  0  0  0  0  0
   -1.0455    2.2684    0.1576 H   0  0  0  0  0  0  0  0  0  0  0  0
    0.6915    2.4105   -0.1059 H   0  0  0  0  0  0  0  0  0  0  0  0
   -0.3579    1.7496   -1.8179 C   0  0  0  0  0  0  0  0  0  0  0  0
    0.3128    1.0328   -2.5344 O   0  0  0  0  0  0  0  0  0  0  0  0
   -1.2694    2.5444   -2.4533 N   0  0  0  0  0  0  0  0  0  0  0  0
   -1.2136    2.5671   -3.4681 H   0  0  0  0  0  0  0  0  0  0  0  0
   -1.7133    3.3020   -1.9459 H   0  0  0  0  0  0  0  0  0  0  0  0
    0.5504    0.4617    1.7588 C   0  0  0  0  0  0  0  0  0  0  0  0
   -0.1058    0.0262    2.6983 O   0  0  0  0  0  0  0  0  0  0  0  0
    1.5867    1.3288    2.0658 N   0  0  0  0  0  0  0  0  0  0  0  0
    2.1623    1.6485    1.2925 H   0  0  0  0  0  0  0  0  0  0  0  0
    2.0721    1.5430    3.4250 C   0  0  0  0  0  0  0  0  0  0  0  0
    2.4162    0.5999    3.8624 H   0  0  0  0  0  0  0  0  0  0  0  0
    2.9083    2.2486    3.4209 H   0  0  0  0  0  0  0  0  0  0  0  0
    1.2774    1.9548    4.0560 H   0  0  0  0  0  0  0  0  0  0  0  0
  1  2  1  0  0  0  0
  2  3  1  0  0  0  0
  2  4  1  0  0  0  0
  2  5  1  0  0  0  0
  5  6  2  0  0  0  0
  5  7  1  0  0  0  0
  7  8  1  0  0  0  0
  7  9  1  0  0  0  0
  9 10  1  0  0  0  0
  9 11  1  0  0  0  0
  9 19  1  0  0  0  0
 11 12  1  0  0  0  0
 11 13  1  0  0  0  0
 11 14  1  0  0  0  0
 14 15  2  0  0  0  0
 14 16  1  0  0  0  0
 16 17  1  0  0  0  0
 16 18  1  0  0  0  0
 19 20  2  0  0  0  0
 19 21  1  0  0  0  0
 21 22  1  0  0  0  0
 21 23  1  0  0  0  0
 23 24  1  0  0  0  0
 23 25  1  0  0  0  0
 23 26  1  0  0  0  0
M  END
$$$$

  -OEChem-01062216063D

 26 25  0     1  0  0  0  0  0999 V2000
   -2.7120   -3.2297    1.1846 H   0  0  0  0  0  0  0  0  0  0  0  0
   -2.7826   -2.1608    0.9647 C   0  0  0  0  0  0  0  0  0  0  0  0
   -3.1380   -1.6419    1.8583 H   0  0  0  0  0  0  0  0  0  0  0  0
   -3.4990   -2.0145    0.1531 H   0  0  0  0  0  0  0  0  0  0  0  0
   -1.4226   -1.6216    0.5631 C   0  0  0  0  0  0  0  0  0  0  0  0
   -0.4630   -2.3746    0.4991 O   0  0  0  0  0  0  0  0  0  0  0  0
   -1.2898   -0.2982    0.1804 N   0  0  0  0  0  0  0  0  0  0  0  0
   -2.1215    0.2581    0.3456 H   0  0  0  0  0  0  0  0  0  0  0  0
    0.0062    0.3979    0.3056 C   0  0  1  0  0  0  0  0  0  0  0  0
    0.7621   -0.1505   -0.2701 H   0  0  0  0  0  0  0  0  0  0  0  0
   -0.1939    1.7964   -0.3253 C   0  0  0  0  0  0  0  0  0  0  0  0
   -1.0639    2.2814    0.1255 H   0  0  0  0  0  0  0  0  0  0  0  0
    0.6740    2.4309   -0.1370 H   0  0  0  0  0  0  0  0  0  0  0  0
   -0.3581    1.7384   -1.8390 C   0  0  0  0  0  0  0  0  0  0  0  0
    0.3237    1.0188   -2.5416 O   0  0  0  0  0  0  0  0  0  0  0  0
   -1.2692    2.5190   -2.4921 N   0  0  0  0  0  0  0  0  0  0  0  0
   -1.2088    2.5251   -3.5068 H   0  0  0  0  0  0  0  0  0  0  0  0
   -1.7282    3.2769   -1.9988 H   0  0  0  0  0  0  0  0  0  0  0  0
    0.5555    0.4781    1.7636 C   0  0  0  0  0  0  0  0  0  0  0  0
    0.0670   -0.1923    2.6648 O   0  0  0  0  0  0  0  0  0  0  0  0
    1.3547    1.5403    2.1584 N   0  0  0  0  0  0  0  0  0  0  0  0
    1.8075    2.0737    1.4233 H   0  0  0  0  0  0  0  0  0  0  0  0
    1.8088    1.7341    3.5319 C   0  0  0  0  0  0  0  0  0  0  0  0
    2.3807    0.8645    3.8728 H   0  0  0  0  0  0  0  0  0  0  0  0
    2.4504    2.6180    3.5973 H   0  0  0  0  0  0  0  0  0  0  0  0
    0.9548    1.8786    4.2024 H   0  0  0  0  0  0  0  0  0  0  0  0
  1  2  1  0  0  0  0
  2  3  1  0  0  0  0
  2  4  1  0  0  0  0
  2  5  1  0  0  0  0
  5  6  2  0  0  0  0
  5  7  1  0  0  0  0
  7  8  1  0  0  0  0
  7  9  1  0  0  0  0
  9 10  1  0  0  0  0
  9 11  1  0  0  0  0
  9 19  1  0  0  0  0
 11 12  1  0  0  0  0
 11 13  1  0  0  0  0
 11 14  1  0  0  0  0
 14 15  2  0  0  0  0
 14 16  1  0  0  0  0
 16 17  1  0  0  0  0
 16 18  1  0  0  0  0
 19 20  2  0  0  0  0
 19 21  1  0  0  0  0
 21 22  1  0  0  0  0
 21 23  1  0  0  0  0
 23 24  1  0  0  0  0
 23 25  1  0  0  0  0
 23 26  1  0  0  0  0
M  END
$$$$

  -OEChem-01062216063D

 26 25  0     1  0  0  0  0  0999 V2000
   -2.7099   -3.2124    1.2356 H   0  0  0  0  0  0  0  0  0  0  0  0
   -2.7860   -2.1526    0.9768 C   0  0  0  0  0  0  0  0  0  0  0  0
   -3.1527   -1.6053    1.8484 H   0  0  0  0  0  0  0  0  0  0  0  0
   -3.4963   -2.0403    0.1544 H   0  0  0  0  0  0  0  0  0  0  0  0
   -1.4262   -1.6191    0.5663 C   0  0  0  0  0  0  0  0  0  0  0  0
   -0.4821   -2.3848    0.4557 O   0  0  0  0  0  0  0  0  0  0  0  0
   -1.2916   -0.2938    0.1908 N   0  0  0  0  0  0  0  0  0  0  0  0
   -2.1279    0.2583    0.3456 H   0  0  0  0  0  0  0  0  0  0  0  0
   -0.0020    0.4155    0.3134 C   0  0  1  0  0  0  0  0  0  0  0  0
    0.7580   -0.1348   -0.2556 H   0  0  0  0  0  0  0  0  0  0  0  0
   -0.2016    1.8049   -0.3376 C   0  0  0  0  0  0  0  0  0  0  0  0
   -1.0739    2.2965    0.1009 H   0  0  0  0  0  0  0  0  0  0  0  0
    0.6691    2.4381   -0.1561 H   0  0  0  0  0  0  0  0  0  0  0  0
   -0.3542    1.7274   -1.8520 C   0  0  0  0  0  0  0  0  0  0  0  0
    0.3339    1.0021   -2.5419 O   0  0  0  0  0  0  0  0  0  0  0  0
   -1.2609    2.4990   -2.5217 N   0  0  0  0  0  0  0  0  0  0  0  0
   -1.1895    2.4935   -3.5357 H   0  0  0  0  0  0  0  0  0  0  0  0
   -1.7235    3.2636   -2.0426 H   0  0  0  0  0  0  0  0  0  0  0  0
    0.5516    0.4992    1.7708 C   0  0  0  0  0  0  0  0  0  0  0  0
    0.3267   -0.3746    2.5963 O   0  0  0  0  0  0  0  0  0  0  0  0
    1.0699    1.6856    2.2691 N   0  0  0  0  0  0  0  0  0  0  0  0
    1.2970    2.4125    1.5995 H   0  0  0  0  0  0  0  0  0  0  0  0
    1.5161    1.8517    3.6488 C   0  0  0  0  0  0  0  0  0  0  0  0
    2.3120    1.1368    3.8827 H   0  0  0  0  0  0  0  0  0  0  0  0
    1.9036    2.8634    3.8024 H   0  0  0  0  0  0  0  0  0  0  0  0
    0.6841    1.6927    4.3431 H   0  0  0  0  0  0  0  0  0  0  0  0
  1  2  1  0  0  0  0
  2  3  1  0  0  0  0
  2  4  1  0  0  0  0
  2  5  1  0  0  0  0
  5  6  2  0  0  0  0
  5  7  1  0  0  0  0
  7  8  1  0  0  0  0
  7  9  1  0  0  0  0
  9 10  1  0  0  0  0
  9 11  1  0  0  0  0
  9 19  1  0  0  0  0
 11 12  1  0  0  0  0
 11 13  1  0  0  0  0
 11 14  1  0  0  0  0
 14 15  2  0  0  0  0
 14 16  1  0  0  0  0
 16 17  1  0  0  0  0
 16 18  1  0  0  0  0
 19 20  2  0  0  0  0
 19 21  1  0  0  0  0
 21 22  1  0  0  0  0
 21 23  1  0  0  0  0
 23 24  1  0  0  0  0
 23 25  1  0  0  0  0
 23 26  1  0  0  0  0
M  END
$$$$

  -OEChem-01062216063D

 26 25  0     1  0  0  0  0  0999 V2000
   -2.7299   -3.2129    1.2250 H   0  0  0  0  0  0  0  0  0  0  0  0
   -2.7983   -2.1500    0.9763 C   0  0  0  0  0  0  0  0  0  0  0  0
   -3.1690   -1.6092    1.8501 H   0  0  0  0  0  0  0  0  0  0  0  0
   -3.5019   -2.0259    0.1499 H   0  0  0  0  0  0  0  0  0  0  0  0
   -1.4327   -1.6201    0.5807 C   0  0  0  0  0  0  0  0  0  0  0  0
   -0.4949   -2.3918    0.4735 O   0  0  0  0  0  0  0  0  0  0  0  0
   -1.2953   -0.2959    0.2034 N   0  0  0  0  0  0  0  0  0  0  0  0
   -2.1390    0.2533    0.3245 H   0  0  0  0  0  0  0  0  0  0  0  0
   -0.0127    0.4256    0.3225 C   0  0  1  0  0  0  0  0  0  0  0  0
    0.7521   -0.1288   -0.2364 H   0  0  0  0  0  0  0  0  0  0  0  0
   -0.1985    1.8100   -0.3403 C   0  0  0  0  0  0  0  0  0  0  0  0
   -1.0730    2.3105    0.0833 H   0  0  0  0  0  0  0  0  0  0  0  0
    0.6781    2.4338   -0.1486 H   0  0  0  0  0  0  0  0  0  0  0  0
   -0.3366    1.7218   -1.8559 C   0  0  0  0  0  0  0  0  0  0  0  0
    0.3529    0.9889   -2.5357 O   0  0  0  0  0  0  0  0  0  0  0  0
   -1.2389    2.4871   -2.5388 N   0  0  0  0  0  0  0  0  0  0  0  0
   -1.1584    2.4728   -3.5523 H   0  0  0  0  0  0  0  0  0  0  0  0
   -1.7016    3.2585   -2.0712 H   0  0  0  0  0  0  0  0  0  0  0  0
    0.5331    0.5159    1.7795 C   0  0  0  0  0  0  0  0  0  0  0  0
    0.6504   -0.4701    2.4902 O   0  0  0  0  0  0  0  0  0  0  0  0
    0.7471    1.7453    2.3853 N   0  0  0  0  0  0  0  0  0  0  0  0
    0.6630    2.5752    1.8091 H   0  0  0  0  0  0  0  0  0  0  0  0
    1.2045    1.8949    3.7631 C   0  0  0  0  0  0  0  0  0  0  0  0
    2.1750    1.4061    3.9001 H   0  0  0  0  0  0  0  0  0  0  0  0
    1.3130    2.9545    4.0133 H   0  0  0  0  0  0  0  0  0  0  0  0
    0.4844    1.4486    4.4572 H   0  0  0  0  0  0  0  0  0  0  0  0
  1  2  1  0  0  0  0
  2  3  1  0  0  0  0
  2  4  1  0  0  0  0
  2  5  1  0  0  0  0
  5  6  2  0  0  0  0
  5  7  1  0  0  0  0
  7  8  1  0  0  0  0
  7  9  1  0  0  0  0
  9 10  1  0  0  0  0
  9 11  1  0  0  0  0
  9 19  1  0  0  0  0
 11 12  1  0  0  0  0
 11 13  1  0  0  0  0
 11 14  1  0  0  0  0
 14 15  2  0  0  0  0
 14 16  1  0  0  0  0
 16 17  1  0  0  0  0
 16 18  1  0  0  0  0
 19 20  2  0  0  0  0
 19 21  1  0  0  0  0
 21 22  1  0  0  0  0
 21 23  1  0  0  0  0
 23 24  1  0  0  0  0
 23 25  1  0  0  0  0
 23 26  1  0  0  0  0
M  END
$$$$

  -OEChem-01062216063D

 26 25  0     1  0  0  0  0  0999 V2000
   -2.8409   -3.2239    1.1419 H   0  0  0  0  0  0  0  0  0  0  0  0
   -2.8799   -2.1745    0.8350 C   0  0  0  0  0  0  0  0  0  0  0  0
   -3.4028   -1.6030    1.6053 H   0  0  0  0  0  0  0  0  0  0  0  0
   -3.4329   -2.1028   -0.1046 H   0  0  0  0  0  0  0  0  0  0  0  0
   -1.4739   -1.6340    0.6522 C   0  0  0  0  0  0  0  0  0  0  0  0
   -0.5254   -2.3888    0.7582 O   0  0  0  0  0  0  0  0  0  0  0  0
   -1.3007   -0.3173    0.2664 N   0  0  0  0  0  0  0  0  0  0  0  0
   -2.1538    0.2261    0.1955 H   0  0  0  0  0  0  0  0  0  0  0  0
   -0.0237    0.4150    0.3718 C   0  0  1  0  0  0  0  0  0  0  0  0
    0.7428   -0.1438   -0.1813 H   0  0  0  0  0  0  0  0  0  0  0  0
   -0.2065    1.7951   -0.2974 C   0  0  0  0  0  0  0  0  0  0  0  0
   -1.0832    2.2968    0.1195 H   0  0  0  0  0  0  0  0  0  0  0  0
    0.6701    2.4179   -0.0971 H   0  0  0  0  0  0  0  0  0  0  0  0
   -0.3460    1.6996   -1.8125 C   0  0  0  0  0  0  0  0  0  0  0  0
    0.3395    0.9619   -2.4908 O   0  0  0  0  0  0  0  0  0  0  0  0
   -1.2466    2.4636   -2.4991 N   0  0  0  0  0  0  0  0  0  0  0  0
   -1.1463    2.4539   -3.5110 H   0  0  0  0  0  0  0  0  0  0  0  0
   -1.6756    3.2588   -2.0393 H   0  0  0  0  0  0  0  0  0  0  0  0
    0.5222    0.5291    1.8225 C   0  0  0  0  0  0  0  0  0  0  0  0
    1.0916   -0.4004    2.3706 O   0  0  0  0  0  0  0  0  0  0  0  0
    0.4372    1.7238    2.5216 N   0  0  0  0  0  0  0  0  0  0  0  0
   -0.0083    2.5097    2.0620 H   0  0  0  0  0  0  0  0  0  0  0  0
    0.9820    1.9095    3.8624 C   0  0  0  0  0  0  0  0  0  0  0  0
    2.0697    1.7824    3.8542 H   0  0  0  0  0  0  0  0  0  0  0  0
    0.7532    2.9148    4.2288 H   0  0  0  0  0  0  0  0  0  0  0  0
    0.5484    1.1824    4.5573 H   0  0  0  0  0  0  0  0  0  0  0  0
  1  2  1  0  0  0  0
  2  3  1  0  0  0  0
  2  4  1  0  0  0  0
  2  5  1  0  0  0  0
  5  6  2  0  0  0  0
  5  7  1  0  0  0  0
  7  8  1  0  0  0  0
  7  9  1  0  0  0  0
  9 10  1  0  0  0  0
  9 11  1  0  0  0  0
  9 19  1  0  0  0  0
 11 12  1  0  0  0  0
 11 13  1  0  0  0  0
 11 14  1  0  0  0  0
 14 15  2  0  0  0  0
 14 16  1  0  0  0  0
 16 17  1  0  0  0  0
 16 18  1  0  0  0  0
 19 20  2  0  0  0  0
 19 21  1  0  0  0  0
 21 22  1  0  0  0  0
 21 23  1  0  0  0  0
 23 24  1  0  0  0  0
 23 25  1  0  0  0  0
 23 26  1  0  0  0  0
M  END
$$$$

  -OEChem-01062216063D

 26 25  0     1  0  0  0  0  0999 V2000
   -2.9369   -3.2788    0.8853 H   0  0  0  0  0  0  0  0  0  0  0  0
   -2.9374   -2.2425    0.5356 C   0  0  0  0  0  0  0  0  0  0  0  0
   -3.7418   -1.7019    1.0398 H   0  0  0  0  0  0  0  0  0  0  0  0
   -3.1202   -2.2369   -0.5417 H   0  0  0  0  0  0  0  0  0  0  0  0
   -1.6018   -1.5885    0.8391 C   0  0  0  0  0  0  0  0  0  0  0  0
   -0.7554   -2.2166    1.4451 O   0  0  0  0  0  0  0  0  0  0  0  0
   -1.3721   -0.2944    0.4093 N   0  0  0  0  0  0  0  0  0  0  0  0
   -2.0798    0.0837   -0.2125 H   0  0  0  0  0  0  0  0  0  0  0  0
   -0.0657    0.3920    0.4592 C   0  0  1  0  0  0  0  0  0  0  0  0
    0.6622   -0.2044   -0.1061 H   0  0  0  0  0  0  0  0  0  0  0  0
   -0.2112    1.7717   -0.2173 C   0  0  0  0  0  0  0  0  0  0  0  0
   -1.0512    2.3151    0.2222 H   0  0  0  0  0  0  0  0  0  0  0  0
    0.6964    2.3583   -0.0459 H   0  0  0  0  0  0  0  0  0  0  0  0
   -0.4064    1.6643   -1.7240 C   0  0  0  0  0  0  0  0  0  0  0  0
    0.2215    0.8894   -2.4163 O   0  0  0  0  0  0  0  0  0  0  0  0
   -1.3271    2.4281   -2.3826 N   0  0  0  0  0  0  0  0  0  0  0  0
   -1.2574    2.4072   -3.3970 H   0  0  0  0  0  0  0  0  0  0  0  0
   -1.6929    3.2547   -1.9224 H   0  0  0  0  0  0  0  0  0  0  0  0
    0.5327    0.5342    1.8832 C   0  0  0  0  0  0  0  0  0  0  0  0
    1.4810   -0.1582    2.2222 O   0  0  0  0  0  0  0  0  0  0  0  0
    0.2434    1.6454    2.6601 N   0  0  0  0  0  0  0  0  0  0  0  0
   -0.5678    2.1936    2.3978 H   0  0  0  0  0  0  0  0  0  0  0  0
    0.8700    1.8960    3.9536 C   0  0  0  0  0  0  0  0  0  0  0  0
    1.9532    2.0107    3.8388 H   0  0  0  0  0  0  0  0  0  0  0  0
    0.4719    2.8137    4.3966 H   0  0  0  0  0  0  0  0  0  0  0  0
    0.6752    1.0657    4.6409 H   0  0  0  0  0  0  0  0  0  0  0  0
  1  2  1  0  0  0  0
  2  3  1  0  0  0  0
  2  4  1  0  0  0  0
  2  5  1  0  0  0  0
  5  6  2  0  0  0  0
  5  7  1  0  0  0  0
  7  8  1  0  0  0  0
  7  9  1  0  0  0  0
  9 10  1  0  0  0  0
  9 11  1  0  0  0  0
  9 19  1  0  0  0  0
 11 12  1  0  0  0  0
 11 13  1  0  0  0  0
 11 14  1  0  0  0  0
 14 15  2  0  0  0  0
 14 16  1  0  0  0  0
 16 17  1  0  0  0  0
 16 18  1  0  0  0  0
 19 20  2  0  0  0  0
 19 21  1  0  0  0  0
 21 22  1  0  0  0  0
 21 23  1  0  0  0  0
 23 24  1  0  0  0  0
 23 25  1  0  0  0  0
 23 26  1  0  0  0  0
M  END
$$$$

  -OEChem-01062216063D

 26 25  0     1  0  0  0  0  0999 V2000
   -2.9450   -3.2703    0.9324 H   0  0  0  0  0  0  0  0  0  0  0  0
   -2.9279   -2.2590    0.5159 C   0  0  0  0  0  0  0  0  0  0  0  0
   -3.7669   -1.6943    0.9292 H   0  0  0  0  0  0  0  0  0  0  0  0
   -3.0391   -2.3249   -0.5692 H   0  0  0  0  0  0  0  0  0  0  0  0
   -1.6189   -1.5743    0.8626 C   0  0  0  0  0  0  0  0  0  0  0  0
   -0.7952   -2.1630    1.5373 O   0  0  0  0  0  0  0  0  0  0  0  0
   -1.3884   -0.2874    0.4129 N   0  0  0  0  0  0  0  0  0  0  0  0
   -2.0619    0.0515   -0.2675 H   0  0  0  0  0  0  0  0  0  0  0  0
   -0.0698    0.3750    0.4466 C   0  0  1  0  0  0  0  0  0  0  0  0
    0.6434   -0.2331   -0.1251 H   0  0  0  0  0  0  0  0  0  0  0  0
   -0.1919    1.7634   -0.2128 C   0  0  0  0  0  0  0  0  0  0  0  0
   -1.0114    2.3226    0.2452 H   0  0  0  0  0  0  0  0  0  0  0  0
    0.7316    2.3264   -0.0465 H   0  0  0  0  0  0  0  0  0  0  0  0
   -0.4111    1.6750   -1.7167 C   0  0  0  0  0  0  0  0  0  0  0  0
    0.1878    0.8923   -2.4260 O   0  0  0  0  0  0  0  0  0  0  0  0
   -1.3323    2.4589   -2.3504 N   0  0  0  0  0  0  0  0  0  0  0  0
   -1.2784    2.4508   -3.3659 H   0  0  0  0  0  0  0  0  0  0  0  0
   -1.6741    3.2866   -1.8737 H   0  0  0  0  0  0  0  0  0  0  0  0
    0.5333    0.5153    1.8653 C   0  0  0  0  0  0  0  0  0  0  0  0
    1.6277    0.0284    2.1110 O   0  0  0  0  0  0  0  0  0  0  0  0
    0.0297    1.4627    2.7415 N   0  0  0  0  0  0  0  0  0  0  0  0
   -0.9112    1.7929    2.5575 H   0  0  0  0  0  0  0  0  0  0  0  0
    0.6069    1.7023    4.0592 C   0  0  0  0  0  0  0  0  0  0  0  0
    1.6437    2.0429    3.9674 H   0  0  0  0  0  0  0  0  0  0  0  0
    0.0373    2.4726    4.5875 H   0  0  0  0  0  0  0  0  0  0  0  0
    0.5893    0.7849    4.6573 H   0  0  0  0  0  0  0  0  0  0  0  0
  1  2  1  0  0  0  0
  2  3  1  0  0  0  0
  2  4  1  0  0  0  0
  2  5  1  0  0  0  0
  5  6  2  0  0  0  0
  5  7  1  0  0  0  0
  7  8  1  0  0  0  0
  7  9  1  0  0  0  0
  9 10  1  0  0  0  0
  9 11  1  0  0  0  0
  9 19  1  0  0  0  0
 11 12  1  0  0  0  0
 11 13  1  0  0  0  0
 11 14  1  0  0  0  0
 14 15  2  0  0  0  0
 14 16  1  0  0  0  0
 16 17  1  0  0  0  0
 16 18  1  0  0  0  0
 19 20  2  0  0  0  0
 19 21  1  0  0  0  0
 21 22  1  0  0  0  0
 21 23  1  0  0  0  0
 23 24  1  0  0  0  0
 23 25  1  0  0  0  0
 23 26  1  0  0  0  0
M  END
$$$$

  -OEChem-01062216063D

 26 25  0     1  0  0  0  0  0999 V2000
   -2.9244   -3.2941    0.9050 H   0  0  0  0  0  0  0  0  0  0  0  0
   -2.9260   -2.2743    0.5090 C   0  0  0  0  0  0  0  0  0  0  0  0
   -3.7743   -1.7329    0.9345 H   0  0  0  0  0  0  0  0  0  0  0  0
   -3.0378   -2.3210   -0.5772 H   0  0  0  0  0  0  0  0  0  0  0  0
   -1.6283   -1.5740    0.8673 C   0  0  0  0  0  0  0  0  0  0  0  0
   -0.8100   -2.1440    1.5655 O   0  0  0  0  0  0  0  0  0  0  0  0
   -1.3985   -0.2906    0.4072 N   0  0  0  0  0  0  0  0  0  0  0  0
   -2.0592    0.0345   -0.2929 H   0  0  0  0  0  0  0  0  0  0  0  0
   -0.0730    0.3591    0.4351 C   0  0  1  0  0  0  0  0  0  0  0  0
    0.6343   -0.2525   -0.1399 H   0  0  0  0  0  0  0  0  0  0  0  0
   -0.1812    1.7541   -0.2090 C   0  0  0  0  0  0  0  0  0  0  0  0
   -0.9889    2.3193    0.2626 H   0  0  0  0  0  0  0  0  0  0  0  0
    0.7509    2.3031   -0.0426 H   0  0  0  0  0  0  0  0  0  0  0  0
   -0.4125    1.6829   -1.7116 C   0  0  0  0  0  0  0  0  0  0  0  0
    0.1709    0.8986   -2.4325 O   0  0  0  0  0  0  0  0  0  0  0  0
   -1.3249    2.4877   -2.3319 N   0  0  0  0  0  0  0  0  0  0  0  0
   -1.2740    2.4922   -3.3475 H   0  0  0  0  0  0  0  0  0  0  0  0
   -1.6480    3.3164   -1.8437 H   0  0  0  0  0  0  0  0  0  0  0  0
    0.5330    0.5003    1.8499 C   0  0  0  0  0  0  0  0  0  0  0  0
    1.7174    0.2512    2.0270 O   0  0  0  0  0  0  0  0  0  0  0  0
   -0.1439    1.2227    2.8176 N   0  0  0  0  0  0  0  0  0  0  0  0
   -1.1444    1.3202    2.6810 H   0  0  0  0  0  0  0  0  0  0  0  0
    0.4010    1.4462    4.1514 C   0  0  0  0  0  0  0  0  0  0  0  0
    1.3475    1.9941    4.0920 H   0  0  0  0  0  0  0  0  0  0  0  0
   -0.2990    2.0337    4.7530 H   0  0  0  0  0  0  0  0  0  0  0  0
    0.5785    0.4910    4.6569 H   0  0  0  0  0  0  0  0  0  0  0  0
  1  2  1  0  0  0  0
  2  3  1  0  0  0  0
  2  4  1  0  0  0  0
  2  5  1  0  0  0  0
  5  6  2  0  0  0  0
  5  7  1  0  0  0  0
  7  8  1  0  0  0  0
  7  9  1  0  0  0  0
  9 10  1  0  0  0  0
  9 11  1  0  0  0  0
  9 19  1  0  0  0  0
 11 12  1  0  0  0  0
 11 13  1  0  0  0  0
 11 14  1  0  0  0  0
 14 15  2  0  0  0  0
 14 16  1  0  0  0  0
 16 17  1  0  0  0  0
 16 18  1  0  0  0  0
 19 20  2  0  0  0  0
 19 21  1  0  0  0  0
 21 22  1  0  0  0  0
 21 23  1  0  0  0  0
 23 24  1  0  0  0  0
 23 25  1  0  0  0  0
 23 26  1  0  0  0  0
M  END
$$$$

  -OEChem-01062216063D

 26 25  0     1  0  0  0  0  0999 V2000
   -2.9437   -3.2834    0.9126 H   0  0  0  0  0  0  0  0  0  0  0  0
   -2.9314   -2.2707    0.4987 C   0  0  0  0  0  0  0  0  0  0  0  0
   -3.7785   -1.7137    0.9061 H   0  0  0  0  0  0  0  0  0  0  0  0
   -3.0337   -2.3355   -0.5874 H   0  0  0  0  0  0  0  0  0  0  0  0
   -1.6311   -1.5750    0.8569 C   0  0  0  0  0  0  0  0  0  0  0  0
   -0.8193   -2.1409    1.5666 O   0  0  0  0  0  0  0  0  0  0  0  0
   -1.3932   -0.2942    0.3940 N   0  0  0  0  0  0  0  0  0  0  0  0
   -2.0482    0.0322   -0.3111 H   0  0  0  0  0  0  0  0  0  0  0  0
   -0.0637    0.3490    0.4250 C   0  0  1  0  0  0  0  0  0  0  0  0
    0.6435   -0.2608   -0.1514 H   0  0  0  0  0  0  0  0  0  0  0  0
   -0.1731    1.7488   -0.2072 C   0  0  0  0  0  0  0  0  0  0  0  0
   -0.9769    2.3109    0.2751 H   0  0  0  0  0  0  0  0  0  0  0  0
    0.7605    2.2958   -0.0425 H   0  0  0  0  0  0  0  0  0  0  0  0
   -0.4106    1.6888   -1.7089 C   0  0  0  0  0  0  0  0  0  0  0  0
    0.1688    0.9092   -2.4383 O   0  0  0  0  0  0  0  0  0  0  0  0
   -1.3322    2.4921   -2.3173 N   0  0  0  0  0  0  0  0  0  0  0  0
   -1.2883    2.5037   -3.3331 H   0  0  0  0  0  0  0  0  0  0  0  0
   -1.6545    3.3164   -1.8212 H   0  0  0  0  0  0  0  0  0  0  0  0
    0.5422    0.4939    1.8389 C   0  0  0  0  0  0  0  0  0  0  0  0
    1.7579    0.4887    1.9758 O   0  0  0  0  0  0  0  0  0  0  0  0
   -0.2471    0.9447    2.8820 N   0  0  0  0  0  0  0  0  0  0  0  0
   -1.2463    0.8136    2.7630 H   0  0  0  0  0  0  0  0  0  0  0  0
    0.2723    1.1307    4.2312 C   0  0  0  0  0  0  0  0  0  0  0  0
    1.0842    1.8656    4.2322 H   0  0  0  0  0  0  0  0  0  0  0  0
   -0.5188    1.4922    4.8948 H   0  0  0  0  0  0  0  0  0  0  0  0
    0.6539    0.1838    4.6277 H   0  0  0  0  0  0  0  0  0  0  0  0
  1  2  1  0  0  0  0
  2  3  1  0  0  0  0
  2  4  1  0  0  0  0
  2  5  1  0  0  0  0
  5  6  2  0  0  0  0
  5  7  1  0  0  0  0
  7  8  1  0  0  0  0
  7  9  1  0  0  0  0
  9 10  1  0  0  0  0
  9 11  1  0  0  0  0
  9 19  1  0  0  0  0
 11 12  1  0  0  0  0
 11 13  1  0  0  0  0
 11 14  1  0  0  0  0
 14 15  2  0  0  0  0
 14 16  1  0  0  0  0
 16 17  1  0  0  0  0
 16 18  1  0  0  0  0
 19 20  2  0  0  0  0
 19 21  1  0  0  0  0
 21 22  1  0  0  0  0
 21 23  1  0  0  0  0
 23 24  1  0  0  0  0
 23 25  1  0  0  0  0
 23 26  1  0  0  0  0
M  END
$$$$

  -OEChem-01062216063D

 26 25  0     1  0  0  0  0  0999 V2000
   -2.9754   -3.2679    0.8911 H   0  0  0  0  0  0  0  0  0  0  0  0
   -2.9441   -2.2622    0.4624 C   0  0  0  0  0  0  0  0  0  0  0  0
   -3.7972   -1.6926    0.8387 H   0  0  0  0  0  0  0  0  0  0  0  0
   -3.0181   -2.3427   -0.6250 H   0  0  0  0  0  0  0  0  0  0  0  0
   -1.6480   -1.5718    0.8433 C   0  0  0  0  0  0  0  0  0  0  0  0
   -0.8528   -2.1358    1.5733 O   0  0  0  0  0  0  0  0  0  0  0  0
   -1.3973   -0.2920    0.3862 N   0  0  0  0  0  0  0  0  0  0  0  0
   -2.0474    0.0442   -0.3189 H   0  0  0  0  0  0  0  0  0  0  0  0
   -0.0657    0.3483    0.4294 C   0  0  1  0  0  0  0  0  0  0  0  0
    0.6440   -0.2596   -0.1457 H   0  0  0  0  0  0  0  0  0  0  0  0
   -0.1824    1.7471   -0.2051 C   0  0  0  0  0  0  0  0  0  0  0  0
   -0.9929    2.3024    0.2742 H   0  0  0  0  0  0  0  0  0  0  0  0
    0.7446    2.3047   -0.0389 H   0  0  0  0  0  0  0  0  0  0  0  0
   -0.4129    1.6837   -1.7076 C   0  0  0  0  0  0  0  0  0  0  0  0
    0.1750    0.9074   -2.4344 O   0  0  0  0  0  0  0  0  0  0  0  0
   -1.3374    2.4809   -2.3195 N   0  0  0  0  0  0  0  0  0  0  0  0
   -1.2864    2.4964   -3.3347 H   0  0  0  0  0  0  0  0  0  0  0  0
   -1.6664    3.3023   -1.8227 H   0  0  0  0  0  0  0  0  0  0  0  0
    0.5458    0.4989    1.8423 C   0  0  0  0  0  0  0  0  0  0  0  0
    1.7421    0.7325    1.9544 O   0  0  0  0  0  0  0  0  0  0  0  0
   -0.2736    0.6514    2.9461 N   0  0  0  0  0  0  0  0  0  0  0  0
   -1.2103    0.2754    2.8362 H   0  0  0  0  0  0  0  0  0  0  0  0
    0.2562    0.7874    4.2972 C   0  0  0  0  0  0  0  0  0  0  0  0
    0.9021    1.6687    4.3698 H   0  0  0  0  0  0  0  0  0  0  0  0
   -0.5623    0.9017    5.0141 H   0  0  0  0  0  0  0  0  0  0  0  0
    0.8377   -0.0993    4.5709 H   0  0  0  0  0  0  0  0  0  0  0  0
  1  2  1  0  0  0  0
  2  3  1  0  0  0  0
  2  4  1  0  0  0  0
  2  5  1  0  0  0  0
  5  6  2  0  0  0  0
  5  7  1  0  0  0  0
  7  8  1  0  0  0  0
  7  9  1  0  0  0  0
  9 10  1  0  0  0  0
  9 11  1  0  0  0  0
  9 19  1  0  0  0  0
 11 12  1  0  0  0  0
 11 13  1  0  0  0  0
 11 14  1  0  0  0  0
 14 15  2  0  0  0  0
 14 16  1  0  0  0  0
 16 17  1  0  0  0  0
 16 18  1  0  0  0  0
 19 20  2  0  0  0  0
 19 21  1  0  0  0  0
 21 22  1  0  0  0  0
 21 23  1  0  0  0  0
 23 24  1  0  0  0  0
 23 25  1  0  0  0  0
 23 26  1  0  0  0  0
M  END
$$$$

  -OEChem-01062216063D

 26 25  0     1  0  0  0  0  0999 V2000
   -3.0253   -3.2527    0.8200 H   0  0  0  0  0  0  0  0  0  0  0  0
   -2.9738   -2.2416    0.4063 C   0  0  0  0  0  0  0  0  0  0  0  0
   -3.8228   -1.6644    0.7802 H   0  0  0  0  0  0  0  0  0  0  0  0
   -3.0355   -2.3049   -0.6830 H   0  0  0  0  0  0  0  0  0  0  0  0
   -1.6730   -1.5753    0.8131 C   0  0  0  0  0  0  0  0  0  0  0  0
   -0.8991   -2.1556    1.5536 O   0  0  0  0  0  0  0  0  0  0  0  0
   -1.3989   -0.2934    0.3779 N   0  0  0  0  0  0  0  0  0  0  0  0
   -2.0489    0.0700   -0.3136 H   0  0  0  0  0  0  0  0  0  0  0  0
   -0.0669    0.3475    0.4436 C   0  0  1  0  0  0  0  0  0  0  0  0
    0.6477   -0.2539   -0.1317 H   0  0  0  0  0  0  0  0  0  0  0  0
   -0.1974    1.7458   -0.1946 C   0  0  0  0  0  0  0  0  0  0  0  0
   -1.0191    2.2903    0.2779 H   0  0  0  0  0  0  0  0  0  0  0  0
    0.7189    2.3193   -0.0248 H   0  0  0  0  0  0  0  0  0  0  0  0
   -0.4127    1.6771   -1.6992 C   0  0  0  0  0  0  0  0  0  0  0  0
    0.1938    0.9078   -2.4182 O   0  0  0  0  0  0  0  0  0  0  0  0
   -1.3459    2.4558   -2.3218 N   0  0  0  0  0  0  0  0  0  0  0  0
   -1.2860    2.4689   -3.3367 H   0  0  0  0  0  0  0  0  0  0  0  0
   -1.6931    3.2736   -1.8314 H   0  0  0  0  0  0  0  0  0  0  0  0
    0.5503    0.4956    1.8584 C   0  0  0  0  0  0  0  0  0  0  0  0
    1.6797    0.9556    1.9704 O   0  0  0  0  0  0  0  0  0  0  0  0
   -0.2197    0.3383    2.9961 N   0  0  0  0  0  0  0  0  0  0  0  0
   -1.0159   -0.2822    2.8711 H   0  0  0  0  0  0  0  0  0  0  0  0
    0.3410    0.4540    4.3367 C   0  0  0  0  0  0  0  0  0  0  0  0
    0.7782    1.4469    4.4862 H   0  0  0  0  0  0  0  0  0  0  0  0
   -0.4420    0.3075    5.0868 H   0  0  0  0  0  0  0  0  0  0  0  0
    1.1192   -0.3006    4.4924 H   0  0  0  0  0  0  0  0  0  0  0  0
  1  2  1  0  0  0  0
  2  3  1  0  0  0  0
  2  4  1  0  0  0  0
  2  5  1  0  0  0  0
  5  6  2  0  0  0  0
  5  7  1  0  0  0  0
  7  8  1  0  0  0  0
  7  9  1  0  0  0  0
  9 10  1  0  0  0  0
  9 11  1  0  0  0  0
  9 19  1  0  0  0  0
 11 12  1  0  0  0  0
 11 13  1  0  0  0  0
 11 14  1  0  0  0  0
 14 15  2  0  0  0  0
 14 16  1  0  0  0  0
 16 17  1  0  0  0  0
 16 18  1  0  0  0  0
 19 20  2  0  0  0  0
 19 21  1  0  0  0  0
 21 22  1  0  0  0  0
 21 23  1  0  0  0  0
 23 24  1  0  0  0  0
 23 25  1  0  0  0  0
 23 26  1  0  0  0  0
M  END
$$$$

  -OEChem-01062216063D

 26 25  0     1  0  0  0  0  0999 V2000
   -3.0604   -3.2401    0.7537 H   0  0  0  0  0  0  0  0  0  0  0  0
   -3.0064   -2.2098    0.3903 C   0  0  0  0  0  0  0  0  0  0  0  0
   -3.8266   -1.6375    0.8306 H   0  0  0  0  0  0  0  0  0  0  0  0
   -3.1168   -2.2157   -0.6970 H   0  0  0  0  0  0  0  0  0  0  0  0
   -1.6760   -1.5887    0.7719 C   0  0  0  0  0  0  0  0  0  0  0  0
   -0.8876   -2.2181    1.4558 O   0  0  0  0  0  0  0  0  0  0  0  0
   -1.3854   -0.3012    0.3654 N   0  0  0  0  0  0  0  0  0  0  0  0
   -2.0599    0.1094   -0.2738 H   0  0  0  0  0  0  0  0  0  0  0  0
   -0.0599    0.3528    0.4541 C   0  0  1  0  0  0  0  0  0  0  0  0
    0.6649   -0.2375   -0.1194 H   0  0  0  0  0  0  0  0  0  0  0  0
   -0.2112    1.7478   -0.1919 C   0  0  0  0  0  0  0  0  0  0  0  0
   -1.0477    2.2785    0.2700 H   0  0  0  0  0  0  0  0  0  0  0  0
    0.6902    2.3429   -0.0196 H   0  0  0  0  0  0  0  0  0  0  0  0
   -0.4062    1.6702   -1.6989 C   0  0  0  0  0  0  0  0  0  0  0  0
    0.2243    0.9118   -2.4089 O   0  0  0  0  0  0  0  0  0  0  0  0
   -1.3478    2.4290   -2.3333 N   0  0  0  0  0  0  0  0  0  0  0  0
   -1.2773    2.4411   -3.3474 H   0  0  0  0  0  0  0  0  0  0  0  0
   -1.7133    3.2420   -1.8485 H   0  0  0  0  0  0  0  0  0  0  0  0
    0.5547    0.4952    1.8755 C   0  0  0  0  0  0  0  0  0  0  0  0
    1.5718    1.1616    2.0252 O   0  0  0  0  0  0  0  0  0  0  0  0
   -0.0970    0.0352    3.0048 N   0  0  0  0  0  0  0  0  0  0  0  0
   -0.7340   -0.7399    2.8214 H   0  0  0  0  0  0  0  0  0  0  0  0
    0.4893    0.1215    4.3368 C   0  0  0  0  0  0  0  0  0  0  0  0
    0.6927    1.1646    4.6011 H   0  0  0  0  0  0  0  0  0  0  0  0
   -0.1998   -0.2922    5.0791 H   0  0  0  0  0  0  0  0  0  0  0  0
    1.4270   -0.4426    4.3792 H   0  0  0  0  0  0  0  0  0  0  0  0
  1  2  1  0  0  0  0
  2  3  1  0  0  0  0
  2  4  1  0  0  0  0
  2  5  1  0  0  0  0
  5  6  2  0  0  0  0
  5  7  1  0  0  0  0
  7  8  1  0  0  0  0
  7  9  1  0  0  0  0
  9 10  1  0  0  0  0
  9 11  1  0  0  0  0
  9 19  1  0  0  0  0
 11 12  1  0  0  0  0
 11 13  1  0  0  0  0
 11 14  1  0  0  0  0
 14 15  2  0  0  0  0
 14 16  1  0  0  0  0
 16 17  1  0  0  0  0
 16 18  1  0  0  0  0
 19 20  2  0  0  0  0
 19 21  1  0  0  0  0
 21 22  1  0  0  0  0
 21 23  1  0  0  0  0
 23 24  1  0  0  0  0
 23 25  1  0  0  0  0
 23 26  1  0  0  0  0
M  END
$$$$

  -OEChem-01062216063D

 26 25  0     1  0  0  0  0  0999 V2000
   -3.0755   -3.2305    0.7486 H   0  0  0  0  0  0  0  0  0  0  0  0
   -3.0285   -2.1836    0.4354 C   0  0  0  0  0  0  0  0  0  0  0  0
   -3.7879   -1.6183    0.9811 H   0  0  0  0  0  0  0  0  0  0  0  0
   -3.2411   -2.1287   -0.6352 H   0  0  0  0  0  0  0  0  0  0  0  0
   -1.6521   -1.6126    0.7200 C   0  0  0  0  0  0  0  0  0  0  0  0
   -0.8151   -2.3023    1.2777 O   0  0  0  0  0  0  0  0  0  0  0  0
   -1.3645   -0.3144    0.3459 N   0  0  0  0  0  0  0  0  0  0  0  0
   -2.0947    0.1622   -0.1751 H   0  0  0  0  0  0  0  0  0  0  0  0
   -0.0524    0.3635    0.4548 C   0  0  1  0  0  0  0  0  0  0  0  0
    0.6854   -0.2127   -0.1162 H   0  0  0  0  0  0  0  0  0  0  0  0
   -0.2217    1.7548   -0.1987 C   0  0  0  0  0  0  0  0  0  0  0  0
   -1.0740    2.2714    0.2501 H   0  0  0  0  0  0  0  0  0  0  0  0
    0.6654    2.3689   -0.0200 H   0  0  0  0  0  0  0  0  0  0  0  0
   -0.3915    1.6699   -1.7085 C   0  0  0  0  0  0  0  0  0  0  0  0
    0.2652    0.9227   -2.4068 O   0  0  0  0  0  0  0  0  0  0  0  0
   -1.3284    2.4187   -2.3616 N   0  0  0  0  0  0  0  0  0  0  0  0
   -1.2385    2.4297   -3.3742 H   0  0  0  0  0  0  0  0  0  0  0  0
   -1.7122    3.2281   -1.8852 H   0  0  0  0  0  0  0  0  0  0  0  0
    0.5523    0.4928    1.8854 C   0  0  0  0  0  0  0  0  0  0  0  0
    1.4056    1.3431    2.1097 O   0  0  0  0  0  0  0  0  0  0  0  0
    0.0834   -0.2421    2.9583 N   0  0  0  0  0  0  0  0  0  0  0  0
   -0.4130   -1.0959    2.6983 H   0  0  0  0  0  0  0  0  0  0  0  0
    0.6853   -0.1841    4.2848 C   0  0  0  0  0  0  0  0  0  0  0  0
    0.6378    0.8344    4.6841 H   0  0  0  0  0  0  0  0  0  0  0  0
    0.1493   -0.8473    4.9703 H   0  0  0  0  0  0  0  0  0  0  0  0
    1.7333   -0.4989    4.2444 H   0  0  0  0  0  0  0  0  0  0  0  0
  1  2  1  0  0  0  0
  2  3  1  0  0  0  0
  2  4  1  0  0  0  0
  2  5  1  0  0  0  0
  5  6  2  0  0  0  0
  5  7  1  0  0  0  0
  7  8  1  0  0  0  0
  7  9  1  0  0  0  0
  9 10  1  0  0  0  0
  9 11  1  0  0  0  0
  9 19  1  0  0  0  0
 11 12  1  0  0  0  0
 11 13  1  0  0  0  0
 11 14  1  0  0  0  0
 14 15  2  0  0  0  0
 14 16  1  0  0  0  0
 16 17  1  0  0  0  0
 16 18  1  0  0  0  0
 19 20  2  0  0  0  0
 19 21  1  0  0  0  0
 21 22  1  0  0  0  0
 21 23  1  0  0  0  0
 23 24  1  0  0  0  0
 23 25  1  0  0  0  0
 23 26  1  0  0  0  0
M  END
$$$$

  -OEChem-01062216063D

 26 25  0     1  0  0  0  0  0999 V2000
   -3.0659   -3.2246    0.8142 H   0  0  0  0  0  0  0  0  0  0  0  0
   -3.0273   -2.1733    0.5146 C   0  0  0  0  0  0  0  0  0  0  0  0
   -3.7218   -1.6045    1.1374 H   0  0  0  0  0  0  0  0  0  0  0  0
   -3.3367   -2.0953   -0.5306 H   0  0  0  0  0  0  0  0  0  0  0  0
   -1.6191   -1.6333    0.6799 C   0  0  0  0  0  0  0  0  0  0  0  0
   -0.7376   -2.3637    1.1024 O   0  0  0  0  0  0  0  0  0  0  0  0
   -1.3468   -0.3252    0.3281 N   0  0  0  0  0  0  0  0  0  0  0  0
   -2.1306    0.2035   -0.0427 H   0  0  0  0  0  0  0  0  0  0  0  0
   -0.0457    0.3716    0.4441 C   0  0  1  0  0  0  0  0  0  0  0  0
    0.6995   -0.1940   -0.1281 H   0  0  0  0  0  0  0  0  0  0  0  0
   -0.2234    1.7612   -0.2124 C   0  0  0  0  0  0  0  0  0  0  0  0
   -1.0828    2.2715    0.2298 H   0  0  0  0  0  0  0  0  0  0  0  0
    0.6579    2.3822   -0.0284 H   0  0  0  0  0  0  0  0  0  0  0  0
   -0.3794    1.6754   -1.7238 C   0  0  0  0  0  0  0  0  0  0  0  0
    0.2913    0.9348   -2.4162 O   0  0  0  0  0  0  0  0  0  0  0  0
   -1.3016    2.4330   -2.3879 N   0  0  0  0  0  0  0  0  0  0  0  0
   -1.1982    2.4466   -3.3990 H   0  0  0  0  0  0  0  0  0  0  0  0
   -1.6884    3.2425   -1.9138 H   0  0  0  0  0  0  0  0  0  0  0  0
    0.5516    0.4824    1.8808 C   0  0  0  0  0  0  0  0  0  0  0  0
    1.1881    1.4774    2.2075 O   0  0  0  0  0  0  0  0  0  0  0  0
    0.3160   -0.4670    2.8570 N   0  0  0  0  0  0  0  0  0  0  0  0
   -0.0519   -1.3587    2.5185 H   0  0  0  0  0  0  0  0  0  0  0  0
    0.9178   -0.4262    4.1840 C   0  0  0  0  0  0  0  0  0  0  0  0
    0.6300    0.4912    4.7080 H   0  0  0  0  0  0  0  0  0  0  0  0
    0.5795   -1.2814    4.7768 H   0  0  0  0  0  0  0  0  0  0  0  0
    2.0096   -0.4637    4.1109 H   0  0  0  0  0  0  0  0  0  0  0  0
  1  2  1  0  0  0  0
  2  3  1  0  0  0  0
  2  4  1  0  0  0  0
  2  5  1  0  0  0  0
  5  6  2  0  0  0  0
  5  7  1  0  0  0  0
  7  8  1  0  0  0  0
  7  9  1  0  0  0  0
  9 10  1  0  0  0  0
  9 11  1  0  0  0  0
  9 19  1  0  0  0  0
 11 12  1  0  0  0  0
 11 13  1  0  0  0  0
 11 14  1  0  0  0  0
 14 15  2  0  0  0  0
 14 16  1  0  0  0  0
 16 17  1  0  0  0  0
 16 18  1  0  0  0  0
 19 20  2  0  0  0  0
 19 21  1  0  0  0  0
 21 22  1  0  0  0  0
 21 23  1  0  0  0  0
 23 24  1  0  0  0  0
 23 25  1  0  0  0  0
 23 26  1  0  0  0  0
M  END
$$$$

  -OEChem-01062216063D

 26 25  0     1  0  0  0  0  0999 V2000
   -3.0274   -3.2205    0.9137 H   0  0  0  0  0  0  0  0  0  0  0  0
   -3.0008   -2.1710    0.6067 C   0  0  0  0  0  0  0  0  0  0  0  0
   -3.6396   -1.5924    1.2783 H   0  0  0  0  0  0  0  0  0  0  0  0
   -3.3879   -2.0933   -0.4122 H   0  0  0  0  0  0  0  0  0  0  0  0
   -1.5789   -1.6446    0.6619 C   0  0  0  0  0  0  0  0  0  0  0  0
   -0.6698   -2.3922    0.9859 O   0  0  0  0  0  0  0  0  0  0  0  0
   -1.3258   -0.3321    0.3118 N   0  0  0  0  0  0  0  0  0  0  0  0
   -2.1381    0.2184    0.0504 H   0  0  0  0  0  0  0  0  0  0  0  0
   -0.0292    0.3721    0.4187 C   0  0  1  0  0  0  0  0  0  0  0  0
    0.7160   -0.1870   -0.1598 H   0  0  0  0  0  0  0  0  0  0  0  0
   -0.2086    1.7641   -0.2303 C   0  0  0  0  0  0  0  0  0  0  0  0
   -1.0655    2.2733    0.2179 H   0  0  0  0  0  0  0  0  0  0  0  0
    0.6755    2.3807   -0.0439 H   0  0  0  0  0  0  0  0  0  0  0  0
   -0.3720    1.6884   -1.7412 C   0  0  0  0  0  0  0  0  0  0  0  0
    0.2953    0.9514   -2.4409 O   0  0  0  0  0  0  0  0  0  0  0  0
   -1.2892    2.4593   -2.3965 N   0  0  0  0  0  0  0  0  0  0  0  0
   -1.1878    2.4834   -3.4075 H   0  0  0  0  0  0  0  0  0  0  0  0
   -1.6767    3.2619   -1.9116 H   0  0  0  0  0  0  0  0  0  0  0  0
    0.5650    0.4701    1.8563 C   0  0  0  0  0  0  0  0  0  0  0  0
    0.9707    1.5426    2.2891 O   0  0  0  0  0  0  0  0  0  0  0  0
    0.5912   -0.6121    2.7139 N   0  0  0  0  0  0  0  0  0  0  0  0
    0.3059   -1.5103    2.3159 H   0  0  0  0  0  0  0  0  0  0  0  0
    1.1662   -0.5842    4.0525 C   0  0  0  0  0  0  0  0  0  0  0  0
    0.6469    0.1493    4.6779 H   0  0  0  0  0  0  0  0  0  0  0  0
    1.0715   -1.5678    4.5229 H   0  0  0  0  0  0  0  0  0  0  0  0
    2.2284   -0.3219    4.0079 H   0  0  0  0  0  0  0  0  0  0  0  0
  1  2  1  0  0  0  0
  2  3  1  0  0  0  0
  2  4  1  0  0  0  0
  2  5  1  0  0  0  0
  5  6  2  0  0  0  0
  5  7  1  0  0  0  0
  7  8  1  0  0  0  0
  7  9  1  0  0  0  0
  9 10  1  0  0  0  0
  9 11  1  0  0  0  0
  9 19  1  0  0  0  0
 11 12  1  0  0  0  0
 11 13  1  0  0  0  0
 11 14  1  0  0  0  0
 14 15  2  0  0  0  0
 14 16  1  0  0  0  0
 16 17  1  0  0  0  0
 16 18  1  0  0  0  0
 19 20  2  0  0  0  0
 19 21  1  0  0  0  0
 21 22  1  0  0  0  0
 21 23  1  0  0  0  0
 23 24  1  0  0  0  0
 23 25  1  0  0  0  0
 23 26  1  0  0  0  0
M  END
$$$$

  -OEChem-01062216063D

 26 25  0     1  0  0  0  0  0999 V2000
   -2.9597   -3.2144    1.0327 H   0  0  0  0  0  0  0  0  0  0  0  0
   -2.9498   -2.1749    0.6925 C   0  0  0  0  0  0  0  0  0  0  0  0
   -3.5648   -1.5781    1.3705 H   0  0  0  0  0  0  0  0  0  0  0  0
   -3.3771   -2.1300   -0.3123 H   0  0  0  0  0  0  0  0  0  0  0  0
   -1.5288   -1.6430    0.6750 C   0  0  0  0  0  0  0  0  0  0  0  0
   -0.6011   -2.3874    0.9513 O   0  0  0  0  0  0  0  0  0  0  0  0
   -1.2964   -0.3308    0.3093 N   0  0  0  0  0  0  0  0  0  0  0  0
   -2.1218    0.2255    0.1079 H   0  0  0  0  0  0  0  0  0  0  0  0
    0.0018    0.3715    0.3827 C   0  0  1  0  0  0  0  0  0  0  0  0
    0.7349   -0.1862   -0.2122 H   0  0  0  0  0  0  0  0  0  0  0  0
   -0.1817    1.7683   -0.2524 C   0  0  0  0  0  0  0  0  0  0  0  0
   -1.0251    2.2801    0.2183 H   0  0  0  0  0  0  0  0  0  0  0  0
    0.7115    2.3747   -0.0751 H   0  0  0  0  0  0  0  0  0  0  0  0
   -0.3823    1.7057   -1.7593 C   0  0  0  0  0  0  0  0  0  0  0  0
    0.2628    0.9677   -2.4786 O   0  0  0  0  0  0  0  0  0  0  0  0
   -1.3032    2.4933   -2.3892 N   0  0  0  0  0  0  0  0  0  0  0  0
   -1.2267    2.5216   -3.4024 H   0  0  0  0  0  0  0  0  0  0  0  0
   -1.6715    3.2965   -1.8904 H   0  0  0  0  0  0  0  0  0  0  0  0
    0.6093    0.4629    1.8120 C   0  0  0  0  0  0  0  0  0  0  0  0
    0.7900    1.5526    2.3439 O   0  0  0  0  0  0  0  0  0  0  0  0
    0.9147   -0.6708    2.5384 N   0  0  0  0  0  0  0  0  0  0  0  0
    0.6547   -1.5643    2.1117 H   0  0  0  0  0  0  0  0  0  0  0  0
    1.4072   -0.6576    3.9094 C   0  0  0  0  0  0  0  0  0  0  0  0
    0.6838   -0.1716    4.5721 H   0  0  0  0  0  0  0  0  0  0  0  0
    1.5668   -1.6811    4.2618 H   0  0  0  0  0  0  0  0  0  0  0  0
    2.3587   -0.1193    3.9694 H   0  0  0  0  0  0  0  0  0  0  0  0
  1  2  1  0  0  0  0
  2  3  1  0  0  0  0
  2  4  1  0  0  0  0
  2  5  1  0  0  0  0
  5  6  2  0  0  0  0
  5  7  1  0  0  0  0
  7  8  1  0  0  0  0
  7  9  1  0  0  0  0
  9 10  1  0  0  0  0
  9 11  1  0  0  0  0
  9 19  1  0  0  0  0
 11 12  1  0  0  0  0
 11 13  1  0  0  0  0
 11 14  1  0  0  0  0
 14 15  2  0  0  0  0
 14 16  1  0  0  0  0
 16 17  1  0  0  0  0
 16 18  1  0  0  0  0
 19 20  2  0  0  0  0
 19 21  1  0  0  0  0
 21 22  1  0  0  0  0
 21 23  1  0  0  0  0
 23 24  1  0  0  0  0
 23 25  1  0  0  0  0
 23 26  1  0  0  0  0
M  END
$$$$

  -OEChem-01062216063D

 26 25  0     1  0  0  0  0  0999 V2000
   -2.8851   -3.2185    1.1061 H   0  0  0  0  0  0  0  0  0  0  0  0
   -2.8983   -2.1853    0.7474 C   0  0  0  0  0  0  0  0  0  0  0  0
   -3.5154   -1.5871    1.4223 H   0  0  0  0  0  0  0  0  0  0  0  0
   -3.3387   -2.1657   -0.2526 H   0  0  0  0  0  0  0  0  0  0  0  0
   -1.4872   -1.6293    0.7017 C   0  0  0  0  0  0  0  0  0  0  0  0
   -0.5403   -2.3504    0.9775 O   0  0  0  0  0  0  0  0  0  0  0  0
   -1.2798   -0.3206    0.3099 N   0  0  0  0  0  0  0  0  0  0  0  0
   -2.1125    0.2326    0.1312 H   0  0  0  0  0  0  0  0  0  0  0  0
    0.0183    0.3788    0.3606 C   0  0  1  0  0  0  0  0  0  0  0  0
    0.7477   -0.1801   -0.2379 H   0  0  0  0  0  0  0  0  0  0  0  0
   -0.1626    1.7765   -0.2685 C   0  0  0  0  0  0  0  0  0  0  0  0
   -0.9974    2.2922    0.2136 H   0  0  0  0  0  0  0  0  0  0  0  0
    0.7376    2.3738   -0.0956 H   0  0  0  0  0  0  0  0  0  0  0  0
   -0.3850    1.7195   -1.7725 C   0  0  0  0  0  0  0  0  0  0  0  0
    0.2444    0.9780   -2.5021 O   0  0  0  0  0  0  0  0  0  0  0  0
   -1.3106    2.5140   -2.3870 N   0  0  0  0  0  0  0  0  0  0  0  0
   -1.2520    2.5440   -3.4012 H   0  0  0  0  0  0  0  0  0  0  0  0
   -1.6741    3.3139   -1.8793 H   0  0  0  0  0  0  0  0  0  0  0  0
    0.6177    0.4741    1.7888 C   0  0  0  0  0  0  0  0  0  0  0  0
    0.5947    1.5334    2.4060 O   0  0  0  0  0  0  0  0  0  0  0  0
    1.1895   -0.6319    2.3854 N   0  0  0  0  0  0  0  0  0  0  0  0
    0.9802   -1.5272    1.9355 H   0  0  0  0  0  0  0  0  0  0  0  0
    1.6733   -0.6407    3.7594 C   0  0  0  0  0  0  0  0  0  0  0  0
    0.8586   -0.4124    4.4545 H   0  0  0  0  0  0  0  0  0  0  0  0
    2.0781   -1.6261    4.0096 H   0  0  0  0  0  0  0  0  0  0  0  0
    2.4677    0.1015    3.8901 H   0  0  0  0  0  0  0  0  0  0  0  0
  1  2  1  0  0  0  0
  2  3  1  0  0  0  0
  2  4  1  0  0  0  0
  2  5  1  0  0  0  0
  5  6  2  0  0  0  0
  5  7  1  0  0  0  0
  7  8  1  0  0  0  0
  7  9  1  0  0  0  0
  9 10  1  0  0  0  0
  9 11  1  0  0  0  0
  9 19  1  0  0  0  0
 11 12  1  0  0  0  0
 11 13  1  0  0  0  0
 11 14  1  0  0  0  0
 14 15  2  0  0  0  0
 14 16  1  0  0  0  0
 16 17  1  0  0  0  0
 16 18  1  0  0  0  0
 19 20  2  0  0  0  0
 19 21  1  0  0  0  0
 21 22  1  0  0  0  0
 21 23  1  0  0  0  0
 23 24  1  0  0  0  0
 23 25  1  0  0  0  0
 23 26  1  0  0  0  0
M  END
$$$$

  -OEChem-01062216063D

 26 25  0     1  0  0  0  0  0999 V2000
   -2.7948   -3.2285    1.1703 H   0  0  0  0  0  0  0  0  0  0  0  0
   -2.8414   -2.1951    0.8152 C   0  0  0  0  0  0  0  0  0  0  0  0
   -3.4335   -1.6074    1.5208 H   0  0  0  0  0  0  0  0  0  0  0  0
   -3.3301   -2.1808   -0.1621 H   0  0  0  0  0  0  0  0  0  0  0  0
   -1.4434   -1.6167    0.7039 C   0  0  0  0  0  0  0  0  0  0  0  0
   -0.4712   -2.3107    0.9650 O   0  0  0  0  0  0  0  0  0  0  0  0
   -1.2709   -0.3101    0.2892 N   0  0  0  0  0  0  0  0  0  0  0  0
   -2.1136    0.2443    0.1719 H   0  0  0  0  0  0  0  0  0  0  0  0
    0.0247    0.3885    0.3333 C   0  0  1  0  0  0  0  0  0  0  0  0
    0.7571   -0.1688   -0.2632 H   0  0  0  0  0  0  0  0  0  0  0  0
   -0.1497    1.7895   -0.2869 C   0  0  0  0  0  0  0  0  0  0  0  0
   -0.9827    2.3059    0.1978 H   0  0  0  0  0  0  0  0  0  0  0  0
    0.7527    2.3814   -0.1086 H   0  0  0  0  0  0  0  0  0  0  0  0
   -0.3778    1.7389   -1.7903 C   0  0  0  0  0  0  0  0  0  0  0  0
    0.2457    0.9956   -2.5234 O   0  0  0  0  0  0  0  0  0  0  0  0
   -1.3023    2.5384   -2.3996 N   0  0  0  0  0  0  0  0  0  0  0  0
   -1.2523    2.5685   -3.4143 H   0  0  0  0  0  0  0  0  0  0  0  0
   -1.6683    3.3341   -1.8873 H   0  0  0  0  0  0  0  0  0  0  0  0
    0.5961    0.4831    1.7688 C   0  0  0  0  0  0  0  0  0  0  0  0
    0.3645    1.4642    2.4669 O   0  0  0  0  0  0  0  0  0  0  0  0
    1.4163   -0.5178    2.2504 N   0  0  0  0  0  0  0  0  0  0  0  0
    1.3306   -1.4094    1.7582 H   0  0  0  0  0  0  0  0  0  0  0  0
    1.9112   -0.5391    3.6207 C   0  0  0  0  0  0  0  0  0  0  0  0
    1.0782   -0.6056    4.3282 H   0  0  0  0  0  0  0  0  0  0  0  0
    2.5657   -1.4030    3.7711 H   0  0  0  0  0  0  0  0  0  0  0  0
    2.4858    0.3680    3.8358 H   0  0  0  0  0  0  0  0  0  0  0  0
  1  2  1  0  0  0  0
  2  3  1  0  0  0  0
  2  4  1  0  0  0  0
  2  5  1  0  0  0  0
  5  6  2  0  0  0  0
  5  7  1  0  0  0  0
  7  8  1  0  0  0  0
  7  9  1  0  0  0  0
  9 10  1  0  0  0  0
  9 11  1  0  0  0  0
  9 19  1  0  0  0  0
 11 12  1  0  0  0  0
 11 13  1  0  0  0  0
 11 14  1  0  0  0  0
 14 15  2  0  0  0  0
 14 16  1  0  0  0  0
 16 17  1  0  0  0  0
 16 18  1  0  0  0  0
 19 20  2  0  0  0  0
 19 21  1  0  0  0  0
 21 22  1  0  0  0  0
 21 23  1  0  0  0  0
 23 24  1  0  0  0  0
 23 25  1  0  0  0  0
 23 26  1  0  0  0  0
M  END
$$$$

  -OEChem-01062216063D

 26 25  0     1  0  0  0  0  0999 V2000
   -2.7344   -3.2350    1.2251 H   0  0  0  0  0  0  0  0  0  0  0  0
   -2.8053   -2.2041    0.8670 C   0  0  0  0  0  0  0  0  0  0  0  0
   -3.3738   -1.6181    1.5932 H   0  0  0  0  0  0  0  0  0  0  0  0
   -3.3333   -2.1994   -0.0897 H   0  0  0  0  0  0  0  0  0  0  0  0
   -1.4184   -1.6139    0.6954 C   0  0  0  0  0  0  0  0  0  0  0  0
   -0.4292   -2.2931    0.9305 O   0  0  0  0  0  0  0  0  0  0  0  0
   -1.2722   -0.3091    0.2651 N   0  0  0  0  0  0  0  0  0  0  0  0
   -2.1194    0.2488    0.2167 H   0  0  0  0  0  0  0  0  0  0  0  0
    0.0218    0.3896    0.3079 C   0  0  1  0  0  0  0  0  0  0  0  0
    0.7554   -0.1668   -0.2877 H   0  0  0  0  0  0  0  0  0  0  0  0
   -0.1451    1.7948   -0.3013 C   0  0  0  0  0  0  0  0  0  0  0  0
   -0.9769    2.3103    0.1865 H   0  0  0  0  0  0  0  0  0  0  0  0
    0.7593    2.3812   -0.1164 H   0  0  0  0  0  0  0  0  0  0  0  0
   -0.3749    1.7557   -1.8049 C   0  0  0  0  0  0  0  0  0  0  0  0
    0.2451    1.0133   -2.5421 O   0  0  0  0  0  0  0  0  0  0  0  0
   -1.2896    2.5694   -2.4105 N   0  0  0  0  0  0  0  0  0  0  0  0
   -1.2421    2.6035   -3.4251 H   0  0  0  0  0  0  0  0  0  0  0  0
   -1.6569    3.3608   -1.8928 H   0  0  0  0  0  0  0  0  0  0  0  0
    0.5740    0.4856    1.7483 C   0  0  0  0  0  0  0  0  0  0  0  0
    0.1345    1.3323    2.5186 O   0  0  0  0  0  0  0  0  0  0  0  0
    1.6170   -0.3290    2.1438 N   0  0  0  0  0  0  0  0  0  0  0  0
    1.7445   -1.1681    1.5792 H   0  0  0  0  0  0  0  0  0  0  0  0
    2.1219   -0.3453    3.5108 C   0  0  0  0  0  0  0  0  0  0  0  0
    1.3381   -0.6674    4.2044 H   0  0  0  0  0  0  0  0  0  0  0  0
    2.9654   -1.0374    3.5925 H   0  0  0  0  0  0  0  0  0  0  0  0
    2.4663    0.6518    3.8051 H   0  0  0  0  0  0  0  0  0  0  0  0
  1  2  1  0  0  0  0
  2  3  1  0  0  0  0
  2  4  1  0  0  0  0
  2  5  1  0  0  0  0
  5  6  2  0  0  0  0
  5  7  1  0  0  0  0
  7  8  1  0  0  0  0
  7  9  1  0  0  0  0
  9 10  1  0  0  0  0
  9 11  1  0  0  0  0
  9 19  1  0  0  0  0
 11 12  1  0  0  0  0
 11 13  1  0  0  0  0
 11 14  1  0  0  0  0
 14 15  2  0  0  0  0
 14 16  1  0  0  0  0
 16 17  1  0  0  0  0
 16 18  1  0  0  0  0
 19 20  2  0  0  0  0
 19 21  1  0  0  0  0
 21 22  1  0  0  0  0
 21 23  1  0  0  0  0
 23 24  1  0  0  0  0
 23 25  1  0  0  0  0
 23 26  1  0  0  0  0
M  END
$$$$

  -OEChem-01062216063D

 26 25  0     1  0  0  0  0  0999 V2000
   -2.7122   -3.2361    1.2544 H   0  0  0  0  0  0  0  0  0  0  0  0
   -2.7937   -2.2057    0.8971 C   0  0  0  0  0  0  0  0  0  0  0  0
   -3.3373   -1.6179    1.6407 H   0  0  0  0  0  0  0  0  0  0  0  0
   -3.3521   -2.2017   -0.0421 H   0  0  0  0  0  0  0  0  0  0  0  0
   -1.4119   -1.6177    0.6807 C   0  0  0  0  0  0  0  0  0  0  0  0
   -0.4173   -2.2972    0.8889 O   0  0  0  0  0  0  0  0  0  0  0  0
   -1.2766   -0.3142    0.2430 N   0  0  0  0  0  0  0  0  0  0  0  0
   -2.1225    0.2475    0.2501 H   0  0  0  0  0  0  0  0  0  0  0  0
    0.0168    0.3851    0.2917 C   0  0  1  0  0  0  0  0  0  0  0  0
    0.7515   -0.1720   -0.3014 H   0  0  0  0  0  0  0  0  0  0  0  0
   -0.1464    1.7937   -0.3090 C   0  0  0  0  0  0  0  0  0  0  0  0
   -0.9792    2.3071    0.1796 H   0  0  0  0  0  0  0  0  0  0  0  0
    0.7581    2.3783   -0.1186 H   0  0  0  0  0  0  0  0  0  0  0  0
   -0.3723    1.7638   -1.8134 C   0  0  0  0  0  0  0  0  0  0  0  0
    0.2493    1.0245   -2.5524 O   0  0  0  0  0  0  0  0  0  0  0  0
   -1.2799    2.5861   -2.4180 N   0  0  0  0  0  0  0  0  0  0  0  0
   -1.2310    2.6260   -3.4323 H   0  0  0  0  0  0  0  0  0  0  0  0
   -1.6534    3.3714   -1.8955 H   0  0  0  0  0  0  0  0  0  0  0  0
    0.5590    0.4870    1.7343 C   0  0  0  0  0  0  0  0  0  0  0  0
   -0.0518    1.1516    2.5643 O   0  0  0  0  0  0  0  0  0  0  0  0
    1.7756   -0.0782    2.0664 N   0  0  0  0  0  0  0  0  0  0  0  0
    2.1295   -0.7796    1.4199 H   0  0  0  0  0  0  0  0  0  0  0  0
    2.2941   -0.0785    3.4285 C   0  0  0  0  0  0  0  0  0  0  0  0
    1.6192   -0.6262    4.0945 H   0  0  0  0  0  0  0  0  0  0  0  0
    3.2767   -0.5586    3.4578 H   0  0  0  0  0  0  0  0  0  0  0  0
    2.4016    0.9462    3.7995 H   0  0  0  0  0  0  0  0  0  0  0  0
  1  2  1  0  0  0  0
  2  3  1  0  0  0  0
  2  4  1  0  0  0  0
  2  5  1  0  0  0  0
  5  6  2  0  0  0  0
  5  7  1  0  0  0  0
  7  8  1  0  0  0  0
  7  9  1  0  0  0  0
  9 10  1  0  0  0  0
  9 11  1  0  0  0  0
  9 19  1  0  0  0  0
 11 12  1  0  0  0  0
 11 13  1  0  0  0  0
 11 14  1  0  0  0  0
 14 15  2  0  0  0  0
 14 16  1  0  0  0  0
 16 17  1  0  0  0  0
 16 18  1  0  0  0  0
 19 20  2  0  0  0  0
 19 21  1  0  0  0  0
 21 22  1  0  0  0  0
 21 23  1  0  0  0  0
 23 24  1  0  0  0  0
 23 25  1  0  0  0  0
 23 26  1  0  0  0  0
M  END
$$$$

  -OEChem-01062216063D

 26 25  0     1  0  0  0  0  0999 V2000
   -2.7092   -3.2370    1.2641 H   0  0  0  0  0  0  0  0  0  0  0  0
   -2.7931   -2.2056    0.9102 C   0  0  0  0  0  0  0  0  0  0  0  0
   -3.3160   -1.6157    1.6669 H   0  0  0  0  0  0  0  0  0  0  0  0
   -3.3730   -2.1968   -0.0157 H   0  0  0  0  0  0  0  0  0  0  0  0
   -1.4137   -1.6246    0.6634 C   0  0  0  0  0  0  0  0  0  0  0  0
   -0.4186   -2.3103    0.8469 O   0  0  0  0  0  0  0  0  0  0  0  0
   -1.2834   -0.3211    0.2240 N   0  0  0  0  0  0  0  0  0  0  0  0
   -2.1269    0.2420    0.2720 H   0  0  0  0  0  0  0  0  0  0  0  0
    0.0095    0.3783    0.2869 C   0  0  1  0  0  0  0  0  0  0  0  0
    0.7477   -0.1799   -0.3006 H   0  0  0  0  0  0  0  0  0  0  0  0
   -0.1506    1.7890   -0.3067 C   0  0  0  0  0  0  0  0  0  0  0  0
   -0.9880    2.2977    0.1790 H   0  0  0  0  0  0  0  0  0  0  0  0
    0.7518    2.3735   -0.1071 H   0  0  0  0  0  0  0  0  0  0  0  0
   -0.3649    1.7673   -1.8129 C   0  0  0  0  0  0  0  0  0  0  0  0
    0.2639    1.0325   -2.5502 O   0  0  0  0  0  0  0  0  0  0  0  0
   -1.2681    2.5923   -2.4204 N   0  0  0  0  0  0  0  0  0  0  0  0
   -1.2172    2.6329   -3.4346 H   0  0  0  0  0  0  0  0  0  0  0  0
   -1.6522    3.3721   -1.8975 H   0  0  0  0  0  0  0  0  0  0  0  0
    0.5427    0.4854    1.7319 C   0  0  0  0  0  0  0  0  0  0  0  0
   -0.1803    0.9449    2.6093 O   0  0  0  0  0  0  0  0  0  0  0  0
    1.8674    0.2067    2.0115 N   0  0  0  0  0  0  0  0  0  0  0  0
    2.3830   -0.3037    1.2993 H   0  0  0  0  0  0  0  0  0  0  0  0
    2.4104    0.2438    3.3637 C   0  0  0  0  0  0  0  0  0  0  0  0
    1.8929   -0.4786    4.0034 H   0  0  0  0  0  0  0  0  0  0  0  0
    3.4758   -0.0053    3.3493 H   0  0  0  0  0  0  0  0  0  0  0  0
    2.2966    1.2431    3.7966 H   0  0  0  0  0  0  0  0  0  0  0  0
  1  2  1  0  0  0  0
  2  3  1  0  0  0  0
  2  4  1  0  0  0  0
  2  5  1  0  0  0  0
  5  6  2  0  0  0  0
  5  7  1  0  0  0  0
  7  8  1  0  0  0  0
  7  9  1  0  0  0  0
  9 10  1  0  0  0  0
  9 11  1  0  0  0  0
  9 19  1  0  0  0  0
 11 12  1  0  0  0  0
 11 13  1  0  0  0  0
 11 14  1  0  0  0  0
 14 15  2  0  0  0  0
 14 16  1  0  0  0  0
 16 17  1  0  0  0  0
 16 18  1  0  0  0  0
 19 20  2  0  0  0  0
 19 21  1  0  0  0  0
 21 22  1  0  0  0  0
 21 23  1  0  0  0  0
 23 24  1  0  0  0  0
 23 25  1  0  0  0  0
 23 26  1  0  0  0  0
M  END
$$$$

  -OEChem-01062216063D

 26 25  0     1  0  0  0  0  0999 V2000
   -2.7168   -3.2341    1.2704 H   0  0  0  0  0  0  0  0  0  0  0  0
   -2.8005   -2.2046    0.9108 C   0  0  0  0  0  0  0  0  0  0  0  0
   -3.3107   -1.6076    1.6707 H   0  0  0  0  0  0  0  0  0  0  0  0
   -3.3915   -2.1984   -0.0082 H   0  0  0  0  0  0  0  0  0  0  0  0
   -1.4213   -1.6326    0.6430 C   0  0  0  0  0  0  0  0  0  0  0  0
   -0.4293   -2.3299    0.7956 O   0  0  0  0  0  0  0  0  0  0  0  0
   -1.2896   -0.3276    0.2085 N   0  0  0  0  0  0  0  0  0  0  0  0
   -2.1295    0.2373    0.2856 H   0  0  0  0  0  0  0  0  0  0  0  0
    0.0052    0.3678    0.2891 C   0  0  1  0  0  0  0  0  0  0  0  0
    0.7474   -0.1901   -0.2942 H   0  0  0  0  0  0  0  0  0  0  0  0
   -0.1540    1.7819   -0.2977 C   0  0  0  0  0  0  0  0  0  0  0  0
   -0.9973    2.2844    0.1840 H   0  0  0  0  0  0  0  0  0  0  0  0
    0.7439    2.3701   -0.0883 H   0  0  0  0  0  0  0  0  0  0  0  0
   -0.3565    1.7685   -1.8059 C   0  0  0  0  0  0  0  0  0  0  0  0
    0.2806    1.0394   -2.5415 O   0  0  0  0  0  0  0  0  0  0  0  0
   -1.2570    2.5946   -2.4162 N   0  0  0  0  0  0  0  0  0  0  0  0
   -1.2073    2.6357   -3.4304 H   0  0  0  0  0  0  0  0  0  0  0  0
   -1.6562    3.3658   -1.8919 H   0  0  0  0  0  0  0  0  0  0  0  0
    0.5329    0.4741    1.7371 C   0  0  0  0  0  0  0  0  0  0  0  0
   -0.2465    0.7206    2.6514 O   0  0  0  0  0  0  0  0  0  0  0  0
    1.8938    0.4985    1.9807 N   0  0  0  0  0  0  0  0  0  0  0  0
    2.5009    0.1948    1.2243 H   0  0  0  0  0  0  0  0  0  0  0  0
    2.4537    0.6022    3.3227 C   0  0  0  0  0  0  0  0  0  0  0  0
    2.1285   -0.2424    3.9394 H   0  0  0  0  0  0  0  0  0  0  0  0
    3.5472    0.5983    3.2773 H   0  0  0  0  0  0  0  0  0  0  0  0
    2.1320    1.5329    3.8017 H   0  0  0  0  0  0  0  0  0  0  0  0
  1  2  1  0  0  0  0
  2  3  1  0  0  0  0
  2  4  1  0  0  0  0
  2  5  1  0  0  0  0
  5  6  2  0  0  0  0
  5  7  1  0  0  0  0
  7  8  1  0  0  0  0
  7  9  1  0  0  0  0
  9 10  1  0  0  0  0
  9 11  1  0  0  0  0
  9 19  1  0  0  0  0
 11 12  1  0  0  0  0
 11 13  1  0  0  0  0
 11 14  1  0  0  0  0
 14 15  2  0  0  0  0
 14 16  1  0  0  0  0
 16 17  1  0  0  0  0
 16 18  1  0  0  0  0
 19 20  2  0  0  0  0
 19 21  1  0  0  0  0
 21 22  1  0  0  0  0
 21 23  1  0  0  0  0
 23 24  1  0  0  0  0
 23 25  1  0  0  0  0
 23 26  1  0  0  0  0
M  END
$$$$

  -OEChem-01062216063D

 26 25  0     1  0  0  0  0  0999 V2000
   -2.7132   -3.2391    1.2591 H   0  0  0  0  0  0  0  0  0  0  0  0
   -2.7975   -2.2011    0.9253 C   0  0  0  0  0  0  0  0  0  0  0  0
   -3.2714   -1.6152    1.7167 H   0  0  0  0  0  0  0  0  0  0  0  0
   -3.4224   -2.1680    0.0296 H   0  0  0  0  0  0  0  0  0  0  0  0
   -1.4226   -1.6382    0.6192 C   0  0  0  0  0  0  0  0  0  0  0  0
   -0.4333   -2.3476    0.7273 O   0  0  0  0  0  0  0  0  0  0  0  0
   -1.2940   -0.3295    0.1927 N   0  0  0  0  0  0  0  0  0  0  0  0
   -2.1304    0.2341    0.3059 H   0  0  0  0  0  0  0  0  0  0  0  0
    0.0018    0.3637    0.2905 C   0  0  1  0  0  0  0  0  0  0  0  0
    0.7498   -0.1914   -0.2882 H   0  0  0  0  0  0  0  0  0  0  0  0
   -0.1621    1.7783   -0.2965 C   0  0  0  0  0  0  0  0  0  0  0  0
   -1.0129    2.2738    0.1789 H   0  0  0  0  0  0  0  0  0  0  0  0
    0.7288    2.3744   -0.0815 H   0  0  0  0  0  0  0  0  0  0  0  0
   -0.3521    1.7670   -1.8065 C   0  0  0  0  0  0  0  0  0  0  0  0
    0.2962    1.0438   -2.5378 O   0  0  0  0  0  0  0  0  0  0  0  0
   -1.2478    2.5937   -2.4231 N   0  0  0  0  0  0  0  0  0  0  0  0
   -1.1889    2.6373   -3.4368 H   0  0  0  0  0  0  0  0  0  0  0  0
   -1.6549    3.3621   -1.9009 H   0  0  0  0  0  0  0  0  0  0  0  0
    0.5264    0.4657    1.7421 C   0  0  0  0  0  0  0  0  0  0  0  0
   -0.2626    0.4852    2.6810 O   0  0  0  0  0  0  0  0  0  0  0  0
    1.8493    0.7972    1.9756 N   0  0  0  0  0  0  0  0  0  0  0  0
    2.4914    0.7109    1.1926 H   0  0  0  0  0  0  0  0  0  0  0  0
    2.4021    0.9500    3.3161 C   0  0  0  0  0  0  0  0  0  0  0  0
    2.2912    0.0203    3.8841 H   0  0  0  0  0  0  0  0  0  0  0  0
    3.4665    1.1978    3.2601 H   0  0  0  0  0  0  0  0  0  0  0  0
    1.8887    1.7543    3.8534 H   0  0  0  0  0  0  0  0  0  0  0  0
  1  2  1  0  0  0  0
  2  3  1  0  0  0  0
  2  4  1  0  0  0  0
  2  5  1  0  0  0  0
  5  6  2  0  0  0  0
  5  7  1  0  0  0  0
  7  8  1  0  0  0  0
  7  9  1  0  0  0  0
  9 10  1  0  0  0  0
  9 11  1  0  0  0  0
  9 19  1  0  0  0  0
 11 12  1  0  0  0  0
 11 13  1  0  0  0  0
 11 14  1  0  0  0  0
 14 15  2  0  0  0  0
 14 16  1  0  0  0  0
 16 17  1  0  0  0  0
 16 18  1  0  0  0  0
 19 20  2  0  0  0  0
 19 21  1  0  0  0  0
 21 22  1  0  0  0  0
 21 23  1  0  0  0  0
 23 24  1  0  0  0  0
 23 25  1  0  0  0  0
 23 26  1  0  0  0  0
M  END
$$$$

  -OEChem-01062216063D

 26 25  0     1  0  0  0  0  0999 V2000
   -2.7635   -3.2512    1.1358 H   0  0  0  0  0  0  0  0  0  0  0  0
   -2.8173   -2.1857    0.8957 C   0  0  0  0  0  0  0  0  0  0  0  0
   -3.1990   -1.6488    1.7675 H   0  0  0  0  0  0  0  0  0  0  0  0
   -3.5036   -2.0465    0.0572 H   0  0  0  0  0  0  0  0  0  0  0  0
   -1.4401   -1.6635    0.5326 C   0  0  0  0  0  0  0  0  0  0  0  0
   -0.4891   -2.4291    0.4799 O   0  0  0  0  0  0  0  0  0  0  0  0
   -1.2794   -0.3419    0.1569 N   0  0  0  0  0  0  0  0  0  0  0  0
   -2.1102    0.2258    0.2836 H   0  0  0  0  0  0  0  0  0  0  0  0
    0.0197    0.3441    0.3033 C   0  0  1  0  0  0  0  0  0  0  0  0
    0.6981   -0.0277   -0.4734 H   0  0  0  0  0  0  0  0  0  0  0  0
   -0.2423    1.8513    0.0962 C   0  0  0  0  0  0  0  0  0  0  0  0
   -1.0504    2.1745    0.7579 H   0  0  0  0  0  0  0  0  0  0  0  0
    0.6462    2.4305    0.3586 H   0  0  0  0  0  0  0  0  0  0  0  0
   -0.5888    2.1913   -1.3465 C   0  0  0  0  0  0  0  0  0  0  0  0
   -0.0013    1.6974   -2.2891 O   0  0  0  0  0  0  0  0  0  0  0  0
   -1.5758    3.0830   -1.6566 N   0  0  0  0  0  0  0  0  0  0  0  0
   -1.6278    3.3675   -2.6311 H   0  0  0  0  0  0  0  0  0  0  0  0
   -1.9504    3.6820   -0.9287 H   0  0  0  0  0  0  0  0  0  0  0  0
    0.7394    0.1222    1.6623 C   0  0  0  0  0  0  0  0  0  0  0  0
    0.1066   -0.2433    2.6473 O   0  0  0  0  0  0  0  0  0  0  0  0
    1.9678    0.7213    1.8877 N   0  0  0  0  0  0  0  0  0  0  0  0
    2.4998    1.0027    1.0692 H   0  0  0  0  0  0  0  0  0  0  0  0
    2.6472    0.6839    3.1782 C   0  0  0  0  0  0  0  0  0  0  0  0
    2.8186   -0.3516    3.4911 H   0  0  0  0  0  0  0  0  0  0  0  0
    3.6148    1.1904    3.1111 H   0  0  0  0  0  0  0  0  0  0  0  0
    2.0469    1.1881    3.9428 H   0  0  0  0  0  0  0  0  0  0  0  0
  1  2  1  0  0  0  0
  2  3  1  0  0  0  0
  2  4  1  0  0  0  0
  2  5  1  0  0  0  0
  5  6  2  0  0  0  0
  5  7  1  0  0  0  0
  7  8  1  0  0  0  0
  7  9  1  0  0  0  0
  9 10  1  0  0  0  0
  9 11  1  0  0  0  0
  9 19  1  0  0  0  0
 11 12  1  0  0  0  0
 11 13  1  0  0  0  0
 11 14  1  0  0  0  0
 14 15  2  0  0  0  0
 14 16  1  0  0  0  0
 16 17  1  0  0  0  0
 16 18  1  0  0  0  0
 19 20  2  0  0  0  0
 19 21  1  0  0  0  0
 21 22  1  0  0  0  0
 21 23  1  0  0  0  0
 23 24  1  0  0  0  0
 23 25  1  0  0  0  0
 23 26  1  0  0  0  0
M  END
$$$$

  -OEChem-01062216063D

 26 25  0     1  0  0  0  0  0999 V2000
   -2.7652   -3.2497    1.1013 H   0  0  0  0  0  0  0  0  0  0  0  0
   -2.8105   -2.1739    0.9099 C   0  0  0  0  0  0  0  0  0  0  0  0
   -3.1469   -1.6699    1.8191 H   0  0  0  0  0  0  0  0  0  0  0  0
   -3.5281   -1.9882    0.1074 H   0  0  0  0  0  0  0  0  0  0  0  0
   -1.4399   -1.6583    0.5133 C   0  0  0  0  0  0  0  0  0  0  0  0
   -0.5069   -2.4367    0.3864 O   0  0  0  0  0  0  0  0  0  0  0  0
   -1.2749   -0.3307    0.1596 N   0  0  0  0  0  0  0  0  0  0  0  0
   -2.1039    0.2336    0.3090 H   0  0  0  0  0  0  0  0  0  0  0  0
    0.0242    0.3571    0.3163 C   0  0  1  0  0  0  0  0  0  0  0  0
    0.7047   -0.0107   -0.4606 H   0  0  0  0  0  0  0  0  0  0  0  0
   -0.2591    1.8614    0.0904 C   0  0  0  0  0  0  0  0  0  0  0  0
   -1.0759    2.1813    0.7432 H   0  0  0  0  0  0  0  0  0  0  0  0
    0.6168    2.4614    0.3450 H   0  0  0  0  0  0  0  0  0  0  0  0
   -0.5969    2.1824   -1.3596 C   0  0  0  0  0  0  0  0  0  0  0  0
    0.0063    1.6890   -2.2922 O   0  0  0  0  0  0  0  0  0  0  0  0
   -1.5919    3.0588   -1.6879 N   0  0  0  0  0  0  0  0  0  0  0  0
   -1.6420    3.3293   -2.6666 H   0  0  0  0  0  0  0  0  0  0  0  0
   -1.9844    3.6590   -0.9707 H   0  0  0  0  0  0  0  0  0  0  0  0
    0.7622    0.1298    1.6716 C   0  0  0  0  0  0  0  0  0  0  0  0
    0.2224   -0.4719    2.5929 O   0  0  0  0  0  0  0  0  0  0  0  0
    1.8155    0.9588    2.0261 N   0  0  0  0  0  0  0  0  0  0  0  0
    2.2901    1.4444    1.2710 H   0  0  0  0  0  0  0  0  0  0  0  0
    2.4587    0.9228    3.3358 C   0  0  0  0  0  0  0  0  0  0  0  0
    2.8473   -0.0795    3.5449 H   0  0  0  0  0  0  0  0  0  0  0  0
    3.2925    1.6307    3.3671 H   0  0  0  0  0  0  0  0  0  0  0  0
    1.7463    1.1954    4.1215 H   0  0  0  0  0  0  0  0  0  0  0  0
  1  2  1  0  0  0  0
  2  3  1  0  0  0  0
  2  4  1  0  0  0  0
  2  5  1  0  0  0  0
  5  6  2  0  0  0  0
  5  7  1  0  0  0  0
  7  8  1  0  0  0  0
  7  9  1  0  0  0  0
  9 10  1  0  0  0  0
  9 11  1  0  0  0  0
  9 19  1  0  0  0  0
 11 12  1  0  0  0  0
 11 13  1  0  0  0  0
 11 14  1  0  0  0  0
 14 15  2  0  0  0  0
 14 16  1  0  0  0  0
 16 17  1  0  0  0  0
 16 18  1  0  0  0  0
 19 20  2  0  0  0  0
 19 21  1  0  0  0  0
 21 22  1  0  0  0  0
 21 23  1  0  0  0  0
 23 24  1  0  0  0  0
 23 25  1  0  0  0  0
 23 26  1  0  0  0  0
M  END
$$$$

  -OEChem-01062216063D

 26 25  0     1  0  0  0  0  0999 V2000
   -2.7656   -3.2392    1.0933 H   0  0  0  0  0  0  0  0  0  0  0  0
   -2.8006   -2.1575    0.9352 C   0  0  0  0  0  0  0  0  0  0  0  0
   -3.0918   -1.6764    1.8719 H   0  0  0  0  0  0  0  0  0  0  0  0
   -3.5466   -1.9367    0.1683 H   0  0  0  0  0  0  0  0  0  0  0  0
   -1.4386   -1.6517    0.4982 C   0  0  0  0  0  0  0  0  0  0  0  0
   -0.5324   -2.4430    0.2891 O   0  0  0  0  0  0  0  0  0  0  0  0
   -1.2702   -0.3197    0.1644 N   0  0  0  0  0  0  0  0  0  0  0  0
   -2.0997    0.2390    0.3296 H   0  0  0  0  0  0  0  0  0  0  0  0
    0.0228    0.3793    0.3314 C   0  0  1  0  0  0  0  0  0  0  0  0
    0.7090    0.0128   -0.4416 H   0  0  0  0  0  0  0  0  0  0  0  0
   -0.2805    1.8771    0.0770 C   0  0  0  0  0  0  0  0  0  0  0  0
   -1.1085    2.1970    0.7150 H   0  0  0  0  0  0  0  0  0  0  0  0
    0.5838    2.4960    0.3235 H   0  0  0  0  0  0  0  0  0  0  0  0
   -0.6028    2.1706   -1.3831 C   0  0  0  0  0  0  0  0  0  0  0  0
    0.0199    1.6730   -2.3000 O   0  0  0  0  0  0  0  0  0  0  0  0
   -1.6031    3.0303   -1.7382 N   0  0  0  0  0  0  0  0  0  0  0  0
   -1.6442    3.2833   -2.7220 H   0  0  0  0  0  0  0  0  0  0  0  0
   -2.0154    3.6352   -1.0363 H   0  0  0  0  0  0  0  0  0  0  0  0
    0.7748    0.1550    1.6851 C   0  0  0  0  0  0  0  0  0  0  0  0
    0.4193   -0.6936    2.4919 O   0  0  0  0  0  0  0  0  0  0  0  0
    1.5955    1.1487    2.1991 N   0  0  0  0  0  0  0  0  0  0  0  0
    1.9378    1.8453    1.5455 H   0  0  0  0  0  0  0  0  0  0  0  0
    2.2187    1.0778    3.5175 C   0  0  0  0  0  0  0  0  0  0  0  0
    2.8408    0.1801    3.6000 H   0  0  0  0  0  0  0  0  0  0  0  0
    2.8522    1.9543    3.6839 H   0  0  0  0  0  0  0  0  0  0  0  0
    1.4556    1.0513    4.3027 H   0  0  0  0  0  0  0  0  0  0  0  0
  1  2  1  0  0  0  0
  2  3  1  0  0  0  0
  2  4  1  0  0  0  0
  2  5  1  0  0  0  0
  5  6  2  0  0  0  0
  5  7  1  0  0  0  0
  7  8  1  0  0  0  0
  7  9  1  0  0  0  0
  9 10  1  0  0  0  0
  9 11  1  0  0  0  0
  9 19  1  0  0  0  0
 11 12  1  0  0  0  0
 11 13  1  0  0  0  0
 11 14  1  0  0  0  0
 14 15  2  0  0  0  0
 14 16  1  0  0  0  0
 16 17  1  0  0  0  0
 16 18  1  0  0  0  0
 19 20  2  0  0  0  0
 19 21  1  0  0  0  0
 21 22  1  0  0  0  0
 21 23  1  0  0  0  0
 23 24  1  0  0  0  0
 23 25  1  0  0  0  0
 23 26  1  0  0  0  0
M  END
$$$$

  -OEChem-01062216063D

 26 25  0     1  0  0  0  0  0999 V2000
   -2.7577   -3.2275    1.1370 H   0  0  0  0  0  0  0  0  0  0  0  0
   -2.7961   -2.1487    0.9611 C   0  0  0  0  0  0  0  0  0  0  0  0
   -3.0780   -1.6527    1.8928 H   0  0  0  0  0  0  0  0  0  0  0  0
   -3.5511   -1.9423    0.1991 H   0  0  0  0  0  0  0  0  0  0  0  0
   -1.4396   -1.6494    0.4998 C   0  0  0  0  0  0  0  0  0  0  0  0
   -0.5578   -2.4504    0.2383 O   0  0  0  0  0  0  0  0  0  0  0  0
   -1.2711   -0.3155    0.1740 N   0  0  0  0  0  0  0  0  0  0  0  0
   -2.1075    0.2358    0.3285 H   0  0  0  0  0  0  0  0  0  0  0  0
    0.0108    0.4038    0.3469 C   0  0  1  0  0  0  0  0  0  0  0  0
    0.7077    0.0335   -0.4153 H   0  0  0  0  0  0  0  0  0  0  0  0
   -0.2949    1.8953    0.0620 C   0  0  0  0  0  0  0  0  0  0  0  0
   -1.1305    2.2273    0.6838 H   0  0  0  0  0  0  0  0  0  0  0  0
    0.5704    2.5156    0.3023 H   0  0  0  0  0  0  0  0  0  0  0  0
   -0.5961    2.1638   -1.4078 C   0  0  0  0  0  0  0  0  0  0  0  0
    0.0409    1.6554   -2.3082 O   0  0  0  0  0  0  0  0  0  0  0  0
   -1.5931    3.0152   -1.7914 N   0  0  0  0  0  0  0  0  0  0  0  0
   -1.6199    3.2518   -2.7799 H   0  0  0  0  0  0  0  0  0  0  0  0
   -2.0203    3.6287   -1.1062 H   0  0  0  0  0  0  0  0  0  0  0  0
    0.7602    0.1887    1.7045 C   0  0  0  0  0  0  0  0  0  0  0  0
    0.7075   -0.8587    2.3307 O   0  0  0  0  0  0  0  0  0  0  0  0
    1.3050    1.2648    2.3914 N   0  0  0  0  0  0  0  0  0  0  0  0
    1.3968    2.1406    1.8891 H   0  0  0  0  0  0  0  0  0  0  0  0
    1.9459    1.1481    3.6980 C   0  0  0  0  0  0  0  0  0  0  0  0
    2.7889    0.4506    3.6506 H   0  0  0  0  0  0  0  0  0  0  0  0
    2.3212    2.1228    4.0239 H   0  0  0  0  0  0  0  0  0  0  0  0
    1.2315    0.7866    4.4450 H   0  0  0  0  0  0  0  0  0  0  0  0
  1  2  1  0  0  0  0
  2  3  1  0  0  0  0
  2  4  1  0  0  0  0
  2  5  1  0  0  0  0
  5  6  2  0  0  0  0
  5  7  1  0  0  0  0
  7  8  1  0  0  0  0
  7  9  1  0  0  0  0
  9 10  1  0  0  0  0
  9 11  1  0  0  0  0
  9 19  1  0  0  0  0
 11 12  1  0  0  0  0
 11 13  1  0  0  0  0
 11 14  1  0  0  0  0
 14 15  2  0  0  0  0
 14 16  1  0  0  0  0
 16 17  1  0  0  0  0
 16 18  1  0  0  0  0
 19 20  2  0  0  0  0
 19 21  1  0  0  0  0
 21 22  1  0  0  0  0
 21 23  1  0  0  0  0
 23 24  1  0  0  0  0
 23 25  1  0  0  0  0
 23 26  1  0  0  0  0
M  END
$$$$

  -OEChem-01062216063D

 26 25  0     1  0  0  0  0  0999 V2000
   -2.8715   -3.2176    1.0565 H   0  0  0  0  0  0  0  0  0  0  0  0
   -2.8787   -2.1403    0.8677 C   0  0  0  0  0  0  0  0  0  0  0  0
   -3.2653   -1.6320    1.7540 H   0  0  0  0  0  0  0  0  0  0  0  0
   -3.5360   -1.9367    0.0190 H   0  0  0  0  0  0  0  0  0  0  0  0
   -1.4729   -1.6560    0.5639 C   0  0  0  0  0  0  0  0  0  0  0  0
   -0.5763   -2.4707    0.4514 O   0  0  0  0  0  0  0  0  0  0  0  0
   -1.2735   -0.3282    0.2309 N   0  0  0  0  0  0  0  0  0  0  0  0
   -2.1205    0.2284    0.2560 H   0  0  0  0  0  0  0  0  0  0  0  0
   -0.0005    0.4075    0.3950 C   0  0  1  0  0  0  0  0  0  0  0  0
    0.7043    0.0250   -0.3539 H   0  0  0  0  0  0  0  0  0  0  0  0
   -0.2945    1.8944    0.0840 C   0  0  0  0  0  0  0  0  0  0  0  0
   -1.1337    2.2437    0.6911 H   0  0  0  0  0  0  0  0  0  0  0  0
    0.5792    2.5049    0.3267 H   0  0  0  0  0  0  0  0  0  0  0  0
   -0.5835    2.1387   -1.3930 C   0  0  0  0  0  0  0  0  0  0  0  0
    0.0546    1.6125   -2.2819 O   0  0  0  0  0  0  0  0  0  0  0  0
   -1.5856    2.9734   -1.7989 N   0  0  0  0  0  0  0  0  0  0  0  0
   -1.5998    3.1923   -2.7919 H   0  0  0  0  0  0  0  0  0  0  0  0
   -2.0045    3.6113   -1.1313 H   0  0  0  0  0  0  0  0  0  0  0  0
    0.7382    0.2136    1.7562 C   0  0  0  0  0  0  0  0  0  0  0  0
    1.1433   -0.8713    2.1382 O   0  0  0  0  0  0  0  0  0  0  0  0
    0.9924    1.2938    2.5893 N   0  0  0  0  0  0  0  0  0  0  0  0
    0.7035    2.2123    2.2730 H   0  0  0  0  0  0  0  0  0  0  0  0
    1.7270    1.1869    3.8460 C   0  0  0  0  0  0  0  0  0  0  0  0
    2.7480    0.8349    3.6645 H   0  0  0  0  0  0  0  0  0  0  0  0
    1.7799    2.1626    4.3384 H   0  0  0  0  0  0  0  0  0  0  0  0
    1.2286    0.4853    4.5235 H   0  0  0  0  0  0  0  0  0  0  0  0
  1  2  1  0  0  0  0
  2  3  1  0  0  0  0
  2  4  1  0  0  0  0
  2  5  1  0  0  0  0
  5  6  2  0  0  0  0
  5  7  1  0  0  0  0
  7  8  1  0  0  0  0
  7  9  1  0  0  0  0
  9 10  1  0  0  0  0
  9 11  1  0  0  0  0
  9 19  1  0  0  0  0
 11 12  1  0  0  0  0
 11 13  1  0  0  0  0
 11 14  1  0  0  0  0
 14 15  2  0  0  0  0
 14 16  1  0  0  0  0
 16 17  1  0  0  0  0
 16 18  1  0  0  0  0
 19 20  2  0  0  0  0
 19 21  1  0  0  0  0
 21 22  1  0  0  0  0
 21 23  1  0  0  0  0
 23 24  1  0  0  0  0
 23 25  1  0  0  0  0
 23 26  1  0  0  0  0
M  END
$$$$

  -OEChem-01062216063D

 26 25  0     1  0  0  0  0  0999 V2000
   -3.0780   -3.2123    0.8282 H   0  0  0  0  0  0  0  0  0  0  0  0
   -2.9896   -2.1951    0.4356 C   0  0  0  0  0  0  0  0  0  0  0  0
   -3.8274   -1.6008    0.8074 H   0  0  0  0  0  0  0  0  0  0  0  0
   -3.0342   -2.2362   -0.6554 H   0  0  0  0  0  0  0  0  0  0  0  0
   -1.6763   -1.5760    0.8781 C   0  0  0  0  0  0  0  0  0  0  0  0
   -0.9460   -2.2126    1.6111 O   0  0  0  0  0  0  0  0  0  0  0  0
   -1.3772   -0.2907    0.4615 N   0  0  0  0  0  0  0  0  0  0  0  0
   -2.0282    0.0730   -0.2282 H   0  0  0  0  0  0  0  0  0  0  0  0
   -0.0570    0.3756    0.5210 C   0  0  1  0  0  0  0  0  0  0  0  0
    0.5854   -0.0695   -0.2492 H   0  0  0  0  0  0  0  0  0  0  0  0
   -0.2892    1.8656    0.1824 C   0  0  0  0  0  0  0  0  0  0  0  0
   -1.0722    2.2748    0.8260 H   0  0  0  0  0  0  0  0  0  0  0  0
    0.6293    2.4325    0.3618 H   0  0  0  0  0  0  0  0  0  0  0  0
   -0.6607    2.0786   -1.2788 C   0  0  0  0  0  0  0  0  0  0  0  0
   -0.1130    1.4890   -2.1881 O   0  0  0  0  0  0  0  0  0  0  0  0
   -1.6733    2.9186   -1.6447 N   0  0  0  0  0  0  0  0  0  0  0  0
   -1.7344    3.1195   -2.6398 H   0  0  0  0  0  0  0  0  0  0  0  0
   -2.0133    3.5978   -0.9721 H   0  0  0  0  0  0  0  0  0  0  0  0
    0.7449    0.2212    1.8447 C   0  0  0  0  0  0  0  0  0  0  0  0
    1.5874   -0.6601    1.9359 O   0  0  0  0  0  0  0  0  0  0  0  0
    0.8389    1.2671    2.7514 N   0  0  0  0  0  0  0  0  0  0  0  0
    0.1349    1.9937    2.6918 H   0  0  0  0  0  0  0  0  0  0  0  0
    1.7025    1.2277    3.9268 C   0  0  0  0  0  0  0  0  0  0  0  0
    2.7524    1.1359    3.6289 H   0  0  0  0  0  0  0  0  0  0  0  0
    1.5897    2.1461    4.5106 H   0  0  0  0  0  0  0  0  0  0  0  0
    1.4422    0.3764    4.5648 H   0  0  0  0  0  0  0  0  0  0  0  0
  1  2  1  0  0  0  0
  2  3  1  0  0  0  0
  2  4  1  0  0  0  0
  2  5  1  0  0  0  0
  5  6  2  0  0  0  0
  5  7  1  0  0  0  0
  7  8  1  0  0  0  0
  7  9  1  0  0  0  0
  9 10  1  0  0  0  0
  9 11  1  0  0  0  0
  9 19  1  0  0  0  0
 11 12  1  0  0  0  0
 11 13  1  0  0  0  0
 11 14  1  0  0  0  0
 14 15  2  0  0  0  0
 14 16  1  0  0  0  0
 16 17  1  0  0  0  0
 16 18  1  0  0  0  0
 19 20  2  0  0  0  0
 19 21  1  0  0  0  0
 21 22  1  0  0  0  0
 21 23  1  0  0  0  0
 23 24  1  0  0  0  0
 23 25  1  0  0  0  0
 23 26  1  0  0  0  0
M  END
$$$$

  -OEChem-01062216063D

 26 25  0     1  0  0  0  0  0999 V2000
   -3.0399   -3.2358    0.8553 H   0  0  0  0  0  0  0  0  0  0  0  0
   -2.9779   -2.2172    0.4612 C   0  0  0  0  0  0  0  0  0  0  0  0
   -3.8208   -1.6388    0.8467 H   0  0  0  0  0  0  0  0  0  0  0  0
   -3.0397   -2.2598   -0.6289 H   0  0  0  0  0  0  0  0  0  0  0  0
   -1.6697   -1.5729    0.8818 C   0  0  0  0  0  0  0  0  0  0  0  0
   -0.9194   -2.1861    1.6161 O   0  0  0  0  0  0  0  0  0  0  0  0
   -1.3880   -0.2894    0.4482 N   0  0  0  0  0  0  0  0  0  0  0  0
   -2.0383    0.0590   -0.2506 H   0  0  0  0  0  0  0  0  0  0  0  0
   -0.0646    0.3692    0.4922 C   0  0  1  0  0  0  0  0  0  0  0  0
    0.5690   -0.0810   -0.2825 H   0  0  0  0  0  0  0  0  0  0  0  0
   -0.2717    1.8642    0.1673 C   0  0  0  0  0  0  0  0  0  0  0  0
   -1.0423    2.2826    0.8194 H   0  0  0  0  0  0  0  0  0  0  0  0
    0.6585    2.4109    0.3500 H   0  0  0  0  0  0  0  0  0  0  0  0
   -0.6552    2.0938   -1.2881 C   0  0  0  0  0  0  0  0  0  0  0  0
   -0.1295    1.5002   -2.2080 O   0  0  0  0  0  0  0  0  0  0  0  0
   -1.6507    2.9608   -1.6376 N   0  0  0  0  0  0  0  0  0  0  0  0
   -1.7121    3.1727   -2.6303 H   0  0  0  0  0  0  0  0  0  0  0  0
   -1.9600    3.6470   -0.9574 H   0  0  0  0  0  0  0  0  0  0  0  0
    0.7346    0.2114    1.8130 C   0  0  0  0  0  0  0  0  0  0  0  0
    1.7245   -0.5070    1.8295 O   0  0  0  0  0  0  0  0  0  0  0  0
    0.5881    1.1264    2.8439 N   0  0  0  0  0  0  0  0  0  0  0  0
   -0.2724    1.6624    2.8552 H   0  0  0  0  0  0  0  0  0  0  0  0
    1.3878    1.0724    4.0626 C   0  0  0  0  0  0  0  0  0  0  0  0
    2.4503    1.2007    3.8302 H   0  0  0  0  0  0  0  0  0  0  0  0
    1.0874    1.8697    4.7489 H   0  0  0  0  0  0  0  0  0  0  0  0
    1.2516    0.1097    4.5668 H   0  0  0  0  0  0  0  0  0  0  0  0
  1  2  1  0  0  0  0
  2  3  1  0  0  0  0
  2  4  1  0  0  0  0
  2  5  1  0  0  0  0
  5  6  2  0  0  0  0
  5  7  1  0  0  0  0
  7  8  1  0  0  0  0
  7  9  1  0  0  0  0
  9 10  1  0  0  0  0
  9 11  1  0  0  0  0
  9 19  1  0  0  0  0
 11 12  1  0  0  0  0
 11 13  1  0  0  0  0
 11 14  1  0  0  0  0
 14 15  2  0  0  0  0
 14 16  1  0  0  0  0
 16 17  1  0  0  0  0
 16 18  1  0  0  0  0
 19 20  2  0  0  0  0
 19 21  1  0  0  0  0
 21 22  1  0  0  0  0
 21 23  1  0  0  0  0
 23 24  1  0  0  0  0
 23 25  1  0  0  0  0
 23 26  1  0  0  0  0
M  END
$$$$

  -OEChem-01062216063D

 26 25  0     1  0  0  0  0  0999 V2000
   -3.0227   -3.2538    0.8530 H   0  0  0  0  0  0  0  0  0  0  0  0
   -2.9779   -2.2288    0.4735 C   0  0  0  0  0  0  0  0  0  0  0  0
   -3.8137   -1.6622    0.8907 H   0  0  0  0  0  0  0  0  0  0  0  0
   -3.0699   -2.2549   -0.6151 H   0  0  0  0  0  0  0  0  0  0  0  0
   -1.6633   -1.5815    0.8685 C   0  0  0  0  0  0  0  0  0  0  0  0
   -0.8932   -2.1916    1.5862 O   0  0  0  0  0  0  0  0  0  0  0  0
   -1.3881   -0.2991    0.4282 N   0  0  0  0  0  0  0  0  0  0  0  0
   -2.0421    0.0499   -0.2671 H   0  0  0  0  0  0  0  0  0  0  0  0
   -0.0633    0.3558    0.4686 C   0  0  1  0  0  0  0  0  0  0  0  0
    0.5675   -0.0928   -0.3093 H   0  0  0  0  0  0  0  0  0  0  0  0
   -0.2558    1.8554    0.1643 C   0  0  0  0  0  0  0  0  0  0  0  0
   -1.0164    2.2747    0.8277 H   0  0  0  0  0  0  0  0  0  0  0  0
    0.6816    2.3885    0.3505 H   0  0  0  0  0  0  0  0  0  0  0  0
   -0.6465    2.1064   -1.2851 C   0  0  0  0  0  0  0  0  0  0  0  0
   -0.1342    1.5185   -2.2162 O   0  0  0  0  0  0  0  0  0  0  0  0
   -1.6355    2.9877   -1.6164 N   0  0  0  0  0  0  0  0  0  0  0  0
   -1.6993    3.2139   -2.6057 H   0  0  0  0  0  0  0  0  0  0  0  0
   -1.9267    3.6715   -0.9258 H   0  0  0  0  0  0  0  0  0  0  0  0
    0.7309    0.1971    1.7891 C   0  0  0  0  0  0  0  0  0  0  0  0
    1.8455   -0.3066    1.7601 O   0  0  0  0  0  0  0  0  0  0  0  0
    0.3639    0.9178    2.9137 N   0  0  0  0  0  0  0  0  0  0  0  0
   -0.6022    1.2243    2.9505 H   0  0  0  0  0  0  0  0  0  0  0  0
    1.1183    0.8594    4.1605 C   0  0  0  0  0  0  0  0  0  0  0  0
    2.1456    1.2051    4.0043 H   0  0  0  0  0  0  0  0  0  0  0  0
    0.6521    1.4995    4.9153 H   0  0  0  0  0  0  0  0  0  0  0  0
    1.1465   -0.1664    4.5432 H   0  0  0  0  0  0  0  0  0  0  0  0
  1  2  1  0  0  0  0
  2  3  1  0  0  0  0
  2  4  1  0  0  0  0
  2  5  1  0  0  0  0
  5  6  2  0  0  0  0
  5  7  1  0  0  0  0
  7  8  1  0  0  0  0
  7  9  1  0  0  0  0
  9 10  1  0  0  0  0
  9 11  1  0  0  0  0
  9 19  1  0  0  0  0
 11 12  1  0  0  0  0
 11 13  1  0  0  0  0
 11 14  1  0  0  0  0
 14 15  2  0  0  0  0
 14 16  1  0  0  0  0
 16 17  1  0  0  0  0
 16 18  1  0  0  0  0
 19 20  2  0  0  0  0
 19 21  1  0  0  0  0
 21 22  1  0  0  0  0
 21 23  1  0  0  0  0
 23 24  1  0  0  0  0
 23 25  1  0  0  0  0
 23 26  1  0  0  0  0
M  END
$$$$

  -OEChem-01062216063D

 26 25  0     1  0  0  0  0  0999 V2000
   -3.0202   -3.2608    0.8510 H   0  0  0  0  0  0  0  0  0  0  0  0
   -2.9815   -2.2340    0.4758 C   0  0  0  0  0  0  0  0  0  0  0  0
   -3.8151   -1.6713    0.9025 H   0  0  0  0  0  0  0  0  0  0  0  0
   -3.0828   -2.2551   -0.6122 H   0  0  0  0  0  0  0  0  0  0  0  0
   -1.6650   -1.5856    0.8621 C   0  0  0  0  0  0  0  0  0  0  0  0
   -0.8905   -2.1909    1.5800 O   0  0  0  0  0  0  0  0  0  0  0  0
   -1.3878   -0.3068    0.4130 N   0  0  0  0  0  0  0  0  0  0  0  0
   -2.0411    0.0425   -0.2832 H   0  0  0  0  0  0  0  0  0  0  0  0
   -0.0596    0.3422    0.4494 C   0  0  1  0  0  0  0  0  0  0  0  0
    0.5690   -0.1062   -0.3302 H   0  0  0  0  0  0  0  0  0  0  0  0
   -0.2433    1.8450    0.1621 C   0  0  0  0  0  0  0  0  0  0  0  0
   -0.9944    2.2625    0.8377 H   0  0  0  0  0  0  0  0  0  0  0  0
    0.6996    2.3690    0.3471 H   0  0  0  0  0  0  0  0  0  0  0  0
   -0.6428    2.1143   -1.2813 C   0  0  0  0  0  0  0  0  0  0  0  0
   -0.1421    1.5327   -2.2230 O   0  0  0  0  0  0  0  0  0  0  0  0
   -1.6276    3.0069   -1.5946 N   0  0  0  0  0  0  0  0  0  0  0  0
   -1.6940    3.2481   -2.5801 H   0  0  0  0  0  0  0  0  0  0  0  0
   -1.9048    3.6857   -0.8934 H   0  0  0  0  0  0  0  0  0  0  0  0
    0.7324    0.1884    1.7692 C   0  0  0  0  0  0  0  0  0  0  0  0
    1.9272   -0.0714    1.7235 O   0  0  0  0  0  0  0  0  0  0  0  0
    0.1970    0.6649    2.9534 N   0  0  0  0  0  0  0  0  0  0  0  0
   -0.8153    0.7284    2.9802 H   0  0  0  0  0  0  0  0  0  0  0  0
    0.9148    0.5825    4.2196 C   0  0  0  0  0  0  0  0  0  0  0  0
    1.8602    1.1322    4.1621 H   0  0  0  0  0  0  0  0  0  0  0  0
    0.3139    1.0171    5.0240 H   0  0  0  0  0  0  0  0  0  0  0  0
    1.1296   -0.4619    4.4694 H   0  0  0  0  0  0  0  0  0  0  0  0
  1  2  1  0  0  0  0
  2  3  1  0  0  0  0
  2  4  1  0  0  0  0
  2  5  1  0  0  0  0
  5  6  2  0  0  0  0
  5  7  1  0  0  0  0
  7  8  1  0  0  0  0
  7  9  1  0  0  0  0
  9 10  1  0  0  0  0
  9 11  1  0  0  0  0
  9 19  1  0  0  0  0
 11 12  1  0  0  0  0
 11 13  1  0  0  0  0
 11 14  1  0  0  0  0
 14 15  2  0  0  0  0
 14 16  1  0  0  0  0
 16 17  1  0  0  0  0
 16 18  1  0  0  0  0
 19 20  2  0  0  0  0
 19 21  1  0  0  0  0
 21 22  1  0  0  0  0
 21 23  1  0  0  0  0
 23 24  1  0  0  0  0
 23 25  1  0  0  0  0
 23 26  1  0  0  0  0
M  END
$$$$

  -OEChem-01062216063D

 26 25  0     1  0  0  0  0  0999 V2000
   -3.0697   -3.2331    0.8795 H   0  0  0  0  0  0  0  0  0  0  0  0
   -2.9982   -2.2268    0.4567 C   0  0  0  0  0  0  0  0  0  0  0  0
   -3.8293   -1.6264    0.8343 H   0  0  0  0  0  0  0  0  0  0  0  0
   -3.0732   -2.2982   -0.6312 H   0  0  0  0  0  0  0  0  0  0  0  0
   -1.6771   -1.5892    0.8449 C   0  0  0  0  0  0  0  0  0  0  0  0
   -0.9069   -2.1990    1.5640 O   0  0  0  0  0  0  0  0  0  0  0  0
   -1.3880   -0.3128    0.3978 N   0  0  0  0  0  0  0  0  0  0  0  0
   -2.0398    0.0466   -0.2948 H   0  0  0  0  0  0  0  0  0  0  0  0
   -0.0577    0.3335    0.4430 C   0  0  1  0  0  0  0  0  0  0  0  0
    0.5748   -0.1104   -0.3358 H   0  0  0  0  0  0  0  0  0  0  0  0
   -0.2464    1.8372    0.1659 C   0  0  0  0  0  0  0  0  0  0  0  0
   -0.9991    2.2456    0.8453 H   0  0  0  0  0  0  0  0  0  0  0  0
    0.6933    2.3651    0.3554 H   0  0  0  0  0  0  0  0  0  0  0  0
   -0.6444    2.1151   -1.2759 C   0  0  0  0  0  0  0  0  0  0  0  0
   -0.1399    1.5416   -2.2206 O   0  0  0  0  0  0  0  0  0  0  0  0
   -1.6285    3.0101   -1.5847 N   0  0  0  0  0  0  0  0  0  0  0  0
   -1.6910    3.2593   -2.5684 H   0  0  0  0  0  0  0  0  0  0  0  0
   -1.9014    3.6865   -0.8792 H   0  0  0  0  0  0  0  0  0  0  0  0
    0.7358    0.1885    1.7629 C   0  0  0  0  0  0  0  0  0  0  0  0
    1.9591    0.1858    1.7244 O   0  0  0  0  0  0  0  0  0  0  0  0
    0.1021    0.3779    2.9780 N   0  0  0  0  0  0  0  0  0  0  0  0
   -0.8939    0.1814    2.9723 H   0  0  0  0  0  0  0  0  0  0  0  0
    0.8113    0.2605    4.2461 C   0  0  0  0  0  0  0  0  0  0  0  0
    1.6253    0.9911    4.3007 H   0  0  0  0  0  0  0  0  0  0  0  0
    0.1276    0.4452    5.0800 H   0  0  0  0  0  0  0  0  0  0  0  0
    1.2320   -0.7447    4.3561 H   0  0  0  0  0  0  0  0  0  0  0  0
  1  2  1  0  0  0  0
  2  3  1  0  0  0  0
  2  4  1  0  0  0  0
  2  5  1  0  0  0  0
  5  6  2  0  0  0  0
  5  7  1  0  0  0  0
  7  8  1  0  0  0  0
  7  9  1  0  0  0  0
  9 10  1  0  0  0  0
  9 11  1  0  0  0  0
  9 19  1  0  0  0  0
 11 12  1  0  0  0  0
 11 13  1  0  0  0  0
 11 14  1  0  0  0  0
 14 15  2  0  0  0  0
 14 16  1  0  0  0  0
 16 17  1  0  0  0  0
 16 18  1  0  0  0  0
 19 20  2  0  0  0  0
 19 21  1  0  0  0  0
 21 22  1  0  0  0  0
 21 23  1  0  0  0  0
 23 24  1  0  0  0  0
 23 25  1  0  0  0  0
 23 26  1  0  0  0  0
M  END
$$$$

  -OEChem-01062216063D

 26 25  0     1  0  0  0  0  0999 V2000
   -3.1358   -3.2112    0.8108 H   0  0  0  0  0  0  0  0  0  0  0  0
   -3.0423   -2.1997    0.4052 C   0  0  0  0  0  0  0  0  0  0  0  0
   -3.8621   -1.5886    0.7905 H   0  0  0  0  0  0  0  0  0  0  0  0
   -3.1148   -2.2513   -0.6841 H   0  0  0  0  0  0  0  0  0  0  0  0
   -1.7100   -1.5959    0.8076 C   0  0  0  0  0  0  0  0  0  0  0  0
   -0.9583   -2.2287    1.5268 O   0  0  0  0  0  0  0  0  0  0  0  0
   -1.3911   -0.3210    0.3790 N   0  0  0  0  0  0  0  0  0  0  0  0
   -2.0367    0.0639   -0.3056 H   0  0  0  0  0  0  0  0  0  0  0  0
   -0.0576    0.3195    0.4506 C   0  0  1  0  0  0  0  0  0  0  0  0
    0.5828   -0.1161   -0.3260 H   0  0  0  0  0  0  0  0  0  0  0  0
   -0.2569    1.8240    0.1795 C   0  0  0  0  0  0  0  0  0  0  0  0
   -1.0216    2.2204    0.8527 H   0  0  0  0  0  0  0  0  0  0  0  0
    0.6738    2.3630    0.3826 H   0  0  0  0  0  0  0  0  0  0  0  0
   -0.6380    2.1072   -1.2658 C   0  0  0  0  0  0  0  0  0  0  0  0
   -0.1160    1.5449   -2.2081 O   0  0  0  0  0  0  0  0  0  0  0  0
   -1.6320    2.9888   -1.5810 N   0  0  0  0  0  0  0  0  0  0  0  0
   -1.6838    3.2456   -2.5632 H   0  0  0  0  0  0  0  0  0  0  0  0
   -1.9240    3.6558   -0.8741 H   0  0  0  0  0  0  0  0  0  0  0  0
    0.7383    0.1794    1.7732 C   0  0  0  0  0  0  0  0  0  0  0  0
    1.9377    0.4255    1.7655 O   0  0  0  0  0  0  0  0  0  0  0  0
    0.0893    0.0603    2.9888 N   0  0  0  0  0  0  0  0  0  0  0  0
   -0.8120   -0.4068    2.9261 H   0  0  0  0  0  0  0  0  0  0  0  0
    0.8188   -0.0585    4.2453 C   0  0  0  0  0  0  0  0  0  0  0  0
    1.4495    0.8218    4.4090 H   0  0  0  0  0  0  0  0  0  0  0  0
    0.1180   -0.1392    5.0817 H   0  0  0  0  0  0  0  0  0  0  0  0
    1.4543   -0.9503    4.2355 H   0  0  0  0  0  0  0  0  0  0  0  0
  1  2  1  0  0  0  0
  2  3  1  0  0  0  0
  2  4  1  0  0  0  0
  2  5  1  0  0  0  0
  5  6  2  0  0  0  0
  5  7  1  0  0  0  0
  7  8  1  0  0  0  0
  7  9  1  0  0  0  0
  9 10  1  0  0  0  0
  9 11  1  0  0  0  0
  9 19  1  0  0  0  0
 11 12  1  0  0  0  0
 11 13  1  0  0  0  0
 11 14  1  0  0  0  0
 14 15  2  0  0  0  0
 14 16  1  0  0  0  0
 16 17  1  0  0  0  0
 16 18  1  0  0  0  0
 19 20  2  0  0  0  0
 19 21  1  0  0  0  0
 21 22  1  0  0  0  0
 21 23  1  0  0  0  0
 23 24  1  0  0  0  0
 23 25  1  0  0  0  0
 23 26  1  0  0  0  0
M  END
$$$$

  -OEChem-01062216063D

 26 25  0     1  0  0  0  0  0999 V2000
   -3.1793   -3.2049    0.6923 H   0  0  0  0  0  0  0  0  0  0  0  0
   -3.0912   -2.1618    0.3749 C   0  0  0  0  0  0  0  0  0  0  0  0
   -3.8772   -1.5782    0.8603 H   0  0  0  0  0  0  0  0  0  0  0  0
   -3.2268   -2.1137   -0.7084 H   0  0  0  0  0  0  0  0  0  0  0  0
   -1.7277   -1.6132    0.7523 C   0  0  0  0  0  0  0  0  0  0  0  0
   -0.9650   -2.3039    1.4041 O   0  0  0  0  0  0  0  0  0  0  0  0
   -1.3835   -0.3341    0.3574 N   0  0  0  0  0  0  0  0  0  0  0  0
   -2.0502    0.1061   -0.2710 H   0  0  0  0  0  0  0  0  0  0  0  0
   -0.0538    0.3136    0.4634 C   0  0  1  0  0  0  0  0  0  0  0  0
    0.6003   -0.1094   -0.3084 H   0  0  0  0  0  0  0  0  0  0  0  0
   -0.2753    1.8169    0.1892 C   0  0  0  0  0  0  0  0  0  0  0  0
   -1.0605    2.1986    0.8472 H   0  0  0  0  0  0  0  0  0  0  0  0
    0.6385    2.3774    0.4085 H   0  0  0  0  0  0  0  0  0  0  0  0
   -0.6298    2.0953   -1.2639 C   0  0  0  0  0  0  0  0  0  0  0  0
   -0.0771    1.5445   -2.1955 O   0  0  0  0  0  0  0  0  0  0  0  0
   -1.6321    2.9602   -1.5985 N   0  0  0  0  0  0  0  0  0  0  0  0
   -1.6669    3.2176   -2.5814 H   0  0  0  0  0  0  0  0  0  0  0  0
   -1.9469    3.6227   -0.8971 H   0  0  0  0  0  0  0  0  0  0  0  0
    0.7416    0.1746    1.7915 C   0  0  0  0  0  0  0  0  0  0  0  0
    1.8729    0.6409    1.8476 O   0  0  0  0  0  0  0  0  0  0  0  0
    0.1517   -0.2583    2.9646 N   0  0  0  0  0  0  0  0  0  0  0  0
   -0.6182   -0.9096    2.8137 H   0  0  0  0  0  0  0  0  0  0  0  0
    0.9009   -0.3893    4.2083 C   0  0  0  0  0  0  0  0  0  0  0  0
    1.3161    0.5778    4.5105 H   0  0  0  0  0  0  0  0  0  0  0  0
    0.2446   -0.7458    5.0077 H   0  0  0  0  0  0  0  0  0  0  0  0
    1.7223   -1.1033    4.0871 H   0  0  0  0  0  0  0  0  0  0  0  0
  1  2  1  0  0  0  0
  2  3  1  0  0  0  0
  2  4  1  0  0  0  0
  2  5  1  0  0  0  0
  5  6  2  0  0  0  0
  5  7  1  0  0  0  0
  7  8  1  0  0  0  0
  7  9  1  0  0  0  0
  9 10  1  0  0  0  0
  9 11  1  0  0  0  0
  9 19  1  0  0  0  0
 11 12  1  0  0  0  0
 11 13  1  0  0  0  0
 11 14  1  0  0  0  0
 14 15  2  0  0  0  0
 14 16  1  0  0  0  0
 16 17  1  0  0  0  0
 16 18  1  0  0  0  0
 19 20  2  0  0  0  0
 19 21  1  0  0  0  0
 21 22  1  0  0  0  0
 21 23  1  0  0  0  0
 23 24  1  0  0  0  0
 23 25  1  0  0  0  0
 23 26  1  0  0  0  0
M  END
$$$$

  -OEChem-01062216063D

 26 25  0     1  0  0  0  0  0999 V2000
   -3.2351   -3.1636    0.6788 H   0  0  0  0  0  0  0  0  0  0  0  0
   -3.1233   -2.1178    0.3783 C   0  0  0  0  0  0  0  0  0  0  0  0
   -3.8558   -1.5161    0.9217 H   0  0  0  0  0  0  0  0  0  0  0  0
   -3.3194   -2.0386   -0.6940 H   0  0  0  0  0  0  0  0  0  0  0  0
   -1.7197   -1.6308    0.6868 C   0  0  0  0  0  0  0  0  0  0  0  0
   -0.9285   -2.3891    1.2192 O   0  0  0  0  0  0  0  0  0  0  0  0
   -1.3631   -0.3434    0.3324 N   0  0  0  0  0  0  0  0  0  0  0  0
   -2.0651    0.1567   -0.2058 H   0  0  0  0  0  0  0  0  0  0  0  0
   -0.0439    0.3201    0.4755 C   0  0  1  0  0  0  0  0  0  0  0  0
    0.6283   -0.0868   -0.2892 H   0  0  0  0  0  0  0  0  0  0  0  0
   -0.2957    1.8203    0.1951 C   0  0  0  0  0  0  0  0  0  0  0  0
   -1.1043    2.1832    0.8349 H   0  0  0  0  0  0  0  0  0  0  0  0
    0.5967    2.4069    0.4311 H   0  0  0  0  0  0  0  0  0  0  0  0
   -0.6208    2.0912   -1.2667 C   0  0  0  0  0  0  0  0  0  0  0  0
   -0.0324    1.5555   -2.1851 O   0  0  0  0  0  0  0  0  0  0  0  0
   -1.6405    2.9254   -1.6258 N   0  0  0  0  0  0  0  0  0  0  0  0
   -1.6602    3.1788   -2.6102 H   0  0  0  0  0  0  0  0  0  0  0  0
   -1.9878    3.5820   -0.9344 H   0  0  0  0  0  0  0  0  0  0  0  0
    0.7425    0.1743    1.8136 C   0  0  0  0  0  0  0  0  0  0  0  0
    1.7693    0.8249    1.9669 O   0  0  0  0  0  0  0  0  0  0  0  0
    0.2767   -0.5494    2.8953 N   0  0  0  0  0  0  0  0  0  0  0  0
   -0.3816   -1.2891    2.6478 H   0  0  0  0  0  0  0  0  0  0  0  0
    1.0496   -0.7223    4.1194 C   0  0  0  0  0  0  0  0  0  0  0  0
    1.2650    0.2480    4.5790 H   0  0  0  0  0  0  0  0  0  0  0  0
    0.4862   -1.3249    4.8381 H   0  0  0  0  0  0  0  0  0  0  0  0
    1.9964   -1.2297    3.9065 H   0  0  0  0  0  0  0  0  0  0  0  0
  1  2  1  0  0  0  0
  2  3  1  0  0  0  0
  2  4  1  0  0  0  0
  2  5  1  0  0  0  0
  5  6  2  0  0  0  0
  5  7  1  0  0  0  0
  7  8  1  0  0  0  0
  7  9  1  0  0  0  0
  9 10  1  0  0  0  0
  9 11  1  0  0  0  0
  9 19  1  0  0  0  0
 11 12  1  0  0  0  0
 11 13  1  0  0  0  0
 11 14  1  0  0  0  0
 14 15  2  0  0  0  0
 14 16  1  0  0  0  0
 16 17  1  0  0  0  0
 16 18  1  0  0  0  0
 19 20  2  0  0  0  0
 19 21  1  0  0  0  0
 21 22  1  0  0  0  0
 21 23  1  0  0  0  0
 23 24  1  0  0  0  0
 23 25  1  0  0  0  0
 23 26  1  0  0  0  0
M  END
$$$$

  -OEChem-01062216063D

 26 25  0     1  0  0  0  0  0999 V2000
   -3.2488   -3.1472    0.6944 H   0  0  0  0  0  0  0  0  0  0  0  0
   -3.1361   -2.0935    0.4231 C   0  0  0  0  0  0  0  0  0  0  0  0
   -3.8067   -1.4968    1.0462 H   0  0  0  0  0  0  0  0  0  0  0  0
   -3.4169   -1.9698   -0.6258 H   0  0  0  0  0  0  0  0  0  0  0  0
   -1.7004   -1.6491    0.6312 C   0  0  0  0  0  0  0  0  0  0  0  0
   -0.8762   -2.4594    1.0184 O   0  0  0  0  0  0  0  0  0  0  0  0
   -1.3466   -0.3522    0.3105 N   0  0  0  0  0  0  0  0  0  0  0  0
   -2.0926    0.1999   -0.1024 H   0  0  0  0  0  0  0  0  0  0  0  0
   -0.0364    0.3251    0.4758 C   0  0  1  0  0  0  0  0  0  0  0  0
    0.6456   -0.0686   -0.2870 H   0  0  0  0  0  0  0  0  0  0  0  0
   -0.3065    1.8231    0.1911 C   0  0  0  0  0  0  0  0  0  0  0  0
   -1.1278    2.1753    0.8203 H   0  0  0  0  0  0  0  0  0  0  0  0
    0.5728    2.4257    0.4348 H   0  0  0  0  0  0  0  0  0  0  0  0
   -0.6130    2.0902   -1.2755 C   0  0  0  0  0  0  0  0  0  0  0  0
   -0.0028    1.5643   -2.1854 O   0  0  0  0  0  0  0  0  0  0  0  0
   -1.6312    2.9203   -1.6484 N   0  0  0  0  0  0  0  0  0  0  0  0
   -1.6368    3.1742   -2.6328 H   0  0  0  0  0  0  0  0  0  0  0  0
   -1.9885    3.5767   -0.9620 H   0  0  0  0  0  0  0  0  0  0  0  0
    0.7435    0.1608    1.8196 C   0  0  0  0  0  0  0  0  0  0  0  0
    1.6223    0.9666    2.1029 O   0  0  0  0  0  0  0  0  0  0  0  0
    0.4543   -0.8046    2.7653 N   0  0  0  0  0  0  0  0  0  0  0  0
   -0.0962   -1.5932    2.4220 H   0  0  0  0  0  0  0  0  0  0  0  0
    1.2392   -1.0003    3.9783 C   0  0  0  0  0  0  0  0  0  0  0  0
    1.2293   -0.0938    4.5924 H   0  0  0  0  0  0  0  0  0  0  0  0
    0.8198   -1.8203    4.5692 H   0  0  0  0  0  0  0  0  0  0  0  0
    2.2765   -1.2464    3.7282 H   0  0  0  0  0  0  0  0  0  0  0  0
  1  2  1  0  0  0  0
  2  3  1  0  0  0  0
  2  4  1  0  0  0  0
  2  5  1  0  0  0  0
  5  6  2  0  0  0  0
  5  7  1  0  0  0  0
  7  8  1  0  0  0  0
  7  9  1  0  0  0  0
  9 10  1  0  0  0  0
  9 11  1  0  0  0  0
  9 19  1  0  0  0  0
 11 12  1  0  0  0  0
 11 13  1  0  0  0  0
 11 14  1  0  0  0  0
 14 15  2  0  0  0  0
 14 16  1  0  0  0  0
 16 17  1  0  0  0  0
 16 18  1  0  0  0  0
 19 20  2  0  0  0  0
 19 21  1  0  0  0  0
 21 22  1  0  0  0  0
 21 23  1  0  0  0  0
 23 24  1  0  0  0  0
 23 25  1  0  0  0  0
 23 26  1  0  0  0  0
M  END
$$$$

  -OEChem-01062216063D

 26 25  0     1  0  0  0  0  0999 V2000
   -3.3126   -3.0681    0.8834 H   0  0  0  0  0  0  0  0  0  0  0  0
   -3.1883   -2.0228    0.5859 C   0  0  0  0  0  0  0  0  0  0  0  0
   -3.7675   -1.3933    1.2659 H   0  0  0  0  0  0  0  0  0  0  0  0
   -3.5704   -1.8997   -0.4306 H   0  0  0  0  0  0  0  0  0  0  0  0
   -1.7228   -1.6340    0.6386 C   0  0  0  0  0  0  0  0  0  0  0  0
   -0.8881   -2.4894    0.8799 O   0  0  0  0  0  0  0  0  0  0  0  0
   -1.3584   -0.3401    0.3174 N   0  0  0  0  0  0  0  0  0  0  0  0
   -2.1313    0.2593    0.0441 H   0  0  0  0  0  0  0  0  0  0  0  0
   -0.0325    0.3131    0.4479 C   0  0  1  0  0  0  0  0  0  0  0  0
    0.6200   -0.1008   -0.3297 H   0  0  0  0  0  0  0  0  0  0  0  0
   -0.2713    1.8148    0.1502 C   0  0  0  0  0  0  0  0  0  0  0  0
   -1.0686    2.1972    0.7926 H   0  0  0  0  0  0  0  0  0  0  0  0
    0.6294    2.3967    0.3645 H   0  0  0  0  0  0  0  0  0  0  0  0
   -0.5994    2.0726   -1.3135 C   0  0  0  0  0  0  0  0  0  0  0  0
   -0.0196    1.5211   -2.2284 O   0  0  0  0  0  0  0  0  0  0  0  0
   -1.5957    2.9332   -1.6762 N   0  0  0  0  0  0  0  0  0  0  0  0
   -1.6127    3.1778   -2.6628 H   0  0  0  0  0  0  0  0  0  0  0  0
   -1.9218    3.6049   -0.9891 H   0  0  0  0  0  0  0  0  0  0  0  0
    0.7758    0.1162    1.7727 C   0  0  0  0  0  0  0  0  0  0  0  0
    1.4915    1.0207    2.1868 O   0  0  0  0  0  0  0  0  0  0  0  0
    0.6942   -1.0137    2.5633 N   0  0  0  0  0  0  0  0  0  0  0  0
    0.2109   -1.8136    2.1498 H   0  0  0  0  0  0  0  0  0  0  0  0
    1.4964   -1.2320    3.7608 C   0  0  0  0  0  0  0  0  0  0  0  0
    1.3027   -0.4486    4.5008 H   0  0  0  0  0  0  0  0  0  0  0  0
    1.2468   -2.1984    4.2095 H   0  0  0  0  0  0  0  0  0  0  0  0
    2.5629   -1.2291    3.5132 H   0  0  0  0  0  0  0  0  0  0  0  0
  1  2  1  0  0  0  0
  2  3  1  0  0  0  0
  2  4  1  0  0  0  0
  2  5  1  0  0  0  0
  5  6  2  0  0  0  0
  5  7  1  0  0  0  0
  7  8  1  0  0  0  0
  7  9  1  0  0  0  0
  9 10  1  0  0  0  0
  9 11  1  0  0  0  0
  9 19  1  0  0  0  0
 11 12  1  0  0  0  0
 11 13  1  0  0  0  0
 11 14  1  0  0  0  0
 14 15  2  0  0  0  0
 14 16  1  0  0  0  0
 16 17  1  0  0  0  0
 16 18  1  0  0  0  0
 19 20  2  0  0  0  0
 19 21  1  0  0  0  0
 21 22  1  0  0  0  0
 21 23  1  0  0  0  0
 23 24  1  0  0  0  0
 23 25  1  0  0  0  0
 23 26  1  0  0  0  0
M  END
$$$$

  -OEChem-01062216063D

 26 25  0     1  0  0  0  0  0999 V2000
   -3.1651   -3.1576    0.8544 H   0  0  0  0  0  0  0  0  0  0  0  0
   -3.0837   -2.1005    0.5859 C   0  0  0  0  0  0  0  0  0  0  0  0
   -3.6499   -1.5101    1.3103 H   0  0  0  0  0  0  0  0  0  0  0  0
   -3.5137   -1.9566   -0.4083 H   0  0  0  0  0  0  0  0  0  0  0  0
   -1.6286   -1.6701    0.5882 C   0  0  0  0  0  0  0  0  0  0  0  0
   -0.7596   -2.5083    0.7603 O   0  0  0  0  0  0  0  0  0  0  0  0
   -1.3152   -0.3576    0.2896 N   0  0  0  0  0  0  0  0  0  0  0  0
   -2.1182    0.2309    0.0891 H   0  0  0  0  0  0  0  0  0  0  0  0
   -0.0126    0.3366    0.4333 C   0  0  1  0  0  0  0  0  0  0  0  0
    0.6561   -0.0449   -0.3471 H   0  0  0  0  0  0  0  0  0  0  0  0
   -0.2850    1.8358    0.1572 C   0  0  0  0  0  0  0  0  0  0  0  0
   -1.0928    2.1905    0.8022 H   0  0  0  0  0  0  0  0  0  0  0  0
    0.6044    2.4298    0.3867 H   0  0  0  0  0  0  0  0  0  0  0  0
   -0.6124    2.1119   -1.3031 C   0  0  0  0  0  0  0  0  0  0  0  0
   -0.0143    1.5889   -2.2231 O   0  0  0  0  0  0  0  0  0  0  0  0
   -1.6195    2.9634   -1.6581 N   0  0  0  0  0  0  0  0  0  0  0  0
   -1.6351    3.2242   -2.6405 H   0  0  0  0  0  0  0  0  0  0  0  0
   -1.9641    3.6160   -0.9617 H   0  0  0  0  0  0  0  0  0  0  0  0
    0.7866    0.1294    1.7607 C   0  0  0  0  0  0  0  0  0  0  0  0
    1.2469    1.0965    2.3571 O   0  0  0  0  0  0  0  0  0  0  0  0
    0.9650   -1.1048    2.3533 N   0  0  0  0  0  0  0  0  0  0  0  0
    0.5647   -1.9082    1.8634 H   0  0  0  0  0  0  0  0  0  0  0  0
    1.6787   -1.3257    3.6047 C   0  0  0  0  0  0  0  0  0  0  0  0
    1.1948   -0.7824    4.4228 H   0  0  0  0  0  0  0  0  0  0  0  0
    1.6831   -2.3918    3.8517 H   0  0  0  0  0  0  0  0  0  0  0  0
    2.7162   -0.9864    3.5195 H   0  0  0  0  0  0  0  0  0  0  0  0
  1  2  1  0  0  0  0
  2  3  1  0  0  0  0
  2  4  1  0  0  0  0
  2  5  1  0  0  0  0
  5  6  2  0  0  0  0
  5  7  1  0  0  0  0
  7  8  1  0  0  0  0
  7  9  1  0  0  0  0
  9 10  1  0  0  0  0
  9 11  1  0  0  0  0
  9 19  1  0  0  0  0
 11 12  1  0  0  0  0
 11 13  1  0  0  0  0
 11 14  1  0  0  0  0
 14 15  2  0  0  0  0
 14 16  1  0  0  0  0
 16 17  1  0  0  0  0
 16 18  1  0  0  0  0
 19 20  2  0  0  0  0
 19 21  1  0  0  0  0
 21 22  1  0  0  0  0
 21 23  1  0  0  0  0
 23 24  1  0  0  0  0
 23 25  1  0  0  0  0
 23 26  1  0  0  0  0
M  END
$$$$

  -OEChem-01062216063D

 26 25  0     1  0  0  0  0  0999 V2000
   -3.0814   -3.1730    0.9618 H   0  0  0  0  0  0  0  0  0  0  0  0
   -3.0256   -2.1221    0.6637 C   0  0  0  0  0  0  0  0  0  0  0  0
   -3.5787   -1.5219    1.3900 H   0  0  0  0  0  0  0  0  0  0  0  0
   -3.4880   -2.0106   -0.3202 H   0  0  0  0  0  0  0  0  0  0  0  0
   -1.5785   -1.6695    0.6096 C   0  0  0  0  0  0  0  0  0  0  0  0
   -0.6893   -2.4903    0.7625 O   0  0  0  0  0  0  0  0  0  0  0  0
   -1.2942   -0.3558    0.2881 N   0  0  0  0  0  0  0  0  0  0  0  0
   -2.1093    0.2268    0.1226 H   0  0  0  0  0  0  0  0  0  0  0  0
    0.0069    0.3432    0.3989 C   0  0  1  0  0  0  0  0  0  0  0  0
    0.6628   -0.0380   -0.3924 H   0  0  0  0  0  0  0  0  0  0  0  0
   -0.2601    1.8435    0.1331 C   0  0  0  0  0  0  0  0  0  0  0  0
   -1.0517    2.2011    0.7968 H   0  0  0  0  0  0  0  0  0  0  0  0
    0.6402    2.4254    0.3514 H   0  0  0  0  0  0  0  0  0  0  0  0
   -0.6193    2.1287   -1.3176 C   0  0  0  0  0  0  0  0  0  0  0  0
   -0.0462    1.6046   -2.2529 O   0  0  0  0  0  0  0  0  0  0  0  0
   -1.6207    2.9974   -1.6455 N   0  0  0  0  0  0  0  0  0  0  0  0
   -1.6544    3.2659   -2.6254 H   0  0  0  0  0  0  0  0  0  0  0  0
   -1.9449    3.6468   -0.9363 H   0  0  0  0  0  0  0  0  0  0  0  0
    0.8135    0.1341    1.7177 C   0  0  0  0  0  0  0  0  0  0  0  0
    1.0693    1.0901    2.4420 O   0  0  0  0  0  0  0  0  0  0  0  0
    1.2404   -1.1109    2.1349 N   0  0  0  0  0  0  0  0  0  0  0  0
    0.8635   -1.9080    1.6153 H   0  0  0  0  0  0  0  0  0  0  0  0
    1.9049   -1.3598    3.4079 C   0  0  0  0  0  0  0  0  0  0  0  0
    1.2476   -1.0939    4.2420 H   0  0  0  0  0  0  0  0  0  0  0  0
    2.1658   -2.4189    3.4949 H   0  0  0  0  0  0  0  0  0  0  0  0
    2.8254   -0.7714    3.4817 H   0  0  0  0  0  0  0  0  0  0  0  0
  1  2  1  0  0  0  0
  2  3  1  0  0  0  0
  2  4  1  0  0  0  0
  2  5  1  0  0  0  0
  5  6  2  0  0  0  0
  5  7  1  0  0  0  0
  7  8  1  0  0  0  0
  7  9  1  0  0  0  0
  9 10  1  0  0  0  0
  9 11  1  0  0  0  0
  9 19  1  0  0  0  0
 11 12  1  0  0  0  0
 11 13  1  0  0  0  0
 11 14  1  0  0  0  0
 14 15  2  0  0  0  0
 14 16  1  0  0  0  0
 16 17  1  0  0  0  0
 16 18  1  0  0  0  0
 19 20  2  0  0  0  0
 19 21  1  0  0  0  0
 21 22  1  0  0  0  0
 21 23  1  0  0  0  0
 23 24  1  0  0  0  0
 23 25  1  0  0  0  0
 23 26  1  0  0  0  0
M  END
$$$$

  -OEChem-01062216063D

 26 25  0     1  0  0  0  0  0999 V2000
   -2.9754   -3.1998    1.0373 H   0  0  0  0  0  0  0  0  0  0  0  0
   -2.9554   -2.1521    0.7239 C   0  0  0  0  0  0  0  0  0  0  0  0
   -3.5143   -1.5578    1.4508 H   0  0  0  0  0  0  0  0  0  0  0  0
   -3.4367   -2.0681   -0.2537 H   0  0  0  0  0  0  0  0  0  0  0  0
   -1.5231   -1.6589    0.6400 C   0  0  0  0  0  0  0  0  0  0  0  0
   -0.6051   -2.4469    0.8015 O   0  0  0  0  0  0  0  0  0  0  0  0
   -1.2771   -0.3460    0.2853 N   0  0  0  0  0  0  0  0  0  0  0  0
   -2.1038    0.2256    0.1401 H   0  0  0  0  0  0  0  0  0  0  0  0
    0.0202    0.3582    0.3721 C   0  0  1  0  0  0  0  0  0  0  0  0
    0.6739   -0.0240   -0.4207 H   0  0  0  0  0  0  0  0  0  0  0  0
   -0.2411    1.8585    0.1132 C   0  0  0  0  0  0  0  0  0  0  0  0
   -1.0232    2.2178    0.7872 H   0  0  0  0  0  0  0  0  0  0  0  0
    0.6662    2.4311    0.3272 H   0  0  0  0  0  0  0  0  0  0  0  0
   -0.6215    2.1482   -1.3309 C   0  0  0  0  0  0  0  0  0  0  0  0
   -0.0656    1.6207   -2.2748 O   0  0  0  0  0  0  0  0  0  0  0  0
   -1.6204    3.0261   -1.6419 N   0  0  0  0  0  0  0  0  0  0  0  0
   -1.6700    3.2964   -2.6206 H   0  0  0  0  0  0  0  0  0  0  0  0
   -1.9323    3.6736   -0.9256 H   0  0  0  0  0  0  0  0  0  0  0  0
    0.8102    0.1521    1.6961 C   0  0  0  0  0  0  0  0  0  0  0  0
    0.8742    1.0539    2.5250 O   0  0  0  0  0  0  0  0  0  0  0  0
    1.4741   -1.0302    1.9570 N   0  0  0  0  0  0  0  0  0  0  0  0
    1.1565   -1.8271    1.3991 H   0  0  0  0  0  0  0  0  0  0  0  0
    2.1326   -1.3081    3.2268 C   0  0  0  0  0  0  0  0  0  0  0  0
    1.4049   -1.3040    4.0449 H   0  0  0  0  0  0  0  0  0  0  0  0
    2.6136   -2.2904    3.1934 H   0  0  0  0  0  0  0  0  0  0  0  0
    2.9012   -0.5562    3.4338 H   0  0  0  0  0  0  0  0  0  0  0  0
  1  2  1  0  0  0  0
  2  3  1  0  0  0  0
  2  4  1  0  0  0  0
  2  5  1  0  0  0  0
  5  6  2  0  0  0  0
  5  7  1  0  0  0  0
  7  8  1  0  0  0  0
  7  9  1  0  0  0  0
  9 10  1  0  0  0  0
  9 11  1  0  0  0  0
  9 19  1  0  0  0  0
 11 12  1  0  0  0  0
 11 13  1  0  0  0  0
 11 14  1  0  0  0  0
 14 15  2  0  0  0  0
 14 16  1  0  0  0  0
 16 17  1  0  0  0  0
 16 18  1  0  0  0  0
 19 20  2  0  0  0  0
 19 21  1  0  0  0  0
 21 22  1  0  0  0  0
 21 23  1  0  0  0  0
 23 24  1  0  0  0  0
 23 25  1  0  0  0  0
 23 26  1  0  0  0  0
M  END
$$$$

  -OEChem-01062216063D

 26 25  0     1  0  0  0  0  0999 V2000
   -2.8746   -3.2205    1.1205 H   0  0  0  0  0  0  0  0  0  0  0  0
   -2.8925   -2.1834    0.7734 C   0  0  0  0  0  0  0  0  0  0  0  0
   -3.4593   -1.5838    1.4897 H   0  0  0  0  0  0  0  0  0  0  0  0
   -3.3906   -2.1458   -0.1984 H   0  0  0  0  0  0  0  0  0  0  0  0
   -1.4778   -1.6485    0.6505 C   0  0  0  0  0  0  0  0  0  0  0  0
   -0.5288   -2.4008    0.8108 O   0  0  0  0  0  0  0  0  0  0  0  0
   -1.2732   -0.3356    0.2700 N   0  0  0  0  0  0  0  0  0  0  0  0
   -2.1109    0.2278    0.1609 H   0  0  0  0  0  0  0  0  0  0  0  0
    0.0199    0.3716    0.3501 C   0  0  1  0  0  0  0  0  0  0  0  0
    0.6776   -0.0096   -0.4395 H   0  0  0  0  0  0  0  0  0  0  0  0
   -0.2316    1.8735    0.1005 C   0  0  0  0  0  0  0  0  0  0  0  0
   -1.0118    2.2328    0.7773 H   0  0  0  0  0  0  0  0  0  0  0  0
    0.6796    2.4377    0.3207 H   0  0  0  0  0  0  0  0  0  0  0  0
   -0.6169    2.1721   -1.3404 C   0  0  0  0  0  0  0  0  0  0  0  0
   -0.0680    1.6441   -2.2883 O   0  0  0  0  0  0  0  0  0  0  0  0
   -1.6110    3.0579   -1.6439 N   0  0  0  0  0  0  0  0  0  0  0  0
   -1.6656    3.3320   -2.6212 H   0  0  0  0  0  0  0  0  0  0  0  0
   -1.9219    3.7004   -0.9225 H   0  0  0  0  0  0  0  0  0  0  0  0
    0.7807    0.1623    1.6860 C   0  0  0  0  0  0  0  0  0  0  0  0
    0.6539    0.9689    2.6013 O   0  0  0  0  0  0  0  0  0  0  0  0
    1.6715   -0.8841    1.8261 N   0  0  0  0  0  0  0  0  0  0  0  0
    1.4888   -1.6715    1.2017 H   0  0  0  0  0  0  0  0  0  0  0  0
    2.3549   -1.1659    3.0820 C   0  0  0  0  0  0  0  0  0  0  0  0
    1.6297   -1.3964    3.8694 H   0  0  0  0  0  0  0  0  0  0  0  0
    3.0234   -2.0237    2.9617 H   0  0  0  0  0  0  0  0  0  0  0  0
    2.9546   -0.3046    3.3949 H   0  0  0  0  0  0  0  0  0  0  0  0
  1  2  1  0  0  0  0
  2  3  1  0  0  0  0
  2  4  1  0  0  0  0
  2  5  1  0  0  0  0
  5  6  2  0  0  0  0
  5  7  1  0  0  0  0
  7  8  1  0  0  0  0
  7  9  1  0  0  0  0
  9 10  1  0  0  0  0
  9 11  1  0  0  0  0
  9 19  1  0  0  0  0
 11 12  1  0  0  0  0
 11 13  1  0  0  0  0
 11 14  1  0  0  0  0
 14 15  2  0  0  0  0
 14 16  1  0  0  0  0
 16 17  1  0  0  0  0
 16 18  1  0  0  0  0
 19 20  2  0  0  0  0
 19 21  1  0  0  0  0
 21 22  1  0  0  0  0
 21 23  1  0  0  0  0
 23 24  1  0  0  0  0
 23 25  1  0  0  0  0
 23 26  1  0  0  0  0
M  END
$$$$

  -OEChem-01062216063D

 26 25  0     1  0  0  0  0  0999 V2000
   -2.7934   -3.2371    1.1622 H   0  0  0  0  0  0  0  0  0  0  0  0
   -2.8407   -2.1960    0.8304 C   0  0  0  0  0  0  0  0  0  0  0  0
   -3.3750   -1.6115    1.5835 H   0  0  0  0  0  0  0  0  0  0  0  0
   -3.3891   -2.1515   -0.1138 H   0  0  0  0  0  0  0  0  0  0  0  0
   -1.4401   -1.6439    0.6429 C   0  0  0  0  0  0  0  0  0  0  0  0
   -0.4718   -2.3752    0.7862 O   0  0  0  0  0  0  0  0  0  0  0  0
   -1.2677   -0.3324    0.2424 N   0  0  0  0  0  0  0  0  0  0  0  0
   -2.1128    0.2277    0.1900 H   0  0  0  0  0  0  0  0  0  0  0  0
    0.0216    0.3784    0.3198 C   0  0  1  0  0  0  0  0  0  0  0  0
    0.6823   -0.0006   -0.4682 H   0  0  0  0  0  0  0  0  0  0  0  0
   -0.2272    1.8810    0.0821 C   0  0  0  0  0  0  0  0  0  0  0  0
   -1.0065    2.2361    0.7620 H   0  0  0  0  0  0  0  0  0  0  0  0
    0.6850    2.4416    0.3063 H   0  0  0  0  0  0  0  0  0  0  0  0
   -0.6174    2.1896   -1.3553 C   0  0  0  0  0  0  0  0  0  0  0  0
   -0.0724    1.6660   -2.3079 O   0  0  0  0  0  0  0  0  0  0  0  0
   -1.6060    3.0846   -1.6500 N   0  0  0  0  0  0  0  0  0  0  0  0
   -1.6659    3.3640   -2.6254 H   0  0  0  0  0  0  0  0  0  0  0  0
   -1.9168    3.7202   -0.9226 H   0  0  0  0  0  0  0  0  0  0  0  0
    0.7605    0.1713    1.6652 C   0  0  0  0  0  0  0  0  0  0  0  0
    0.4296    0.8246    2.6491 O   0  0  0  0  0  0  0  0  0  0  0  0
    1.8578   -0.6654    1.7374 N   0  0  0  0  0  0  0  0  0  0  0  0
    1.9058   -1.3703    1.0039 H   0  0  0  0  0  0  0  0  0  0  0  0
    2.5310   -0.9561    2.9968 C   0  0  0  0  0  0  0  0  0  0  0  0
    1.8436   -1.4484    3.6926 H   0  0  0  0  0  0  0  0  0  0  0  0
    3.3846   -1.6182    2.8234 H   0  0  0  0  0  0  0  0  0  0  0  0
    2.9001   -0.0340    3.4581 H   0  0  0  0  0  0  0  0  0  0  0  0
  1  2  1  0  0  0  0
  2  3  1  0  0  0  0
  2  4  1  0  0  0  0
  2  5  1  0  0  0  0
  5  6  2  0  0  0  0
  5  7  1  0  0  0  0
  7  8  1  0  0  0  0
  7  9  1  0  0  0  0
  9 10  1  0  0  0  0
  9 11  1  0  0  0  0
  9 19  1  0  0  0  0
 11 12  1  0  0  0  0
 11 13  1  0  0  0  0
 11 14  1  0  0  0  0
 14 15  2  0  0  0  0
 14 16  1  0  0  0  0
 16 17  1  0  0  0  0
 16 18  1  0  0  0  0
 19 20  2  0  0  0  0
 19 21  1  0  0  0  0
 21 22  1  0  0  0  0
 21 23  1  0  0  0  0
 23 24  1  0  0  0  0
 23 25  1  0  0  0  0
 23 26  1  0  0  0  0
M  END
$$$$

  -OEChem-01062216063D

 26 25  0     1  0  0  0  0  0999 V2000
   -2.7577   -3.2417    1.1922 H   0  0  0  0  0  0  0  0  0  0  0  0
   -2.8190   -2.2009    0.8620 C   0  0  0  0  0  0  0  0  0  0  0  0
   -3.3296   -1.6180    1.6324 H   0  0  0  0  0  0  0  0  0  0  0  0
   -3.3981   -2.1584   -0.0636 H   0  0  0  0  0  0  0  0  0  0  0  0
   -1.4270   -1.6444    0.6287 C   0  0  0  0  0  0  0  0  0  0  0  0
   -0.4514   -2.3701    0.7498 O   0  0  0  0  0  0  0  0  0  0  0  0
   -1.2701   -0.3339    0.2180 N   0  0  0  0  0  0  0  0  0  0  0  0
   -2.1162    0.2268    0.2151 H   0  0  0  0  0  0  0  0  0  0  0  0
    0.0182    0.3772    0.3016 C   0  0  1  0  0  0  0  0  0  0  0  0
    0.6820   -0.0029   -0.4832 H   0  0  0  0  0  0  0  0  0  0  0  0
   -0.2254    1.8813    0.0746 C   0  0  0  0  0  0  0  0  0  0  0  0
   -1.0064    2.2323    0.7549 H   0  0  0  0  0  0  0  0  0  0  0  0
    0.6872    2.4382    0.3057 H   0  0  0  0  0  0  0  0  0  0  0  0
   -0.6120    2.2014   -1.3614 C   0  0  0  0  0  0  0  0  0  0  0  0
   -0.0653    1.6819   -2.3152 O   0  0  0  0  0  0  0  0  0  0  0  0
   -1.5993    3.0986   -1.6537 N   0  0  0  0  0  0  0  0  0  0  0  0
   -1.6613    3.3809   -2.6282 H   0  0  0  0  0  0  0  0  0  0  0  0
   -1.9203    3.7256   -0.9233 H   0  0  0  0  0  0  0  0  0  0  0  0
    0.7416    0.1731    1.6538 C   0  0  0  0  0  0  0  0  0  0  0  0
    0.2484    0.6361    2.6769 O   0  0  0  0  0  0  0  0  0  0  0  0
    1.9976   -0.4020    1.6983 N   0  0  0  0  0  0  0  0  0  0  0  0
    2.2631   -0.9469    0.8819 H   0  0  0  0  0  0  0  0  0  0  0  0
    2.6848   -0.6759    2.9540 C   0  0  0  0  0  0  0  0  0  0  0  0
    2.1060   -1.3808    3.5601 H   0  0  0  0  0  0  0  0  0  0  0  0
    3.6692   -1.1115    2.7584 H   0  0  0  0  0  0  0  0  0  0  0  0
    2.8254    0.2480    3.5248 H   0  0  0  0  0  0  0  0  0  0  0  0
  1  2  1  0  0  0  0
  2  3  1  0  0  0  0
  2  4  1  0  0  0  0
  2  5  1  0  0  0  0
  5  6  2  0  0  0  0
  5  7  1  0  0  0  0
  7  8  1  0  0  0  0
  7  9  1  0  0  0  0
  9 10  1  0  0  0  0
  9 11  1  0  0  0  0
  9 19  1  0  0  0  0
 11 12  1  0  0  0  0
 11 13  1  0  0  0  0
 11 14  1  0  0  0  0
 14 15  2  0  0  0  0
 14 16  1  0  0  0  0
 16 17  1  0  0  0  0
 16 18  1  0  0  0  0
 19 20  2  0  0  0  0
 19 21  1  0  0  0  0
 21 22  1  0  0  0  0
 21 23  1  0  0  0  0
 23 24  1  0  0  0  0
 23 25  1  0  0  0  0
 23 26  1  0  0  0  0
M  END
$$$$

  -OEChem-01062216063D

 26 25  0     1  0  0  0  0  0999 V2000
   -2.7507   -3.2441    1.2020 H   0  0  0  0  0  0  0  0  0  0  0  0
   -2.8167   -2.2027    0.8747 C   0  0  0  0  0  0  0  0  0  0  0  0
   -3.3045   -1.6187    1.6588 H   0  0  0  0  0  0  0  0  0  0  0  0
   -3.4192   -2.1562   -0.0357 H   0  0  0  0  0  0  0  0  0  0  0  0
   -1.4291   -1.6510    0.6076 C   0  0  0  0  0  0  0  0  0  0  0  0
   -0.4537   -2.3812    0.6990 O   0  0  0  0  0  0  0  0  0  0  0  0
   -1.2772   -0.3395    0.1975 N   0  0  0  0  0  0  0  0  0  0  0  0
   -2.1216    0.2224    0.2298 H   0  0  0  0  0  0  0  0  0  0  0  0
    0.0119    0.3685    0.2959 C   0  0  1  0  0  0  0  0  0  0  0  0
    0.6799   -0.0127   -0.4846 H   0  0  0  0  0  0  0  0  0  0  0  0
   -0.2267    1.8742    0.0784 C   0  0  0  0  0  0  0  0  0  0  0  0
   -1.0111    2.2223    0.7563 H   0  0  0  0  0  0  0  0  0  0  0  0
    0.6853    2.4278    0.3191 H   0  0  0  0  0  0  0  0  0  0  0  0
   -0.6016    2.2048   -1.3585 C   0  0  0  0  0  0  0  0  0  0  0  0
   -0.0475    1.6902   -2.3107 O   0  0  0  0  0  0  0  0  0  0  0  0
   -1.5870    3.1034   -1.6530 N   0  0  0  0  0  0  0  0  0  0  0  0
   -1.6487    3.3874   -2.6270 H   0  0  0  0  0  0  0  0  0  0  0  0
   -1.9227    3.7206   -0.9210 H   0  0  0  0  0  0  0  0  0  0  0  0
    0.7253    0.1645    1.6529 C   0  0  0  0  0  0  0  0  0  0  0  0
    0.1269    0.4243    2.6915 O   0  0  0  0  0  0  0  0  0  0  0  0
    2.0782   -0.1167    1.6976 N   0  0  0  0  0  0  0  0  0  0  0  0
    2.4993   -0.4553    0.8368 H   0  0  0  0  0  0  0  0  0  0  0  0
    2.7917   -0.3390    2.9490 C   0  0  0  0  0  0  0  0  0  0  0  0
    2.3702   -1.1976    3.4825 H   0  0  0  0  0  0  0  0  0  0  0  0
    3.8492   -0.5382    2.7506 H   0  0  0  0  0  0  0  0  0  0  0  0
    2.7230    0.5446    3.5923 H   0  0  0  0  0  0  0  0  0  0  0  0
  1  2  1  0  0  0  0
  2  3  1  0  0  0  0
  2  4  1  0  0  0  0
  2  5  1  0  0  0  0
  5  6  2  0  0  0  0
  5  7  1  0  0  0  0
  7  8  1  0  0  0  0
  7  9  1  0  0  0  0
  9 10  1  0  0  0  0
  9 11  1  0  0  0  0
  9 19  1  0  0  0  0
 11 12  1  0  0  0  0
 11 13  1  0  0  0  0
 11 14  1  0  0  0  0
 14 15  2  0  0  0  0
 14 16  1  0  0  0  0
 16 17  1  0  0  0  0
 16 18  1  0  0  0  0
 19 20  2  0  0  0  0
 19 21  1  0  0  0  0
 21 22  1  0  0  0  0
 21 23  1  0  0  0  0
 23 24  1  0  0  0  0
 23 25  1  0  0  0  0
 23 26  1  0  0  0  0
M  END
$$$$

  -OEChem-01062216063D

 26 25  0     1  0  0  0  0  0999 V2000
   -2.7459   -3.2562    1.1856 H   0  0  0  0  0  0  0  0  0  0  0  0
   -2.8138   -2.2058    0.8888 C   0  0  0  0  0  0  0  0  0  0  0  0
   -3.2654   -1.6389    1.7065 H   0  0  0  0  0  0  0  0  0  0  0  0
   -3.4495   -2.1294    0.0036 H   0  0  0  0  0  0  0  0  0  0  0  0
   -1.4318   -1.6597    0.5844 C   0  0  0  0  0  0  0  0  0  0  0  0
   -0.4583   -2.3966    0.6357 O   0  0  0  0  0  0  0  0  0  0  0  0
   -1.2845   -0.3457    0.1797 N   0  0  0  0  0  0  0  0  0  0  0  0
   -2.1264    0.2163    0.2503 H   0  0  0  0  0  0  0  0  0  0  0  0
    0.0055    0.3583    0.2959 C   0  0  1  0  0  0  0  0  0  0  0  0
    0.6789   -0.0226   -0.4802 H   0  0  0  0  0  0  0  0  0  0  0  0
   -0.2336    1.8646    0.0835 C   0  0  0  0  0  0  0  0  0  0  0  0
   -1.0263    2.2061    0.7547 H   0  0  0  0  0  0  0  0  0  0  0  0
    0.6736    2.4205    0.3365 H   0  0  0  0  0  0  0  0  0  0  0  0
   -0.5942    2.2023   -1.3557 C   0  0  0  0  0  0  0  0  0  0  0  0
   -0.0285    1.6931   -2.3038 O   0  0  0  0  0  0  0  0  0  0  0  0
   -1.5691    3.1102   -1.6575 N   0  0  0  0  0  0  0  0  0  0  0  0
   -1.6176    3.3992   -2.6309 H   0  0  0  0  0  0  0  0  0  0  0  0
   -1.9137    3.7237   -0.9266 H   0  0  0  0  0  0  0  0  0  0  0  0
    0.7140    0.1531    1.6559 C   0  0  0  0  0  0  0  0  0  0  0  0
    0.0598    0.2010    2.6925 O   0  0  0  0  0  0  0  0  0  0  0  0
    2.0949    0.1815    1.7290 N   0  0  0  0  0  0  0  0  0  0  0  0
    2.6028    0.0615    0.8572 H   0  0  0  0  0  0  0  0  0  0  0  0
    2.8206    0.0176    2.9826 C   0  0  0  0  0  0  0  0  0  0  0  0
    2.5818   -0.9488    3.4392 H   0  0  0  0  0  0  0  0  0  0  0  0
    3.8992    0.0592    2.8030 H   0  0  0  0  0  0  0  0  0  0  0  0
    2.5578    0.8146    3.6860 H   0  0  0  0  0  0  0  0  0  0  0  0
  1  2  1  0  0  0  0
  2  3  1  0  0  0  0
  2  4  1  0  0  0  0
  2  5  1  0  0  0  0
  5  6  2  0  0  0  0
  5  7  1  0  0  0  0
  7  8  1  0  0  0  0
  7  9  1  0  0  0  0
  9 10  1  0  0  0  0
  9 11  1  0  0  0  0
  9 19  1  0  0  0  0
 11 12  1  0  0  0  0
 11 13  1  0  0  0  0
 11 14  1  0  0  0  0
 14 15  2  0  0  0  0
 14 16  1  0  0  0  0
 16 17  1  0  0  0  0
 16 18  1  0  0  0  0
 19 20  2  0  0  0  0
 19 21  1  0  0  0  0
 21 22  1  0  0  0  0
 21 23  1  0  0  0  0
 23 24  1  0  0  0  0
 23 25  1  0  0  0  0
 23 26  1  0  0  0  0
M  END
$$$$

  -OEChem-01062216063D

 26 25  0     1  0  0  0  0  0999 V2000
   -2.7531   -3.2570    1.1715 H   0  0  0  0  0  0  0  0  0  0  0  0
   -2.8190   -2.2024    0.8898 C   0  0  0  0  0  0  0  0  0  0  0  0
   -3.2449   -1.6423    1.7257 H   0  0  0  0  0  0  0  0  0  0  0  0
   -3.4757   -2.1093    0.0217 H   0  0  0  0  0  0  0  0  0  0  0  0
   -1.4396   -1.6647    0.5589 C   0  0  0  0  0  0  0  0  0  0  0  0
   -0.4742   -2.4137    0.5646 O   0  0  0  0  0  0  0  0  0  0  0  0
   -1.2875   -0.3470    0.1674 N   0  0  0  0  0  0  0  0  0  0  0  0
   -2.1247    0.2175    0.2642 H   0  0  0  0  0  0  0  0  0  0  0  0
    0.0070    0.3482    0.3013 C   0  0  1  0  0  0  0  0  0  0  0  0
    0.6844   -0.0298   -0.4730 H   0  0  0  0  0  0  0  0  0  0  0  0
   -0.2367    1.8558    0.0943 C   0  0  0  0  0  0  0  0  0  0  0  0
   -1.0375    2.1899    0.7597 H   0  0  0  0  0  0  0  0  0  0  0  0
    0.6640    2.4176    0.3559 H   0  0  0  0  0  0  0  0  0  0  0  0
   -0.5860    2.1987   -1.3467 C   0  0  0  0  0  0  0  0  0  0  0  0
   -0.0092    1.6961   -2.2914 O   0  0  0  0  0  0  0  0  0  0  0  0
   -1.5621    3.1032   -1.6541 N   0  0  0  0  0  0  0  0  0  0  0  0
   -1.6082    3.3917   -2.6278 H   0  0  0  0  0  0  0  0  0  0  0  0
   -1.9214    3.7099   -0.9247 H   0  0  0  0  0  0  0  0  0  0  0  0
    0.7181    0.1360    1.6614 C   0  0  0  0  0  0  0  0  0  0  0  0
    0.0557   -0.0229    2.6815 O   0  0  0  0  0  0  0  0  0  0  0  0
    2.0562    0.4647    1.7915 N   0  0  0  0  0  0  0  0  0  0  0  0
    2.5938    0.5557    0.9341 H   0  0  0  0  0  0  0  0  0  0  0  0
    2.7755    0.3716    3.0565 C   0  0  0  0  0  0  0  0  0  0  0  0
    2.7347   -0.6515    3.4452 H   0  0  0  0  0  0  0  0  0  0  0  0
    3.8250    0.6473    2.9160 H   0  0  0  0  0  0  0  0  0  0  0  0
    2.3379    1.0482    3.7980 H   0  0  0  0  0  0  0  0  0  0  0  0
  1  2  1  0  0  0  0
  2  3  1  0  0  0  0
  2  4  1  0  0  0  0
  2  5  1  0  0  0  0
  5  6  2  0  0  0  0
  5  7  1  0  0  0  0
  7  8  1  0  0  0  0
  7  9  1  0  0  0  0
  9 10  1  0  0  0  0
  9 11  1  0  0  0  0
  9 19  1  0  0  0  0
 11 12  1  0  0  0  0
 11 13  1  0  0  0  0
 11 14  1  0  0  0  0
 14 15  2  0  0  0  0
 14 16  1  0  0  0  0
 16 17  1  0  0  0  0
 16 18  1  0  0  0  0
 19 20  2  0  0  0  0
 19 21  1  0  0  0  0
 21 22  1  0  0  0  0
 21 23  1  0  0  0  0
 23 24  1  0  0  0  0
 23 25  1  0  0  0  0
 23 26  1  0  0  0  0
M  END
$$$$

  -OEChem-01062216063D

 26 25  0     1  0  0  0  0  0999 V2000
   -2.8796   -3.2118    1.0661 H   0  0  0  0  0  0  0  0  0  0  0  0
   -2.8813   -2.1390    0.8539 C   0  0  0  0  0  0  0  0  0  0  0  0
   -3.2163   -1.6062    1.7472 H   0  0  0  0  0  0  0  0  0  0  0  0
   -3.5761   -1.9415    0.0343 H   0  0  0  0  0  0  0  0  0  0  0  0
   -1.4854   -1.6819    0.4743 C   0  0  0  0  0  0  0  0  0  0  0  0
   -0.5980   -2.5053    0.3113 O   0  0  0  0  0  0  0  0  0  0  0  0
   -1.2618   -0.3595    0.1353 N   0  0  0  0  0  0  0  0  0  0  0  0
   -2.0820    0.2297    0.2270 H   0  0  0  0  0  0  0  0  0  0  0  0
    0.0459    0.3101    0.3092 C   0  0  1  0  0  0  0  0  0  0  0  0
    0.6295    0.1592   -0.6057 H   0  0  0  0  0  0  0  0  0  0  0  0
   -0.2590    1.8126    0.5032 C   0  0  0  0  0  0  0  0  0  0  0  0
   -0.9931    1.9336    1.3047 H   0  0  0  0  0  0  0  0  0  0  0  0
    0.6432    2.3503    0.8047 H   0  0  0  0  0  0  0  0  0  0  0  0
   -0.7657    2.4751   -0.7694 C   0  0  0  0  0  0  0  0  0  0  0  0
   -0.2775    2.2456   -1.8585 O   0  0  0  0  0  0  0  0  0  0  0  0
   -1.8061    3.3596   -0.7520 N   0  0  0  0  0  0  0  0  0  0  0  0
   -1.9688    3.8680   -1.6172 H   0  0  0  0  0  0  0  0  0  0  0  0
   -2.1022    3.7558    0.1340 H   0  0  0  0  0  0  0  0  0  0  0  0
    0.9478   -0.1772    1.4797 C   0  0  0  0  0  0  0  0  0  0  0  0
    0.4517   -0.7098    2.4664 O   0  0  0  0  0  0  0  0  0  0  0  0
    2.1835    0.4219    1.6669 N   0  0  0  0  0  0  0  0  0  0  0  0
    2.5994    0.8787    0.8605 H   0  0  0  0  0  0  0  0  0  0  0  0
    3.0245    0.1739    2.8333 C   0  0  0  0  0  0  0  0  0  0  0  0
    3.2312   -0.8967    2.9357 H   0  0  0  0  0  0  0  0  0  0  0  0
    3.9771    0.7025    2.7315 H   0  0  0  0  0  0  0  0  0  0  0  0
    2.5305    0.5263    3.7448 H   0  0  0  0  0  0  0  0  0  0  0  0
  1  2  1  0  0  0  0
  2  3  1  0  0  0  0
  2  4  1  0  0  0  0
  2  5  1  0  0  0  0
  5  6  2  0  0  0  0
  5  7  1  0  0  0  0
  7  8  1  0  0  0  0
  7  9  1  0  0  0  0
  9 10  1  0  0  0  0
  9 11  1  0  0  0  0
  9 19  1  0  0  0  0
 11 12  1  0  0  0  0
 11 13  1  0  0  0  0
 11 14  1  0  0  0  0
 14 15  2  0  0  0  0
 14 16  1  0  0  0  0
 16 17  1  0  0  0  0
 16 18  1  0  0  0  0
 19 20  2  0  0  0  0
 19 21  1  0  0  0  0
 21 22  1  0  0  0  0
 21 23  1  0  0  0  0
 23 24  1  0  0  0  0
 23 25  1  0  0  0  0
 23 26  1  0  0  0  0
M  END
$$$$

  -OEChem-01062216063D

 26 25  0     1  0  0  0  0  0999 V2000
   -2.8733   -3.1970    1.0650 H   0  0  0  0  0  0  0  0  0  0  0  0
   -2.8686   -2.1197    0.8760 C   0  0  0  0  0  0  0  0  0  0  0  0
   -3.1584   -1.6022    1.7935 H   0  0  0  0  0  0  0  0  0  0  0  0
   -3.5936   -1.8950    0.0902 H   0  0  0  0  0  0  0  0  0  0  0  0
   -1.4828   -1.6739    0.4494 C   0  0  0  0  0  0  0  0  0  0  0  0
   -0.6281   -2.5076    0.1941 O   0  0  0  0  0  0  0  0  0  0  0  0
   -1.2507   -0.3471    0.1358 N   0  0  0  0  0  0  0  0  0  0  0  0
   -2.0674    0.2406    0.2608 H   0  0  0  0  0  0  0  0  0  0  0  0
    0.0574    0.3224    0.3231 C   0  0  1  0  0  0  0  0  0  0  0  0
    0.6427    0.1777   -0.5922 H   0  0  0  0  0  0  0  0  0  0  0  0
   -0.2795    1.8238    0.5014 C   0  0  0  0  0  0  0  0  0  0  0  0
   -1.0259    1.9382    1.2923 H   0  0  0  0  0  0  0  0  0  0  0  0
    0.6037    2.3893    0.8049 H   0  0  0  0  0  0  0  0  0  0  0  0
   -0.7791    2.4680   -0.7844 C   0  0  0  0  0  0  0  0  0  0  0  0
   -0.2705    2.2410   -1.8644 O   0  0  0  0  0  0  0  0  0  0  0  0
   -1.8361    3.3327   -0.7888 N   0  0  0  0  0  0  0  0  0  0  0  0
   -1.9959    3.8309   -1.6604 H   0  0  0  0  0  0  0  0  0  0  0  0
   -2.1542    3.7292    0.0891 H   0  0  0  0  0  0  0  0  0  0  0  0
    0.9801   -0.1652    1.4864 C   0  0  0  0  0  0  0  0  0  0  0  0
    0.5717   -0.9361    2.3457 O   0  0  0  0  0  0  0  0  0  0  0  0
    2.0531    0.6239    1.8752 N   0  0  0  0  0  0  0  0  0  0  0  0
    2.4174    1.2726    1.1842 H   0  0  0  0  0  0  0  0  0  0  0  0
    2.8580    0.3613    3.0647 C   0  0  0  0  0  0  0  0  0  0  0  0
    3.2815   -0.6480    3.0264 H   0  0  0  0  0  0  0  0  0  0  0  0
    3.6812    1.0791    3.1302 H   0  0  0  0  0  0  0  0  0  0  0  0
    2.2480    0.4535    3.9695 H   0  0  0  0  0  0  0  0  0  0  0  0
  1  2  1  0  0  0  0
  2  3  1  0  0  0  0
  2  4  1  0  0  0  0
  2  5  1  0  0  0  0
  5  6  2  0  0  0  0
  5  7  1  0  0  0  0
  7  8  1  0  0  0  0
  7  9  1  0  0  0  0
  9 10  1  0  0  0  0
  9 11  1  0  0  0  0
  9 19  1  0  0  0  0
 11 12  1  0  0  0  0
 11 13  1  0  0  0  0
 11 14  1  0  0  0  0
 14 15  2  0  0  0  0
 14 16  1  0  0  0  0
 16 17  1  0  0  0  0
 16 18  1  0  0  0  0
 19 20  2  0  0  0  0
 19 21  1  0  0  0  0
 21 22  1  0  0  0  0
 21 23  1  0  0  0  0
 23 24  1  0  0  0  0
 23 25  1  0  0  0  0
 23 26  1  0  0  0  0
M  END
$$$$

  -OEChem-01062216063D

 26 25  0     1  0  0  0  0  0999 V2000
   -2.8596   -3.1805    1.0785 H   0  0  0  0  0  0  0  0  0  0  0  0
   -2.8481   -2.1001    0.9095 C   0  0  0  0  0  0  0  0  0  0  0  0
   -3.0910   -1.5969    1.8483 H   0  0  0  0  0  0  0  0  0  0  0  0
   -3.6031   -1.8513    0.1601 H   0  0  0  0  0  0  0  0  0  0  0  0
   -1.4756   -1.6654    0.4311 C   0  0  0  0  0  0  0  0  0  0  0  0
   -0.6646   -2.5063    0.0802 O   0  0  0  0  0  0  0  0  0  0  0  0
   -1.2389   -0.3341    0.1423 N   0  0  0  0  0  0  0  0  0  0  0  0
   -2.0583    0.2453    0.2839 H   0  0  0  0  0  0  0  0  0  0  0  0
    0.0591    0.3518    0.3495 C   0  0  1  0  0  0  0  0  0  0  0  0
    0.6567    0.2093   -0.5584 H   0  0  0  0  0  0  0  0  0  0  0  0
   -0.3107    1.8513    0.4935 C   0  0  0  0  0  0  0  0  0  0  0  0
   -1.0746    1.9682    1.2671 H   0  0  0  0  0  0  0  0  0  0  0  0
    0.5550    2.4422    0.7962 H   0  0  0  0  0  0  0  0  0  0  0  0
   -0.7910    2.4645   -0.8156 C   0  0  0  0  0  0  0  0  0  0  0  0
   -0.2533    2.2304   -1.8793 O   0  0  0  0  0  0  0  0  0  0  0  0
   -1.8656    3.3062   -0.8608 N   0  0  0  0  0  0  0  0  0  0  0  0
   -2.0195    3.7806   -1.7470 H   0  0  0  0  0  0  0  0  0  0  0  0
   -2.2193    3.7085    0.0007 H   0  0  0  0  0  0  0  0  0  0  0  0
    0.9930   -0.1258    1.5149 C   0  0  0  0  0  0  0  0  0  0  0  0
    0.7886   -1.1494    2.1504 O   0  0  0  0  0  0  0  0  0  0  0  0
    1.8455    0.7766    2.1361 N   0  0  0  0  0  0  0  0  0  0  0  0
    2.0755    1.6195    1.6201 H   0  0  0  0  0  0  0  0  0  0  0  0
    2.6506    0.4500    3.3101 C   0  0  0  0  0  0  0  0  0  0  0  0
    3.3048   -0.4032    3.1014 H   0  0  0  0  0  0  0  0  0  0  0  0
    3.2746    1.3039    3.5906 H   0  0  0  0  0  0  0  0  0  0  0  0
    2.0067    0.2005    4.1602 H   0  0  0  0  0  0  0  0  0  0  0  0
  1  2  1  0  0  0  0
  2  3  1  0  0  0  0
  2  4  1  0  0  0  0
  2  5  1  0  0  0  0
  5  6  2  0  0  0  0
  5  7  1  0  0  0  0
  7  8  1  0  0  0  0
  7  9  1  0  0  0  0
  9 10  1  0  0  0  0
  9 11  1  0  0  0  0
  9 19  1  0  0  0  0
 11 12  1  0  0  0  0
 11 13  1  0  0  0  0
 11 14  1  0  0  0  0
 14 15  2  0  0  0  0
 14 16  1  0  0  0  0
 16 17  1  0  0  0  0
 16 18  1  0  0  0  0
 19 20  2  0  0  0  0
 19 21  1  0  0  0  0
 21 22  1  0  0  0  0
 21 23  1  0  0  0  0
 23 24  1  0  0  0  0
 23 25  1  0  0  0  0
 23 26  1  0  0  0  0
M  END
$$$$

  -OEChem-01062216063D

 26 25  0     1  0  0  0  0  0999 V2000
   -2.9817   -3.2013    0.8880 H   0  0  0  0  0  0  0  0  0  0  0  0
   -2.7977   -2.2680    0.3483 C   0  0  0  0  0  0  0  0  0  0  0  0
   -3.7454   -1.7391    0.2236 H   0  0  0  0  0  0  0  0  0  0  0  0
   -2.3881   -2.5084   -0.6358 H   0  0  0  0  0  0  0  0  0  0  0  0
   -1.8155   -1.4053    1.1186 C   0  0  0  0  0  0  0  0  0  0  0  0
   -1.5367   -1.7026    2.2666 O   0  0  0  0  0  0  0  0  0  0  0  0
   -1.4830   -0.1571    0.6255 N   0  0  0  0  0  0  0  0  0  0  0  0
   -2.0045    0.0481   -0.2228 H   0  0  0  0  0  0  0  0  0  0  0  0
   -0.1120    0.4028    0.5937 C   0  0  1  0  0  0  0  0  0  0  0  0
    0.3690    0.1041   -0.3451 H   0  0  0  0  0  0  0  0  0  0  0  0
   -0.3163    1.9368    0.6015 C   0  0  0  0  0  0  0  0  0  0  0  0
   -0.9612    2.2199    1.4385 H   0  0  0  0  0  0  0  0  0  0  0  0
    0.6398    2.4517    0.7192 H   0  0  0  0  0  0  0  0  0  0  0  0
   -0.9064    2.4388   -0.7093 C   0  0  0  0  0  0  0  0  0  0  0  0
   -0.5355    2.0236   -1.7898 O   0  0  0  0  0  0  0  0  0  0  0  0
   -1.9266    3.3461   -0.7371 N   0  0  0  0  0  0  0  0  0  0  0  0
   -2.1680    3.7273   -1.6480 H   0  0  0  0  0  0  0  0  0  0  0  0
   -2.1765    3.8447    0.1107 H   0  0  0  0  0  0  0  0  0  0  0  0
    0.8831   -0.0561    1.7007 C   0  0  0  0  0  0  0  0  0  0  0  0
    1.2689   -1.2174    1.6817 O   0  0  0  0  0  0  0  0  0  0  0  0
    1.6935    0.8410    2.3812 N   0  0  0  0  0  0  0  0  0  0  0  0
    1.4013    1.8114    2.3953 H   0  0  0  0  0  0  0  0  0  0  0  0
    2.7680    0.4268    3.2777 C   0  0  0  0  0  0  0  0  0  0  0  0
    3.5371   -0.1246    2.7265 H   0  0  0  0  0  0  0  0  0  0  0  0
    3.2359    1.3022    3.7378 H   0  0  0  0  0  0  0  0  0  0  0  0
    2.3765   -0.2157    4.0736 H   0  0  0  0  0  0  0  0  0  0  0  0
  1  2  1  0  0  0  0
  2  3  1  0  0  0  0
  2  4  1  0  0  0  0
  2  5  1  0  0  0  0
  5  6  2  0  0  0  0
  5  7  1  0  0  0  0
  7  8  1  0  0  0  0
  7  9  1  0  0  0  0
  9 10  1  0  0  0  0
  9 11  1  0  0  0  0
  9 19  1  0  0  0  0
 11 12  1  0  0  0  0
 11 13  1  0  0  0  0
 11 14  1  0  0  0  0
 14 15  2  0  0  0  0
 14 16  1  0  0  0  0
 16 17  1  0  0  0  0
 16 18  1  0  0  0  0
 19 20  2  0  0  0  0
 19 21  1  0  0  0  0
 21 22  1  0  0  0  0
 21 23  1  0  0  0  0
 23 24  1  0  0  0  0
 23 25  1  0  0  0  0
 23 26  1  0  0  0  0
M  END
$$$$

  -OEChem-01062216063D

 26 25  0     1  0  0  0  0  0999 V2000
   -3.0349   -3.2148    0.8193 H   0  0  0  0  0  0  0  0  0  0  0  0
   -2.9292   -2.2188    0.3798 C   0  0  0  0  0  0  0  0  0  0  0  0
   -3.8610   -1.6674    0.5267 H   0  0  0  0  0  0  0  0  0  0  0  0
   -2.7415   -2.3280   -0.6912 H   0  0  0  0  0  0  0  0  0  0  0  0
   -1.7774   -1.4798    1.0359 C   0  0  0  0  0  0  0  0  0  0  0  0
   -1.3004   -1.9288    2.0616 O   0  0  0  0  0  0  0  0  0  0  0  0
   -1.4404   -0.2206    0.5705 N   0  0  0  0  0  0  0  0  0  0  0  0
   -2.0033    0.0485   -0.2323 H   0  0  0  0  0  0  0  0  0  0  0  0
   -0.0842    0.3756    0.5689 C   0  0  1  0  0  0  0  0  0  0  0  0
    0.4171    0.0921   -0.3644 H   0  0  0  0  0  0  0  0  0  0  0  0
   -0.3039    1.9065    0.5827 C   0  0  0  0  0  0  0  0  0  0  0  0
   -0.9693    2.1774    1.4071 H   0  0  0  0  0  0  0  0  0  0  0  0
    0.6486    2.4234    0.7277 H   0  0  0  0  0  0  0  0  0  0  0  0
   -0.8734    2.4147   -0.7349 C   0  0  0  0  0  0  0  0  0  0  0  0
   -0.4802    2.0142   -1.8127 O   0  0  0  0  0  0  0  0  0  0  0  0
   -1.8917    3.3235   -0.7749 N   0  0  0  0  0  0  0  0  0  0  0  0
   -2.0989    3.7198   -1.6881 H   0  0  0  0  0  0  0  0  0  0  0  0
   -2.1330    3.8338    0.0683 H   0  0  0  0  0  0  0  0  0  0  0  0
    0.9019   -0.0697    1.6872 C   0  0  0  0  0  0  0  0  0  0  0  0
    1.4994   -1.1275    1.5385 O   0  0  0  0  0  0  0  0  0  0  0  0
    1.4444    0.8302    2.5926 N   0  0  0  0  0  0  0  0  0  0  0  0
    0.9334    1.6925    2.7439 H   0  0  0  0  0  0  0  0  0  0  0  0
    2.4847    0.4640    3.5477 C   0  0  0  0  0  0  0  0  0  0  0  0
    3.3922    0.1457    3.0236 H   0  0  0  0  0  0  0  0  0  0  0  0
    2.7360    1.3201    4.1809 H   0  0  0  0  0  0  0  0  0  0  0  0
    2.1434   -0.3552    4.1896 H   0  0  0  0  0  0  0  0  0  0  0  0
  1  2  1  0  0  0  0
  2  3  1  0  0  0  0
  2  4  1  0  0  0  0
  2  5  1  0  0  0  0
  5  6  2  0  0  0  0
  5  7  1  0  0  0  0
  7  8  1  0  0  0  0
  7  9  1  0  0  0  0
  9 10  1  0  0  0  0
  9 11  1  0  0  0  0
  9 19  1  0  0  0  0
 11 12  1  0  0  0  0
 11 13  1  0  0  0  0
 11 14  1  0  0  0  0
 14 15  2  0  0  0  0
 14 16  1  0  0  0  0
 16 17  1  0  0  0  0
 16 18  1  0  0  0  0
 19 20  2  0  0  0  0
 19 21  1  0  0  0  0
 21 22  1  0  0  0  0
 21 23  1  0  0  0  0
 23 24  1  0  0  0  0
 23 25  1  0  0  0  0
 23 26  1  0  0  0  0
M  END
$$$$

  -OEChem-01062216063D

 26 25  0     1  0  0  0  0  0999 V2000
   -3.0890   -3.1996    0.8399 H   0  0  0  0  0  0  0  0  0  0  0  0
   -2.9770   -2.1998    0.4105 C   0  0  0  0  0  0  0  0  0  0  0  0
   -3.8671   -1.6124    0.6479 H   0  0  0  0  0  0  0  0  0  0  0  0
   -2.8877   -2.2939   -0.6747 H   0  0  0  0  0  0  0  0  0  0  0  0
   -1.7418   -1.5233    0.9759 C   0  0  0  0  0  0  0  0  0  0  0  0
   -1.1455   -2.0593    1.8911 O   0  0  0  0  0  0  0  0  0  0  0  0
   -1.4141   -0.2560    0.5255 N   0  0  0  0  0  0  0  0  0  0  0  0
   -2.0141    0.0558   -0.2339 H   0  0  0  0  0  0  0  0  0  0  0  0
   -0.0692    0.3633    0.5377 C   0  0  1  0  0  0  0  0  0  0  0  0
    0.4409    0.0937   -0.3953 H   0  0  0  0  0  0  0  0  0  0  0  0
   -0.2942    1.8915    0.5673 C   0  0  0  0  0  0  0  0  0  0  0  0
   -0.9673    2.1513    1.3888 H   0  0  0  0  0  0  0  0  0  0  0  0
    0.6578    2.4044    0.7321 H   0  0  0  0  0  0  0  0  0  0  0  0
   -0.8584    2.4138   -0.7469 C   0  0  0  0  0  0  0  0  0  0  0  0
   -0.4604    2.0295   -1.8286 O   0  0  0  0  0  0  0  0  0  0  0  0
   -1.8801    3.3190   -0.7796 N   0  0  0  0  0  0  0  0  0  0  0  0
   -2.0757    3.7295   -1.6890 H   0  0  0  0  0  0  0  0  0  0  0  0
   -2.1118    3.8291    0.0662 H   0  0  0  0  0  0  0  0  0  0  0  0
    0.9128   -0.0743    1.6601 C   0  0  0  0  0  0  0  0  0  0  0  0
    1.6892   -0.9911    1.4267 O   0  0  0  0  0  0  0  0  0  0  0  0
    1.1920    0.7410    2.7466 N   0  0  0  0  0  0  0  0  0  0  0  0
    0.4984    1.4440    2.9759 H   0  0  0  0  0  0  0  0  0  0  0  0
    2.1790    0.3870    3.7608 C   0  0  0  0  0  0  0  0  0  0  0  0
    3.1734    0.2908    3.3120 H   0  0  0  0  0  0  0  0  0  0  0  0
    2.2242    1.1614    4.5325 H   0  0  0  0  0  0  0  0  0  0  0  0
    1.9143   -0.5635    4.2363 H   0  0  0  0  0  0  0  0  0  0  0  0
  1  2  1  0  0  0  0
  2  3  1  0  0  0  0
  2  4  1  0  0  0  0
  2  5  1  0  0  0  0
  5  6  2  0  0  0  0
  5  7  1  0  0  0  0
  7  8  1  0  0  0  0
  7  9  1  0  0  0  0
  9 10  1  0  0  0  0
  9 11  1  0  0  0  0
  9 19  1  0  0  0  0
 11 12  1  0  0  0  0
 11 13  1  0  0  0  0
 11 14  1  0  0  0  0
 14 15  2  0  0  0  0
 14 16  1  0  0  0  0
 16 17  1  0  0  0  0
 16 18  1  0  0  0  0
 19 20  2  0  0  0  0
 19 21  1  0  0  0  0
 21 22  1  0  0  0  0
 21 23  1  0  0  0  0
 23 24  1  0  0  0  0
 23 25  1  0  0  0  0
 23 26  1  0  0  0  0
M  END
$$$$

  -OEChem-01062216063D

 26 25  0     1  0  0  0  0  0999 V2000
   -3.1066   -3.1975    0.8789 H   0  0  0  0  0  0  0  0  0  0  0  0
   -2.9941   -2.2027    0.4382 C   0  0  0  0  0  0  0  0  0  0  0  0
   -3.8586   -1.5952    0.7154 H   0  0  0  0  0  0  0  0  0  0  0  0
   -2.9607   -2.3041   -0.6493 H   0  0  0  0  0  0  0  0  0  0  0  0
   -1.7178   -1.5502    0.9372 C   0  0  0  0  0  0  0  0  0  0  0  0
   -1.0533   -2.1255    1.7788 O   0  0  0  0  0  0  0  0  0  0  0  0
   -1.4007   -0.2788    0.4899 N   0  0  0  0  0  0  0  0  0  0  0  0
   -2.0242    0.0545   -0.2409 H   0  0  0  0  0  0  0  0  0  0  0  0
   -0.0626    0.3539    0.5066 C   0  0  1  0  0  0  0  0  0  0  0  0
    0.4497    0.0933   -0.4279 H   0  0  0  0  0  0  0  0  0  0  0  0
   -0.2815    1.8813    0.5550 C   0  0  0  0  0  0  0  0  0  0  0  0
   -0.9528    2.1344    1.3796 H   0  0  0  0  0  0  0  0  0  0  0  0
    0.6739    2.3845    0.7310 H   0  0  0  0  0  0  0  0  0  0  0  0
   -0.8467    2.4246   -0.7499 C   0  0  0  0  0  0  0  0  0  0  0  0
   -0.4541    2.0544   -1.8385 O   0  0  0  0  0  0  0  0  0  0  0  0
   -1.8607    3.3392   -0.7670 N   0  0  0  0  0  0  0  0  0  0  0  0
   -2.0509    3.7647   -1.6705 H   0  0  0  0  0  0  0  0  0  0  0  0
   -2.0765    3.8463    0.0849 H   0  0  0  0  0  0  0  0  0  0  0  0
    0.9153   -0.0773    1.6315 C   0  0  0  0  0  0  0  0  0  0  0  0
    1.8518   -0.8119    1.3465 O   0  0  0  0  0  0  0  0  0  0  0  0
    0.9461    0.5851    2.8483 N   0  0  0  0  0  0  0  0  0  0  0  0
    0.0982    1.0771    3.1074 H   0  0  0  0  0  0  0  0  0  0  0  0
    1.8794    0.2212    3.9080 C   0  0  0  0  0  0  0  0  0  0  0  0
    2.9135    0.3470    3.5698 H   0  0  0  0  0  0  0  0  0  0  0  0
    1.7248    0.8581    4.7838 H   0  0  0  0  0  0  0  0  0  0  0  0
    1.7308   -0.8222    4.2057 H   0  0  0  0  0  0  0  0  0  0  0  0
  1  2  1  0  0  0  0
  2  3  1  0  0  0  0
  2  4  1  0  0  0  0
  2  5  1  0  0  0  0
  5  6  2  0  0  0  0
  5  7  1  0  0  0  0
  7  8  1  0  0  0  0
  7  9  1  0  0  0  0
  9 10  1  0  0  0  0
  9 11  1  0  0  0  0
  9 19  1  0  0  0  0
 11 12  1  0  0  0  0
 11 13  1  0  0  0  0
 11 14  1  0  0  0  0
 14 15  2  0  0  0  0
 14 16  1  0  0  0  0
 16 17  1  0  0  0  0
 16 18  1  0  0  0  0
 19 20  2  0  0  0  0
 19 21  1  0  0  0  0
 21 22  1  0  0  0  0
 21 23  1  0  0  0  0
 23 24  1  0  0  0  0
 23 25  1  0  0  0  0
 23 26  1  0  0  0  0
M  END
$$$$

  -OEChem-01062216063D

 26 25  0     1  0  0  0  0  0999 V2000
   -3.1141   -3.2006    0.8793 H   0  0  0  0  0  0  0  0  0  0  0  0
   -3.0121   -2.1986    0.4526 C   0  0  0  0  0  0  0  0  0  0  0  0
   -3.8585   -1.5893    0.7788 H   0  0  0  0  0  0  0  0  0  0  0  0
   -3.0275   -2.2792   -0.6371 H   0  0  0  0  0  0  0  0  0  0  0  0
   -1.7091   -1.5671    0.9071 C   0  0  0  0  0  0  0  0  0  0  0  0
   -1.0069   -2.1682    1.6991 O   0  0  0  0  0  0  0  0  0  0  0  0
   -1.3926   -0.2957    0.4603 N   0  0  0  0  0  0  0  0  0  0  0  0
   -2.0296    0.0549   -0.2509 H   0  0  0  0  0  0  0  0  0  0  0  0
   -0.0572    0.3428    0.4835 C   0  0  1  0  0  0  0  0  0  0  0  0
    0.4598    0.0877   -0.4502 H   0  0  0  0  0  0  0  0  0  0  0  0
   -0.2703    1.8688    0.5487 C   0  0  0  0  0  0  0  0  0  0  0  0
   -0.9394    2.1148    1.3770 H   0  0  0  0  0  0  0  0  0  0  0  0
    0.6877    2.3647    0.7330 H   0  0  0  0  0  0  0  0  0  0  0  0
   -0.8341    2.4296   -0.7491 C   0  0  0  0  0  0  0  0  0  0  0  0
   -0.4447    2.0714   -1.8428 O   0  0  0  0  0  0  0  0  0  0  0  0
   -1.8446    3.3482   -0.7534 N   0  0  0  0  0  0  0  0  0  0  0  0
   -2.0265    3.7907   -1.6504 H   0  0  0  0  0  0  0  0  0  0  0  0
   -2.0511    3.8479    0.1051 H   0  0  0  0  0  0  0  0  0  0  0  0
    0.9144   -0.0812    1.6138 C   0  0  0  0  0  0  0  0  0  0  0  0
    1.9890   -0.5841    1.3133 O   0  0  0  0  0  0  0  0  0  0  0  0
    0.7270    0.3685    2.9102 N   0  0  0  0  0  0  0  0  0  0  0  0
   -0.2285    0.6099    3.1511 H   0  0  0  0  0  0  0  0  0  0  0  0
    1.6269   -0.0081    3.9938 C   0  0  0  0  0  0  0  0  0  0  0  0
    2.6452    0.3373    3.7858 H   0  0  0  0  0  0  0  0  0  0  0  0
    1.2968    0.4430    4.9344 H   0  0  0  0  0  0  0  0  0  0  0  0
    1.6427   -1.0964    4.1159 H   0  0  0  0  0  0  0  0  0  0  0  0
  1  2  1  0  0  0  0
  2  3  1  0  0  0  0
  2  4  1  0  0  0  0
  2  5  1  0  0  0  0
  5  6  2  0  0  0  0
  5  7  1  0  0  0  0
  7  8  1  0  0  0  0
  7  9  1  0  0  0  0
  9 10  1  0  0  0  0
  9 11  1  0  0  0  0
  9 19  1  0  0  0  0
 11 12  1  0  0  0  0
 11 13  1  0  0  0  0
 11 14  1  0  0  0  0
 14 15  2  0  0  0  0
 14 16  1  0  0  0  0
 16 17  1  0  0  0  0
 16 18  1  0  0  0  0
 19 20  2  0  0  0  0
 19 21  1  0  0  0  0
 21 22  1  0  0  0  0
 21 23  1  0  0  0  0
 23 24  1  0  0  0  0
 23 25  1  0  0  0  0
 23 26  1  0  0  0  0
M  END
$$$$

  -OEChem-01062216063D

 26 25  0     1  0  0  0  0  0999 V2000
   -3.1484   -3.1989    0.8581 H   0  0  0  0  0  0  0  0  0  0  0  0
   -3.0418   -2.1923    0.4437 C   0  0  0  0  0  0  0  0  0  0  0  0
   -3.8695   -1.5752    0.8008 H   0  0  0  0  0  0  0  0  0  0  0  0
   -3.0869   -2.2566   -0.6464 H   0  0  0  0  0  0  0  0  0  0  0  0
   -1.7184   -1.5866    0.8734 C   0  0  0  0  0  0  0  0  0  0  0  0
   -1.0019   -2.2102    1.6347 O   0  0  0  0  0  0  0  0  0  0  0  0
   -1.3898   -0.3173    0.4304 N   0  0  0  0  0  0  0  0  0  0  0  0
   -2.0341    0.0552   -0.2631 H   0  0  0  0  0  0  0  0  0  0  0  0
   -0.0540    0.3210    0.4654 C   0  0  1  0  0  0  0  0  0  0  0  0
    0.4690    0.0740   -0.4668 H   0  0  0  0  0  0  0  0  0  0  0  0
   -0.2639    1.8456    0.5521 C   0  0  0  0  0  0  0  0  0  0  0  0
   -0.9315    2.0800    1.3852 H   0  0  0  0  0  0  0  0  0  0  0  0
    0.6951    2.3365    0.7450 H   0  0  0  0  0  0  0  0  0  0  0  0
   -0.8243    2.4271   -0.7375 C   0  0  0  0  0  0  0  0  0  0  0  0
   -0.4346    2.0847   -1.8363 O   0  0  0  0  0  0  0  0  0  0  0  0
   -1.8263    3.3548   -0.7280 N   0  0  0  0  0  0  0  0  0  0  0  0
   -2.0016    3.8129   -1.6186 H   0  0  0  0  0  0  0  0  0  0  0  0
   -2.0211    3.8479    0.1372 H   0  0  0  0  0  0  0  0  0  0  0  0
    0.9132   -0.0935    1.6010 C   0  0  0  0  0  0  0  0  0  0  0  0
    2.0835   -0.3251    1.3272 O   0  0  0  0  0  0  0  0  0  0  0  0
    0.5565    0.0978    2.9245 N   0  0  0  0  0  0  0  0  0  0  0  0
   -0.4430    0.0665    3.1002 H   0  0  0  0  0  0  0  0  0  0  0  0
    1.4459   -0.2657    4.0208 C   0  0  0  0  0  0  0  0  0  0  0  0
    2.3853    0.2937    3.9559 H   0  0  0  0  0  0  0  0  0  0  0  0
    0.9749   -0.0358    4.9812 H   0  0  0  0  0  0  0  0  0  0  0  0
    1.6715   -1.3369    3.9905 H   0  0  0  0  0  0  0  0  0  0  0  0
  1  2  1  0  0  0  0
  2  3  1  0  0  0  0
  2  4  1  0  0  0  0
  2  5  1  0  0  0  0
  5  6  2  0  0  0  0
  5  7  1  0  0  0  0
  7  8  1  0  0  0  0
  7  9  1  0  0  0  0
  9 10  1  0  0  0  0
  9 11  1  0  0  0  0
  9 19  1  0  0  0  0
 11 12  1  0  0  0  0
 11 13  1  0  0  0  0
 11 14  1  0  0  0  0
 14 15  2  0  0  0  0
 14 16  1  0  0  0  0
 16 17  1  0  0  0  0
 16 18  1  0  0  0  0
 19 20  2  0  0  0  0
 19 21  1  0  0  0  0
 21 22  1  0  0  0  0
 21 23  1  0  0  0  0
 23 24  1  0  0  0  0
 23 25  1  0  0  0  0
 23 26  1  0  0  0  0
M  END
$$$$

  -OEChem-01062216063D

 26 25  0     1  0  0  0  0  0999 V2000
   -3.2145   -3.1836    0.7777 H   0  0  0  0  0  0  0  0  0  0  0  0
   -3.0992   -2.1595    0.4110 C   0  0  0  0  0  0  0  0  0  0  0  0
   -3.9014   -1.5444    0.8257 H   0  0  0  0  0  0  0  0  0  0  0  0
   -3.1808   -2.1675   -0.6787 H   0  0  0  0  0  0  0  0  0  0  0  0
   -1.7499   -1.6028    0.8263 C   0  0  0  0  0  0  0  0  0  0  0  0
   -1.0350   -2.2651    1.5561 O   0  0  0  0  0  0  0  0  0  0  0  0
   -1.3904   -0.3367    0.4003 N   0  0  0  0  0  0  0  0  0  0  0  0
   -2.0364    0.0709   -0.2714 H   0  0  0  0  0  0  0  0  0  0  0  0
   -0.0512    0.2959    0.4609 C   0  0  1  0  0  0  0  0  0  0  0  0
    0.4825    0.0586   -0.4676 H   0  0  0  0  0  0  0  0  0  0  0  0
   -0.2669    1.8185    0.5626 C   0  0  0  0  0  0  0  0  0  0  0  0
   -0.9441    2.0398    1.3917 H   0  0  0  0  0  0  0  0  0  0  0  0
    0.6871    2.3123    0.7726 H   0  0  0  0  0  0  0  0  0  0  0  0
   -0.8114    2.4144   -0.7268 C   0  0  0  0  0  0  0  0  0  0  0  0
   -0.4073    2.0881   -1.8254 O   0  0  0  0  0  0  0  0  0  0  0  0
   -1.8185    3.3365   -0.7168 N   0  0  0  0  0  0  0  0  0  0  0  0
   -1.9784    3.8116   -1.6012 H   0  0  0  0  0  0  0  0  0  0  0  0
   -2.0236    3.8156    0.1539 H   0  0  0  0  0  0  0  0  0  0  0  0
    0.9153   -0.1093    1.6021 C   0  0  0  0  0  0  0  0  0  0  0  0
    2.1203   -0.0559    1.3930 O   0  0  0  0  0  0  0  0  0  0  0  0
    0.4663   -0.2134    2.9065 N   0  0  0  0  0  0  0  0  0  0  0  0
   -0.4933   -0.5439    2.9783 H   0  0  0  0  0  0  0  0  0  0  0  0
    1.3663   -0.5442    4.0045 C   0  0  0  0  0  0  0  0  0  0  0  0
    2.1611    0.2042    4.0895 H   0  0  0  0  0  0  0  0  0  0  0  0
    0.8154   -0.5682    4.9494 H   0  0  0  0  0  0  0  0  0  0  0  0
    1.8230   -1.5262    3.8419 H   0  0  0  0  0  0  0  0  0  0  0  0
  1  2  1  0  0  0  0
  2  3  1  0  0  0  0
  2  4  1  0  0  0  0
  2  5  1  0  0  0  0
  5  6  2  0  0  0  0
  5  7  1  0  0  0  0
  7  8  1  0  0  0  0
  7  9  1  0  0  0  0
  9 10  1  0  0  0  0
  9 11  1  0  0  0  0
  9 19  1  0  0  0  0
 11 12  1  0  0  0  0
 11 13  1  0  0  0  0
 11 14  1  0  0  0  0
 14 15  2  0  0  0  0
 14 16  1  0  0  0  0
 16 17  1  0  0  0  0
 16 18  1  0  0  0  0
 19 20  2  0  0  0  0
 19 21  1  0  0  0  0
 21 22  1  0  0  0  0
 21 23  1  0  0  0  0
 23 24  1  0  0  0  0
 23 25  1  0  0  0  0
 23 26  1  0  0  0  0
M  END
$$$$

  -OEChem-01062216063D

 26 25  0     1  0  0  0  0  0999 V2000
   -3.2985   -3.1420    0.6850 H   0  0  0  0  0  0  0  0  0  0  0  0
   -3.1634   -2.1013    0.3760 C   0  0  0  0  0  0  0  0  0  0  0  0
   -3.9257   -1.4877    0.8623 H   0  0  0  0  0  0  0  0  0  0  0  0
   -3.2916   -2.0393   -0.7076 H   0  0  0  0  0  0  0  0  0  0  0  0
   -1.7794   -1.6150    0.7643 C   0  0  0  0  0  0  0  0  0  0  0  0
   -1.0595   -2.3451    1.4206 O   0  0  0  0  0  0  0  0  0  0  0  0
   -1.3840   -0.3492    0.3719 N   0  0  0  0  0  0  0  0  0  0  0  0
   -2.0391    0.1120   -0.2548 H   0  0  0  0  0  0  0  0  0  0  0  0
   -0.0447    0.2819    0.4722 C   0  0  1  0  0  0  0  0  0  0  0  0
    0.5061    0.0569   -0.4490 H   0  0  0  0  0  0  0  0  0  0  0  0
   -0.2847    1.8024    0.5783 C   0  0  0  0  0  0  0  0  0  0  0  0
   -0.9863    2.0080    1.3909 H   0  0  0  0  0  0  0  0  0  0  0  0
    0.6542    2.3118    0.8164 H   0  0  0  0  0  0  0  0  0  0  0  0
   -0.8023    2.3995   -0.7220 C   0  0  0  0  0  0  0  0  0  0  0  0
   -0.3642    2.0866   -1.8114 O   0  0  0  0  0  0  0  0  0  0  0  0
   -1.8324    3.2957   -0.7359 N   0  0  0  0  0  0  0  0  0  0  0  0
   -1.9783    3.7705   -1.6230 H   0  0  0  0  0  0  0  0  0  0  0  0
   -2.0693    3.7688    0.1301 H   0  0  0  0  0  0  0  0  0  0  0  0
    0.9229   -0.1136    1.6206 C   0  0  0  0  0  0  0  0  0  0  0  0
    2.1070    0.1748    1.5012 O   0  0  0  0  0  0  0  0  0  0  0  0
    0.4678   -0.5282    2.8586 N   0  0  0  0  0  0  0  0  0  0  0  0
   -0.4058   -1.0524    2.8091 H   0  0  0  0  0  0  0  0  0  0  0  0
    1.3808   -0.8664    3.9437 C   0  0  0  0  0  0  0  0  0  0  0  0
    2.0027   -0.0042    4.2059 H   0  0  0  0  0  0  0  0  0  0  0  0
    0.8162   -1.1647    4.8321 H   0  0  0  0  0  0  0  0  0  0  0  0
    2.0334   -1.6956    3.6510 H   0  0  0  0  0  0  0  0  0  0  0  0
  1  2  1  0  0  0  0
  2  3  1  0  0  0  0
  2  4  1  0  0  0  0
  2  5  1  0  0  0  0
  5  6  2  0  0  0  0
  5  7  1  0  0  0  0
  7  8  1  0  0  0  0
  7  9  1  0  0  0  0
  9 10  1  0  0  0  0
  9 11  1  0  0  0  0
  9 19  1  0  0  0  0
 11 12  1  0  0  0  0
 11 13  1  0  0  0  0
 11 14  1  0  0  0  0
 14 15  2  0  0  0  0
 14 16  1  0  0  0  0
 16 17  1  0  0  0  0
 16 18  1  0  0  0  0
 19 20  2  0  0  0  0
 19 21  1  0  0  0  0
 21 22  1  0  0  0  0
 21 23  1  0  0  0  0
 23 24  1  0  0  0  0
 23 25  1  0  0  0  0
 23 26  1  0  0  0  0
M  END
$$$$

  -OEChem-01062216063D

 26 25  0     1  0  0  0  0  0999 V2000
   -3.3869   -3.0823    0.6652 H   0  0  0  0  0  0  0  0  0  0  0  0
   -3.2138   -2.0454    0.3629 C   0  0  0  0  0  0  0  0  0  0  0  0
   -3.9231   -1.4031    0.8903 H   0  0  0  0  0  0  0  0  0  0  0  0
   -3.3860   -1.9615   -0.7130 H   0  0  0  0  0  0  0  0  0  0  0  0
   -1.7921   -1.6319    0.6951 C   0  0  0  0  0  0  0  0  0  0  0  0
   -1.0577   -2.4357    1.2400 O   0  0  0  0  0  0  0  0  0  0  0  0
   -1.3699   -0.3637    0.3401 N   0  0  0  0  0  0  0  0  0  0  0  0
   -2.0445    0.1526   -0.2187 H   0  0  0  0  0  0  0  0  0  0  0  0
   -0.0359    0.2744    0.4827 C   0  0  1  0  0  0  0  0  0  0  0  0
    0.5358    0.0657   -0.4295 H   0  0  0  0  0  0  0  0  0  0  0  0
   -0.3097    1.7917    0.5898 C   0  0  0  0  0  0  0  0  0  0  0  0
   -1.0375    1.9787    1.3838 H   0  0  0  0  0  0  0  0  0  0  0  0
    0.6085    2.3238    0.8558 H   0  0  0  0  0  0  0  0  0  0  0  0
   -0.8004    2.3875   -0.7216 C   0  0  0  0  0  0  0  0  0  0  0  0
   -0.3251    2.0915   -1.8000 O   0  0  0  0  0  0  0  0  0  0  0  0
   -1.8474    3.2633   -0.7582 N   0  0  0  0  0  0  0  0  0  0  0  0
   -1.9766    3.7415   -1.6460 H   0  0  0  0  0  0  0  0  0  0  0  0
   -2.1133    3.7288    0.1036 H   0  0  0  0  0  0  0  0  0  0  0  0
    0.9275   -0.1123    1.6432 C   0  0  0  0  0  0  0  0  0  0  0  0
    2.0582    0.3592    1.6330 O   0  0  0  0  0  0  0  0  0  0  0  0
    0.5338   -0.8162    2.7655 N   0  0  0  0  0  0  0  0  0  0  0  0
   -0.2699   -1.4261    2.6105 H   0  0  0  0  0  0  0  0  0  0  0  0
    1.4661   -1.1974    3.8196 C   0  0  0  0  0  0  0  0  0  0  0  0
    1.9254   -0.3097    4.2669 H   0  0  0  0  0  0  0  0  0  0  0  0
    0.9398   -1.7454    4.6069 H   0  0  0  0  0  0  0  0  0  0  0  0
    2.2565   -1.8399    3.4178 H   0  0  0  0  0  0  0  0  0  0  0  0
  1  2  1  0  0  0  0
  2  3  1  0  0  0  0
  2  4  1  0  0  0  0
  2  5  1  0  0  0  0
  5  6  2  0  0  0  0
  5  7  1  0  0  0  0
  7  8  1  0  0  0  0
  7  9  1  0  0  0  0
  9 10  1  0  0  0  0
  9 11  1  0  0  0  0
  9 19  1  0  0  0  0
 11 12  1  0  0  0  0
 11 13  1  0  0  0  0
 11 14  1  0  0  0  0
 14 15  2  0  0  0  0
 14 16  1  0  0  0  0
 16 17  1  0  0  0  0
 16 18  1  0  0  0  0
 19 20  2  0  0  0  0
 19 21  1  0  0  0  0
 21 22  1  0  0  0  0
 21 23  1  0  0  0  0
 23 24  1  0  0  0  0
 23 25  1  0  0  0  0
 23 26  1  0  0  0  0
M  END
$$$$

  -OEChem-01062216063D

 26 25  0     1  0  0  0  0  0999 V2000
   -3.4448   -3.0383    0.6335 H   0  0  0  0  0  0  0  0  0  0  0  0
   -3.2528   -1.9954    0.3650 C   0  0  0  0  0  0  0  0  0  0  0  0
   -3.9087   -1.3540    0.9587 H   0  0  0  0  0  0  0  0  0  0  0  0
   -3.4821   -1.8587   -0.6948 H   0  0  0  0  0  0  0  0  0  0  0  0
   -1.8008   -1.6435    0.6317 C   0  0  0  0  0  0  0  0  0  0  0  0
   -1.0549   -2.5093    1.0514 O   0  0  0  0  0  0  0  0  0  0  0  0
   -1.3599   -0.3712    0.3171 N   0  0  0  0  0  0  0  0  0  0  0  0
   -2.0572    0.1966   -0.1570 H   0  0  0  0  0  0  0  0  0  0  0  0
   -0.0292    0.2682    0.4931 C   0  0  1  0  0  0  0  0  0  0  0  0
    0.5554    0.0720   -0.4133 H   0  0  0  0  0  0  0  0  0  0  0  0
   -0.3277    1.7840    0.5990 C   0  0  0  0  0  0  0  0  0  0  0  0
   -1.0754    1.9582    1.3773 H   0  0  0  0  0  0  0  0  0  0  0  0
    0.5734    2.3345    0.8844 H   0  0  0  0  0  0  0  0  0  0  0  0
   -0.7955    2.3775   -0.7218 C   0  0  0  0  0  0  0  0  0  0  0  0
   -0.2908    2.0929   -1.7899 O   0  0  0  0  0  0  0  0  0  0  0  0
   -1.8569    3.2344   -0.7798 N   0  0  0  0  0  0  0  0  0  0  0  0
   -1.9739    3.7120   -1.6697 H   0  0  0  0  0  0  0  0  0  0  0  0
   -2.1452    3.6969    0.0762 H   0  0  0  0  0  0  0  0  0  0  0  0
    0.9318   -0.1294    1.6580 C   0  0  0  0  0  0  0  0  0  0  0  0
    1.9782    0.4960    1.7818 O   0  0  0  0  0  0  0  0  0  0  0  0
    0.6575   -1.0842    2.6180 N   0  0  0  0  0  0  0  0  0  0  0  0
   -0.0721   -1.7521    2.3658 H   0  0  0  0  0  0  0  0  0  0  0  0
    1.6131   -1.4826    3.6447 C   0  0  0  0  0  0  0  0  0  0  0  0
    1.8843   -0.6262    4.2709 H   0  0  0  0  0  0  0  0  0  0  0  0
    1.1750   -2.2525    4.2872 H   0  0  0  0  0  0  0  0  0  0  0  0
    2.5217   -1.8875    3.1869 H   0  0  0  0  0  0  0  0  0  0  0  0
  1  2  1  0  0  0  0
  2  3  1  0  0  0  0
  2  4  1  0  0  0  0
  2  5  1  0  0  0  0
  5  6  2  0  0  0  0
  5  7  1  0  0  0  0
  7  8  1  0  0  0  0
  7  9  1  0  0  0  0
  9 10  1  0  0  0  0
  9 11  1  0  0  0  0
  9 19  1  0  0  0  0
 11 12  1  0  0  0  0
 11 13  1  0  0  0  0
 11 14  1  0  0  0  0
 14 15  2  0  0  0  0
 14 16  1  0  0  0  0
 16 17  1  0  0  0  0
 16 18  1  0  0  0  0
 19 20  2  0  0  0  0
 19 21  1  0  0  0  0
 21 22  1  0  0  0  0
 21 23  1  0  0  0  0
 23 24  1  0  0  0  0
 23 25  1  0  0  0  0
 23 26  1  0  0  0  0
M  END
$$$$

  -OEChem-01062216063D

 26 25  0     1  0  0  0  0  0999 V2000
   -3.5294   -2.9634    0.8522 H   0  0  0  0  0  0  0  0  0  0  0  0
   -3.3200   -1.9281    0.5677 C   0  0  0  0  0  0  0  0  0  0  0  0
   -3.8850   -1.2629    1.2252 H   0  0  0  0  0  0  0  0  0  0  0  0
   -3.6471   -1.7753   -0.4638 H   0  0  0  0  0  0  0  0  0  0  0  0
   -1.8348   -1.6404    0.6888 C   0  0  0  0  0  0  0  0  0  0  0  0
   -1.0860   -2.5506    0.9938 O   0  0  0  0  0  0  0  0  0  0  0  0
   -1.3758   -0.3828    0.3422 N   0  0  0  0  0  0  0  0  0  0  0  0
   -2.0996    0.2207   -0.0378 H   0  0  0  0  0  0  0  0  0  0  0  0
   -0.0300    0.2392    0.4624 C   0  0  1  0  0  0  0  0  0  0  0  0
    0.5218    0.0072   -0.4559 H   0  0  0  0  0  0  0  0  0  0  0  0
   -0.3107    1.7634    0.5188 C   0  0  0  0  0  0  0  0  0  0  0  0
   -1.0361    1.9745    1.3089 H   0  0  0  0  0  0  0  0  0  0  0  0
    0.6001    2.3192    0.7571 H   0  0  0  0  0  0  0  0  0  0  0  0
   -0.8045    2.3142   -0.8114 C   0  0  0  0  0  0  0  0  0  0  0  0
   -0.3293    1.9857   -1.8805 O   0  0  0  0  0  0  0  0  0  0  0  0
   -1.8533    3.1864   -0.8742 N   0  0  0  0  0  0  0  0  0  0  0  0
   -1.9849    3.6322   -1.7784 H   0  0  0  0  0  0  0  0  0  0  0  0
   -2.1088    3.6880   -0.0298 H   0  0  0  0  0  0  0  0  0  0  0  0
    0.9646   -0.1566    1.6047 C   0  0  0  0  0  0  0  0  0  0  0  0
    1.9156    0.5807    1.8369 O   0  0  0  0  0  0  0  0  0  0  0  0
    0.8523   -1.2749    2.4076 N   0  0  0  0  0  0  0  0  0  0  0  0
    0.1710   -1.9736    2.1075 H   0  0  0  0  0  0  0  0  0  0  0  0
    1.8453   -1.6669    3.4009 C   0  0  0  0  0  0  0  0  0  0  0  0
    1.9746   -0.8765    4.1476 H   0  0  0  0  0  0  0  0  0  0  0  0
    1.5229   -2.5771    3.9157 H   0  0  0  0  0  0  0  0  0  0  0  0
    2.8103   -1.8623    2.9219 H   0  0  0  0  0  0  0  0  0  0  0  0
  1  2  1  0  0  0  0
  2  3  1  0  0  0  0
  2  4  1  0  0  0  0
  2  5  1  0  0  0  0
  5  6  2  0  0  0  0
  5  7  1  0  0  0  0
  7  8  1  0  0  0  0
  7  9  1  0  0  0  0
  9 10  1  0  0  0  0
  9 11  1  0  0  0  0
  9 19  1  0  0  0  0
 11 12  1  0  0  0  0
 11 13  1  0  0  0  0
 11 14  1  0  0  0  0
 14 15  2  0  0  0  0
 14 16  1  0  0  0  0
 16 17  1  0  0  0  0
 16 18  1  0  0  0  0
 19 20  2  0  0  0  0
 19 21  1  0  0  0  0
 21 22  1  0  0  0  0
 21 23  1  0  0  0  0
 23 24  1  0  0  0  0
 23 25  1  0  0  0  0
 23 26  1  0  0  0  0
M  END
$$$$

  -OEChem-01062216063D

 26 25  0     1  0  0  0  0  0999 V2000
   -2.9463   -3.2106    1.2371 H   0  0  0  0  0  0  0  0  0  0  0  0
   -2.8913   -2.1424    1.0079 C   0  0  0  0  0  0  0  0  0  0  0  0
   -3.2536   -1.5797    1.8712 H   0  0  0  0  0  0  0  0  0  0  0  0
   -3.5338   -1.9341    0.1488 H   0  0  0  0  0  0  0  0  0  0  0  0
   -1.4601   -1.7478    0.6928 C   0  0  0  0  0  0  0  0  0  0  0  0
   -0.6192   -2.6202    0.5906 O   0  0  0  0  0  0  0  0  0  0  0  0
   -1.1909   -0.4368    0.3528 N   0  0  0  0  0  0  0  0  0  0  0  0
   -2.0189    0.1464    0.2825 H   0  0  0  0  0  0  0  0  0  0  0  0
    0.1077    0.2771    0.2732 C   0  0  1  0  0  0  0  0  0  0  0  0
    0.4905    0.1265   -0.7429 H   0  0  0  0  0  0  0  0  0  0  0  0
   -0.2534    1.7725    0.4667 C   0  0  0  0  0  0  0  0  0  0  0  0
   -0.8371    1.8954    1.3825 H   0  0  0  0  0  0  0  0  0  0  0  0
    0.6502    2.3785    0.5741 H   0  0  0  0  0  0  0  0  0  0  0  0
   -1.0099    2.3504   -0.7215 C   0  0  0  0  0  0  0  0  0  0  0  0
   -0.7154    2.1107   -1.8755 O   0  0  0  0  0  0  0  0  0  0  0  0
   -2.0997    3.1544   -0.5462 N   0  0  0  0  0  0  0  0  0  0  0  0
   -2.4183    3.6305   -1.3862 H   0  0  0  0  0  0  0  0  0  0  0  0
   -2.2280    3.5975    0.3574 H   0  0  0  0  0  0  0  0  0  0  0  0
    1.3352   -0.0804    1.1801 C   0  0  0  0  0  0  0  0  0  0  0  0
    2.2961    0.6745    1.1884 O   0  0  0  0  0  0  0  0  0  0  0  0
    1.7033   -1.2821    1.7333 N   0  0  0  0  0  0  0  0  0  0  0  0
    2.7145   -1.3121    1.8318 H   0  0  0  0  0  0  0  0  0  0  0  0
    0.9901   -1.7869    2.9004 C   0  0  0  0  0  0  0  0  0  0  0  0
    0.0068   -1.3188    3.0061 H   0  0  0  0  0  0  0  0  0  0  0  0
    0.8540   -2.8700    2.8189 H   0  0  0  0  0  0  0  0  0  0  0  0
    1.5644   -1.5759    3.8079 H   0  0  0  0  0  0  0  0  0  0  0  0
  1  2  1  0  0  0  0
  2  3  1  0  0  0  0
  2  4  1  0  0  0  0
  2  5  1  0  0  0  0
  5  6  2  0  0  0  0
  5  7  1  0  0  0  0
  7  8  1  0  0  0  0
  7  9  1  0  0  0  0
  9 10  1  0  0  0  0
  9 11  1  0  0  0  0
  9 19  1  0  0  0  0
 11 12  1  0  0  0  0
 11 13  1  0  0  0  0
 11 14  1  0  0  0  0
 14 15  2  0  0  0  0
 14 16  1  0  0  0  0
 16 17  1  0  0  0  0
 16 18  1  0  0  0  0
 19 20  2  0  0  0  0
 19 21  1  0  0  0  0
 21 22  1  0  0  0  0
 21 23  1  0  0  0  0
 23 24  1  0  0  0  0
 23 25  1  0  0  0  0
 23 26  1  0  0  0  0
M  END
$$$$

  -OEChem-01062216063D

 26 25  0     1  0  0  0  0  0999 V2000
   -3.3675   -3.0372    0.8137 H   0  0  0  0  0  0  0  0  0  0  0  0
   -3.2014   -1.9873    0.5556 C   0  0  0  0  0  0  0  0  0  0  0  0
   -3.7342   -1.3616    1.2757 H   0  0  0  0  0  0  0  0  0  0  0  0
   -3.6024   -1.8038   -0.4444 H   0  0  0  0  0  0  0  0  0  0  0  0
   -1.7179   -1.6677    0.5859 C   0  0  0  0  0  0  0  0  0  0  0  0
   -0.9270   -2.5800    0.7431 O   0  0  0  0  0  0  0  0  0  0  0  0
   -1.3151   -0.3737    0.3095 N   0  0  0  0  0  0  0  0  0  0  0  0
   -2.0830    0.2439    0.0632 H   0  0  0  0  0  0  0  0  0  0  0  0
    0.0104    0.2861    0.4423 C   0  0  1  0  0  0  0  0  0  0  0  0
    0.5568    0.1102   -0.4913 H   0  0  0  0  0  0  0  0  0  0  0  0
   -0.2961    1.8018    0.5571 C   0  0  0  0  0  0  0  0  0  0  0  0
   -1.0117    1.9739    1.3653 H   0  0  0  0  0  0  0  0  0  0  0  0
    0.6130    2.3593    0.7995 H   0  0  0  0  0  0  0  0  0  0  0  0
   -0.8115    2.3946   -0.7460 C   0  0  0  0  0  0  0  0  0  0  0  0
   -0.3391    2.1141   -1.8301 O   0  0  0  0  0  0  0  0  0  0  0  0
   -1.8677    3.2599   -0.7645 N   0  0  0  0  0  0  0  0  0  0  0  0
   -2.0128    3.7405   -1.6485 H   0  0  0  0  0  0  0  0  0  0  0  0
   -2.1191    3.7243    0.1023 H   0  0  0  0  0  0  0  0  0  0  0  0
    1.0166   -0.1752    1.5503 C   0  0  0  0  0  0  0  0  0  0  0  0
    1.5941    0.6603    2.2374 O   0  0  0  0  0  0  0  0  0  0  0  0
    1.3004   -1.4965    1.8310 N   0  0  0  0  0  0  0  0  0  0  0  0
    0.7260   -2.1933    1.3517 H   0  0  0  0  0  0  0  0  0  0  0  0
    2.1666   -1.9384    2.9170 C   0  0  0  0  0  0  0  0  0  0  0  0
    1.7618   -1.6207    3.8833 H   0  0  0  0  0  0  0  0  0  0  0  0
    2.2443   -3.0297    2.9153 H   0  0  0  0  0  0  0  0  0  0  0  0
    3.1721   -1.5212    2.8001 H   0  0  0  0  0  0  0  0  0  0  0  0
  1  2  1  0  0  0  0
  2  3  1  0  0  0  0
  2  4  1  0  0  0  0
  2  5  1  0  0  0  0
  5  6  2  0  0  0  0
  5  7  1  0  0  0  0
  7  8  1  0  0  0  0
  7  9  1  0  0  0  0
  9 10  1  0  0  0  0
  9 11  1  0  0  0  0
  9 19  1  0  0  0  0
 11 12  1  0  0  0  0
 11 13  1  0  0  0  0
 11 14  1  0  0  0  0
 14 15  2  0  0  0  0
 14 16  1  0  0  0  0
 16 17  1  0  0  0  0
 16 18  1  0  0  0  0
 19 20  2  0  0  0  0
 19 21  1  0  0  0  0
 21 22  1  0  0  0  0
 21 23  1  0  0  0  0
 23 24  1  0  0  0  0
 23 25  1  0  0  0  0
 23 26  1  0  0  0  0
M  END
$$$$

  -OEChem-01062216063D

 26 25  0     1  0  0  0  0  0999 V2000
   -3.2525   -3.0773    0.9174 H   0  0  0  0  0  0  0  0  0  0  0  0
   -3.1246   -2.0312    0.6244 C   0  0  0  0  0  0  0  0  0  0  0  0
   -3.6579   -1.4000    1.3395 H   0  0  0  0  0  0  0  0  0  0  0  0
   -3.5555   -1.8891   -0.3698 H   0  0  0  0  0  0  0  0  0  0  0  0
   -1.6513   -1.6674    0.6079 C   0  0  0  0  0  0  0  0  0  0  0  0
   -0.8250   -2.5492    0.7608 O   0  0  0  0  0  0  0  0  0  0  0  0
   -1.2917   -0.3672    0.3044 N   0  0  0  0  0  0  0  0  0  0  0  0
   -2.0775    0.2355    0.0782 H   0  0  0  0  0  0  0  0  0  0  0  0
    0.0261    0.3070    0.4135 C   0  0  1  0  0  0  0  0  0  0  0  0
    0.5672    0.1320   -0.5233 H   0  0  0  0  0  0  0  0  0  0  0  0
   -0.2742    1.8215    0.5343 C   0  0  0  0  0  0  0  0  0  0  0  0
   -0.9763    1.9935    1.3544 H   0  0  0  0  0  0  0  0  0  0  0  0
    0.6437    2.3695    0.7665 H   0  0  0  0  0  0  0  0  0  0  0  0
   -0.8122    2.4185   -0.7572 C   0  0  0  0  0  0  0  0  0  0  0  0
   -0.3595    2.1376   -1.8497 O   0  0  0  0  0  0  0  0  0  0  0  0
   -1.8661    3.2867   -0.7550 N   0  0  0  0  0  0  0  0  0  0  0  0
   -2.0281    3.7697   -1.6347 H   0  0  0  0  0  0  0  0  0  0  0  0
   -2.1071    3.7444    0.1182 H   0  0  0  0  0  0  0  0  0  0  0  0
    1.0235   -0.1562    1.5232 C   0  0  0  0  0  0  0  0  0  0  0  0
    1.4185    0.6398    2.3687 O   0  0  0  0  0  0  0  0  0  0  0  0
    1.5117   -1.4461    1.5924 N   0  0  0  0  0  0  0  0  0  0  0  0
    0.9742   -2.1382    1.0645 H   0  0  0  0  0  0  0  0  0  0  0  0
    2.3563   -1.9267    2.6792 C   0  0  0  0  0  0  0  0  0  0  0  0
    1.8237   -1.8677    3.6338 H   0  0  0  0  0  0  0  0  0  0  0  0
    2.6389   -2.9688    2.5024 H   0  0  0  0  0  0  0  0  0  0  0  0
    3.2716   -1.3294    2.7475 H   0  0  0  0  0  0  0  0  0  0  0  0
  1  2  1  0  0  0  0
  2  3  1  0  0  0  0
  2  4  1  0  0  0  0
  2  5  1  0  0  0  0
  5  6  2  0  0  0  0
  5  7  1  0  0  0  0
  7  8  1  0  0  0  0
  7  9  1  0  0  0  0
  9 10  1  0  0  0  0
  9 11  1  0  0  0  0
  9 19  1  0  0  0  0
 11 12  1  0  0  0  0
 11 13  1  0  0  0  0
 11 14  1  0  0  0  0
 14 15  2  0  0  0  0
 14 16  1  0  0  0  0
 16 17  1  0  0  0  0
 16 18  1  0  0  0  0
 19 20  2  0  0  0  0
 19 21  1  0  0  0  0
 21 22  1  0  0  0  0
 21 23  1  0  0  0  0
 23 24  1  0  0  0  0
 23 25  1  0  0  0  0
 23 26  1  0  0  0  0
M  END
$$$$

  -OEChem-01062216063D

 26 25  0     1  0  0  0  0  0999 V2000
   -3.1162   -3.1310    0.9944 H   0  0  0  0  0  0  0  0  0  0  0  0
   -3.0399   -2.0856    0.6819 C   0  0  0  0  0  0  0  0  0  0  0  0
   -3.5837   -1.4653    1.3985 H   0  0  0  0  0  0  0  0  0  0  0  0
   -3.4976   -1.9790   -0.3047 H   0  0  0  0  0  0  0  0  0  0  0  0
   -1.5841   -1.6613    0.6268 C   0  0  0  0  0  0  0  0  0  0  0  0
   -0.7140   -2.5030    0.7715 O   0  0  0  0  0  0  0  0  0  0  0  0
   -1.2772   -0.3554    0.2920 N   0  0  0  0  0  0  0  0  0  0  0  0
   -2.0820    0.2327    0.0961 H   0  0  0  0  0  0  0  0  0  0  0  0
    0.0320    0.3311    0.3894 C   0  0  1  0  0  0  0  0  0  0  0  0
    0.5779    0.1561   -0.5448 H   0  0  0  0  0  0  0  0  0  0  0  0
   -0.2584    1.8444    0.5161 C   0  0  0  0  0  0  0  0  0  0  0  0
   -0.9534    2.0181    1.3422 H   0  0  0  0  0  0  0  0  0  0  0  0
    0.6674    2.3801    0.7468 H   0  0  0  0  0  0  0  0  0  0  0  0
   -0.8067    2.4465   -0.7684 C   0  0  0  0  0  0  0  0  0  0  0  0
   -0.3659    2.1643   -1.8657 O   0  0  0  0  0  0  0  0  0  0  0  0
   -1.8541    3.3225   -0.7539 N   0  0  0  0  0  0  0  0  0  0  0  0
   -2.0241    3.8081   -1.6306 H   0  0  0  0  0  0  0  0  0  0  0  0
   -2.0880    3.7759    0.1235 H   0  0  0  0  0  0  0  0  0  0  0  0
    1.0015   -0.1362    1.5156 C   0  0  0  0  0  0  0  0  0  0  0  0
    1.2139    0.5820    2.4874 O   0  0  0  0  0  0  0  0  0  0  0  0
    1.6971   -1.3253    1.4128 N   0  0  0  0  0  0  0  0  0  0  0  0
    1.2430   -2.0163    0.8120 H   0  0  0  0  0  0  0  0  0  0  0  0
    2.5468   -1.8299    2.4842 C   0  0  0  0  0  0  0  0  0  0  0  0
    1.9560   -2.0126    3.3878 H   0  0  0  0  0  0  0  0  0  0  0  0
    3.0173   -2.7695    2.1794 H   0  0  0  0  0  0  0  0  0  0  0  0
    3.3378   -1.1102    2.7194 H   0  0  0  0  0  0  0  0  0  0  0  0
  1  2  1  0  0  0  0
  2  3  1  0  0  0  0
  2  4  1  0  0  0  0
  2  5  1  0  0  0  0
  5  6  2  0  0  0  0
  5  7  1  0  0  0  0
  7  8  1  0  0  0  0
  7  9  1  0  0  0  0
  9 10  1  0  0  0  0
  9 11  1  0  0  0  0
  9 19  1  0  0  0  0
 11 12  1  0  0  0  0
 11 13  1  0  0  0  0
 11 14  1  0  0  0  0
 14 15  2  0  0  0  0
 14 16  1  0  0  0  0
 16 17  1  0  0  0  0
 16 18  1  0  0  0  0
 19 20  2  0  0  0  0
 19 21  1  0  0  0  0
 21 22  1  0  0  0  0
 21 23  1  0  0  0  0
 23 24  1  0  0  0  0
 23 25  1  0  0  0  0
 23 26  1  0  0  0  0
M  END
$$$$

  -OEChem-01062216063D

 26 25  0     1  0  0  0  0  0999 V2000
   -2.9947   -3.1703    1.0670 H   0  0  0  0  0  0  0  0  0  0  0  0
   -2.9645   -2.1281    0.7366 C   0  0  0  0  0  0  0  0  0  0  0  0
   -3.5044   -1.5151    1.4624 H   0  0  0  0  0  0  0  0  0  0  0  0
   -3.4585   -2.0518   -0.2351 H   0  0  0  0  0  0  0  0  0  0  0  0
   -1.5266   -1.6566    0.6258 C   0  0  0  0  0  0  0  0  0  0  0  0
   -0.6194   -2.4628    0.7514 O   0  0  0  0  0  0  0  0  0  0  0  0
   -1.2685   -0.3466    0.2665 N   0  0  0  0  0  0  0  0  0  0  0  0
   -2.0901    0.2306    0.1139 H   0  0  0  0  0  0  0  0  0  0  0  0
    0.0323    0.3501    0.3635 C   0  0  1  0  0  0  0  0  0  0  0  0
    0.5869    0.1786   -0.5660 H   0  0  0  0  0  0  0  0  0  0  0  0
   -0.2510    1.8618    0.5009 C   0  0  0  0  0  0  0  0  0  0  0  0
   -0.9467    2.0317    1.3274 H   0  0  0  0  0  0  0  0  0  0  0  0
    0.6779    2.3881    0.7405 H   0  0  0  0  0  0  0  0  0  0  0  0
   -0.8014    2.4736   -0.7778 C   0  0  0  0  0  0  0  0  0  0  0  0
   -0.3644    2.1953   -1.8777 O   0  0  0  0  0  0  0  0  0  0  0  0
   -1.8430    3.3565   -0.7550 N   0  0  0  0  0  0  0  0  0  0  0  0
   -2.0153    3.8473   -1.6282 H   0  0  0  0  0  0  0  0  0  0  0  0
   -2.0775    3.8015    0.1265 H   0  0  0  0  0  0  0  0  0  0  0  0
    0.9697   -0.1224    1.5089 C   0  0  0  0  0  0  0  0  0  0  0  0
    0.9840    0.4746    2.5805 O   0  0  0  0  0  0  0  0  0  0  0  0
    1.8771   -1.1421    1.2930 N   0  0  0  0  0  0  0  0  0  0  0  0
    1.5976   -1.7956    0.5623 H   0  0  0  0  0  0  0  0  0  0  0  0
    2.7295   -1.6577    2.3569 C   0  0  0  0  0  0  0  0  0  0  0  0
    2.1215   -2.0812    3.1632 H   0  0  0  0  0  0  0  0  0  0  0  0
    3.3855   -2.4416    1.9668 H   0  0  0  0  0  0  0  0  0  0  0  0
    3.3560   -0.8594    2.7688 H   0  0  0  0  0  0  0  0  0  0  0  0
  1  2  1  0  0  0  0
  2  3  1  0  0  0  0
  2  4  1  0  0  0  0
  2  5  1  0  0  0  0
  5  6  2  0  0  0  0
  5  7  1  0  0  0  0
  7  8  1  0  0  0  0
  7  9  1  0  0  0  0
  9 10  1  0  0  0  0
  9 11  1  0  0  0  0
  9 19  1  0  0  0  0
 11 12  1  0  0  0  0
 11 13  1  0  0  0  0
 11 14  1  0  0  0  0
 14 15  2  0  0  0  0
 14 16  1  0  0  0  0
 16 17  1  0  0  0  0
 16 18  1  0  0  0  0
 19 20  2  0  0  0  0
 19 21  1  0  0  0  0
 21 22  1  0  0  0  0
 21 23  1  0  0  0  0
 23 24  1  0  0  0  0
 23 25  1  0  0  0  0
 23 26  1  0  0  0  0
M  END
$$$$

  -OEChem-01062216063D

 26 25  0     1  0  0  0  0  0999 V2000
   -2.9181   -3.1920    1.1147 H   0  0  0  0  0  0  0  0  0  0  0  0
   -2.9164   -2.1519    0.7761 C   0  0  0  0  0  0  0  0  0  0  0  0
   -3.4478   -1.5433    1.5117 H   0  0  0  0  0  0  0  0  0  0  0  0
   -3.4368   -2.0919   -0.1828 H   0  0  0  0  0  0  0  0  0  0  0  0
   -1.4911   -1.6547    0.6235 C   0  0  0  0  0  0  0  0  0  0  0  0
   -0.5640   -2.4413    0.7326 O   0  0  0  0  0  0  0  0  0  0  0  0
   -1.2644   -0.3437    0.2457 N   0  0  0  0  0  0  0  0  0  0  0  0
   -2.0963    0.2278    0.1358 H   0  0  0  0  0  0  0  0  0  0  0  0
    0.0309    0.3602    0.3415 C   0  0  1  0  0  0  0  0  0  0  0  0
    0.5881    0.1900   -0.5863 H   0  0  0  0  0  0  0  0  0  0  0  0
   -0.2483    1.8702    0.4880 C   0  0  0  0  0  0  0  0  0  0  0  0
   -0.9439    2.0364    1.3156 H   0  0  0  0  0  0  0  0  0  0  0  0
    0.6819    2.3921    0.7313 H   0  0  0  0  0  0  0  0  0  0  0  0
   -0.8025    2.4889   -0.7856 C   0  0  0  0  0  0  0  0  0  0  0  0
   -0.3694    2.2142   -1.8880 O   0  0  0  0  0  0  0  0  0  0  0  0
   -1.8384    3.3778   -0.7544 N   0  0  0  0  0  0  0  0  0  0  0  0
   -2.0159    3.8709   -1.6253 H   0  0  0  0  0  0  0  0  0  0  0  0
   -2.0699    3.8183    0.1301 H   0  0  0  0  0  0  0  0  0  0  0  0
    0.9500   -0.1094    1.4985 C   0  0  0  0  0  0  0  0  0  0  0  0
    0.7728    0.3239    2.6325 O   0  0  0  0  0  0  0  0  0  0  0  0
    2.0535   -0.8994    1.2359 N   0  0  0  0  0  0  0  0  0  0  0  0
    2.0074   -1.4272    0.3678 H   0  0  0  0  0  0  0  0  0  0  0  0
    2.8999   -1.4250    2.2998 C   0  0  0  0  0  0  0  0  0  0  0  0
    2.3189   -2.0717    2.9660 H   0  0  0  0  0  0  0  0  0  0  0  0
    3.7203   -2.0108    1.8741 H   0  0  0  0  0  0  0  0  0  0  0  0
    3.3305   -0.6077    2.8880 H   0  0  0  0  0  0  0  0  0  0  0  0
  1  2  1  0  0  0  0
  2  3  1  0  0  0  0
  2  4  1  0  0  0  0
  2  5  1  0  0  0  0
  5  6  2  0  0  0  0
  5  7  1  0  0  0  0
  7  8  1  0  0  0  0
  7  9  1  0  0  0  0
  9 10  1  0  0  0  0
  9 11  1  0  0  0  0
  9 19  1  0  0  0  0
 11 12  1  0  0  0  0
 11 13  1  0  0  0  0
 11 14  1  0  0  0  0
 14 15  2  0  0  0  0
 14 16  1  0  0  0  0
 16 17  1  0  0  0  0
 16 18  1  0  0  0  0
 19 20  2  0  0  0  0
 19 21  1  0  0  0  0
 21 22  1  0  0  0  0
 21 23  1  0  0  0  0
 23 24  1  0  0  0  0
 23 25  1  0  0  0  0
 23 26  1  0  0  0  0
M  END
$$$$

  -OEChem-01062216063D

 26 25  0     1  0  0  0  0  0999 V2000
   -2.8733   -3.2144    1.1002 H   0  0  0  0  0  0  0  0  0  0  0  0
   -2.8873   -2.1585    0.8155 C   0  0  0  0  0  0  0  0  0  0  0  0
   -3.3630   -1.5860    1.6155 H   0  0  0  0  0  0  0  0  0  0  0  0
   -3.4708   -2.0486   -0.1015 H   0  0  0  0  0  0  0  0  0  0  0  0
   -1.4721   -1.6590    0.5935 C   0  0  0  0  0  0  0  0  0  0  0  0
   -0.5377   -2.4426    0.6564 O   0  0  0  0  0  0  0  0  0  0  0  0
   -1.2642   -0.3465    0.2094 N   0  0  0  0  0  0  0  0  0  0  0  0
   -2.1009    0.2261    0.1610 H   0  0  0  0  0  0  0  0  0  0  0  0
    0.0284    0.3592    0.3188 C   0  0  1  0  0  0  0  0  0  0  0  0
    0.5937    0.1916   -0.6043 H   0  0  0  0  0  0  0  0  0  0  0  0
   -0.2492    1.8671    0.4774 C   0  0  0  0  0  0  0  0  0  0  0  0
   -0.9503    2.0256    1.3017 H   0  0  0  0  0  0  0  0  0  0  0  0
    0.6797    2.3852    0.7322 H   0  0  0  0  0  0  0  0  0  0  0  0
   -0.7954    2.4985   -0.7938 C   0  0  0  0  0  0  0  0  0  0  0  0
   -0.3547    2.2320   -1.8952 O   0  0  0  0  0  0  0  0  0  0  0  0
   -1.8309    3.3883   -0.7617 N   0  0  0  0  0  0  0  0  0  0  0  0
   -2.0079    3.8866   -1.6297 H   0  0  0  0  0  0  0  0  0  0  0  0
   -2.0780    3.8149    0.1255 H   0  0  0  0  0  0  0  0  0  0  0  0
    0.9295   -0.1099    1.4885 C   0  0  0  0  0  0  0  0  0  0  0  0
    0.5906    0.1307    2.6427 O   0  0  0  0  0  0  0  0  0  0  0  0
    2.1871   -0.6291    1.2422 N   0  0  0  0  0  0  0  0  0  0  0  0
    2.3484   -0.9749    0.3004 H   0  0  0  0  0  0  0  0  0  0  0  0
    3.0426   -1.1327    2.3095 C   0  0  0  0  0  0  0  0  0  0  0  0
    2.5612   -1.9736    2.8199 H   0  0  0  0  0  0  0  0  0  0  0  0
    3.9971   -1.4753    1.8985 H   0  0  0  0  0  0  0  0  0  0  0  0
    3.2475   -0.3454    3.0426 H   0  0  0  0  0  0  0  0  0  0  0  0
  1  2  1  0  0  0  0
  2  3  1  0  0  0  0
  2  4  1  0  0  0  0
  2  5  1  0  0  0  0
  5  6  2  0  0  0  0
  5  7  1  0  0  0  0
  7  8  1  0  0  0  0
  7  9  1  0  0  0  0
  9 10  1  0  0  0  0
  9 11  1  0  0  0  0
  9 19  1  0  0  0  0
 11 12  1  0  0  0  0
 11 13  1  0  0  0  0
 11 14  1  0  0  0  0
 14 15  2  0  0  0  0
 14 16  1  0  0  0  0
 16 17  1  0  0  0  0
 16 18  1  0  0  0  0
 19 20  2  0  0  0  0
 19 21  1  0  0  0  0
 21 22  1  0  0  0  0
 21 23  1  0  0  0  0
 23 24  1  0  0  0  0
 23 25  1  0  0  0  0
 23 26  1  0  0  0  0
M  END
$$$$

  -OEChem-01062216063D

 26 25  0     1  0  0  0  0  0999 V2000
   -2.8657   -3.2192    1.1226 H   0  0  0  0  0  0  0  0  0  0  0  0
   -2.8856   -2.1667    0.8261 C   0  0  0  0  0  0  0  0  0  0  0  0
   -3.3416   -1.5847    1.6307 H   0  0  0  0  0  0  0  0  0  0  0  0
   -3.4903   -2.0658   -0.0784 H   0  0  0  0  0  0  0  0  0  0  0  0
   -1.4754   -1.6718    0.5658 C   0  0  0  0  0  0  0  0  0  0  0  0
   -0.5430   -2.4601    0.5870 O   0  0  0  0  0  0  0  0  0  0  0  0
   -1.2721   -0.3575    0.1856 N   0  0  0  0  0  0  0  0  0  0  0  0
   -2.1082    0.2175    0.1774 H   0  0  0  0  0  0  0  0  0  0  0  0
    0.0212    0.3441    0.3124 C   0  0  1  0  0  0  0  0  0  0  0  0
    0.5924    0.1773   -0.6074 H   0  0  0  0  0  0  0  0  0  0  0  0
   -0.2535    1.8507    0.4824 C   0  0  0  0  0  0  0  0  0  0  0  0
   -0.9614    2.0023    1.3020 H   0  0  0  0  0  0  0  0  0  0  0  0
    0.6738    2.3649    0.7503 H   0  0  0  0  0  0  0  0  0  0  0  0
   -0.7869    2.4956   -0.7875 C   0  0  0  0  0  0  0  0  0  0  0  0
   -0.3363    2.2373   -1.8868 O   0  0  0  0  0  0  0  0  0  0  0  0
   -1.8108    3.3986   -0.7567 N   0  0  0  0  0  0  0  0  0  0  0  0
   -1.9739    3.9067   -1.6218 H   0  0  0  0  0  0  0  0  0  0  0  0
   -2.0639    3.8186    0.1318 H   0  0  0  0  0  0  0  0  0  0  0  0
    0.9136   -0.1257    1.4875 C   0  0  0  0  0  0  0  0  0  0  0  0
    0.4733   -0.0771    2.6315 O   0  0  0  0  0  0  0  0  0  0  0  0
    2.2645   -0.3497    1.2926 N   0  0  0  0  0  0  0  0  0  0  0  0
    2.5704   -0.4816    0.3328 H   0  0  0  0  0  0  0  0  0  0  0  0
    3.1494   -0.7860    2.3656 C   0  0  0  0  0  0  0  0  0  0  0  0
    2.8129   -1.7458    2.7721 H   0  0  0  0  0  0  0  0  0  0  0  0
    4.1692   -0.9073    1.9882 H   0  0  0  0  0  0  0  0  0  0  0  0
    3.1672   -0.0473    3.1739 H   0  0  0  0  0  0  0  0  0  0  0  0
  1  2  1  0  0  0  0
  2  3  1  0  0  0  0
  2  4  1  0  0  0  0
  2  5  1  0  0  0  0
  5  6  2  0  0  0  0
  5  7  1  0  0  0  0
  7  8  1  0  0  0  0
  7  9  1  0  0  0  0
  9 10  1  0  0  0  0
  9 11  1  0  0  0  0
  9 19  1  0  0  0  0
 11 12  1  0  0  0  0
 11 13  1  0  0  0  0
 11 14  1  0  0  0  0
 14 15  2  0  0  0  0
 14 16  1  0  0  0  0
 16 17  1  0  0  0  0
 16 18  1  0  0  0  0
 19 20  2  0  0  0  0
 19 21  1  0  0  0  0
 21 22  1  0  0  0  0
 21 23  1  0  0  0  0
 23 24  1  0  0  0  0
 23 25  1  0  0  0  0
 23 26  1  0  0  0  0
M  END
$$$$

  -OEChem-01062216063D

 26 25  0     1  0  0  0  0  0999 V2000
   -2.8733   -3.2226    1.0940 H   0  0  0  0  0  0  0  0  0  0  0  0
   -2.8882   -2.1606    0.8332 C   0  0  0  0  0  0  0  0  0  0  0  0
   -3.3021   -1.5990    1.6742 H   0  0  0  0  0  0  0  0  0  0  0  0
   -3.5267   -2.0207   -0.0423 H   0  0  0  0  0  0  0  0  0  0  0  0
   -1.4815   -1.6780    0.5330 C   0  0  0  0  0  0  0  0  0  0  0  0
   -0.5585   -2.4773    0.5032 O   0  0  0  0  0  0  0  0  0  0  0  0
   -1.2735   -0.3621    0.1611 N   0  0  0  0  0  0  0  0  0  0  0  0
   -2.1043    0.2194    0.1894 H   0  0  0  0  0  0  0  0  0  0  0  0
    0.0249    0.3275    0.3052 C   0  0  1  0  0  0  0  0  0  0  0  0
    0.6017    0.1631   -0.6115 H   0  0  0  0  0  0  0  0  0  0  0  0
   -0.2474    1.8328    0.4897 C   0  0  0  0  0  0  0  0  0  0  0  0
   -0.9610    1.9766    1.3057 H   0  0  0  0  0  0  0  0  0  0  0  0
    0.6783    2.3436    0.7698 H   0  0  0  0  0  0  0  0  0  0  0  0
   -0.7688    2.4921   -0.7780 C   0  0  0  0  0  0  0  0  0  0  0  0
   -0.3092    2.2438   -1.8758 O   0  0  0  0  0  0  0  0  0  0  0  0
   -1.8003    3.3866   -0.7473 N   0  0  0  0  0  0  0  0  0  0  0  0
   -1.9686    3.8954   -1.6111 H   0  0  0  0  0  0  0  0  0  0  0  0
   -2.0677    3.7952    0.1423 H   0  0  0  0  0  0  0  0  0  0  0  0
    0.9105   -0.1494    1.4830 C   0  0  0  0  0  0  0  0  0  0  0  0
    0.4118   -0.2857    2.5955 O   0  0  0  0  0  0  0  0  0  0  0  0
    2.2885   -0.0800    1.3793 N   0  0  0  0  0  0  0  0  0  0  0  0
    2.6774   -0.0095    0.4433 H   0  0  0  0  0  0  0  0  0  0  0  0
    3.1809   -0.4280    2.4785 C   0  0  0  0  0  0  0  0  0  0  0  0
    3.0190   -1.4658    2.7885 H   0  0  0  0  0  0  0  0  0  0  0  0
    4.2244   -0.3171    2.1684 H   0  0  0  0  0  0  0  0  0  0  0  0
    3.0058    0.2280    3.3377 H   0  0  0  0  0  0  0  0  0  0  0  0
  1  2  1  0  0  0  0
  2  3  1  0  0  0  0
  2  4  1  0  0  0  0
  2  5  1  0  0  0  0
  5  6  2  0  0  0  0
  5  7  1  0  0  0  0
  7  8  1  0  0  0  0
  7  9  1  0  0  0  0
  9 10  1  0  0  0  0
  9 11  1  0  0  0  0
  9 19  1  0  0  0  0
 11 12  1  0  0  0  0
 11 13  1  0  0  0  0
 11 14  1  0  0  0  0
 14 15  2  0  0  0  0
 14 16  1  0  0  0  0
 16 17  1  0  0  0  0
 16 18  1  0  0  0  0
 19 20  2  0  0  0  0
 19 21  1  0  0  0  0
 21 22  1  0  0  0  0
 21 23  1  0  0  0  0
 23 24  1  0  0  0  0
 23 25  1  0  0  0  0
 23 26  1  0  0  0  0
M  END
$$$$

  -OEChem-01062216063D

 26 25  0     1  0  0  0  0  0999 V2000
   -2.8747   -3.2247    1.0791 H   0  0  0  0  0  0  0  0  0  0  0  0
   -2.8861   -2.1579    0.8388 C   0  0  0  0  0  0  0  0  0  0  0  0
   -3.2669   -1.6087    1.7030 H   0  0  0  0  0  0  0  0  0  0  0  0
   -3.5502   -1.9948   -0.0133 H   0  0  0  0  0  0  0  0  0  0  0  0
   -1.4842   -1.6847    0.5042 C   0  0  0  0  0  0  0  0  0  0  0  0
   -0.5737   -2.4943    0.4164 O   0  0  0  0  0  0  0  0  0  0  0  0
   -1.2717   -0.3656    0.1454 N   0  0  0  0  0  0  0  0  0  0  0  0
   -2.0979    0.2197    0.2076 H   0  0  0  0  0  0  0  0  0  0  0  0
    0.0314    0.3138    0.3046 C   0  0  1  0  0  0  0  0  0  0  0  0
    0.6120    0.1549   -0.6109 H   0  0  0  0  0  0  0  0  0  0  0  0
   -0.2507    1.8179    0.4978 C   0  0  0  0  0  0  0  0  0  0  0  0
   -0.9734    1.9509    1.3077 H   0  0  0  0  0  0  0  0  0  0  0  0
    0.6668    2.3359    0.7902 H   0  0  0  0  0  0  0  0  0  0  0  0
   -0.7641    2.4844   -0.7698 C   0  0  0  0  0  0  0  0  0  0  0  0
   -0.2927    2.2464   -1.8648 O   0  0  0  0  0  0  0  0  0  0  0  0
   -1.7935    3.3814   -0.7415 N   0  0  0  0  0  0  0  0  0  0  0  0
   -1.9544    3.8951   -1.6039 H   0  0  0  0  0  0  0  0  0  0  0  0
   -2.0681    3.7849    0.1481 H   0  0  0  0  0  0  0  0  0  0  0  0
    0.9218   -0.1678    1.4803 C   0  0  0  0  0  0  0  0  0  0  0  0
    0.4038   -0.4924    2.5438 O   0  0  0  0  0  0  0  0  0  0  0  0
    2.2606    0.1848    1.5029 N   0  0  0  0  0  0  0  0  0  0  0  0
    2.6836    0.4468    0.6173 H   0  0  0  0  0  0  0  0  0  0  0  0
    3.1356   -0.0960    2.6354 C   0  0  0  0  0  0  0  0  0  0  0  0
    3.1512   -1.1700    2.8494 H   0  0  0  0  0  0  0  0  0  0  0  0
    4.1570    0.2278    2.4143 H   0  0  0  0  0  0  0  0  0  0  0  0
    2.7907    0.4365    3.5280 H   0  0  0  0  0  0  0  0  0  0  0  0
  1  2  1  0  0  0  0
  2  3  1  0  0  0  0
  2  4  1  0  0  0  0
  2  5  1  0  0  0  0
  5  6  2  0  0  0  0
  5  7  1  0  0  0  0
  7  8  1  0  0  0  0
  7  9  1  0  0  0  0
  9 10  1  0  0  0  0
  9 11  1  0  0  0  0
  9 19  1  0  0  0  0
 11 12  1  0  0  0  0
 11 13  1  0  0  0  0
 11 14  1  0  0  0  0
 14 15  2  0  0  0  0
 14 16  1  0  0  0  0
 16 17  1  0  0  0  0
 16 18  1  0  0  0  0
 19 20  2  0  0  0  0
 19 21  1  0  0  0  0
 21 22  1  0  0  0  0
 21 23  1  0  0  0  0
 23 24  1  0  0  0  0
 23 25  1  0  0  0  0
 23 26  1  0  0  0  0
M  END
$$$$

  -OEChem-01062216063D

 26 25  0     1  0  0  0  0  0999 V2000
   -3.0174   -3.1194    1.0700 H   0  0  0  0  0  0  0  0  0  0  0  0
   -2.9587   -2.0483    0.8573 C   0  0  0  0  0  0  0  0  0  0  0  0
   -3.2287   -1.4971    1.7612 H   0  0  0  0  0  0  0  0  0  0  0  0
   -3.6673   -1.8060    0.0618 H   0  0  0  0  0  0  0  0  0  0  0  0
   -1.5506   -1.6806    0.4290 C   0  0  0  0  0  0  0  0  0  0  0  0
   -0.7579   -2.5643    0.1465 O   0  0  0  0  0  0  0  0  0  0  0  0
   -1.2516   -0.3671    0.1154 N   0  0  0  0  0  0  0  0  0  0  0  0
   -2.0484    0.2556    0.1937 H   0  0  0  0  0  0  0  0  0  0  0  0
    0.0746    0.2696    0.2943 C   0  0  1  0  0  0  0  0  0  0  0  0
    0.5387    0.3589   -0.6940 H   0  0  0  0  0  0  0  0  0  0  0  0
   -0.2151    1.6731    0.8768 C   0  0  0  0  0  0  0  0  0  0  0  0
   -0.8522    1.5742    1.7603 H   0  0  0  0  0  0  0  0  0  0  0  0
    0.7110    2.1558    1.1983 H   0  0  0  0  0  0  0  0  0  0  0  0
   -0.8681    2.6032   -0.1343 C   0  0  0  0  0  0  0  0  0  0  0  0
   -0.5064    2.6563   -1.2932 O   0  0  0  0  0  0  0  0  0  0  0  0
   -1.9271    3.3969    0.2017 N   0  0  0  0  0  0  0  0  0  0  0  0
   -2.1947    4.0907   -0.4916 H   0  0  0  0  0  0  0  0  0  0  0  0
   -2.1275    3.5582    1.1834 H   0  0  0  0  0  0  0  0  0  0  0  0
    1.1363   -0.4275    1.1960 C   0  0  0  0  0  0  0  0  0  0  0  0
    0.7901   -1.1361    2.1335 O   0  0  0  0  0  0  0  0  0  0  0  0
    2.3754    0.1779    1.3435 N   0  0  0  0  0  0  0  0  0  0  0  0
    2.6734    0.8028    0.6002 H   0  0  0  0  0  0  0  0  0  0  0  0
    3.3606   -0.2342    2.3387 C   0  0  0  0  0  0  0  0  0  0  0  0
    3.6017   -1.2963    2.2232 H   0  0  0  0  0  0  0  0  0  0  0  0
    4.2819    0.3445    2.2208 H   0  0  0  0  0  0  0  0  0  0  0  0
    2.9764   -0.0679    3.3506 H   0  0  0  0  0  0  0  0  0  0  0  0
  1  2  1  0  0  0  0
  2  3  1  0  0  0  0
  2  4  1  0  0  0  0
  2  5  1  0  0  0  0
  5  6  2  0  0  0  0
  5  7  1  0  0  0  0
  7  8  1  0  0  0  0
  7  9  1  0  0  0  0
  9 10  1  0  0  0  0
  9 11  1  0  0  0  0
  9 19  1  0  0  0  0
 11 12  1  0  0  0  0
 11 13  1  0  0  0  0
 11 14  1  0  0  0  0
 14 15  2  0  0  0  0
 14 16  1  0  0  0  0
 16 17  1  0  0  0  0
 16 18  1  0  0  0  0
 19 20  2  0  0  0  0
 19 21  1  0  0  0  0
 21 22  1  0  0  0  0
 21 23  1  0  0  0  0
 23 24  1  0  0  0  0
 23 25  1  0  0  0  0
 23 26  1  0  0  0  0
M  END
$$$$

  -OEChem-01062216063D

 26 25  0     1  0  0  0  0  0999 V2000
   -3.0012   -3.1107    1.0606 H   0  0  0  0  0  0  0  0  0  0  0  0
   -2.9292   -2.0326    0.8914 C   0  0  0  0  0  0  0  0  0  0  0  0
   -3.1335   -1.5172    1.8327 H   0  0  0  0  0  0  0  0  0  0  0  0
   -3.6762   -1.7400    0.1498 H   0  0  0  0  0  0  0  0  0  0  0  0
   -1.5391   -1.6771    0.3987 C   0  0  0  0  0  0  0  0  0  0  0  0
   -0.7985   -2.5631    0.0061 O   0  0  0  0  0  0  0  0  0  0  0  0
   -1.2319   -0.3594    0.1144 N   0  0  0  0  0  0  0  0  0  0  0  0
   -2.0286    0.2583    0.2233 H   0  0  0  0  0  0  0  0  0  0  0  0
    0.0898    0.2849    0.3152 C   0  0  1  0  0  0  0  0  0  0  0  0
    0.5622    0.3814   -0.6689 H   0  0  0  0  0  0  0  0  0  0  0  0
   -0.2500    1.6895    0.8788 C   0  0  0  0  0  0  0  0  0  0  0  0
   -0.9076    1.5833    1.7462 H   0  0  0  0  0  0  0  0  0  0  0  0
    0.6493    2.2074    1.2175 H   0  0  0  0  0  0  0  0  0  0  0  0
   -0.8961    2.5976   -0.1582 C   0  0  0  0  0  0  0  0  0  0  0  0
   -0.5034    2.6511   -1.3065 O   0  0  0  0  0  0  0  0  0  0  0  0
   -1.9714    3.3829    0.1452 N   0  0  0  0  0  0  0  0  0  0  0  0
   -2.2310    4.0654   -0.5626 H   0  0  0  0  0  0  0  0  0  0  0  0
   -2.1976    3.5533    1.1197 H   0  0  0  0  0  0  0  0  0  0  0  0
    1.1723   -0.3994    1.2139 C   0  0  0  0  0  0  0  0  0  0  0  0
    0.9125   -1.3556    1.9304 O   0  0  0  0  0  0  0  0  0  0  0  0
    2.2667    0.3448    1.6327 N   0  0  0  0  0  0  0  0  0  0  0  0
    2.5146    1.1515    1.0680 H   0  0  0  0  0  0  0  0  0  0  0  0
    3.2283   -0.1198    2.6289 C   0  0  0  0  0  0  0  0  0  0  0  0
    3.6680   -1.0748    2.3219 H   0  0  0  0  0  0  0  0  0  0  0  0
    4.0348    0.6104    2.7455 H   0  0  0  0  0  0  0  0  0  0  0  0
    2.7413   -0.2525    3.6008 H   0  0  0  0  0  0  0  0  0  0  0  0
  1  2  1  0  0  0  0
  2  3  1  0  0  0  0
  2  4  1  0  0  0  0
  2  5  1  0  0  0  0
  5  6  2  0  0  0  0
  5  7  1  0  0  0  0
  7  8  1  0  0  0  0
  7  9  1  0  0  0  0
  9 10  1  0  0  0  0
  9 11  1  0  0  0  0
  9 19  1  0  0  0  0
 11 12  1  0  0  0  0
 11 13  1  0  0  0  0
 11 14  1  0  0  0  0
 14 15  2  0  0  0  0
 14 16  1  0  0  0  0
 16 17  1  0  0  0  0
 16 18  1  0  0  0  0
 19 20  2  0  0  0  0
 19 21  1  0  0  0  0
 21 22  1  0  0  0  0
 21 23  1  0  0  0  0
 23 24  1  0  0  0  0
 23 25  1  0  0  0  0
 23 26  1  0  0  0  0
M  END
$$$$

  -OEChem-01062216063D

 26 25  0     1  0  0  0  0  0999 V2000
   -2.9215   -3.1881    0.9612 H   0  0  0  0  0  0  0  0  0  0  0  0
   -2.7606   -2.2586    0.4077 C   0  0  0  0  0  0  0  0  0  0  0  0
   -3.7208   -1.7549    0.2746 H   0  0  0  0  0  0  0  0  0  0  0  0
   -2.3436   -2.5036   -0.5721 H   0  0  0  0  0  0  0  0  0  0  0  0
   -1.8004   -1.3621    1.1664 C   0  0  0  0  0  0  0  0  0  0  0  0
   -1.5579   -1.5944    2.3391 O   0  0  0  0  0  0  0  0  0  0  0  0
   -1.4609   -0.1258    0.6502 N   0  0  0  0  0  0  0  0  0  0  0  0
   -1.9840    0.0701   -0.1992 H   0  0  0  0  0  0  0  0  0  0  0  0
   -0.0773    0.4026    0.5897 C   0  0  1  0  0  0  0  0  0  0  0  0
    0.2855    0.3346   -0.4424 H   0  0  0  0  0  0  0  0  0  0  0  0
   -0.2268    1.8888    0.9927 C   0  0  0  0  0  0  0  0  0  0  0  0
   -0.7649    1.9596    1.9427 H   0  0  0  0  0  0  0  0  0  0  0  0
    0.7490    2.3591    1.1249 H   0  0  0  0  0  0  0  0  0  0  0  0
   -0.9426    2.6991   -0.0788 C   0  0  0  0  0  0  0  0  0  0  0  0
   -0.7072    2.5563   -1.2635 O   0  0  0  0  0  0  0  0  0  0  0  0
   -1.9106    3.6092    0.2362 N   0  0  0  0  0  0  0  0  0  0  0  0
   -2.4440    3.9909   -0.5400 H   0  0  0  0  0  0  0  0  0  0  0  0
   -2.2888    3.6275    1.1781 H   0  0  0  0  0  0  0  0  0  0  0  0
    1.0188   -0.3118    1.4374 C   0  0  0  0  0  0  0  0  0  0  0  0
    1.1712   -1.5189    1.3005 O   0  0  0  0  0  0  0  0  0  0  0  0
    2.1091    0.3772    1.9476 N   0  0  0  0  0  0  0  0  0  0  0  0
    2.0438    1.3873    2.0010 H   0  0  0  0  0  0  0  0  0  0  0  0
    3.2643   -0.2779    2.5527 C   0  0  0  0  0  0  0  0  0  0  0  0
    3.7786   -0.9057    1.8172 H   0  0  0  0  0  0  0  0  0  0  0  0
    3.9726    0.4694    2.9225 H   0  0  0  0  0  0  0  0  0  0  0  0
    2.9516   -0.9051    3.3944 H   0  0  0  0  0  0  0  0  0  0  0  0
  1  2  1  0  0  0  0
  2  3  1  0  0  0  0
  2  4  1  0  0  0  0
  2  5  1  0  0  0  0
  5  6  2  0  0  0  0
  5  7  1  0  0  0  0
  7  8  1  0  0  0  0
  7  9  1  0  0  0  0
  9 10  1  0  0  0  0
  9 11  1  0  0  0  0
  9 19  1  0  0  0  0
 11 12  1  0  0  0  0
 11 13  1  0  0  0  0
 11 14  1  0  0  0  0
 14 15  2  0  0  0  0
 14 16  1  0  0  0  0
 16 17  1  0  0  0  0
 16 18  1  0  0  0  0
 19 20  2  0  0  0  0
 19 21  1  0  0  0  0
 21 22  1  0  0  0  0
 21 23  1  0  0  0  0
 23 24  1  0  0  0  0
 23 25  1  0  0  0  0
 23 26  1  0  0  0  0
M  END
$$$$

  -OEChem-01062216063D

 26 25  0     1  0  0  0  0  0999 V2000
   -2.9465   -3.2280    0.9559 H   0  0  0  0  0  0  0  0  0  0  0  0
   -2.8273   -2.2716    0.4385 C   0  0  0  0  0  0  0  0  0  0  0  0
   -3.7837   -1.7436    0.4447 H   0  0  0  0  0  0  0  0  0  0  0  0
   -2.5321   -2.4682   -0.5950 H   0  0  0  0  0  0  0  0  0  0  0  0
   -1.7669   -1.4350    1.1291 C   0  0  0  0  0  0  0  0  0  0  0  0
   -1.3863   -1.7533    2.2433 O   0  0  0  0  0  0  0  0  0  0  0  0
   -1.4523   -0.1852    0.6270 N   0  0  0  0  0  0  0  0  0  0  0  0
   -2.0110    0.0419   -0.1918 H   0  0  0  0  0  0  0  0  0  0  0  0
   -0.0859    0.3832    0.5687 C   0  0  1  0  0  0  0  0  0  0  0  0
    0.2790    0.3175   -0.4629 H   0  0  0  0  0  0  0  0  0  0  0  0
   -0.2570    1.8697    0.9587 C   0  0  0  0  0  0  0  0  0  0  0  0
   -0.7980    1.9423    1.9066 H   0  0  0  0  0  0  0  0  0  0  0  0
    0.7166    2.3489    1.0842 H   0  0  0  0  0  0  0  0  0  0  0  0
   -0.9843    2.6596   -0.1211 C   0  0  0  0  0  0  0  0  0  0  0  0
   -0.7475    2.5106   -1.3045 O   0  0  0  0  0  0  0  0  0  0  0  0
   -1.9581    3.5675    0.1830 N   0  0  0  0  0  0  0  0  0  0  0  0
   -2.2846    4.1547   -0.5797 H   0  0  0  0  0  0  0  0  0  0  0  0
   -2.0955    3.8519    1.1473 H   0  0  0  0  0  0  0  0  0  0  0  0
    1.0174   -0.3192    1.4128 C   0  0  0  0  0  0  0  0  0  0  0  0
    1.3360   -1.4595    1.0993 O   0  0  0  0  0  0  0  0  0  0  0  0
    1.9201    0.3877    2.1925 N   0  0  0  0  0  0  0  0  0  0  0  0
    1.6525    1.3244    2.4728 H   0  0  0  0  0  0  0  0  0  0  0  0
    3.0486   -0.2425    2.8694 C   0  0  0  0  0  0  0  0  0  0  0  0
    3.7301   -0.6945    2.1410 H   0  0  0  0  0  0  0  0  0  0  0  0
    3.6067    0.5005    3.4469 H   0  0  0  0  0  0  0  0  0  0  0  0
    2.6975   -1.0223    3.5538 H   0  0  0  0  0  0  0  0  0  0  0  0
  1  2  1  0  0  0  0
  2  3  1  0  0  0  0
  2  4  1  0  0  0  0
  2  5  1  0  0  0  0
  5  6  2  0  0  0  0
  5  7  1  0  0  0  0
  7  8  1  0  0  0  0
  7  9  1  0  0  0  0
  9 10  1  0  0  0  0
  9 11  1  0  0  0  0
  9 19  1  0  0  0  0
 11 12  1  0  0  0  0
 11 13  1  0  0  0  0
 11 14  1  0  0  0  0
 14 15  2  0  0  0  0
 14 16  1  0  0  0  0
 16 17  1  0  0  0  0
 16 18  1  0  0  0  0
 19 20  2  0  0  0  0
 19 21  1  0  0  0  0
 21 22  1  0  0  0  0
 21 23  1  0  0  0  0
 23 24  1  0  0  0  0
 23 25  1  0  0  0  0
 23 26  1  0  0  0  0
M  END
$$$$

  -OEChem-01062216063D

 26 25  0     1  0  0  0  0  0999 V2000
   -2.9955   -3.2157    0.9495 H   0  0  0  0  0  0  0  0  0  0  0  0
   -2.8828   -2.2465    0.4556 C   0  0  0  0  0  0  0  0  0  0  0  0
   -3.8177   -1.6894    0.5527 H   0  0  0  0  0  0  0  0  0  0  0  0
   -2.6742   -2.4165   -0.6035 H   0  0  0  0  0  0  0  0  0  0  0  0
   -1.7445   -1.4676    1.0879 C   0  0  0  0  0  0  0  0  0  0  0  0
   -1.2637   -1.8621    2.1364 O   0  0  0  0  0  0  0  0  0  0  0  0
   -1.4335   -0.2114    0.5979 N   0  0  0  0  0  0  0  0  0  0  0  0
   -2.0187    0.0475   -0.1926 H   0  0  0  0  0  0  0  0  0  0  0  0
   -0.0758    0.3770    0.5446 C   0  0  1  0  0  0  0  0  0  0  0  0
    0.2900    0.3181   -0.4874 H   0  0  0  0  0  0  0  0  0  0  0  0
   -0.2506    1.8611    0.9383 C   0  0  0  0  0  0  0  0  0  0  0  0
   -0.7929    1.9304    1.8856 H   0  0  0  0  0  0  0  0  0  0  0  0
    0.7254    2.3362    1.0679 H   0  0  0  0  0  0  0  0  0  0  0  0
   -0.9810    2.6526   -0.1382 C   0  0  0  0  0  0  0  0  0  0  0  0
   -0.7471    2.5098   -1.3228 O   0  0  0  0  0  0  0  0  0  0  0  0
   -1.9609    3.5523    0.1706 N   0  0  0  0  0  0  0  0  0  0  0  0
   -2.2840    4.1432   -0.5908 H   0  0  0  0  0  0  0  0  0  0  0  0
   -2.0813    3.8470    1.1341 H   0  0  0  0  0  0  0  0  0  0  0  0
    1.0323   -0.3167    1.3858 C   0  0  0  0  0  0  0  0  0  0  0  0
    1.5042   -1.3619    0.9562 O   0  0  0  0  0  0  0  0  0  0  0  0
    1.7232    0.3369    2.3942 N   0  0  0  0  0  0  0  0  0  0  0  0
    1.2759    1.1533    2.7957 H   0  0  0  0  0  0  0  0  0  0  0  0
    2.8017   -0.2973    3.1436 C   0  0  0  0  0  0  0  0  0  0  0  0
    3.6223   -0.5766    2.4742 H   0  0  0  0  0  0  0  0  0  0  0  0
    3.1933    0.3908    3.8986 H   0  0  0  0  0  0  0  0  0  0  0  0
    2.4371   -1.1978    3.6492 H   0  0  0  0  0  0  0  0  0  0  0  0
  1  2  1  0  0  0  0
  2  3  1  0  0  0  0
  2  4  1  0  0  0  0
  2  5  1  0  0  0  0
  5  6  2  0  0  0  0
  5  7  1  0  0  0  0
  7  8  1  0  0  0  0
  7  9  1  0  0  0  0
  9 10  1  0  0  0  0
  9 11  1  0  0  0  0
  9 19  1  0  0  0  0
 11 12  1  0  0  0  0
 11 13  1  0  0  0  0
 11 14  1  0  0  0  0
 14 15  2  0  0  0  0
 14 16  1  0  0  0  0
 16 17  1  0  0  0  0
 16 18  1  0  0  0  0
 19 20  2  0  0  0  0
 19 21  1  0  0  0  0
 21 22  1  0  0  0  0
 21 23  1  0  0  0  0
 23 24  1  0  0  0  0
 23 25  1  0  0  0  0
 23 26  1  0  0  0  0
M  END
$$$$

  -OEChem-01062216063D

 26 25  0     1  0  0  0  0  0999 V2000
   -3.0335   -3.2135    0.9360 H   0  0  0  0  0  0  0  0  0  0  0  0
   -2.9304   -2.2304    0.4676 C   0  0  0  0  0  0  0  0  0  0  0  0
   -3.8399   -1.6541    0.6532 H   0  0  0  0  0  0  0  0  0  0  0  0
   -2.8061   -2.3680   -0.6093 H   0  0  0  0  0  0  0  0  0  0  0  0
   -1.7272   -1.5029    1.0389 C   0  0  0  0  0  0  0  0  0  0  0  0
   -1.1622   -1.9685    2.0132 O   0  0  0  0  0  0  0  0  0  0  0  0
   -1.4157   -0.2417    0.5607 N   0  0  0  0  0  0  0  0  0  0  0  0
   -2.0233    0.0498   -0.2013 H   0  0  0  0  0  0  0  0  0  0  0  0
   -0.0662    0.3661    0.5213 C   0  0  1  0  0  0  0  0  0  0  0  0
    0.3048    0.3171   -0.5096 H   0  0  0  0  0  0  0  0  0  0  0  0
   -0.2454    1.8457    0.9252 C   0  0  0  0  0  0  0  0  0  0  0  0
   -0.7939    1.9070    1.8690 H   0  0  0  0  0  0  0  0  0  0  0  0
    0.7325    2.3145    1.0683 H   0  0  0  0  0  0  0  0  0  0  0  0
   -0.9731    2.6468   -0.1455 C   0  0  0  0  0  0  0  0  0  0  0  0
   -0.7369    2.5170   -1.3308 O   0  0  0  0  0  0  0  0  0  0  0  0
   -1.9503    3.5469    0.1703 N   0  0  0  0  0  0  0  0  0  0  0  0
   -2.2582    4.1519   -0.5863 H   0  0  0  0  0  0  0  0  0  0  0  0
   -2.0555    3.8440    1.1346 H   0  0  0  0  0  0  0  0  0  0  0  0
    1.0454   -0.3121    1.3670 C   0  0  0  0  0  0  0  0  0  0  0  0
    1.6898   -1.2171    0.8525 O   0  0  0  0  0  0  0  0  0  0  0  0
    1.4999    0.2291    2.5589 N   0  0  0  0  0  0  0  0  0  0  0  0
    0.8663    0.8677    3.0269 H   0  0  0  0  0  0  0  0  0  0  0  0
    2.5353   -0.4155    3.3580 C   0  0  0  0  0  0  0  0  0  0  0  0
    3.4670   -0.4965    2.7880 H   0  0  0  0  0  0  0  0  0  0  0  0
    2.7351    0.1687    4.2611 H   0  0  0  0  0  0  0  0  0  0  0  0
    2.2168   -1.4202    3.6562 H   0  0  0  0  0  0  0  0  0  0  0  0
  1  2  1  0  0  0  0
  2  3  1  0  0  0  0
  2  4  1  0  0  0  0
  2  5  1  0  0  0  0
  5  6  2  0  0  0  0
  5  7  1  0  0  0  0
  7  8  1  0  0  0  0
  7  9  1  0  0  0  0
  9 10  1  0  0  0  0
  9 11  1  0  0  0  0
  9 19  1  0  0  0  0
 11 12  1  0  0  0  0
 11 13  1  0  0  0  0
 11 14  1  0  0  0  0
 14 15  2  0  0  0  0
 14 16  1  0  0  0  0
 16 17  1  0  0  0  0
 16 18  1  0  0  0  0
 19 20  2  0  0  0  0
 19 21  1  0  0  0  0
 21 22  1  0  0  0  0
 21 23  1  0  0  0  0
 23 24  1  0  0  0  0
 23 25  1  0  0  0  0
 23 26  1  0  0  0  0
M  END
$$$$

  -OEChem-01062216063D

 26 25  0     1  0  0  0  0  0999 V2000
   -3.0857   -3.2047    0.9188 H   0  0  0  0  0  0  0  0  0  0  0  0
   -2.9778   -2.2133    0.4695 C   0  0  0  0  0  0  0  0  0  0  0  0
   -3.8591   -1.6164    0.7157 H   0  0  0  0  0  0  0  0  0  0  0  0
   -2.9131   -2.3269   -0.6154 H   0  0  0  0  0  0  0  0  0  0  0  0
   -1.7264   -1.5339    0.9943 C   0  0  0  0  0  0  0  0  0  0  0  0
   -1.1054   -2.0579    1.9021 O   0  0  0  0  0  0  0  0  0  0  0  0
   -1.4059   -0.2708    0.5270 N   0  0  0  0  0  0  0  0  0  0  0  0
   -2.0296    0.0516   -0.2093 H   0  0  0  0  0  0  0  0  0  0  0  0
   -0.0615    0.3489    0.5056 C   0  0  1  0  0  0  0  0  0  0  0  0
    0.3168    0.3089   -0.5231 H   0  0  0  0  0  0  0  0  0  0  0  0
   -0.2411    1.8240    0.9218 C   0  0  0  0  0  0  0  0  0  0  0  0
   -0.7964    1.8781    1.8620 H   0  0  0  0  0  0  0  0  0  0  0  0
    0.7382    2.2854    1.0805 H   0  0  0  0  0  0  0  0  0  0  0  0
   -0.9610    2.6372   -0.1446 C   0  0  0  0  0  0  0  0  0  0  0  0
   -0.7200    2.5202   -1.3302 O   0  0  0  0  0  0  0  0  0  0  0  0
   -1.9325    3.5416    0.1764 N   0  0  0  0  0  0  0  0  0  0  0  0
   -2.2241    4.1596   -0.5762 H   0  0  0  0  0  0  0  0  0  0  0  0
   -2.0231    3.8412    1.1415 H   0  0  0  0  0  0  0  0  0  0  0  0
    1.0501   -0.3141    1.3600 C   0  0  0  0  0  0  0  0  0  0  0  0
    1.8749   -1.0223    0.7972 O   0  0  0  0  0  0  0  0  0  0  0  0
    1.2677    0.0538    2.6775 N   0  0  0  0  0  0  0  0  0  0  0  0
    0.4688    0.4606    3.1524 H   0  0  0  0  0  0  0  0  0  0  0  0
    2.2895   -0.5873    3.4964 C   0  0  0  0  0  0  0  0  0  0  0  0
    3.2810   -0.4494    3.0522 H   0  0  0  0  0  0  0  0  0  0  0  0
    2.2996   -0.1508    4.4995 H   0  0  0  0  0  0  0  0  0  0  0  0
    2.0892   -1.6604    3.5849 H   0  0  0  0  0  0  0  0  0  0  0  0
  1  2  1  0  0  0  0
  2  3  1  0  0  0  0
  2  4  1  0  0  0  0
  2  5  1  0  0  0  0
  5  6  2  0  0  0  0
  5  7  1  0  0  0  0
  7  8  1  0  0  0  0
  7  9  1  0  0  0  0
  9 10  1  0  0  0  0
  9 11  1  0  0  0  0
  9 19  1  0  0  0  0
 11 12  1  0  0  0  0
 11 13  1  0  0  0  0
 11 14  1  0  0  0  0
 14 15  2  0  0  0  0
 14 16  1  0  0  0  0
 16 17  1  0  0  0  0
 16 18  1  0  0  0  0
 19 20  2  0  0  0  0
 19 21  1  0  0  0  0
 21 22  1  0  0  0  0
 21 23  1  0  0  0  0
 23 24  1  0  0  0  0
 23 25  1  0  0  0  0
 23 26  1  0  0  0  0
M  END
$$$$

  -OEChem-01062216063D

 26 25  0     1  0  0  0  0  0999 V2000
   -3.1292   -3.2063    0.8460 H   0  0  0  0  0  0  0  0  0  0  0  0
   -3.0394   -2.1844    0.4665 C   0  0  0  0  0  0  0  0  0  0  0  0
   -3.8890   -1.5989    0.8258 H   0  0  0  0  0  0  0  0  0  0  0  0
   -3.0613   -2.2141   -0.6256 H   0  0  0  0  0  0  0  0  0  0  0  0
   -1.7401   -1.5617    0.9428 C   0  0  0  0  0  0  0  0  0  0  0  0
   -1.0816   -2.1426    1.7868 O   0  0  0  0  0  0  0  0  0  0  0  0
   -1.3981   -0.2999    0.4877 N   0  0  0  0  0  0  0  0  0  0  0  0
   -2.0345    0.0623   -0.2188 H   0  0  0  0  0  0  0  0  0  0  0  0
   -0.0545    0.3232    0.4900 C   0  0  1  0  0  0  0  0  0  0  0  0
    0.3351    0.2912   -0.5348 H   0  0  0  0  0  0  0  0  0  0  0  0
   -0.2327    1.7928    0.9218 C   0  0  0  0  0  0  0  0  0  0  0  0
   -0.7943    1.8375    1.8586 H   0  0  0  0  0  0  0  0  0  0  0  0
    0.7477    2.2462    1.0966 H   0  0  0  0  0  0  0  0  0  0  0  0
   -0.9386    2.6232   -0.1403 C   0  0  0  0  0  0  0  0  0  0  0  0
   -0.6875    2.5217   -1.3252 O   0  0  0  0  0  0  0  0  0  0  0  0
   -1.9111    3.5254    0.1835 N   0  0  0  0  0  0  0  0  0  0  0  0
   -2.1868    4.1582   -0.5627 H   0  0  0  0  0  0  0  0  0  0  0  0
   -2.0041    3.8153    1.1514 H   0  0  0  0  0  0  0  0  0  0  0  0
    1.0535   -0.3262    1.3575 C   0  0  0  0  0  0  0  0  0  0  0  0
    2.0515   -0.7682    0.8035 O   0  0  0  0  0  0  0  0  0  0  0  0
    1.0526   -0.1829    2.7346 N   0  0  0  0  0  0  0  0  0  0  0  0
    0.1296   -0.0689    3.1428 H   0  0  0  0  0  0  0  0  0  0  0  0
    2.0809   -0.7936    3.5680 C   0  0  0  0  0  0  0  0  0  0  0  0
    3.0730   -0.4224    3.2898 H   0  0  0  0  0  0  0  0  0  0  0  0
    1.9069   -0.5512    4.6206 H   0  0  0  0  0  0  0  0  0  0  0  0
    2.0673   -1.8827    3.4534 H   0  0  0  0  0  0  0  0  0  0  0  0
  1  2  1  0  0  0  0
  2  3  1  0  0  0  0
  2  4  1  0  0  0  0
  2  5  1  0  0  0  0
  5  6  2  0  0  0  0
  5  7  1  0  0  0  0
  7  8  1  0  0  0  0
  7  9  1  0  0  0  0
  9 10  1  0  0  0  0
  9 11  1  0  0  0  0
  9 19  1  0  0  0  0
 11 12  1  0  0  0  0
 11 13  1  0  0  0  0
 11 14  1  0  0  0  0
 14 15  2  0  0  0  0
 14 16  1  0  0  0  0
 16 17  1  0  0  0  0
 16 18  1  0  0  0  0
 19 20  2  0  0  0  0
 19 21  1  0  0  0  0
 21 22  1  0  0  0  0
 21 23  1  0  0  0  0
 23 24  1  0  0  0  0
 23 25  1  0  0  0  0
 23 26  1  0  0  0  0
M  END
$$$$

  -OEChem-01062216063D

 26 25  0     1  0  0  0  0  0999 V2000
   -3.2670   -3.1389    0.8497 H   0  0  0  0  0  0  0  0  0  0  0  0
   -3.1161   -2.1367    0.4384 C   0  0  0  0  0  0  0  0  0  0  0  0
   -3.9268   -1.4895    0.7817 H   0  0  0  0  0  0  0  0  0  0  0  0
   -3.1446   -2.1986   -0.6523 H   0  0  0  0  0  0  0  0  0  0  0  0
   -1.7787   -1.5803    0.8908 C   0  0  0  0  0  0  0  0  0  0  0  0
   -1.1114   -2.2186    1.6844 O   0  0  0  0  0  0  0  0  0  0  0  0
   -1.3993   -0.3236    0.4539 N   0  0  0  0  0  0  0  0  0  0  0  0
   -2.0408    0.0828   -0.2236 H   0  0  0  0  0  0  0  0  0  0  0  0
   -0.0512    0.2922    0.4818 C   0  0  1  0  0  0  0  0  0  0  0  0
    0.3489    0.2711   -0.5394 H   0  0  0  0  0  0  0  0  0  0  0  0
   -0.2310    1.7548    0.9333 C   0  0  0  0  0  0  0  0  0  0  0  0
   -0.8011    1.7860    1.8656 H   0  0  0  0  0  0  0  0  0  0  0  0
    0.7484    2.2032    1.1267 H   0  0  0  0  0  0  0  0  0  0  0  0
   -0.9213    2.6030   -0.1248 C   0  0  0  0  0  0  0  0  0  0  0  0
   -0.6567    2.5200   -1.3082 O   0  0  0  0  0  0  0  0  0  0  0  0
   -1.9032    3.4945    0.2002 N   0  0  0  0  0  0  0  0  0  0  0  0
   -2.1678    4.1400   -0.5391 H   0  0  0  0  0  0  0  0  0  0  0  0
   -2.0047    3.7713    1.1711 H   0  0  0  0  0  0  0  0  0  0  0  0
    1.0585   -0.3441    1.3569 C   0  0  0  0  0  0  0  0  0  0  0  0
    2.1718   -0.4923    0.8706 O   0  0  0  0  0  0  0  0  0  0  0  0
    0.9013   -0.4694    2.7259 N   0  0  0  0  0  0  0  0  0  0  0  0
   -0.0606   -0.6523    3.0048 H   0  0  0  0  0  0  0  0  0  0  0  0
    1.9507   -1.0324    3.5671 C   0  0  0  0  0  0  0  0  0  0  0  0
    2.8657   -0.4351    3.4930 H   0  0  0  0  0  0  0  0  0  0  0  0
    1.6312   -1.0420    4.6136 H   0  0  0  0  0  0  0  0  0  0  0  0
    2.1748   -2.0599    3.2616 H   0  0  0  0  0  0  0  0  0  0  0  0
  1  2  1  0  0  0  0
  2  3  1  0  0  0  0
  2  4  1  0  0  0  0
  2  5  1  0  0  0  0
  5  6  2  0  0  0  0
  5  7  1  0  0  0  0
  7  8  1  0  0  0  0
  7  9  1  0  0  0  0
  9 10  1  0  0  0  0
  9 11  1  0  0  0  0
  9 19  1  0  0  0  0
 11 12  1  0  0  0  0
 11 13  1  0  0  0  0
 11 14  1  0  0  0  0
 14 15  2  0  0  0  0
 14 16  1  0  0  0  0
 16 17  1  0  0  0  0
 16 18  1  0  0  0  0
 19 20  2  0  0  0  0
 19 21  1  0  0  0  0
 21 22  1  0  0  0  0
 21 23  1  0  0  0  0
 23 24  1  0  0  0  0
 23 25  1  0  0  0  0
 23 26  1  0  0  0  0
M  END
$$$$

  -OEChem-01062216063D

 26 25  0     1  0  0  0  0  0999 V2000
   -3.3715   -3.1001    0.7426 H   0  0  0  0  0  0  0  0  0  0  0  0
   -3.2035   -2.0720    0.4085 C   0  0  0  0  0  0  0  0  0  0  0  0
   -3.9639   -1.4276    0.8561 H   0  0  0  0  0  0  0  0  0  0  0  0
   -3.3012   -2.0383   -0.6794 H   0  0  0  0  0  0  0  0  0  0  0  0
   -1.8196   -1.6053    0.8211 C   0  0  0  0  0  0  0  0  0  0  0  0
   -1.1458   -2.3253    1.5346 O   0  0  0  0  0  0  0  0  0  0  0  0
   -1.3938   -0.3542    0.4120 N   0  0  0  0  0  0  0  0  0  0  0  0
   -2.0420    0.1086   -0.2213 H   0  0  0  0  0  0  0  0  0  0  0  0
   -0.0435    0.2583    0.4768 C   0  0  1  0  0  0  0  0  0  0  0  0
    0.3745    0.2501   -0.5373 H   0  0  0  0  0  0  0  0  0  0  0  0
   -0.2426    1.7143    0.9434 C   0  0  0  0  0  0  0  0  0  0  0  0
   -0.8331    1.7281    1.8634 H   0  0  0  0  0  0  0  0  0  0  0  0
    0.7285    2.1677    1.1656 H   0  0  0  0  0  0  0  0  0  0  0  0
   -0.9121    2.5756   -0.1171 C   0  0  0  0  0  0  0  0  0  0  0  0
   -0.6208    2.5134   -1.2955 O   0  0  0  0  0  0  0  0  0  0  0  0
   -1.9060    3.4565    0.2002 N   0  0  0  0  0  0  0  0  0  0  0  0
   -2.1529    4.1148   -0.5339 H   0  0  0  0  0  0  0  0  0  0  0  0
   -2.0244    3.7207    1.1728 H   0  0  0  0  0  0  0  0  0  0  0  0
    1.0717   -0.3547    1.3648 C   0  0  0  0  0  0  0  0  0  0  0  0
    2.2323   -0.2328    0.9949 O   0  0  0  0  0  0  0  0  0  0  0  0
    0.8311   -0.7682    2.6621 N   0  0  0  0  0  0  0  0  0  0  0  0
   -0.1027   -1.1599    2.7893 H   0  0  0  0  0  0  0  0  0  0  0  0
    1.8906   -1.2995    3.5111 C   0  0  0  0  0  0  0  0  0  0  0  0
    2.6816   -0.5553    3.6515 H   0  0  0  0  0  0  0  0  0  0  0  0
    1.4886   -1.5625    4.4941 H   0  0  0  0  0  0  0  0  0  0  0  0
    2.3272   -2.1977    3.0617 H   0  0  0  0  0  0  0  0  0  0  0  0
  1  2  1  0  0  0  0
  2  3  1  0  0  0  0
  2  4  1  0  0  0  0
  2  5  1  0  0  0  0
  5  6  2  0  0  0  0
  5  7  1  0  0  0  0
  7  8  1  0  0  0  0
  7  9  1  0  0  0  0
  9 10  1  0  0  0  0
  9 11  1  0  0  0  0
  9 19  1  0  0  0  0
 11 12  1  0  0  0  0
 11 13  1  0  0  0  0
 11 14  1  0  0  0  0
 14 15  2  0  0  0  0
 14 16  1  0  0  0  0
 16 17  1  0  0  0  0
 16 18  1  0  0  0  0
 19 20  2  0  0  0  0
 19 21  1  0  0  0  0
 21 22  1  0  0  0  0
 21 23  1  0  0  0  0
 23 24  1  0  0  0  0
 23 25  1  0  0  0  0
 23 26  1  0  0  0  0
M  END
$$$$

  -OEChem-01062216063D

 26 25  0     1  0  0  0  0  0999 V2000
   -3.4921   -3.0210    0.6990 H   0  0  0  0  0  0  0  0  0  0  0  0
   -3.2801   -1.9931    0.3902 C   0  0  0  0  0  0  0  0  0  0  0  0
   -3.9819   -1.3234    0.8931 H   0  0  0  0  0  0  0  0  0  0  0  0
   -3.4241   -1.9161   -0.6903 H   0  0  0  0  0  0  0  0  0  0  0  0
   -1.8541   -1.6193    0.7516 C   0  0  0  0  0  0  0  0  0  0  0  0
   -1.1745   -2.4291    1.3538 O   0  0  0  0  0  0  0  0  0  0  0  0
   -1.3862   -0.3717    0.3789 N   0  0  0  0  0  0  0  0  0  0  0  0
   -2.0446    0.1512   -0.1942 H   0  0  0  0  0  0  0  0  0  0  0  0
   -0.0350    0.2381    0.4851 C   0  0  1  0  0  0  0  0  0  0  0  0
    0.4031    0.2420   -0.5202 H   0  0  0  0  0  0  0  0  0  0  0  0
   -0.2638    1.6896    0.9581 C   0  0  0  0  0  0  0  0  0  0  0  0
   -0.8811    1.6888    1.8603 H   0  0  0  0  0  0  0  0  0  0  0  0
    0.6931    2.1557    1.2137 H   0  0  0  0  0  0  0  0  0  0  0  0
   -0.9093    2.5534   -0.1154 C   0  0  0  0  0  0  0  0  0  0  0  0
   -0.5821    2.5053   -1.2848 O   0  0  0  0  0  0  0  0  0  0  0  0
   -1.9291    3.4130    0.1770 N   0  0  0  0  0  0  0  0  0  0  0  0
   -2.1622    4.0739   -0.5595 H   0  0  0  0  0  0  0  0  0  0  0  0
   -2.0772    3.6710    1.1471 H   0  0  0  0  0  0  0  0  0  0  0  0
    1.0842   -0.3574    1.3855 C   0  0  0  0  0  0  0  0  0  0  0  0
    2.2394   -0.0302    1.1443 O   0  0  0  0  0  0  0  0  0  0  0  0
    0.8394   -1.0547    2.5530 N   0  0  0  0  0  0  0  0  0  0  0  0
   -0.0566   -1.5451    2.5620 H   0  0  0  0  0  0  0  0  0  0  0  0
    1.9098   -1.6064    3.3747 C   0  0  0  0  0  0  0  0  0  0  0  0
    2.5718   -0.8098    3.7298 H   0  0  0  0  0  0  0  0  0  0  0  0
    1.4897   -2.1172    4.2462 H   0  0  0  0  0  0  0  0  0  0  0  0
    2.5010   -2.3272    2.8001 H   0  0  0  0  0  0  0  0  0  0  0  0
  1  2  1  0  0  0  0
  2  3  1  0  0  0  0
  2  4  1  0  0  0  0
  2  5  1  0  0  0  0
  5  6  2  0  0  0  0
  5  7  1  0  0  0  0
  7  8  1  0  0  0  0
  7  9  1  0  0  0  0
  9 10  1  0  0  0  0
  9 11  1  0  0  0  0
  9 19  1  0  0  0  0
 11 12  1  0  0  0  0
 11 13  1  0  0  0  0
 11 14  1  0  0  0  0
 14 15  2  0  0  0  0
 14 16  1  0  0  0  0
 16 17  1  0  0  0  0
 16 18  1  0  0  0  0
 19 20  2  0  0  0  0
 19 21  1  0  0  0  0
 21 22  1  0  0  0  0
 21 23  1  0  0  0  0
 23 24  1  0  0  0  0
 23 25  1  0  0  0  0
 23 26  1  0  0  0  0
M  END
$$$$

  -OEChem-01062216063D

 26 25  0     1  0  0  0  0  0999 V2000
   -3.6007   -2.9396    0.6573 H   0  0  0  0  0  0  0  0  0  0  0  0
   -3.3469   -1.9136    0.3752 C   0  0  0  0  0  0  0  0  0  0  0  0
   -3.9968   -1.2277    0.9240 H   0  0  0  0  0  0  0  0  0  0  0  0
   -3.5225   -1.7921   -0.6967 H   0  0  0  0  0  0  0  0  0  0  0  0
   -1.8928   -1.6229    0.6995 C   0  0  0  0  0  0  0  0  0  0  0  0
   -1.2265   -2.5010    1.2138 O   0  0  0  0  0  0  0  0  0  0  0  0
   -1.3847   -0.3820    0.3583 N   0  0  0  0  0  0  0  0  0  0  0  0
   -2.0457    0.1877   -0.1646 H   0  0  0  0  0  0  0  0  0  0  0  0
   -0.0290    0.2162    0.4921 C   0  0  1  0  0  0  0  0  0  0  0  0
    0.4207    0.2301   -0.5081 H   0  0  0  0  0  0  0  0  0  0  0  0
   -0.2806    1.6651    0.9699 C   0  0  0  0  0  0  0  0  0  0  0  0
   -0.9175    1.6533    1.8584 H   0  0  0  0  0  0  0  0  0  0  0  0
    0.6630    2.1427    1.2504 H   0  0  0  0  0  0  0  0  0  0  0  0
   -0.9081    2.5317   -0.1121 C   0  0  0  0  0  0  0  0  0  0  0  0
   -0.5547    2.4954   -1.2743 O   0  0  0  0  0  0  0  0  0  0  0  0
   -1.9491    3.3716    0.1621 N   0  0  0  0  0  0  0  0  0  0  0  0
   -2.1722    4.0359   -0.5744 H   0  0  0  0  0  0  0  0  0  0  0  0
   -2.1214    3.6213    1.1306 H   0  0  0  0  0  0  0  0  0  0  0  0
    1.0945   -0.3761    1.3958 C   0  0  0  0  0  0  0  0  0  0  0  0
    2.2159    0.1053    1.2878 O   0  0  0  0  0  0  0  0  0  0  0  0
    0.9066   -1.3187    2.3873 N   0  0  0  0  0  0  0  0  0  0  0  0
    0.0457   -1.8625    2.3114 H   0  0  0  0  0  0  0  0  0  0  0  0
    1.9993   -1.8837    3.1700 C   0  0  0  0  0  0  0  0  0  0  0  0
    2.5179   -1.0978    3.7291 H   0  0  0  0  0  0  0  0  0  0  0  0
    1.6101   -2.6148    3.8850 H   0  0  0  0  0  0  0  0  0  0  0  0
    2.7197   -2.3863    2.5161 H   0  0  0  0  0  0  0  0  0  0  0  0
  1  2  1  0  0  0  0
  2  3  1  0  0  0  0
  2  4  1  0  0  0  0
  2  5  1  0  0  0  0
  5  6  2  0  0  0  0
  5  7  1  0  0  0  0
  7  8  1  0  0  0  0
  7  9  1  0  0  0  0
  9 10  1  0  0  0  0
  9 11  1  0  0  0  0
  9 19  1  0  0  0  0
 11 12  1  0  0  0  0
 11 13  1  0  0  0  0
 11 14  1  0  0  0  0
 14 15  2  0  0  0  0
 14 16  1  0  0  0  0
 16 17  1  0  0  0  0
 16 18  1  0  0  0  0
 19 20  2  0  0  0  0
 19 21  1  0  0  0  0
 21 22  1  0  0  0  0
 21 23  1  0  0  0  0
 23 24  1  0  0  0  0
 23 25  1  0  0  0  0
 23 26  1  0  0  0  0
M  END
$$$$

  -OEChem-01062216063D

 26 25  0     1  0  0  0  0  0999 V2000
   -3.2949   -3.1014    0.7670 H   0  0  0  0  0  0  0  0  0  0  0  0
   -3.0266   -2.1194    0.3664 C   0  0  0  0  0  0  0  0  0  0  0  0
   -3.8102   -1.4063    0.6334 H   0  0  0  0  0  0  0  0  0  0  0  0
   -2.9627   -2.1908   -0.7221 H   0  0  0  0  0  0  0  0  0  0  0  0
   -1.6945   -1.6645    0.9352 C   0  0  0  0  0  0  0  0  0  0  0  0
   -1.1244   -2.4091    1.7028 O   0  0  0  0  0  0  0  0  0  0  0  0
   -1.2202   -0.4285    0.5337 N   0  0  0  0  0  0  0  0  0  0  0  0
   -1.8193   -0.0020   -0.1683 H   0  0  0  0  0  0  0  0  0  0  0  0
    0.0395    0.3250    0.7808 C   0  0  1  0  0  0  0  0  0  0  0  0
    0.6322    0.2617   -0.1384 H   0  0  0  0  0  0  0  0  0  0  0  0
   -0.4599    1.7824    0.9737 C   0  0  0  0  0  0  0  0  0  0  0  0
   -1.2378    1.8043    1.7418 H   0  0  0  0  0  0  0  0  0  0  0  0
    0.3479    2.4362    1.3125 H   0  0  0  0  0  0  0  0  0  0  0  0
   -0.9784    2.3933   -0.3199 C   0  0  0  0  0  0  0  0  0  0  0  0
   -0.4193    2.2448   -1.3892 O   0  0  0  0  0  0  0  0  0  0  0  0
   -2.1452    3.1018   -0.3552 N   0  0  0  0  0  0  0  0  0  0  0  0
   -2.3121    3.6188   -1.2145 H   0  0  0  0  0  0  0  0  0  0  0  0
   -2.5214    3.4504    0.5207 H   0  0  0  0  0  0  0  0  0  0  0  0
    1.0925   -0.0057    1.8946 C   0  0  0  0  0  0  0  0  0  0  0  0
    1.9324    0.8319    2.1907 O   0  0  0  0  0  0  0  0  0  0  0  0
    1.0944   -1.0035    2.8347 N   0  0  0  0  0  0  0  0  0  0  0  0
    1.5341   -0.6544    3.6813 H   0  0  0  0  0  0  0  0  0  0  0  0
    1.6488   -2.2892    2.4238 C   0  0  0  0  0  0  0  0  0  0  0  0
    2.7324   -2.2979    2.5780 H   0  0  0  0  0  0  0  0  0  0  0  0
    1.2042   -3.0961    3.0149 H   0  0  0  0  0  0  0  0  0  0  0  0
    1.4531   -2.4907    1.3651 H   0  0  0  0  0  0  0  0  0  0  0  0
  1  2  1  0  0  0  0
  2  3  1  0  0  0  0
  2  4  1  0  0  0  0
  2  5  1  0  0  0  0
  5  6  2  0  0  0  0
  5  7  1  0  0  0  0
  7  8  1  0  0  0  0
  7  9  1  0  0  0  0
  9 10  1  0  0  0  0
  9 11  1  0  0  0  0
  9 19  1  0  0  0  0
 11 12  1  0  0  0  0
 11 13  1  0  0  0  0
 11 14  1  0  0  0  0
 14 15  2  0  0  0  0
 14 16  1  0  0  0  0
 16 17  1  0  0  0  0
 16 18  1  0  0  0  0
 19 20  2  0  0  0  0
 19 21  1  0  0  0  0
 21 22  1  0  0  0  0
 21 23  1  0  0  0  0
 23 24  1  0  0  0  0
 23 25  1  0  0  0  0
 23 26  1  0  0  0  0
M  END
$$$$

  -OEChem-01062216063D

 26 25  0     1  0  0  0  0  0999 V2000
   -3.0675   -3.2111    1.2108 H   0  0  0  0  0  0  0  0  0  0  0  0
   -2.9781   -2.1668    0.8972 C   0  0  0  0  0  0  0  0  0  0  0  0
   -3.3938   -1.5293    1.6809 H   0  0  0  0  0  0  0  0  0  0  0  0
   -3.5519   -2.0252   -0.0221 H   0  0  0  0  0  0  0  0  0  0  0  0
   -1.5216   -1.8140    0.6572 C   0  0  0  0  0  0  0  0  0  0  0  0
   -0.7055   -2.7132    0.6390 O   0  0  0  0  0  0  0  0  0  0  0  0
   -1.2148   -0.5131    0.3063 N   0  0  0  0  0  0  0  0  0  0  0  0
   -2.0383    0.0582    0.1383 H   0  0  0  0  0  0  0  0  0  0  0  0
    0.0763    0.2186    0.2255 C   0  0  1  0  0  0  0  0  0  0  0  0
    0.3195    0.3115   -0.8395 H   0  0  0  0  0  0  0  0  0  0  0  0
   -0.2409    1.6163    0.8132 C   0  0  0  0  0  0  0  0  0  0  0  0
   -0.7018    1.5037    1.7980 H   0  0  0  0  0  0  0  0  0  0  0  0
    0.6777    2.1948    0.9480 H   0  0  0  0  0  0  0  0  0  0  0  0
   -1.1409    2.4438   -0.0935 C   0  0  0  0  0  0  0  0  0  0  0  0
   -1.0027    2.4900   -1.2996 O   0  0  0  0  0  0  0  0  0  0  0  0
   -2.1955    3.1528    0.4067 N   0  0  0  0  0  0  0  0  0  0  0  0
   -2.6171    3.8105   -0.2441 H   0  0  0  0  0  0  0  0  0  0  0  0
   -2.2087    3.3562    1.4007 H   0  0  0  0  0  0  0  0  0  0  0  0
    1.4235   -0.2594    0.8621 C   0  0  0  0  0  0  0  0  0  0  0  0
    2.4201    0.4184    0.6610 O   0  0  0  0  0  0  0  0  0  0  0  0
    1.7923   -1.4842    1.3583 N   0  0  0  0  0  0  0  0  0  0  0  0
    2.7996   -1.5953    1.2825 H   0  0  0  0  0  0  0  0  0  0  0  0
    1.2441   -1.9258    2.6353 C   0  0  0  0  0  0  0  0  0  0  0  0
    1.9291   -1.6637    3.4477 H   0  0  0  0  0  0  0  0  0  0  0  0
    0.2765   -1.4573    2.8414 H   0  0  0  0  0  0  0  0  0  0  0  0
    1.1087   -3.0120    2.6301 H   0  0  0  0  0  0  0  0  0  0  0  0
  1  2  1  0  0  0  0
  2  3  1  0  0  0  0
  2  4  1  0  0  0  0
  2  5  1  0  0  0  0
  5  6  2  0  0  0  0
  5  7  1  0  0  0  0
  7  8  1  0  0  0  0
  7  9  1  0  0  0  0
  9 10  1  0  0  0  0
  9 11  1  0  0  0  0
  9 19  1  0  0  0  0
 11 12  1  0  0  0  0
 11 13  1  0  0  0  0
 11 14  1  0  0  0  0
 14 15  2  0  0  0  0
 14 16  1  0  0  0  0
 16 17  1  0  0  0  0
 16 18  1  0  0  0  0
 19 20  2  0  0  0  0
 19 21  1  0  0  0  0
 21 22  1  0  0  0  0
 21 23  1  0  0  0  0
 23 24  1  0  0  0  0
 23 25  1  0  0  0  0
 23 26  1  0  0  0  0
M  END
$$$$

  -OEChem-01062216063D

 26 25  0     1  0  0  0  0  0999 V2000
   -3.5785   -2.9364    0.6292 H   0  0  0  0  0  0  0  0  0  0  0  0
   -3.3115   -1.9146    0.3440 C   0  0  0  0  0  0  0  0  0  0  0  0
   -3.9455   -1.2193    0.8994 H   0  0  0  0  0  0  0  0  0  0  0  0
   -3.4956   -1.7902   -0.7260 H   0  0  0  0  0  0  0  0  0  0  0  0
   -1.8499   -1.6460    0.6540 C   0  0  0  0  0  0  0  0  0  0  0  0
   -1.1834   -2.5552    1.1086 O   0  0  0  0  0  0  0  0  0  0  0  0
   -1.3522   -0.3849    0.3752 N   0  0  0  0  0  0  0  0  0  0  0  0
   -2.0377    0.2071   -0.0880 H   0  0  0  0  0  0  0  0  0  0  0  0
   -0.0012    0.2324    0.4903 C   0  0  1  0  0  0  0  0  0  0  0  0
    0.4152    0.2868   -0.5219 H   0  0  0  0  0  0  0  0  0  0  0  0
   -0.3019    1.6696    0.9960 C   0  0  0  0  0  0  0  0  0  0  0  0
   -0.9198    1.6208    1.8967 H   0  0  0  0  0  0  0  0  0  0  0  0
    0.6187    2.1956    1.2614 H   0  0  0  0  0  0  0  0  0  0  0  0
   -0.9763    2.5277   -0.0639 C   0  0  0  0  0  0  0  0  0  0  0  0
   -0.6364    2.5210   -1.2310 O   0  0  0  0  0  0  0  0  0  0  0  0
   -2.0501    3.3161    0.2354 N   0  0  0  0  0  0  0  0  0  0  0  0
   -2.3096    3.9834   -0.4862 H   0  0  0  0  0  0  0  0  0  0  0  0
   -2.2193    3.5430    1.2102 H   0  0  0  0  0  0  0  0  0  0  0  0
    1.1716   -0.3994    1.3163 C   0  0  0  0  0  0  0  0  0  0  0  0
    2.0488    0.3304    1.7643 O   0  0  0  0  0  0  0  0  0  0  0  0
    1.3533   -1.7516    1.5246 N   0  0  0  0  0  0  0  0  0  0  0  0
    0.5718   -2.3567    1.2683 H   0  0  0  0  0  0  0  0  0  0  0  0
    2.4361   -2.3210    2.3177 C   0  0  0  0  0  0  0  0  0  0  0  0
    2.3901   -1.9547    3.3484 H   0  0  0  0  0  0  0  0  0  0  0  0
    2.3563   -3.4121    2.3334 H   0  0  0  0  0  0  0  0  0  0  0  0
    3.4074   -2.0527    1.8895 H   0  0  0  0  0  0  0  0  0  0  0  0
  1  2  1  0  0  0  0
  2  3  1  0  0  0  0
  2  4  1  0  0  0  0
  2  5  1  0  0  0  0
  5  6  2  0  0  0  0
  5  7  1  0  0  0  0
  7  8  1  0  0  0  0
  7  9  1  0  0  0  0
  9 10  1  0  0  0  0
  9 11  1  0  0  0  0
  9 19  1  0  0  0  0
 11 12  1  0  0  0  0
 11 13  1  0  0  0  0
 11 14  1  0  0  0  0
 14 15  2  0  0  0  0
 14 16  1  0  0  0  0
 16 17  1  0  0  0  0
 16 18  1  0  0  0  0
 19 20  2  0  0  0  0
 19 21  1  0  0  0  0
 21 22  1  0  0  0  0
 21 23  1  0  0  0  0
 23 24  1  0  0  0  0
 23 25  1  0  0  0  0
 23 26  1  0  0  0  0
M  END
$$$$

  -OEChem-01062216063D

 26 25  0     1  0  0  0  0  0999 V2000
   -3.5231   -2.9287    0.8293 H   0  0  0  0  0  0  0  0  0  0  0  0
   -3.2891   -1.8995    0.5413 C   0  0  0  0  0  0  0  0  0  0  0  0
   -3.8676   -1.2196    1.1716 H   0  0  0  0  0  0  0  0  0  0  0  0
   -3.5780   -1.7530   -0.5025 H   0  0  0  0  0  0  0  0  0  0  0  0
   -1.8053   -1.6292    0.7127 C   0  0  0  0  0  0  0  0  0  0  0  0
   -1.0911   -2.5401    1.0855 O   0  0  0  0  0  0  0  0  0  0  0  0
   -1.3343   -0.3675    0.3946 N   0  0  0  0  0  0  0  0  0  0  0  0
   -2.0525    0.2344   -0.0004 H   0  0  0  0  0  0  0  0  0  0  0  0
    0.0204    0.2454    0.4508 C   0  0  1  0  0  0  0  0  0  0  0  0
    0.4060    0.2763   -0.5743 H   0  0  0  0  0  0  0  0  0  0  0  0
   -0.2363    1.6974    0.9340 C   0  0  0  0  0  0  0  0  0  0  0  0
   -0.8180    1.6803    1.8596 H   0  0  0  0  0  0  0  0  0  0  0  0
    0.7060    2.2083    1.1482 H   0  0  0  0  0  0  0  0  0  0  0  0
   -0.9360    2.5435   -0.1190 C   0  0  0  0  0  0  0  0  0  0  0  0
   -0.6398    2.5039   -1.2974 O   0  0  0  0  0  0  0  0  0  0  0  0
   -1.9849    3.3567    0.2013 N   0  0  0  0  0  0  0  0  0  0  0  0
   -2.2614    4.0113   -0.5256 H   0  0  0  0  0  0  0  0  0  0  0  0
   -2.1141    3.6086    1.1761 H   0  0  0  0  0  0  0  0  0  0  0  0
    1.1944   -0.4132    1.2509 C   0  0  0  0  0  0  0  0  0  0  0  0
    1.9565    0.2853    1.9103 O   0  0  0  0  0  0  0  0  0  0  0  0
    1.4875   -1.7616    1.1944 N   0  0  0  0  0  0  0  0  0  0  0  0
    0.7201   -2.3553    0.8736 H   0  0  0  0  0  0  0  0  0  0  0  0
    2.5404   -2.3888    1.9845 C   0  0  0  0  0  0  0  0  0  0  0  0
    2.3315   -2.2833    3.0540 H   0  0  0  0  0  0  0  0  0  0  0  0
    2.6039   -3.4548    1.7461 H   0  0  0  0  0  0  0  0  0  0  0  0
    3.5106   -1.9303    1.7667 H   0  0  0  0  0  0  0  0  0  0  0  0
  1  2  1  0  0  0  0
  2  3  1  0  0  0  0
  2  4  1  0  0  0  0
  2  5  1  0  0  0  0
  5  6  2  0  0  0  0
  5  7  1  0  0  0  0
  7  8  1  0  0  0  0
  7  9  1  0  0  0  0
  9 10  1  0  0  0  0
  9 11  1  0  0  0  0
  9 19  1  0  0  0  0
 11 12  1  0  0  0  0
 11 13  1  0  0  0  0
 11 14  1  0  0  0  0
 14 15  2  0  0  0  0
 14 16  1  0  0  0  0
 16 17  1  0  0  0  0
 16 18  1  0  0  0  0
 19 20  2  0  0  0  0
 19 21  1  0  0  0  0
 21 22  1  0  0  0  0
 21 23  1  0  0  0  0
 23 24  1  0  0  0  0
 23 25  1  0  0  0  0
 23 26  1  0  0  0  0
M  END
$$$$

  -OEChem-01062216063D

 26 25  0     1  0  0  0  0  0999 V2000
   -3.3725   -2.9984    0.9343 H   0  0  0  0  0  0  0  0  0  0  0  0
   -3.1950   -1.9661    0.6185 C   0  0  0  0  0  0  0  0  0  0  0  0
   -3.7592   -1.2981    1.2740 H   0  0  0  0  0  0  0  0  0  0  0  0
   -3.5517   -1.8463   -0.4076 H   0  0  0  0  0  0  0  0  0  0  0  0
   -1.7142   -1.6408    0.6948 C   0  0  0  0  0  0  0  0  0  0  0  0
   -0.9349   -2.5327    0.9747 O   0  0  0  0  0  0  0  0  0  0  0  0
   -1.3035   -0.3613    0.3649 N   0  0  0  0  0  0  0  0  0  0  0  0
   -2.0563    0.2373    0.0354 H   0  0  0  0  0  0  0  0  0  0  0  0
    0.0355    0.2798    0.4256 C   0  0  1  0  0  0  0  0  0  0  0  0
    0.4328    0.3170   -0.5949 H   0  0  0  0  0  0  0  0  0  0  0  0
   -0.2228    1.7275    0.9127 C   0  0  0  0  0  0  0  0  0  0  0  0
   -0.8005    1.7061    1.8407 H   0  0  0  0  0  0  0  0  0  0  0  0
    0.7243    2.2319    1.1252 H   0  0  0  0  0  0  0  0  0  0  0  0
   -0.9290    2.5763   -0.1331 C   0  0  0  0  0  0  0  0  0  0  0  0
   -0.6374    2.5416   -1.3129 O   0  0  0  0  0  0  0  0  0  0  0  0
   -1.9744    3.3900    0.1974 N   0  0  0  0  0  0  0  0  0  0  0  0
   -2.2552    4.0482   -0.5245 H   0  0  0  0  0  0  0  0  0  0  0  0
   -2.0988    3.6356    1.1744 H   0  0  0  0  0  0  0  0  0  0  0  0
    1.1836   -0.3887    1.2473 C   0  0  0  0  0  0  0  0  0  0  0  0
    1.7751    0.2412    2.1181 O   0  0  0  0  0  0  0  0  0  0  0  0
    1.6427   -1.6582    0.9520 N   0  0  0  0  0  0  0  0  0  0  0  0
    0.9401   -2.2551    0.5115 H   0  0  0  0  0  0  0  0  0  0  0  0
    2.6735   -2.3227    1.7409 C   0  0  0  0  0  0  0  0  0  0  0  0
    2.3374   -2.4570    2.7744 H   0  0  0  0  0  0  0  0  0  0  0  0
    2.8960   -3.3063    1.3163 H   0  0  0  0  0  0  0  0  0  0  0  0
    3.5964   -1.7334    1.7432 H   0  0  0  0  0  0  0  0  0  0  0  0
  1  2  1  0  0  0  0
  2  3  1  0  0  0  0
  2  4  1  0  0  0  0
  2  5  1  0  0  0  0
  5  6  2  0  0  0  0
  5  7  1  0  0  0  0
  7  8  1  0  0  0  0
  7  9  1  0  0  0  0
  9 10  1  0  0  0  0
  9 11  1  0  0  0  0
  9 19  1  0  0  0  0
 11 12  1  0  0  0  0
 11 13  1  0  0  0  0
 11 14  1  0  0  0  0
 14 15  2  0  0  0  0
 14 16  1  0  0  0  0
 16 17  1  0  0  0  0
 16 18  1  0  0  0  0
 19 20  2  0  0  0  0
 19 21  1  0  0  0  0
 21 22  1  0  0  0  0
 21 23  1  0  0  0  0
 23 24  1  0  0  0  0
 23 25  1  0  0  0  0
 23 26  1  0  0  0  0
M  END
$$$$

  -OEChem-01062216063D

 26 25  0     1  0  0  0  0  0999 V2000
   -3.2241   -3.0525    1.0286 H   0  0  0  0  0  0  0  0  0  0  0  0
   -3.1012   -2.0225    0.6816 C   0  0  0  0  0  0  0  0  0  0  0  0
   -3.6521   -1.3595    1.3531 H   0  0  0  0  0  0  0  0  0  0  0  0
   -3.5166   -1.9381   -0.3256 H   0  0  0  0  0  0  0  0  0  0  0  0
   -1.6314   -1.6456    0.6696 C   0  0  0  0  0  0  0  0  0  0  0  0
   -0.7989   -2.5122    0.8682 O   0  0  0  0  0  0  0  0  0  0  0  0
   -1.2794   -0.3522    0.3270 N   0  0  0  0  0  0  0  0  0  0  0  0
   -2.0615    0.2419    0.0653 H   0  0  0  0  0  0  0  0  0  0  0  0
    0.0446    0.3108    0.4019 C   0  0  1  0  0  0  0  0  0  0  0  0
    0.4596    0.3574   -0.6113 H   0  0  0  0  0  0  0  0  0  0  0  0
   -0.2157    1.7522    0.8987 C   0  0  0  0  0  0  0  0  0  0  0  0
   -0.7981    1.7232    1.8237 H   0  0  0  0  0  0  0  0  0  0  0  0
    0.7343    2.2464    1.1231 H   0  0  0  0  0  0  0  0  0  0  0  0
   -0.9211    2.6084   -0.1411 C   0  0  0  0  0  0  0  0  0  0  0  0
   -0.6263    2.5822   -1.3204 O   0  0  0  0  0  0  0  0  0  0  0  0
   -1.9685    3.4183    0.1925 N   0  0  0  0  0  0  0  0  0  0  0  0
   -2.2522    4.0782   -0.5269 H   0  0  0  0  0  0  0  0  0  0  0  0
   -2.0969    3.6571    1.1707 H   0  0  0  0  0  0  0  0  0  0  0  0
    1.1586   -0.3687    1.2523 C   0  0  0  0  0  0  0  0  0  0  0  0
    1.5549    0.1489    2.2918 O   0  0  0  0  0  0  0  0  0  0  0  0
    1.8121   -1.4917    0.7806 N   0  0  0  0  0  0  0  0  0  0  0  0
    1.2392   -2.0640    0.1611 H   0  0  0  0  0  0  0  0  0  0  0  0
    2.8252   -2.1844    1.5673 C   0  0  0  0  0  0  0  0  0  0  0  0
    2.3937   -2.5600    2.5009 H   0  0  0  0  0  0  0  0  0  0  0  0
    3.2255   -3.0319    1.0030 H   0  0  0  0  0  0  0  0  0  0  0  0
    3.6539   -1.5099    1.8072 H   0  0  0  0  0  0  0  0  0  0  0  0
  1  2  1  0  0  0  0
  2  3  1  0  0  0  0
  2  4  1  0  0  0  0
  2  5  1  0  0  0  0
  5  6  2  0  0  0  0
  5  7  1  0  0  0  0
  7  8  1  0  0  0  0
  7  9  1  0  0  0  0
  9 10  1  0  0  0  0
  9 11  1  0  0  0  0
  9 19  1  0  0  0  0
 11 12  1  0  0  0  0
 11 13  1  0  0  0  0
 11 14  1  0  0  0  0
 14 15  2  0  0  0  0
 14 16  1  0  0  0  0
 16 17  1  0  0  0  0
 16 18  1  0  0  0  0
 19 20  2  0  0  0  0
 19 21  1  0  0  0  0
 21 22  1  0  0  0  0
 21 23  1  0  0  0  0
 23 24  1  0  0  0  0
 23 25  1  0  0  0  0
 23 26  1  0  0  0  0
M  END
$$$$

  -OEChem-01062216063D

 26 25  0     1  0  0  0  0  0999 V2000
   -3.1123   -3.0974    1.0777 H   0  0  0  0  0  0  0  0  0  0  0  0
   -3.0314   -2.0647    0.7263 C   0  0  0  0  0  0  0  0  0  0  0  0
   -3.5724   -1.4161    1.4197 H   0  0  0  0  0  0  0  0  0  0  0  0
   -3.4883   -1.9921   -0.2637 H   0  0  0  0  0  0  0  0  0  0  0  0
   -1.5740   -1.6486    0.6560 C   0  0  0  0  0  0  0  0  0  0  0  0
   -0.7085   -2.4925    0.8117 O   0  0  0  0  0  0  0  0  0  0  0  0
   -1.2665   -0.3479    0.2975 N   0  0  0  0  0  0  0  0  0  0  0  0
   -2.0685    0.2395    0.0872 H   0  0  0  0  0  0  0  0  0  0  0  0
    0.0464    0.3313    0.3790 C   0  0  1  0  0  0  0  0  0  0  0  0
    0.4699    0.3834   -0.6301 H   0  0  0  0  0  0  0  0  0  0  0  0
   -0.2130    1.7678    0.8847 C   0  0  0  0  0  0  0  0  0  0  0  0
   -0.7978    1.7318    1.8082 H   0  0  0  0  0  0  0  0  0  0  0  0
    0.7390    2.2545    1.1170 H   0  0  0  0  0  0  0  0  0  0  0  0
   -0.9210    2.6298   -0.1484 C   0  0  0  0  0  0  0  0  0  0  0  0
   -0.6273    2.6096   -1.3281 O   0  0  0  0  0  0  0  0  0  0  0  0
   -1.9633    3.4430    0.1928 N   0  0  0  0  0  0  0  0  0  0  0  0
   -2.2503    4.1054   -0.5227 H   0  0  0  0  0  0  0  0  0  0  0  0
   -2.0919    3.6746    1.1727 H   0  0  0  0  0  0  0  0  0  0  0  0
    1.1377   -0.3493    1.2505 C   0  0  0  0  0  0  0  0  0  0  0  0
    1.3305    0.0201    2.4046 O   0  0  0  0  0  0  0  0  0  0  0  0
    2.0004   -1.2693    0.6836 N   0  0  0  0  0  0  0  0  0  0  0  0
    1.6359   -1.7376   -0.1423 H   0  0  0  0  0  0  0  0  0  0  0  0
    2.9914   -1.9870    1.4756 C   0  0  0  0  0  0  0  0  0  0  0  0
    2.5002   -2.5865    2.2492 H   0  0  0  0  0  0  0  0  0  0  0  0
    3.5741   -2.6554    0.8347 H   0  0  0  0  0  0  0  0  0  0  0  0
    3.6807   -1.2854    1.9570 H   0  0  0  0  0  0  0  0  0  0  0  0
  1  2  1  0  0  0  0
  2  3  1  0  0  0  0
  2  4  1  0  0  0  0
  2  5  1  0  0  0  0
  5  6  2  0  0  0  0
  5  7  1  0  0  0  0
  7  8  1  0  0  0  0
  7  9  1  0  0  0  0
  9 10  1  0  0  0  0
  9 11  1  0  0  0  0
  9 19  1  0  0  0  0
 11 12  1  0  0  0  0
 11 13  1  0  0  0  0
 11 14  1  0  0  0  0
 14 15  2  0  0  0  0
 14 16  1  0  0  0  0
 16 17  1  0  0  0  0
 16 18  1  0  0  0  0
 19 20  2  0  0  0  0
 19 21  1  0  0  0  0
 21 22  1  0  0  0  0
 21 23  1  0  0  0  0
 23 24  1  0  0  0  0
 23 25  1  0  0  0  0
 23 26  1  0  0  0  0
M  END
$$$$

  -OEChem-01062216063D

 26 25  0     1  0  0  0  0  0999 V2000
   -3.0537   -3.1293    1.0897 H   0  0  0  0  0  0  0  0  0  0  0  0
   -2.9983   -2.0892    0.7559 C   0  0  0  0  0  0  0  0  0  0  0  0
   -3.5172   -1.4604    1.4832 H   0  0  0  0  0  0  0  0  0  0  0  0
   -3.4957   -2.0028   -0.2132 H   0  0  0  0  0  0  0  0  0  0  0  0
   -1.5494   -1.6556    0.6350 C   0  0  0  0  0  0  0  0  0  0  0  0
   -0.6681   -2.4912    0.7454 O   0  0  0  0  0  0  0  0  0  0  0  0
   -1.2666   -0.3516    0.2669 N   0  0  0  0  0  0  0  0  0  0  0  0
   -2.0796    0.2355    0.1047 H   0  0  0  0  0  0  0  0  0  0  0  0
    0.0409    0.3346    0.3589 C   0  0  1  0  0  0  0  0  0  0  0  0
    0.4711    0.3899   -0.6468 H   0  0  0  0  0  0  0  0  0  0  0  0
   -0.2152    1.7667    0.8735 C   0  0  0  0  0  0  0  0  0  0  0  0
   -0.8039    1.7255    1.7944 H   0  0  0  0  0  0  0  0  0  0  0  0
    0.7384    2.2458    1.1143 H   0  0  0  0  0  0  0  0  0  0  0  0
   -0.9192    2.6387   -0.1536 C   0  0  0  0  0  0  0  0  0  0  0  0
   -0.6230    2.6261   -1.3328 O   0  0  0  0  0  0  0  0  0  0  0  0
   -1.9529    3.4598    0.1949 N   0  0  0  0  0  0  0  0  0  0  0  0
   -2.2352    4.1304   -0.5149 H   0  0  0  0  0  0  0  0  0  0  0  0
   -2.0802    3.6829    1.1770 H   0  0  0  0  0  0  0  0  0  0  0  0
    1.1172   -0.3435    1.2476 C   0  0  0  0  0  0  0  0  0  0  0  0
    1.1264   -0.1423    2.4580 O   0  0  0  0  0  0  0  0  0  0  0  0
    2.1749   -1.0184    0.6657 N   0  0  0  0  0  0  0  0  0  0  0  0
    2.0262   -1.3277   -0.2905 H   0  0  0  0  0  0  0  0  0  0  0  0
    3.1733   -1.7244    1.4592 C   0  0  0  0  0  0  0  0  0  0  0  0
    2.7002   -2.5146    2.0519 H   0  0  0  0  0  0  0  0  0  0  0  0
    3.9220   -2.1807    0.8049 H   0  0  0  0  0  0  0  0  0  0  0  0
    3.6852   -1.0334    2.1370 H   0  0  0  0  0  0  0  0  0  0  0  0
  1  2  1  0  0  0  0
  2  3  1  0  0  0  0
  2  4  1  0  0  0  0
  2  5  1  0  0  0  0
  5  6  2  0  0  0  0
  5  7  1  0  0  0  0
  7  8  1  0  0  0  0
  7  9  1  0  0  0  0
  9 10  1  0  0  0  0
  9 11  1  0  0  0  0
  9 19  1  0  0  0  0
 11 12  1  0  0  0  0
 11 13  1  0  0  0  0
 11 14  1  0  0  0  0
 14 15  2  0  0  0  0
 14 16  1  0  0  0  0
 16 17  1  0  0  0  0
 16 18  1  0  0  0  0
 19 20  2  0  0  0  0
 19 21  1  0  0  0  0
 21 22  1  0  0  0  0
 21 23  1  0  0  0  0
 23 24  1  0  0  0  0
 23 25  1  0  0  0  0
 23 26  1  0  0  0  0
M  END
$$$$

  -OEChem-01062216063D

 26 25  0     1  0  0  0  0  0999 V2000
   -3.0285   -3.1510    1.0816 H   0  0  0  0  0  0  0  0  0  0  0  0
   -2.9863   -2.1003    0.7803 C   0  0  0  0  0  0  0  0  0  0  0  0
   -3.4588   -1.4941    1.5569 H   0  0  0  0  0  0  0  0  0  0  0  0
   -3.5378   -1.9796   -0.1552 H   0  0  0  0  0  0  0  0  0  0  0  0
   -1.5437   -1.6688    0.5929 C   0  0  0  0  0  0  0  0  0  0  0  0
   -0.6604   -2.5089    0.6387 O   0  0  0  0  0  0  0  0  0  0  0  0
   -1.2718   -0.3619    0.2264 N   0  0  0  0  0  0  0  0  0  0  0  0
   -2.0892    0.2306    0.1175 H   0  0  0  0  0  0  0  0  0  0  0  0
    0.0342    0.3234    0.3393 C   0  0  1  0  0  0  0  0  0  0  0  0
    0.4747    0.3831   -0.6617 H   0  0  0  0  0  0  0  0  0  0  0  0
   -0.2178    1.7503    0.8680 C   0  0  0  0  0  0  0  0  0  0  0  0
   -0.8158    1.7002    1.7825 H   0  0  0  0  0  0  0  0  0  0  0  0
    0.7359    2.2206    1.1251 H   0  0  0  0  0  0  0  0  0  0  0  0
   -0.9084    2.6391   -0.1538 C   0  0  0  0  0  0  0  0  0  0  0  0
   -0.6018    2.6379   -1.3303 O   0  0  0  0  0  0  0  0  0  0  0  0
   -1.9329    3.4706    0.1975 N   0  0  0  0  0  0  0  0  0  0  0  0
   -2.2050    4.1512   -0.5067 H   0  0  0  0  0  0  0  0  0  0  0  0
   -2.0690    3.6811    1.1811 H   0  0  0  0  0  0  0  0  0  0  0  0
    1.0949   -0.3562    1.2427 C   0  0  0  0  0  0  0  0  0  0  0  0
    0.9543   -0.3329    2.4613 O   0  0  0  0  0  0  0  0  0  0  0  0
    2.3074   -0.7584    0.7123 N   0  0  0  0  0  0  0  0  0  0  0  0
    2.3393   -0.8848   -0.2950 H   0  0  0  0  0  0  0  0  0  0  0  0
    3.3348   -1.4061    1.5187 C   0  0  0  0  0  0  0  0  0  0  0  0
    2.9536   -2.3402    1.9450 H   0  0  0  0  0  0  0  0  0  0  0  0
    4.2092   -1.6363    0.9025 H   0  0  0  0  0  0  0  0  0  0  0  0
    3.6527   -0.7499    2.3356 H   0  0  0  0  0  0  0  0  0  0  0  0
  1  2  1  0  0  0  0
  2  3  1  0  0  0  0
  2  4  1  0  0  0  0
  2  5  1  0  0  0  0
  5  6  2  0  0  0  0
  5  7  1  0  0  0  0
  7  8  1  0  0  0  0
  7  9  1  0  0  0  0
  9 10  1  0  0  0  0
  9 11  1  0  0  0  0
  9 19  1  0  0  0  0
 11 12  1  0  0  0  0
 11 13  1  0  0  0  0
 11 14  1  0  0  0  0
 14 15  2  0  0  0  0
 14 16  1  0  0  0  0
 16 17  1  0  0  0  0
 16 18  1  0  0  0  0
 19 20  2  0  0  0  0
 19 21  1  0  0  0  0
 21 22  1  0  0  0  0
 21 23  1  0  0  0  0
 23 24  1  0  0  0  0
 23 25  1  0  0  0  0
 23 26  1  0  0  0  0
M  END
$$$$

  -OEChem-01062216063D

 26 25  0     1  0  0  0  0  0999 V2000
   -3.0245   -3.1547    1.0639 H   0  0  0  0  0  0  0  0  0  0  0  0
   -2.9817   -2.0944    0.7992 C   0  0  0  0  0  0  0  0  0  0  0  0
   -3.3980   -1.5109    1.6236 H   0  0  0  0  0  0  0  0  0  0  0  0
   -3.5835   -1.9298   -0.0977 H   0  0  0  0  0  0  0  0  0  0  0  0
   -1.5448   -1.6780    0.5449 C   0  0  0  0  0  0  0  0  0  0  0  0
   -0.6708   -2.5290    0.5167 O   0  0  0  0  0  0  0  0  0  0  0  0
   -1.2736   -0.3690    0.1865 N   0  0  0  0  0  0  0  0  0  0  0  0
   -2.0897    0.2327    0.1374 H   0  0  0  0  0  0  0  0  0  0  0  0
    0.0352    0.3067    0.3217 C   0  0  1  0  0  0  0  0  0  0  0  0
    0.4854    0.3718   -0.6746 H   0  0  0  0  0  0  0  0  0  0  0  0
   -0.2161    1.7264    0.8672 C   0  0  0  0  0  0  0  0  0  0  0  0
   -0.8236    1.6655    1.7747 H   0  0  0  0  0  0  0  0  0  0  0  0
    0.7366    2.1894    1.1408 H   0  0  0  0  0  0  0  0  0  0  0  0
   -0.8921    2.6326   -0.1496 C   0  0  0  0  0  0  0  0  0  0  0  0
   -0.5719    2.6456   -1.3225 O   0  0  0  0  0  0  0  0  0  0  0  0
   -1.9209    3.4593    0.2004 N   0  0  0  0  0  0  0  0  0  0  0  0
   -2.1881    4.1472   -0.4987 H   0  0  0  0  0  0  0  0  0  0  0  0
   -2.0736    3.6543    1.1847 H   0  0  0  0  0  0  0  0  0  0  0  0
    1.0842   -0.3786    1.2335 C   0  0  0  0  0  0  0  0  0  0  0  0
    0.8340   -0.5333    2.4245 O   0  0  0  0  0  0  0  0  0  0  0  0
    2.3959   -0.4999    0.8099 N   0  0  0  0  0  0  0  0  0  0  0  0
    2.5656   -0.4210   -0.1883 H   0  0  0  0  0  0  0  0  0  0  0  0
    3.4437   -1.0696    1.6484 C   0  0  0  0  0  0  0  0  0  0  0  0
    3.1890   -2.0958    1.9332 H   0  0  0  0  0  0  0  0  0  0  0  0
    4.3947   -1.0848    1.1073 H   0  0  0  0  0  0  0  0  0  0  0  0
    3.5748   -0.4736    2.5576 H   0  0  0  0  0  0  0  0  0  0  0  0
  1  2  1  0  0  0  0
  2  3  1  0  0  0  0
  2  4  1  0  0  0  0
  2  5  1  0  0  0  0
  5  6  2  0  0  0  0
  5  7  1  0  0  0  0
  7  8  1  0  0  0  0
  7  9  1  0  0  0  0
  9 10  1  0  0  0  0
  9 11  1  0  0  0  0
  9 19  1  0  0  0  0
 11 12  1  0  0  0  0
 11 13  1  0  0  0  0
 11 14  1  0  0  0  0
 14 15  2  0  0  0  0
 14 16  1  0  0  0  0
 16 17  1  0  0  0  0
 16 18  1  0  0  0  0
 19 20  2  0  0  0  0
 19 21  1  0  0  0  0
 21 22  1  0  0  0  0
 21 23  1  0  0  0  0
 23 24  1  0  0  0  0
 23 25  1  0  0  0  0
 23 26  1  0  0  0  0
M  END
$$$$

  -OEChem-01062216063D

 26 25  0     1  0  0  0  0  0999 V2000
   -3.0191   -3.1596    1.0530 H   0  0  0  0  0  0  0  0  0  0  0  0
   -2.9770   -2.0936    0.8121 C   0  0  0  0  0  0  0  0  0  0  0  0
   -3.3485   -1.5260    1.6685 H   0  0  0  0  0  0  0  0  0  0  0  0
   -3.6167   -1.9015   -0.0524 H   0  0  0  0  0  0  0  0  0  0  0  0
   -1.5488   -1.6859    0.5024 C   0  0  0  0  0  0  0  0  0  0  0  0
   -0.6896   -2.5457    0.3928 O   0  0  0  0  0  0  0  0  0  0  0  0
   -1.2756   -0.3741    0.1568 N   0  0  0  0  0  0  0  0  0  0  0  0
   -2.0875    0.2347    0.1593 H   0  0  0  0  0  0  0  0  0  0  0  0
    0.0381    0.2888    0.3109 C   0  0  1  0  0  0  0  0  0  0  0  0
    0.4956    0.3584   -0.6816 H   0  0  0  0  0  0  0  0  0  0  0  0
   -0.2119    1.7030    0.8716 C   0  0  0  0  0  0  0  0  0  0  0  0
   -0.8291    1.6335    1.7720 H   0  0  0  0  0  0  0  0  0  0  0  0
    0.7389    2.1600    1.1605 H   0  0  0  0  0  0  0  0  0  0  0  0
   -0.8734    2.6244   -0.1410 C   0  0  0  0  0  0  0  0  0  0  0  0
   -0.5403    2.6491   -1.3099 O   0  0  0  0  0  0  0  0  0  0  0  0
   -1.9026    3.4513    0.2071 N   0  0  0  0  0  0  0  0  0  0  0  0
   -2.1633    4.1446   -0.4890 H   0  0  0  0  0  0  0  0  0  0  0  0
   -2.0670    3.6366    1.1913 H   0  0  0  0  0  0  0  0  0  0  0  0
    1.0829   -0.4034    1.2228 C   0  0  0  0  0  0  0  0  0  0  0  0
    0.7641   -0.7312    2.3610 O   0  0  0  0  0  0  0  0  0  0  0  0
    2.4309   -0.2486    0.9487 N   0  0  0  0  0  0  0  0  0  0  0  0
    2.6822    0.0230    0.0027 H   0  0  0  0  0  0  0  0  0  0  0  0
    3.4810   -0.7381    1.8343 C   0  0  0  0  0  0  0  0  0  0  0  0
    3.3745   -1.8161    1.9961 H   0  0  0  0  0  0  0  0  0  0  0  0
    4.4648   -0.5495    1.3943 H   0  0  0  0  0  0  0  0  0  0  0  0
    3.4334   -0.2305    2.8033 H   0  0  0  0  0  0  0  0  0  0  0  0
  1  2  1  0  0  0  0
  2  3  1  0  0  0  0
  2  4  1  0  0  0  0
  2  5  1  0  0  0  0
  5  6  2  0  0  0  0
  5  7  1  0  0  0  0
  7  8  1  0  0  0  0
  7  9  1  0  0  0  0
  9 10  1  0  0  0  0
  9 11  1  0  0  0  0
  9 19  1  0  0  0  0
 11 12  1  0  0  0  0
 11 13  1  0  0  0  0
 11 14  1  0  0  0  0
 14 15  2  0  0  0  0
 14 16  1  0  0  0  0
 16 17  1  0  0  0  0
 16 18  1  0  0  0  0
 19 20  2  0  0  0  0
 19 21  1  0  0  0  0
 21 22  1  0  0  0  0
 21 23  1  0  0  0  0
 23 24  1  0  0  0  0
 23 25  1  0  0  0  0
 23 26  1  0  0  0  0
M  END
$$$$

  -OEChem-01062216063D

 26 25  0     1  0  0  0  0  0999 V2000
   -3.0255   -3.1448    1.0444 H   0  0  0  0  0  0  0  0  0  0  0  0
   -2.9714   -2.0729    0.8344 C   0  0  0  0  0  0  0  0  0  0  0  0
   -3.2826   -1.5249    1.7270 H   0  0  0  0  0  0  0  0  0  0  0  0
   -3.6521   -1.8393    0.0124 H   0  0  0  0  0  0  0  0  0  0  0  0
   -1.5525   -1.6870    0.4614 C   0  0  0  0  0  0  0  0  0  0  0  0
   -0.7206   -2.5598    0.2726 O   0  0  0  0  0  0  0  0  0  0  0  0
   -1.2677   -0.3750    0.1279 N   0  0  0  0  0  0  0  0  0  0  0  0
   -2.0717    0.2424    0.1715 H   0  0  0  0  0  0  0  0  0  0  0  0
    0.0532    0.2720    0.2958 C   0  0  1  0  0  0  0  0  0  0  0  0
    0.5156    0.3497   -0.6941 H   0  0  0  0  0  0  0  0  0  0  0  0
   -0.2070    1.6798    0.8723 C   0  0  0  0  0  0  0  0  0  0  0  0
   -0.8327    1.5965    1.7655 H   0  0  0  0  0  0  0  0  0  0  0  0
    0.7365    2.1409    1.1776 H   0  0  0  0  0  0  0  0  0  0  0  0
   -0.8610    2.6126   -0.1349 C   0  0  0  0  0  0  0  0  0  0  0  0
   -0.5158    2.6532   -1.2997 O   0  0  0  0  0  0  0  0  0  0  0  0
   -1.9008    3.4264    0.2133 N   0  0  0  0  0  0  0  0  0  0  0  0
   -2.1636    4.1248   -0.4771 H   0  0  0  0  0  0  0  0  0  0  0  0
   -2.0816    3.5947    1.1977 H   0  0  0  0  0  0  0  0  0  0  0  0
    1.1003   -0.4244    1.2058 C   0  0  0  0  0  0  0  0  0  0  0  0
    0.7462   -0.9281    2.2663 O   0  0  0  0  0  0  0  0  0  0  0  0
    2.4232   -0.0218    1.1233 N   0  0  0  0  0  0  0  0  0  0  0  0
    2.7165    0.4295    0.2617 H   0  0  0  0  0  0  0  0  0  0  0  0
    3.4485   -0.4472    2.0698 C   0  0  0  0  0  0  0  0  0  0  0  0
    3.5072   -1.5403    2.1059 H   0  0  0  0  0  0  0  0  0  0  0  0
    4.4258   -0.0581    1.7688 H   0  0  0  0  0  0  0  0  0  0  0  0
    3.2223   -0.0729    3.0738 H   0  0  0  0  0  0  0  0  0  0  0  0
  1  2  1  0  0  0  0
  2  3  1  0  0  0  0
  2  4  1  0  0  0  0
  2  5  1  0  0  0  0
  5  6  2  0  0  0  0
  5  7  1  0  0  0  0
  7  8  1  0  0  0  0
  7  9  1  0  0  0  0
  9 10  1  0  0  0  0
  9 11  1  0  0  0  0
  9 19  1  0  0  0  0
 11 12  1  0  0  0  0
 11 13  1  0  0  0  0
 11 14  1  0  0  0  0
 14 15  2  0  0  0  0
 14 16  1  0  0  0  0
 16 17  1  0  0  0  0
 16 18  1  0  0  0  0
 19 20  2  0  0  0  0
 19 21  1  0  0  0  0
 21 22  1  0  0  0  0
 21 23  1  0  0  0  0
 23 24  1  0  0  0  0
 23 25  1  0  0  0  0
 23 26  1  0  0  0  0
M  END
$$$$

  -OEChem-01062216063D

 26 25  0     1  0  0  0  0  0999 V2000
   -3.1456   -3.0166    1.1259 H   0  0  0  0  0  0  0  0  0  0  0  0
   -3.0182   -1.9482    0.9293 C   0  0  0  0  0  0  0  0  0  0  0  0
   -3.1896   -1.3991    1.8580 H   0  0  0  0  0  0  0  0  0  0  0  0
   -3.7540   -1.6357    0.1846 H   0  0  0  0  0  0  0  0  0  0  0  0
   -1.6149   -1.6775    0.4197 C   0  0  0  0  0  0  0  0  0  0  0  0
   -0.9333   -2.6130    0.0380 O   0  0  0  0  0  0  0  0  0  0  0  0
   -1.2491   -0.3813    0.1056 N   0  0  0  0  0  0  0  0  0  0  0  0
   -2.0217    0.2726    0.1774 H   0  0  0  0  0  0  0  0  0  0  0  0
    0.0934    0.2284    0.2699 C   0  0  1  0  0  0  0  0  0  0  0  0
    0.4321    0.5491   -0.7210 H   0  0  0  0  0  0  0  0  0  0  0  0
   -0.1373    1.4584    1.1818 C   0  0  0  0  0  0  0  0  0  0  0  0
   -0.6715    1.1448    2.0832 H   0  0  0  0  0  0  0  0  0  0  0  0
    0.8145    1.8871    1.5045 H   0  0  0  0  0  0  0  0  0  0  0  0
   -0.9042    2.5701    0.4825 C   0  0  0  0  0  0  0  0  0  0  0  0
   -0.6735    2.8897   -0.6670 O   0  0  0  0  0  0  0  0  0  0  0  0
   -1.9285    3.2312    1.0975 N   0  0  0  0  0  0  0  0  0  0  0  0
   -2.2746    4.0558    0.6138 H   0  0  0  0  0  0  0  0  0  0  0  0
   -2.0214    3.1604    2.1058 H   0  0  0  0  0  0  0  0  0  0  0  0
    1.2789   -0.5936    0.8587 C   0  0  0  0  0  0  0  0  0  0  0  0
    1.0897   -1.4936    1.6653 O   0  0  0  0  0  0  0  0  0  0  0  0
    2.5111    0.0337    0.9754 N   0  0  0  0  0  0  0  0  0  0  0  0
    2.6854    0.8251    0.3630 H   0  0  0  0  0  0  0  0  0  0  0  0
    3.6349   -0.5241    1.7220 C   0  0  0  0  0  0  0  0  0  0  0  0
    3.8832   -1.5242    1.3507 H   0  0  0  0  0  0  0  0  0  0  0  0
    4.5164    0.1147    1.6116 H   0  0  0  0  0  0  0  0  0  0  0  0
    3.3915   -0.5942    2.7874 H   0  0  0  0  0  0  0  0  0  0  0  0
  1  2  1  0  0  0  0
  2  3  1  0  0  0  0
  2  4  1  0  0  0  0
  2  5  1  0  0  0  0
  5  6  2  0  0  0  0
  5  7  1  0  0  0  0
  7  8  1  0  0  0  0
  7  9  1  0  0  0  0
  9 10  1  0  0  0  0
  9 11  1  0  0  0  0
  9 19  1  0  0  0  0
 11 12  1  0  0  0  0
 11 13  1  0  0  0  0
 11 14  1  0  0  0  0
 14 15  2  0  0  0  0
 14 16  1  0  0  0  0
 16 17  1  0  0  0  0
 16 18  1  0  0  0  0
 19 20  2  0  0  0  0
 19 21  1  0  0  0  0
 21 22  1  0  0  0  0
 21 23  1  0  0  0  0
 23 24  1  0  0  0  0
 23 25  1  0  0  0  0
 23 26  1  0  0  0  0
M  END
$$$$

  -OEChem-01062216063D

 26 25  0     1  0  0  0  0  0999 V2000
   -2.9501   -3.1781    1.0320 H   0  0  0  0  0  0  0  0  0  0  0  0
   -2.8000   -2.2496    0.4742 C   0  0  0  0  0  0  0  0  0  0  0  0
   -3.7510   -1.7154    0.4120 H   0  0  0  0  0  0  0  0  0  0  0  0
   -2.4604   -2.4991   -0.5339 H   0  0  0  0  0  0  0  0  0  0  0  0
   -1.7622   -1.3893    1.1702 C   0  0  0  0  0  0  0  0  0  0  0  0
   -1.4399   -1.6387    2.3208 O   0  0  0  0  0  0  0  0  0  0  0  0
   -1.4160   -0.1605    0.6409 N   0  0  0  0  0  0  0  0  0  0  0  0
   -1.9563    0.0540   -0.1930 H   0  0  0  0  0  0  0  0  0  0  0  0
   -0.0308    0.3631    0.5784 C   0  0  1  0  0  0  0  0  0  0  0  0
    0.2312    0.5491   -0.4689 H   0  0  0  0  0  0  0  0  0  0  0  0
   -0.1131    1.7027    1.3474 C   0  0  0  0  0  0  0  0  0  0  0  0
   -0.5680    1.5320    2.3279 H   0  0  0  0  0  0  0  0  0  0  0  0
    0.8793    2.1246    1.5148 H   0  0  0  0  0  0  0  0  0  0  0  0
   -0.9061    2.7512    0.5804 C   0  0  0  0  0  0  0  0  0  0  0  0
   -0.7792    2.9049   -0.6201 O   0  0  0  0  0  0  0  0  0  0  0  0
   -1.8220    3.5536    1.1982 N   0  0  0  0  0  0  0  0  0  0  0  0
   -2.4250    4.0984    0.5885 H   0  0  0  0  0  0  0  0  0  0  0  0
   -2.1236    3.3201    2.1389 H   0  0  0  0  0  0  0  0  0  0  0  0
    1.1355   -0.5126    1.1284 C   0  0  0  0  0  0  0  0  0  0  0  0
    1.1339   -1.7225    0.9401 O   0  0  0  0  0  0  0  0  0  0  0  0
    2.3771    0.0535    1.3759 N   0  0  0  0  0  0  0  0  0  0  0  0
    2.4439    1.0655    1.3680 H   0  0  0  0  0  0  0  0  0  0  0  0
    3.5888   -0.7241    1.6152 C   0  0  0  0  0  0  0  0  0  0  0  0
    3.8572   -1.3005    0.7236 H   0  0  0  0  0  0  0  0  0  0  0  0
    4.4225   -0.0597    1.8617 H   0  0  0  0  0  0  0  0  0  0  0  0
    3.4409   -1.4166    2.4509 H   0  0  0  0  0  0  0  0  0  0  0  0
  1  2  1  0  0  0  0
  2  3  1  0  0  0  0
  2  4  1  0  0  0  0
  2  5  1  0  0  0  0
  5  6  2  0  0  0  0
  5  7  1  0  0  0  0
  7  8  1  0  0  0  0
  7  9  1  0  0  0  0
  9 10  1  0  0  0  0
  9 11  1  0  0  0  0
  9 19  1  0  0  0  0
 11 12  1  0  0  0  0
 11 13  1  0  0  0  0
 11 14  1  0  0  0  0
 14 15  2  0  0  0  0
 14 16  1  0  0  0  0
 16 17  1  0  0  0  0
 16 18  1  0  0  0  0
 19 20  2  0  0  0  0
 19 21  1  0  0  0  0
 21 22  1  0  0  0  0
 21 23  1  0  0  0  0
 23 24  1  0  0  0  0
 23 25  1  0  0  0  0
 23 26  1  0  0  0  0
M  END
$$$$

  -OEChem-01062216063D

 26 25  0     1  0  0  0  0  0999 V2000
   -2.9347   -3.1809    1.0628 H   0  0  0  0  0  0  0  0  0  0  0  0
   -2.7982   -2.2521    0.5014 C   0  0  0  0  0  0  0  0  0  0  0  0
   -3.7463   -1.7100    0.4782 H   0  0  0  0  0  0  0  0  0  0  0  0
   -2.5013   -2.5022   -0.5200 H   0  0  0  0  0  0  0  0  0  0  0  0
   -1.7258   -1.4013    1.1554 C   0  0  0  0  0  0  0  0  0  0  0  0
   -1.3161   -1.6920    2.2681 O   0  0  0  0  0  0  0  0  0  0  0  0
   -1.4148   -0.1597    0.6320 N   0  0  0  0  0  0  0  0  0  0  0  0
   -1.9822    0.0618   -0.1821 H   0  0  0  0  0  0  0  0  0  0  0  0
   -0.0407    0.3893    0.5509 C   0  0  1  0  0  0  0  0  0  0  0  0
    0.2102    0.5728   -0.5001 H   0  0  0  0  0  0  0  0  0  0  0  0
   -0.1202    1.7343    1.3088 C   0  0  0  0  0  0  0  0  0  0  0  0
   -0.5513    1.5712    2.3010 H   0  0  0  0  0  0  0  0  0  0  0  0
    0.8730    2.1670    1.4417 H   0  0  0  0  0  0  0  0  0  0  0  0
   -0.9352    2.7693    0.5465 C   0  0  0  0  0  0  0  0  0  0  0  0
   -0.8340    2.9160   -0.6571 O   0  0  0  0  0  0  0  0  0  0  0  0
   -1.8417    3.5730    1.1764 N   0  0  0  0  0  0  0  0  0  0  0  0
   -2.4564    4.1149    0.5757 H   0  0  0  0  0  0  0  0  0  0  0  0
   -2.1193    3.3524    2.1274 H   0  0  0  0  0  0  0  0  0  0  0  0
    1.1201   -0.5034    1.0831 C   0  0  0  0  0  0  0  0  0  0  0  0
    1.2022   -1.6564    0.6769 O   0  0  0  0  0  0  0  0  0  0  0  0
    2.2726    0.0403    1.6294 N   0  0  0  0  0  0  0  0  0  0  0  0
    2.2373    1.0077    1.9306 H   0  0  0  0  0  0  0  0  0  0  0  0
    3.4468   -0.7541    1.9743 C   0  0  0  0  0  0  0  0  0  0  0  0
    3.8820   -1.2052    1.0762 H   0  0  0  0  0  0  0  0  0  0  0  0
    4.2061   -0.1231    2.4460 H   0  0  0  0  0  0  0  0  0  0  0  0
    3.1764   -1.5520    2.6743 H   0  0  0  0  0  0  0  0  0  0  0  0
  1  2  1  0  0  0  0
  2  3  1  0  0  0  0
  2  4  1  0  0  0  0
  2  5  1  0  0  0  0
  5  6  2  0  0  0  0
  5  7  1  0  0  0  0
  7  8  1  0  0  0  0
  7  9  1  0  0  0  0
  9 10  1  0  0  0  0
  9 11  1  0  0  0  0
  9 19  1  0  0  0  0
 11 12  1  0  0  0  0
 11 13  1  0  0  0  0
 11 14  1  0  0  0  0
 14 15  2  0  0  0  0
 14 16  1  0  0  0  0
 16 17  1  0  0  0  0
 16 18  1  0  0  0  0
 19 20  2  0  0  0  0
 19 21  1  0  0  0  0
 21 22  1  0  0  0  0
 21 23  1  0  0  0  0
 23 24  1  0  0  0  0
 23 25  1  0  0  0  0
 23 26  1  0  0  0  0
M  END
$$$$

  -OEChem-01062216063D

 26 25  0     1  0  0  0  0  0999 V2000
   -2.9222   -3.1922    1.0478 H   0  0  0  0  0  0  0  0  0  0  0  0
   -2.8194   -2.2410    0.5180 C   0  0  0  0  0  0  0  0  0  0  0  0
   -3.7642   -1.6960    0.5822 H   0  0  0  0  0  0  0  0  0  0  0  0
   -2.5945   -2.4486   -0.5310 H   0  0  0  0  0  0  0  0  0  0  0  0
   -1.7012   -1.4206    1.1330 C   0  0  0  0  0  0  0  0  0  0  0  0
   -1.2230   -1.7589    2.2040 O   0  0  0  0  0  0  0  0  0  0  0  0
   -1.4068   -0.1701    0.6200 N   0  0  0  0  0  0  0  0  0  0  0  0
   -1.9935    0.0674   -0.1758 H   0  0  0  0  0  0  0  0  0  0  0  0
   -0.0423    0.3987    0.5355 C   0  0  1  0  0  0  0  0  0  0  0  0
    0.2031    0.5820   -0.5169 H   0  0  0  0  0  0  0  0  0  0  0  0
   -0.1215    1.7468    1.2861 C   0  0  0  0  0  0  0  0  0  0  0  0
   -0.5437    1.5892    2.2829 H   0  0  0  0  0  0  0  0  0  0  0  0
    0.8744    2.1800    1.4038 H   0  0  0  0  0  0  0  0  0  0  0  0
   -0.9469    2.7746    0.5241 C   0  0  0  0  0  0  0  0  0  0  0  0
   -0.8572    2.9165   -0.6808 O   0  0  0  0  0  0  0  0  0  0  0  0
   -1.8532    3.5772    1.1560 N   0  0  0  0  0  0  0  0  0  0  0  0
   -2.4707    4.1187    0.5576 H   0  0  0  0  0  0  0  0  0  0  0  0
   -2.1201    3.3667    2.1121 H   0  0  0  0  0  0  0  0  0  0  0  0
    1.1193   -0.4958    1.0575 C   0  0  0  0  0  0  0  0  0  0  0  0
    1.3081   -1.5702    0.4995 O   0  0  0  0  0  0  0  0  0  0  0  0
    2.1297   -0.0121    1.8734 N   0  0  0  0  0  0  0  0  0  0  0  0
    1.9476    0.8530    2.3699 H   0  0  0  0  0  0  0  0  0  0  0  0
    3.2658   -0.8255    2.2919 C   0  0  0  0  0  0  0  0  0  0  0  0
    3.8415   -1.1582    1.4217 H   0  0  0  0  0  0  0  0  0  0  0  0
    3.9283   -0.2448    2.9408 H   0  0  0  0  0  0  0  0  0  0  0  0
    2.9224   -1.7064    2.8446 H   0  0  0  0  0  0  0  0  0  0  0  0
  1  2  1  0  0  0  0
  2  3  1  0  0  0  0
  2  4  1  0  0  0  0
  2  5  1  0  0  0  0
  5  6  2  0  0  0  0
  5  7  1  0  0  0  0
  7  8  1  0  0  0  0
  7  9  1  0  0  0  0
  9 10  1  0  0  0  0
  9 11  1  0  0  0  0
  9 19  1  0  0  0  0
 11 12  1  0  0  0  0
 11 13  1  0  0  0  0
 11 14  1  0  0  0  0
 14 15  2  0  0  0  0
 14 16  1  0  0  0  0
 16 17  1  0  0  0  0
 16 18  1  0  0  0  0
 19 20  2  0  0  0  0
 19 21  1  0  0  0  0
 21 22  1  0  0  0  0
 21 23  1  0  0  0  0
 23 24  1  0  0  0  0
 23 25  1  0  0  0  0
 23 26  1  0  0  0  0
M  END
$$$$

  -OEChem-01062216063D

 26 25  0     1  0  0  0  0  0999 V2000
   -2.9268   -3.2420    1.0113 H   0  0  0  0  0  0  0  0  0  0  0  0
   -2.8508   -2.2686    0.5186 C   0  0  0  0  0  0  0  0  0  0  0  0
   -3.7826   -1.7197    0.6745 H   0  0  0  0  0  0  0  0  0  0  0  0
   -2.7034   -2.4296   -0.5521 H   0  0  0  0  0  0  0  0  0  0  0  0
   -1.6829   -1.4853    1.0884 C   0  0  0  0  0  0  0  0  0  0  0  0
   -1.1269   -1.8860    2.0983 O   0  0  0  0  0  0  0  0  0  0  0  0
   -1.4041   -0.2238    0.5928 N   0  0  0  0  0  0  0  0  0  0  0  0
   -2.0205    0.0455   -0.1701 H   0  0  0  0  0  0  0  0  0  0  0  0
   -0.0554    0.3814    0.5189 C   0  0  1  0  0  0  0  0  0  0  0  0
    0.1872    0.5728   -0.5329 H   0  0  0  0  0  0  0  0  0  0  0  0
   -0.1549    1.7271    1.2691 C   0  0  0  0  0  0  0  0  0  0  0  0
   -0.5792    1.5637    2.2637 H   0  0  0  0  0  0  0  0  0  0  0  0
    0.8384    2.1676    1.3890 H   0  0  0  0  0  0  0  0  0  0  0  0
   -0.9954    2.7419    0.5062 C   0  0  0  0  0  0  0  0  0  0  0  0
   -0.9081    2.8853   -0.6984 O   0  0  0  0  0  0  0  0  0  0  0  0
   -1.9081    3.5379    1.1373 N   0  0  0  0  0  0  0  0  0  0  0  0
   -2.3201    4.2838    0.5834 H   0  0  0  0  0  0  0  0  0  0  0  0
   -1.9190    3.5813    2.1509 H   0  0  0  0  0  0  0  0  0  0  0  0
    1.1237   -0.4885    1.0363 C   0  0  0  0  0  0  0  0  0  0  0  0
    1.4673   -1.4472    0.3558 O   0  0  0  0  0  0  0  0  0  0  0  0
    1.9417   -0.0966    2.0839 N   0  0  0  0  0  0  0  0  0  0  0  0
    1.5656    0.6076    2.7092 H   0  0  0  0  0  0  0  0  0  0  0  0
    3.0462   -0.9200    2.5624 C   0  0  0  0  0  0  0  0  0  0  0  0
    3.7753   -1.0875    1.7626 H   0  0  0  0  0  0  0  0  0  0  0  0
    3.5563   -0.4234    3.3933 H   0  0  0  0  0  0  0  0  0  0  0  0
    2.6762   -1.8901    2.9109 H   0  0  0  0  0  0  0  0  0  0  0  0
  1  2  1  0  0  0  0
  2  3  1  0  0  0  0
  2  4  1  0  0  0  0
  2  5  1  0  0  0  0
  5  6  2  0  0  0  0
  5  7  1  0  0  0  0
  7  8  1  0  0  0  0
  7  9  1  0  0  0  0
  9 10  1  0  0  0  0
  9 11  1  0  0  0  0
  9 19  1  0  0  0  0
 11 12  1  0  0  0  0
 11 13  1  0  0  0  0
 11 14  1  0  0  0  0
 14 15  2  0  0  0  0
 14 16  1  0  0  0  0
 16 17  1  0  0  0  0
 16 18  1  0  0  0  0
 19 20  2  0  0  0  0
 19 21  1  0  0  0  0
 21 22  1  0  0  0  0
 21 23  1  0  0  0  0
 23 24  1  0  0  0  0
 23 25  1  0  0  0  0
 23 26  1  0  0  0  0
M  END
$$$$

  -OEChem-01062216063D

 26 25  0     1  0  0  0  0  0999 V2000
   -2.9662   -3.2291    1.0131 H   0  0  0  0  0  0  0  0  0  0  0  0
   -2.8820   -2.2548    0.5236 C   0  0  0  0  0  0  0  0  0  0  0  0
   -3.7935   -1.6835    0.7149 H   0  0  0  0  0  0  0  0  0  0  0  0
   -2.7761   -2.4125   -0.5525 H   0  0  0  0  0  0  0  0  0  0  0  0
   -1.6757   -1.5050    1.0572 C   0  0  0  0  0  0  0  0  0  0  0  0
   -1.0734   -1.9503    2.0203 O   0  0  0  0  0  0  0  0  0  0  0  0
   -1.3939   -0.2409    0.5698 N   0  0  0  0  0  0  0  0  0  0  0  0
   -2.0258    0.0524   -0.1716 H   0  0  0  0  0  0  0  0  0  0  0  0
   -0.0509    0.3770    0.5047 C   0  0  1  0  0  0  0  0  0  0  0  0
    0.1917    0.5737   -0.5465 H   0  0  0  0  0  0  0  0  0  0  0  0
   -0.1519    1.7190    1.2597 C   0  0  0  0  0  0  0  0  0  0  0  0
   -0.5779    1.5526    2.2528 H   0  0  0  0  0  0  0  0  0  0  0  0
    0.8444    2.1525    1.3848 H   0  0  0  0  0  0  0  0  0  0  0  0
   -0.9935    2.7372    0.5025 C   0  0  0  0  0  0  0  0  0  0  0  0
   -0.9078    2.8875   -0.7014 O   0  0  0  0  0  0  0  0  0  0  0  0
   -1.9063    3.5300    1.1376 N   0  0  0  0  0  0  0  0  0  0  0  0
   -2.3052    4.2858    0.5874 H   0  0  0  0  0  0  0  0  0  0  0  0
   -1.9028    3.5797    2.1509 H   0  0  0  0  0  0  0  0  0  0  0  0
    1.1355   -0.4781    1.0244 C   0  0  0  0  0  0  0  0  0  0  0  0
    1.6357   -1.2934    0.2598 O   0  0  0  0  0  0  0  0  0  0  0  0
    1.7464   -0.2375    2.2441 N   0  0  0  0  0  0  0  0  0  0  0  0
    1.1934    0.2826    2.9168 H   0  0  0  0  0  0  0  0  0  0  0  0
    2.8094   -1.0941    2.7563 C   0  0  0  0  0  0  0  0  0  0  0  0
    3.6615   -1.1035    2.0685 H   0  0  0  0  0  0  0  0  0  0  0  0
    3.1562   -0.7273    3.7269 H   0  0  0  0  0  0  0  0  0  0  0  0
    2.4461   -2.1198    2.8812 H   0  0  0  0  0  0  0  0  0  0  0  0
  1  2  1  0  0  0  0
  2  3  1  0  0  0  0
  2  4  1  0  0  0  0
  2  5  1  0  0  0  0
  5  6  2  0  0  0  0
  5  7  1  0  0  0  0
  7  8  1  0  0  0  0
  7  9  1  0  0  0  0
  9 10  1  0  0  0  0
  9 11  1  0  0  0  0
  9 19  1  0  0  0  0
 11 12  1  0  0  0  0
 11 13  1  0  0  0  0
 11 14  1  0  0  0  0
 14 15  2  0  0  0  0
 14 16  1  0  0  0  0
 16 17  1  0  0  0  0
 16 18  1  0  0  0  0
 19 20  2  0  0  0  0
 19 21  1  0  0  0  0
 21 22  1  0  0  0  0
 21 23  1  0  0  0  0
 23 24  1  0  0  0  0
 23 25  1  0  0  0  0
 23 26  1  0  0  0  0
M  END
$$$$

  -OEChem-01062216063D

 26 25  0     1  0  0  0  0  0999 V2000
   -3.0381   -3.2169    0.9778 H   0  0  0  0  0  0  0  0  0  0  0  0
   -2.9460   -2.2300    0.5154 C   0  0  0  0  0  0  0  0  0  0  0  0
   -3.8346   -1.6422    0.7576 H   0  0  0  0  0  0  0  0  0  0  0  0
   -2.8839   -2.3558   -0.5684 H   0  0  0  0  0  0  0  0  0  0  0  0
   -1.7022   -1.5269    1.0260 C   0  0  0  0  0  0  0  0  0  0  0  0
   -1.0749   -2.0178    1.9495 O   0  0  0  0  0  0  0  0  0  0  0  0
   -1.3957   -0.2662    0.5456 N   0  0  0  0  0  0  0  0  0  0  0  0
   -2.0349    0.0583   -0.1766 H   0  0  0  0  0  0  0  0  0  0  0  0
   -0.0518    0.3512    0.4980 C   0  0  1  0  0  0  0  0  0  0  0  0
    0.1975    0.5518   -0.5511 H   0  0  0  0  0  0  0  0  0  0  0  0
   -0.1489    1.6894    1.2583 C   0  0  0  0  0  0  0  0  0  0  0  0
   -0.5839    1.5220    2.2472 H   0  0  0  0  0  0  0  0  0  0  0  0
    0.8515    2.1103    1.3961 H   0  0  0  0  0  0  0  0  0  0  0  0
   -0.9782    2.7178    0.5017 C   0  0  0  0  0  0  0  0  0  0  0  0
   -0.8854    2.8756   -0.7005 O   0  0  0  0  0  0  0  0  0  0  0  0
   -1.8838    3.5182    1.1377 N   0  0  0  0  0  0  0  0  0  0  0  0
   -2.2599    4.2867    0.5892 H   0  0  0  0  0  0  0  0  0  0  0  0
   -1.8644    3.5764    2.1504 H   0  0  0  0  0  0  0  0  0  0  0  0
    1.1387   -0.4883    1.0305 C   0  0  0  0  0  0  0  0  0  0  0  0
    1.8321   -1.0930    0.2231 O   0  0  0  0  0  0  0  0  0  0  0  0
    1.5297   -0.4389    2.3579 N   0  0  0  0  0  0  0  0  0  0  0  0
    0.7923   -0.1796    3.0063 H   0  0  0  0  0  0  0  0  0  0  0  0
    2.6072   -1.2765    2.8703 C   0  0  0  0  0  0  0  0  0  0  0  0
    3.5414   -1.0702    2.3372 H   0  0  0  0  0  0  0  0  0  0  0  0
    2.7676   -1.0772    3.9341 H   0  0  0  0  0  0  0  0  0  0  0  0
    2.3578   -2.3358    2.7478 H   0  0  0  0  0  0  0  0  0  0  0  0
  1  2  1  0  0  0  0
  2  3  1  0  0  0  0
  2  4  1  0  0  0  0
  2  5  1  0  0  0  0
  5  6  2  0  0  0  0
  5  7  1  0  0  0  0
  7  8  1  0  0  0  0
  7  9  1  0  0  0  0
  9 10  1  0  0  0  0
  9 11  1  0  0  0  0
  9 19  1  0  0  0  0
 11 12  1  0  0  0  0
 11 13  1  0  0  0  0
 11 14  1  0  0  0  0
 14 15  2  0  0  0  0
 14 16  1  0  0  0  0
 16 17  1  0  0  0  0
 16 18  1  0  0  0  0
 19 20  2  0  0  0  0
 19 21  1  0  0  0  0
 21 22  1  0  0  0  0
 21 23  1  0  0  0  0
 23 24  1  0  0  0  0
 23 25  1  0  0  0  0
 23 26  1  0  0  0  0
M  END
$$$$

  -OEChem-01062216063D

 26 25  0     1  0  0  0  0  0999 V2000
   -3.1704   -3.1716    0.9491 H   0  0  0  0  0  0  0  0  0  0  0  0
   -3.0441   -2.1825    0.4995 C   0  0  0  0  0  0  0  0  0  0  0  0
   -3.8938   -1.5561    0.7814 H   0  0  0  0  0  0  0  0  0  0  0  0
   -3.0253   -2.2927   -0.5877 H   0  0  0  0  0  0  0  0  0  0  0  0
   -1.7502   -1.5514    0.9790 C   0  0  0  0  0  0  0  0  0  0  0  0
   -1.1110   -2.1020    1.8588 O   0  0  0  0  0  0  0  0  0  0  0  0
   -1.3999   -0.2979    0.5106 N   0  0  0  0  0  0  0  0  0  0  0  0
   -2.0441    0.0719   -0.1852 H   0  0  0  0  0  0  0  0  0  0  0  0
   -0.0505    0.3124    0.4866 C   0  0  1  0  0  0  0  0  0  0  0  0
    0.2088    0.5205   -0.5588 H   0  0  0  0  0  0  0  0  0  0  0  0
   -0.1451    1.6422    1.2604 C   0  0  0  0  0  0  0  0  0  0  0  0
   -0.5891    1.4666    2.2439 H   0  0  0  0  0  0  0  0  0  0  0  0
    0.8580    2.0517    1.4140 H   0  0  0  0  0  0  0  0  0  0  0  0
   -0.9573    2.6871    0.5086 C   0  0  0  0  0  0  0  0  0  0  0  0
   -0.8521    2.8601   -0.6904 O   0  0  0  0  0  0  0  0  0  0  0  0
   -1.8609    3.4880    1.1466 N   0  0  0  0  0  0  0  0  0  0  0  0
   -2.2161    4.2715    0.6052 H   0  0  0  0  0  0  0  0  0  0  0  0
   -1.8392    3.5391    2.1596 H   0  0  0  0  0  0  0  0  0  0  0  0
    1.1454   -0.5086    1.0348 C   0  0  0  0  0  0  0  0  0  0  0  0
    2.0327   -0.8381    0.2589 O   0  0  0  0  0  0  0  0  0  0  0  0
    1.3334   -0.6897    2.3939 N   0  0  0  0  0  0  0  0  0  0  0  0
    0.4616   -0.7302    2.9182 H   0  0  0  0  0  0  0  0  0  0  0  0
    2.4507   -1.4687    2.9138 C   0  0  0  0  0  0  0  0  0  0  0  0
    3.4043   -1.0298    2.6017 H   0  0  0  0  0  0  0  0  0  0  0  0
    2.4221   -1.4855    4.0076 H   0  0  0  0  0  0  0  0  0  0  0  0
    2.4009   -2.4999    2.5481 H   0  0  0  0  0  0  0  0  0  0  0  0
  1  2  1  0  0  0  0
  2  3  1  0  0  0  0
  2  4  1  0  0  0  0
  2  5  1  0  0  0  0
  5  6  2  0  0  0  0
  5  7  1  0  0  0  0
  7  8  1  0  0  0  0
  7  9  1  0  0  0  0
  9 10  1  0  0  0  0
  9 11  1  0  0  0  0
  9 19  1  0  0  0  0
 11 12  1  0  0  0  0
 11 13  1  0  0  0  0
 11 14  1  0  0  0  0
 14 15  2  0  0  0  0
 14 16  1  0  0  0  0
 16 17  1  0  0  0  0
 16 18  1  0  0  0  0
 19 20  2  0  0  0  0
 19 21  1  0  0  0  0
 21 22  1  0  0  0  0
 21 23  1  0  0  0  0
 23 24  1  0  0  0  0
 23 25  1  0  0  0  0
 23 26  1  0  0  0  0
M  END
$$$$

  -OEChem-01062216063D

 26 25  0     1  0  0  0  0  0999 V2000
   -3.3412   -3.0960    0.8905 H   0  0  0  0  0  0  0  0  0  0  0  0
   -3.1651   -2.0991    0.4760 C   0  0  0  0  0  0  0  0  0  0  0  0
   -3.9553   -1.4289    0.8235 H   0  0  0  0  0  0  0  0  0  0  0  0
   -3.2035   -2.1624   -0.6144 H   0  0  0  0  0  0  0  0  0  0  0  0
   -1.8098   -1.5784    0.9181 C   0  0  0  0  0  0  0  0  0  0  0  0
   -1.1644   -2.2250    1.7234 O   0  0  0  0  0  0  0  0  0  0  0  0
   -1.3987   -0.3345    0.4743 N   0  0  0  0  0  0  0  0  0  0  0  0
   -2.0503    0.1010   -0.1751 H   0  0  0  0  0  0  0  0  0  0  0  0
   -0.0432    0.2676    0.4811 C   0  0  1  0  0  0  0  0  0  0  0  0
    0.2286    0.4856   -0.5591 H   0  0  0  0  0  0  0  0  0  0  0  0
   -0.1495    1.5880    1.2689 C   0  0  0  0  0  0  0  0  0  0  0  0
   -0.6086    1.4002    2.2433 H   0  0  0  0  0  0  0  0  0  0  0  0
    0.8516    1.9936    1.4451 H   0  0  0  0  0  0  0  0  0  0  0  0
   -0.9440    2.6450    0.5152 C   0  0  0  0  0  0  0  0  0  0  0  0
   -0.8162    2.8338   -0.6792 O   0  0  0  0  0  0  0  0  0  0  0  0
   -1.8636    3.4350    1.1438 N   0  0  0  0  0  0  0  0  0  0  0  0
   -2.2026    4.2272    0.6047 H   0  0  0  0  0  0  0  0  0  0  0  0
   -1.8553    3.4795    2.1574 H   0  0  0  0  0  0  0  0  0  0  0  0
    1.1671   -0.5249    1.0426 C   0  0  0  0  0  0  0  0  0  0  0  0
    2.1901   -0.5702    0.3720 O   0  0  0  0  0  0  0  0  0  0  0  0
    1.2092   -0.9668    2.3523 N   0  0  0  0  0  0  0  0  0  0  0  0
    0.2906   -1.2246    2.7158 H   0  0  0  0  0  0  0  0  0  0  0  0
    2.3555   -1.6945    2.8830 C   0  0  0  0  0  0  0  0  0  0  0  0
    3.2631   -1.0854    2.8159 H   0  0  0  0  0  0  0  0  0  0  0  0
    2.1877   -1.9461    3.9345 H   0  0  0  0  0  0  0  0  0  0  0  0
    2.5119   -2.6229    2.3239 H   0  0  0  0  0  0  0  0  0  0  0  0
  1  2  1  0  0  0  0
  2  3  1  0  0  0  0
  2  4  1  0  0  0  0
  2  5  1  0  0  0  0
  5  6  2  0  0  0  0
  5  7  1  0  0  0  0
  7  8  1  0  0  0  0
  7  9  1  0  0  0  0
  9 10  1  0  0  0  0
  9 11  1  0  0  0  0
  9 19  1  0  0  0  0
 11 12  1  0  0  0  0
 11 13  1  0  0  0  0
 11 14  1  0  0  0  0
 14 15  2  0  0  0  0
 14 16  1  0  0  0  0
 16 17  1  0  0  0  0
 16 18  1  0  0  0  0
 19 20  2  0  0  0  0
 19 21  1  0  0  0  0
 21 22  1  0  0  0  0
 21 23  1  0  0  0  0
 23 24  1  0  0  0  0
 23 25  1  0  0  0  0
 23 26  1  0  0  0  0
M  END
$$$$

  -OEChem-01062216063D

 26 25  0     1  0  0  0  0  0999 V2000
   -3.4887   -3.0218    0.7988 H   0  0  0  0  0  0  0  0  0  0  0  0
   -3.2769   -2.0043    0.4579 C   0  0  0  0  0  0  0  0  0  0  0  0
   -4.0027   -1.3237    0.9097 H   0  0  0  0  0  0  0  0  0  0  0  0
   -3.3833   -1.9707   -0.6292 H   0  0  0  0  0  0  0  0  0  0  0  0
   -1.8689   -1.6000    0.8540 C   0  0  0  0  0  0  0  0  0  0  0  0
   -1.2271   -2.3476    1.5680 O   0  0  0  0  0  0  0  0  0  0  0  0
   -1.3980   -0.3673    0.4382 N   0  0  0  0  0  0  0  0  0  0  0  0
   -2.0544    0.1331   -0.1574 H   0  0  0  0  0  0  0  0  0  0  0  0
   -0.0368    0.2259    0.4781 C   0  0  1  0  0  0  0  0  0  0  0  0
    0.2499    0.4517   -0.5564 H   0  0  0  0  0  0  0  0  0  0  0  0
   -0.1652    1.5393    1.2754 C   0  0  0  0  0  0  0  0  0  0  0  0
   -0.6471    1.3410    2.2367 H   0  0  0  0  0  0  0  0  0  0  0  0
    0.8294    1.9471    1.4812 H   0  0  0  0  0  0  0  0  0  0  0  0
   -0.9411    2.6037    0.5134 C   0  0  0  0  0  0  0  0  0  0  0  0
   -0.7855    2.8072   -0.6751 O   0  0  0  0  0  0  0  0  0  0  0  0
   -1.8776    3.3835    1.1294 N   0  0  0  0  0  0  0  0  0  0  0  0
   -2.1997    4.1842    0.5926 H   0  0  0  0  0  0  0  0  0  0  0  0
   -1.8850    3.4206    2.1434 H   0  0  0  0  0  0  0  0  0  0  0  0
    1.1883   -0.5358    1.0547 C   0  0  0  0  0  0  0  0  0  0  0  0
    2.2764   -0.3424    0.5282 O   0  0  0  0  0  0  0  0  0  0  0  0
    1.1555   -1.2402    2.2427 N   0  0  0  0  0  0  0  0  0  0  0  0
    0.2332   -1.6112    2.4802 H   0  0  0  0  0  0  0  0  0  0  0  0
    2.3170   -1.9481    2.7666 C   0  0  0  0  0  0  0  0  0  0  0  0
    3.1430   -1.2516    2.9446 H   0  0  0  0  0  0  0  0  0  0  0  0
    2.0656   -2.4329    3.7147 H   0  0  0  0  0  0  0  0  0  0  0  0
    2.6487   -2.7161    2.0600 H   0  0  0  0  0  0  0  0  0  0  0  0
  1  2  1  0  0  0  0
  2  3  1  0  0  0  0
  2  4  1  0  0  0  0
  2  5  1  0  0  0  0
  5  6  2  0  0  0  0
  5  7  1  0  0  0  0
  7  8  1  0  0  0  0
  7  9  1  0  0  0  0
  9 10  1  0  0  0  0
  9 11  1  0  0  0  0
  9 19  1  0  0  0  0
 11 12  1  0  0  0  0
 11 13  1  0  0  0  0
 11 14  1  0  0  0  0
 14 15  2  0  0  0  0
 14 16  1  0  0  0  0
 16 17  1  0  0  0  0
 16 18  1  0  0  0  0
 19 20  2  0  0  0  0
 19 21  1  0  0  0  0
 21 22  1  0  0  0  0
 21 23  1  0  0  0  0
 23 24  1  0  0  0  0
 23 25  1  0  0  0  0
 23 26  1  0  0  0  0
M  END
$$$$

  -OEChem-01062216063D

 26 25  0     1  0  0  0  0  0999 V2000
   -3.6281   -2.9310    0.7612 H   0  0  0  0  0  0  0  0  0  0  0  0
   -3.3677   -1.9175    0.4420 C   0  0  0  0  0  0  0  0  0  0  0  0
   -4.0462   -1.2110    0.9265 H   0  0  0  0  0  0  0  0  0  0  0  0
   -3.4941   -1.8494   -0.6414 H   0  0  0  0  0  0  0  0  0  0  0  0
   -1.9320   -1.6000    0.8183 C   0  0  0  0  0  0  0  0  0  0  0  0
   -1.3146   -2.4130    1.4790 O   0  0  0  0  0  0  0  0  0  0  0  0
   -1.4101   -0.3811    0.4229 N   0  0  0  0  0  0  0  0  0  0  0  0
   -2.0613    0.1630   -0.1395 H   0  0  0  0  0  0  0  0  0  0  0  0
   -0.0393    0.1926    0.4792 C   0  0  1  0  0  0  0  0  0  0  0  0
    0.2547    0.4234   -0.5519 H   0  0  0  0  0  0  0  0  0  0  0  0
   -0.1796    1.5022    1.2837 C   0  0  0  0  0  0  0  0  0  0  0  0
   -0.6777    1.2973    2.2352 H   0  0  0  0  0  0  0  0  0  0  0  0
    0.8101    1.9110    1.5105 H   0  0  0  0  0  0  0  0  0  0  0  0
   -0.9402    2.5737    0.5160 C   0  0  0  0  0  0  0  0  0  0  0  0
   -0.7648    2.7861   -0.6681 O   0  0  0  0  0  0  0  0  0  0  0  0
   -1.8886    3.3472    1.1217 N   0  0  0  0  0  0  0  0  0  0  0  0
   -2.1995    4.1535    0.5865 H   0  0  0  0  0  0  0  0  0  0  0  0
   -1.9099    3.3779    2.1358 H   0  0  0  0  0  0  0  0  0  0  0  0
    1.1975   -0.5555    1.0569 C   0  0  0  0  0  0  0  0  0  0  0  0
    2.3008   -0.1903    0.6714 O   0  0  0  0  0  0  0  0  0  0  0  0
    1.1577   -1.4975    2.0653 N   0  0  0  0  0  0  0  0  0  0  0  0
    0.2436   -1.9220    2.2319 H   0  0  0  0  0  0  0  0  0  0  0  0
    2.3372   -2.2023    2.5519 C   0  0  0  0  0  0  0  0  0  0  0  0
    3.0654   -1.4947    2.9620 H   0  0  0  0  0  0  0  0  0  0  0  0
    2.0556   -2.9033    3.3434 H   0  0  0  0  0  0  0  0  0  0  0  0
    2.8094   -2.7657    1.7406 H   0  0  0  0  0  0  0  0  0  0  0  0
  1  2  1  0  0  0  0
  2  3  1  0  0  0  0
  2  4  1  0  0  0  0
  2  5  1  0  0  0  0
  5  6  2  0  0  0  0
  5  7  1  0  0  0  0
  7  8  1  0  0  0  0
  7  9  1  0  0  0  0
  9 10  1  0  0  0  0
  9 11  1  0  0  0  0
  9 19  1  0  0  0  0
 11 12  1  0  0  0  0
 11 13  1  0  0  0  0
 11 14  1  0  0  0  0
 14 15  2  0  0  0  0
 14 16  1  0  0  0  0
 16 17  1  0  0  0  0
 16 18  1  0  0  0  0
 19 20  2  0  0  0  0
 19 21  1  0  0  0  0
 21 22  1  0  0  0  0
 21 23  1  0  0  0  0
 23 24  1  0  0  0  0
 23 25  1  0  0  0  0
 23 26  1  0  0  0  0
M  END
$$$$

  -OEChem-01062216063D

 26 25  0     1  0  0  0  0  0999 V2000
   -3.0066   -3.2839    0.9076 H   0  0  0  0  0  0  0  0  0  0  0  0
   -2.7868   -2.3399    0.4006 C   0  0  0  0  0  0  0  0  0  0  0  0
   -3.6876   -1.7214    0.4024 H   0  0  0  0  0  0  0  0  0  0  0  0
   -2.5020   -2.5553   -0.6320 H   0  0  0  0  0  0  0  0  0  0  0  0
   -1.6582   -1.6145    1.1100 C   0  0  0  0  0  0  0  0  0  0  0  0
   -1.2908   -2.0304    2.1904 O   0  0  0  0  0  0  0  0  0  0  0  0
   -1.2398   -0.3985    0.6069 N   0  0  0  0  0  0  0  0  0  0  0  0
   -1.7831   -0.1167   -0.2059 H   0  0  0  0  0  0  0  0  0  0  0  0
    0.0575    0.3188    0.7117 C   0  0  1  0  0  0  0  0  0  0  0  0
    0.4271    0.4610   -0.3100 H   0  0  0  0  0  0  0  0  0  0  0  0
   -0.3407    1.6896    1.3108 C   0  0  0  0  0  0  0  0  0  0  0  0
   -0.9272    1.5338    2.2207 H   0  0  0  0  0  0  0  0  0  0  0  0
    0.5455    2.2666    1.5890 H   0  0  0  0  0  0  0  0  0  0  0  0
   -1.1232    2.5414    0.3220 C   0  0  0  0  0  0  0  0  0  0  0  0
   -0.8236    2.6242   -0.8545 O   0  0  0  0  0  0  0  0  0  0  0  0
   -2.2212    3.2569    0.7058 N   0  0  0  0  0  0  0  0  0  0  0  0
   -2.5538    3.9438    0.0350 H   0  0  0  0  0  0  0  0  0  0  0  0
   -2.3832    3.3984    1.6977 H   0  0  0  0  0  0  0  0  0  0  0  0
    1.3259   -0.1975    1.4690 C   0  0  0  0  0  0  0  0  0  0  0  0
    2.3152    0.5195    1.4918 O   0  0  0  0  0  0  0  0  0  0  0  0
    1.4637   -1.2097    2.3849 N   0  0  0  0  0  0  0  0  0  0  0  0
    2.2224   -0.9818    3.0212 H   0  0  0  0  0  0  0  0  0  0  0  0
    1.5368   -2.5787    1.8868 C   0  0  0  0  0  0  0  0  0  0  0  0
    2.5802   -2.8577    1.7094 H   0  0  0  0  0  0  0  0  0  0  0  0
    1.1104   -3.2693    2.6214 H   0  0  0  0  0  0  0  0  0  0  0  0
    0.9894   -2.6940    0.9459 H   0  0  0  0  0  0  0  0  0  0  0  0
  1  2  1  0  0  0  0
  2  3  1  0  0  0  0
  2  4  1  0  0  0  0
  2  5  1  0  0  0  0
  5  6  2  0  0  0  0
  5  7  1  0  0  0  0
  7  8  1  0  0  0  0
  7  9  1  0  0  0  0
  9 10  1  0  0  0  0
  9 11  1  0  0  0  0
  9 19  1  0  0  0  0
 11 12  1  0  0  0  0
 11 13  1  0  0  0  0
 11 14  1  0  0  0  0
 14 15  2  0  0  0  0
 14 16  1  0  0  0  0
 16 17  1  0  0  0  0
 16 18  1  0  0  0  0
 19 20  2  0  0  0  0
 19 21  1  0  0  0  0
 21 22  1  0  0  0  0
 21 23  1  0  0  0  0
 23 24  1  0  0  0  0
 23 25  1  0  0  0  0
 23 26  1  0  0  0  0
M  END
$$$$

  -OEChem-01062216063D

 26 25  0     1  0  0  0  0  0999 V2000
   -3.2646   -3.2005    1.0759 H   0  0  0  0  0  0  0  0  0  0  0  0
   -3.1230   -2.1663    0.7486 C   0  0  0  0  0  0  0  0  0  0  0  0
   -3.6313   -1.5033    1.4530 H   0  0  0  0  0  0  0  0  0  0  0  0
   -3.5703   -2.0476   -0.2415 H   0  0  0  0  0  0  0  0  0  0  0  0
   -1.6436   -1.8303    0.6912 C   0  0  0  0  0  0  0  0  0  0  0  0
   -0.8506   -2.7240    0.8977 O   0  0  0  0  0  0  0  0  0  0  0  0
   -1.2949   -0.5395    0.3373 N   0  0  0  0  0  0  0  0  0  0  0  0
   -2.1021    0.0218    0.0765 H   0  0  0  0  0  0  0  0  0  0  0  0
    0.0009    0.1792    0.2095 C   0  0  1  0  0  0  0  0  0  0  0  0
    0.0649    0.5156   -0.8321 H   0  0  0  0  0  0  0  0  0  0  0  0
   -0.1468    1.4021    1.1443 C   0  0  0  0  0  0  0  0  0  0  0  0
   -0.4491    1.0687    2.1408 H   0  0  0  0  0  0  0  0  0  0  0  0
    0.8121    1.9192    1.2478 H   0  0  0  0  0  0  0  0  0  0  0  0
   -1.1413    2.4237    0.6116 C   0  0  0  0  0  0  0  0  0  0  0  0
   -1.1958    2.7435   -0.5595 O   0  0  0  0  0  0  0  0  0  0  0  0
   -2.0604    3.0178    1.4280 N   0  0  0  0  0  0  0  0  0  0  0  0
   -2.5487    3.8124    1.0235 H   0  0  0  0  0  0  0  0  0  0  0  0
   -1.9110    2.9785    2.4309 H   0  0  0  0  0  0  0  0  0  0  0  0
    1.4225   -0.4107    0.4749 C   0  0  0  0  0  0  0  0  0  0  0  0
    2.3775    0.2121    0.0363 O   0  0  0  0  0  0  0  0  0  0  0  0
    1.8160   -1.6621    0.8742 N   0  0  0  0  0  0  0  0  0  0  0  0
    2.7628   -1.8426    0.5525 H   0  0  0  0  0  0  0  0  0  0  0  0
    1.5826   -2.0532    2.2593 C   0  0  0  0  0  0  0  0  0  0  0  0
    2.4422   -1.7764    2.8776 H   0  0  0  0  0  0  0  0  0  0  0  0
    0.6939   -1.5635    2.6704 H   0  0  0  0  0  0  0  0  0  0  0  0
    1.4398   -3.1366    2.3237 H   0  0  0  0  0  0  0  0  0  0  0  0
  1  2  1  0  0  0  0
  2  3  1  0  0  0  0
  2  4  1  0  0  0  0
  2  5  1  0  0  0  0
  5  6  2  0  0  0  0
  5  7  1  0  0  0  0
  7  8  1  0  0  0  0
  7  9  1  0  0  0  0
  9 10  1  0  0  0  0
  9 11  1  0  0  0  0
  9 19  1  0  0  0  0
 11 12  1  0  0  0  0
 11 13  1  0  0  0  0
 11 14  1  0  0  0  0
 14 15  2  0  0  0  0
 14 16  1  0  0  0  0
 16 17  1  0  0  0  0
 16 18  1  0  0  0  0
 19 20  2  0  0  0  0
 19 21  1  0  0  0  0
 21 22  1  0  0  0  0
 21 23  1  0  0  0  0
 23 24  1  0  0  0  0
 23 25  1  0  0  0  0
 23 26  1  0  0  0  0
M  END
$$$$

  -OEChem-01062216063D

 26 25  0     1  0  0  0  0  0999 V2000
   -3.2429   -3.2245    1.1381 H   0  0  0  0  0  0  0  0  0  0  0  0
   -3.1339   -2.2259    0.7057 C   0  0  0  0  0  0  0  0  0  0  0  0
   -3.8985   -1.5722    1.1324 H   0  0  0  0  0  0  0  0  0  0  0  0
   -3.2835   -2.2942   -0.3745 H   0  0  0  0  0  0  0  0  0  0  0  0
   -1.7517   -1.6738    1.0023 C   0  0  0  0  0  0  0  0  0  0  0  0
   -1.0295   -2.2918    1.7584 O   0  0  0  0  0  0  0  0  0  0  0  0
   -1.4503   -0.3949    0.5769 N   0  0  0  0  0  0  0  0  0  0  0  0
   -2.2372    0.0447    0.1048 H   0  0  0  0  0  0  0  0  0  0  0  0
   -0.1475    0.2315    0.2384 C   0  0  1  0  0  0  0  0  0  0  0  0
   -0.2089    0.5575   -0.8061 H   0  0  0  0  0  0  0  0  0  0  0  0
   -0.0735    1.4680    1.1621 C   0  0  0  0  0  0  0  0  0  0  0  0
   -0.2460    1.1621    2.1976 H   0  0  0  0  0  0  0  0  0  0  0  0
    0.9198    1.9238    1.1149 H   0  0  0  0  0  0  0  0  0  0  0  0
   -1.0741    2.5424    0.7602 C   0  0  0  0  0  0  0  0  0  0  0  0
   -1.2813    2.8471   -0.3993 O   0  0  0  0  0  0  0  0  0  0  0  0
   -1.8160    3.2126    1.6905 N   0  0  0  0  0  0  0  0  0  0  0  0
   -2.3152    4.0302    1.3518 H   0  0  0  0  0  0  0  0  0  0  0  0
   -1.5425    3.1526    2.6659 H   0  0  0  0  0  0  0  0  0  0  0  0
    1.2296   -0.4999    0.3013 C   0  0  0  0  0  0  0  0  0  0  0  0
    2.2124    0.0951   -0.1156 O   0  0  0  0  0  0  0  0  0  0  0  0
    1.4731   -1.8483    0.3869 N   0  0  0  0  0  0  0  0  0  0  0  0
    2.1623   -2.0952   -0.3177 H   0  0  0  0  0  0  0  0  0  0  0  0
    1.8710   -2.3479    1.6990 C   0  0  0  0  0  0  0  0  0  0  0  0
    1.4093   -1.7682    2.5057 H   0  0  0  0  0  0  0  0  0  0  0  0
    1.5660   -3.3931    1.8106 H   0  0  0  0  0  0  0  0  0  0  0  0
    2.9578   -2.2854    1.8128 H   0  0  0  0  0  0  0  0  0  0  0  0
  1  2  1  0  0  0  0
  2  3  1  0  0  0  0
  2  4  1  0  0  0  0
  2  5  1  0  0  0  0
  5  6  2  0  0  0  0
  5  7  1  0  0  0  0
  7  8  1  0  0  0  0
  7  9  1  0  0  0  0
  9 10  1  0  0  0  0
  9 11  1  0  0  0  0
  9 19  1  0  0  0  0
 11 12  1  0  0  0  0
 11 13  1  0  0  0  0
 11 14  1  0  0  0  0
 14 15  2  0  0  0  0
 14 16  1  0  0  0  0
 16 17  1  0  0  0  0
 16 18  1  0  0  0  0
 19 20  2  0  0  0  0
 19 21  1  0  0  0  0
 21 22  1  0  0  0  0
 21 23  1  0  0  0  0
 23 24  1  0  0  0  0
 23 25  1  0  0  0  0
 23 26  1  0  0  0  0
M  END
$$$$

  -OEChem-01062216063D

 26 25  0     1  0  0  0  0  0999 V2000
   -3.5718   -2.9265    0.8458 H   0  0  0  0  0  0  0  0  0  0  0  0
   -3.3348   -1.9010    0.5478 C   0  0  0  0  0  0  0  0  0  0  0  0
   -3.9780   -1.2161    1.1057 H   0  0  0  0  0  0  0  0  0  0  0  0
   -3.5371   -1.7916   -0.5205 H   0  0  0  0  0  0  0  0  0  0  0  0
   -1.8767   -1.5930    0.8351 C   0  0  0  0  0  0  0  0  0  0  0  0
   -1.2136   -2.4252    1.4238 O   0  0  0  0  0  0  0  0  0  0  0  0
   -1.3829   -0.3578    0.4553 N   0  0  0  0  0  0  0  0  0  0  0  0
   -2.0736    0.2106   -0.0303 H   0  0  0  0  0  0  0  0  0  0  0  0
   -0.0091    0.2143    0.4358 C   0  0  1  0  0  0  0  0  0  0  0  0
    0.2258    0.4642   -0.6049 H   0  0  0  0  0  0  0  0  0  0  0  0
   -0.1440    1.5226    1.2573 C   0  0  0  0  0  0  0  0  0  0  0  0
   -0.5954    1.3012    2.2283 H   0  0  0  0  0  0  0  0  0  0  0  0
    0.8343    1.9721    1.4470 H   0  0  0  0  0  0  0  0  0  0  0  0
   -0.9594    2.5776    0.5249 C   0  0  0  0  0  0  0  0  0  0  0  0
   -0.8363    2.7955   -0.6654 O   0  0  0  0  0  0  0  0  0  0  0  0
   -1.9035    3.3243    1.1695 N   0  0  0  0  0  0  0  0  0  0  0  0
   -2.2505    4.1271    0.6518 H   0  0  0  0  0  0  0  0  0  0  0  0
   -1.8819    3.3521    2.1838 H   0  0  0  0  0  0  0  0  0  0  0  0
    1.2528   -0.5883    0.8954 C   0  0  0  0  0  0  0  0  0  0  0  0
    2.2565    0.0221    1.2454 O   0  0  0  0  0  0  0  0  0  0  0  0
    1.3722   -1.9605    0.7889 N   0  0  0  0  0  0  0  0  0  0  0  0
    0.4852   -2.4646    0.7507 H   0  0  0  0  0  0  0  0  0  0  0  0
    2.5435   -2.6978    1.2479 C   0  0  0  0  0  0  0  0  0  0  0  0
    2.6915   -2.5507    2.3228 H   0  0  0  0  0  0  0  0  0  0  0  0
    2.4124   -3.7674    1.0581 H   0  0  0  0  0  0  0  0  0  0  0  0
    3.4412   -2.3625    0.7182 H   0  0  0  0  0  0  0  0  0  0  0  0
  1  2  1  0  0  0  0
  2  3  1  0  0  0  0
  2  4  1  0  0  0  0
  2  5  1  0  0  0  0
  5  6  2  0  0  0  0
  5  7  1  0  0  0  0
  7  8  1  0  0  0  0
  7  9  1  0  0  0  0
  9 10  1  0  0  0  0
  9 11  1  0  0  0  0
  9 19  1  0  0  0  0
 11 12  1  0  0  0  0
 11 13  1  0  0  0  0
 11 14  1  0  0  0  0
 14 15  2  0  0  0  0
 14 16  1  0  0  0  0
 16 17  1  0  0  0  0
 16 18  1  0  0  0  0
 19 20  2  0  0  0  0
 19 21  1  0  0  0  0
 21 22  1  0  0  0  0
 21 23  1  0  0  0  0
 23 24  1  0  0  0  0
 23 25  1  0  0  0  0
 23 26  1  0  0  0  0
M  END
$$$$

  -OEChem-01062216063D

 26 25  0     1  0  0  0  0  0999 V2000
   -3.4617   -2.9642    0.9459 H   0  0  0  0  0  0  0  0  0  0  0  0
   -3.2561   -1.9405    0.6200 C   0  0  0  0  0  0  0  0  0  0  0  0
   -3.8707   -1.2553    1.2089 H   0  0  0  0  0  0  0  0  0  0  0  0
   -3.5271   -1.8476   -0.4346 H   0  0  0  0  0  0  0  0  0  0  0  0
   -1.7863   -1.6131    0.8099 C   0  0  0  0  0  0  0  0  0  0  0  0
   -1.0566   -2.4652    1.2798 O   0  0  0  0  0  0  0  0  0  0  0  0
   -1.3399   -0.3572    0.4385 N   0  0  0  0  0  0  0  0  0  0  0  0
   -2.0643    0.2216    0.0191 H   0  0  0  0  0  0  0  0  0  0  0  0
    0.0180    0.2483    0.4298 C   0  0  1  0  0  0  0  0  0  0  0  0
    0.2599    0.5028   -0.6081 H   0  0  0  0  0  0  0  0  0  0  0  0
   -0.1334    1.5568    1.2468 C   0  0  0  0  0  0  0  0  0  0  0  0
   -0.5772    1.3334    2.2207 H   0  0  0  0  0  0  0  0  0  0  0  0
    0.8415    2.0175    1.4282 H   0  0  0  0  0  0  0  0  0  0  0  0
   -0.9614    2.6001    0.5122 C   0  0  0  0  0  0  0  0  0  0  0  0
   -0.8404    2.8164   -0.6786 O   0  0  0  0  0  0  0  0  0  0  0  0
   -1.9188    3.3322    1.1538 N   0  0  0  0  0  0  0  0  0  0  0  0
   -2.2770    4.1288    0.6342 H   0  0  0  0  0  0  0  0  0  0  0  0
   -1.8967    3.3639    2.1680 H   0  0  0  0  0  0  0  0  0  0  0  0
    1.2672   -0.5657    0.8982 C   0  0  0  0  0  0  0  0  0  0  0  0
    2.1702   -0.0130    1.5167 O   0  0  0  0  0  0  0  0  0  0  0  0
    1.4818   -1.8705    0.4952 N   0  0  0  0  0  0  0  0  0  0  0  0
    0.6215   -2.3859    0.3061 H   0  0  0  0  0  0  0  0  0  0  0  0
    2.6310   -2.6494    0.9412 C   0  0  0  0  0  0  0  0  0  0  0  0
    2.6202   -2.7575    2.0308 H   0  0  0  0  0  0  0  0  0  0  0  0
    2.6063   -3.6469    0.4923 H   0  0  0  0  0  0  0  0  0  0  0  0
    3.5653   -2.1620    0.6434 H   0  0  0  0  0  0  0  0  0  0  0  0
  1  2  1  0  0  0  0
  2  3  1  0  0  0  0
  2  4  1  0  0  0  0
  2  5  1  0  0  0  0
  5  6  2  0  0  0  0
  5  7  1  0  0  0  0
  7  8  1  0  0  0  0
  7  9  1  0  0  0  0
  9 10  1  0  0  0  0
  9 11  1  0  0  0  0
  9 19  1  0  0  0  0
 11 12  1  0  0  0  0
 11 13  1  0  0  0  0
 11 14  1  0  0  0  0
 14 15  2  0  0  0  0
 14 16  1  0  0  0  0
 16 17  1  0  0  0  0
 16 18  1  0  0  0  0
 19 20  2  0  0  0  0
 19 21  1  0  0  0  0
 21 22  1  0  0  0  0
 21 23  1  0  0  0  0
 23 24  1  0  0  0  0
 23 25  1  0  0  0  0
 23 26  1  0  0  0  0
M  END
$$$$

  -OEChem-01062216063D

 26 25  0     1  0  0  0  0  0999 V2000
   -3.3360   -3.0111    1.0238 H   0  0  0  0  0  0  0  0  0  0  0  0
   -3.1718   -1.9864    0.6779 C   0  0  0  0  0  0  0  0  0  0  0  0
   -3.7619   -1.3084    1.2994 H   0  0  0  0  0  0  0  0  0  0  0  0
   -3.5092   -1.9074   -0.3584 H   0  0  0  0  0  0  0  0  0  0  0  0
   -1.6999   -1.6294    0.7732 C   0  0  0  0  0  0  0  0  0  0  0  0
   -0.9129   -2.4864    1.1288 O   0  0  0  0  0  0  0  0  0  0  0  0
   -1.3045   -0.3552    0.4058 N   0  0  0  0  0  0  0  0  0  0  0  0
   -2.0601    0.2293    0.0560 H   0  0  0  0  0  0  0  0  0  0  0  0
    0.0372    0.2806    0.4182 C   0  0  1  0  0  0  0  0  0  0  0  0
    0.2949    0.5430   -0.6138 H   0  0  0  0  0  0  0  0  0  0  0  0
   -0.1280    1.5837    1.2380 C   0  0  0  0  0  0  0  0  0  0  0  0
   -0.5730    1.3538    2.2100 H   0  0  0  0  0  0  0  0  0  0  0  0
    0.8469    2.0444    1.4223 H   0  0  0  0  0  0  0  0  0  0  0  0
   -0.9613    2.6229    0.5045 C   0  0  0  0  0  0  0  0  0  0  0  0
   -0.8354    2.8429   -0.6850 O   0  0  0  0  0  0  0  0  0  0  0  0
   -1.9295    3.3431    1.1431 N   0  0  0  0  0  0  0  0  0  0  0  0
   -2.2927    4.1376    0.6237 H   0  0  0  0  0  0  0  0  0  0  0  0
   -1.9124    3.3728    2.1576 H   0  0  0  0  0  0  0  0  0  0  0  0
    1.2665   -0.5426    0.9099 C   0  0  0  0  0  0  0  0  0  0  0  0
    2.0199   -0.0981    1.7697 O   0  0  0  0  0  0  0  0  0  0  0  0
    1.6286   -1.7108    0.2645 N   0  0  0  0  0  0  0  0  0  0  0  0
    0.8412   -2.2053   -0.1512 H   0  0  0  0  0  0  0  0  0  0  0  0
    2.7520   -2.5247    0.7127 C   0  0  0  0  0  0  0  0  0  0  0  0
    2.5798   -2.8849    1.7324 H   0  0  0  0  0  0  0  0  0  0  0  0
    2.8768   -3.3895    0.0542 H   0  0  0  0  0  0  0  0  0  0  0  0
    3.6799   -1.9435    0.6956 H   0  0  0  0  0  0  0  0  0  0  0  0
  1  2  1  0  0  0  0
  2  3  1  0  0  0  0
  2  4  1  0  0  0  0
  2  5  1  0  0  0  0
  5  6  2  0  0  0  0
  5  7  1  0  0  0  0
  7  8  1  0  0  0  0
  7  9  1  0  0  0  0
  9 10  1  0  0  0  0
  9 11  1  0  0  0  0
  9 19  1  0  0  0  0
 11 12  1  0  0  0  0
 11 13  1  0  0  0  0
 11 14  1  0  0  0  0
 14 15  2  0  0  0  0
 14 16  1  0  0  0  0
 16 17  1  0  0  0  0
 16 18  1  0  0  0  0
 19 20  2  0  0  0  0
 19 21  1  0  0  0  0
 21 22  1  0  0  0  0
 21 23  1  0  0  0  0
 23 24  1  0  0  0  0
 23 25  1  0  0  0  0
 23 26  1  0  0  0  0
M  END
$$$$

  -OEChem-01062216063D

 26 25  0     1  0  0  0  0  0999 V2000
   -3.2281   -3.0473    1.0732 H   0  0  0  0  0  0  0  0  0  0  0  0
   -3.0994   -2.0209    0.7175 C   0  0  0  0  0  0  0  0  0  0  0  0
   -3.6738   -1.3518    1.3629 H   0  0  0  0  0  0  0  0  0  0  0  0
   -3.4838   -1.9514   -0.3031 H   0  0  0  0  0  0  0  0  0  0  0  0
   -1.6318   -1.6360    0.7465 C   0  0  0  0  0  0  0  0  0  0  0  0
   -0.8085   -2.4832    1.0395 O   0  0  0  0  0  0  0  0  0  0  0  0
   -1.2784   -0.3515    0.3709 N   0  0  0  0  0  0  0  0  0  0  0  0
   -2.0561    0.2298    0.0681 H   0  0  0  0  0  0  0  0  0  0  0  0
    0.0494    0.3068    0.3980 C   0  0  1  0  0  0  0  0  0  0  0  0
    0.3193    0.5769   -0.6288 H   0  0  0  0  0  0  0  0  0  0  0  0
   -0.1256    1.6014    1.2249 C   0  0  0  0  0  0  0  0  0  0  0  0
   -0.5722    1.3609    2.1937 H   0  0  0  0  0  0  0  0  0  0  0  0
    0.8501    2.0582    1.4154 H   0  0  0  0  0  0  0  0  0  0  0  0
   -0.9652    2.6413    0.5006 C   0  0  0  0  0  0  0  0  0  0  0  0
   -0.8395    2.8712   -0.6871 O   0  0  0  0  0  0  0  0  0  0  0  0
   -1.9397    3.3481    1.1449 N   0  0  0  0  0  0  0  0  0  0  0  0
   -2.3120    4.1436    0.6331 H   0  0  0  0  0  0  0  0  0  0  0  0
   -1.9288    3.3641    2.1599 H   0  0  0  0  0  0  0  0  0  0  0  0
    1.2618   -0.5186    0.9167 C   0  0  0  0  0  0  0  0  0  0  0  0
    1.8328   -0.2172    1.9600 O   0  0  0  0  0  0  0  0  0  0  0  0
    1.8142   -1.5000    0.1134 N   0  0  0  0  0  0  0  0  0  0  0  0
    1.1779   -1.8905   -0.5759 H   0  0  0  0  0  0  0  0  0  0  0  0
    2.9047   -2.3511    0.5733 C   0  0  0  0  0  0  0  0  0  0  0  0
    2.5924   -2.9319    1.4477 H   0  0  0  0  0  0  0  0  0  0  0  0
    3.2004   -3.0457   -0.2185 H   0  0  0  0  0  0  0  0  0  0  0  0
    3.7775   -1.7473    0.8437 H   0  0  0  0  0  0  0  0  0  0  0  0
  1  2  1  0  0  0  0
  2  3  1  0  0  0  0
  2  4  1  0  0  0  0
  2  5  1  0  0  0  0
  5  6  2  0  0  0  0
  5  7  1  0  0  0  0
  7  8  1  0  0  0  0
  7  9  1  0  0  0  0
  9 10  1  0  0  0  0
  9 11  1  0  0  0  0
  9 19  1  0  0  0  0
 11 12  1  0  0  0  0
 11 13  1  0  0  0  0
 11 14  1  0  0  0  0
 14 15  2  0  0  0  0
 14 16  1  0  0  0  0
 16 17  1  0  0  0  0
 16 18  1  0  0  0  0
 19 20  2  0  0  0  0
 19 21  1  0  0  0  0
 21 22  1  0  0  0  0
 21 23  1  0  0  0  0
 23 24  1  0  0  0  0
 23 25  1  0  0  0  0
 23 26  1  0  0  0  0
M  END
$$$$

  -OEChem-01062216063D

 26 25  0     1  0  0  0  0  0999 V2000
   -3.1794   -3.0572    1.1135 H   0  0  0  0  0  0  0  0  0  0  0  0
   -3.0702   -2.0325    0.7464 C   0  0  0  0  0  0  0  0  0  0  0  0
   -3.6188   -1.3622    1.4125 H   0  0  0  0  0  0  0  0  0  0  0  0
   -3.4985   -1.9703   -0.2569 H   0  0  0  0  0  0  0  0  0  0  0  0
   -1.6040   -1.6430    0.7103 C   0  0  0  0  0  0  0  0  0  0  0  0
   -0.7641   -2.4960    0.9336 O   0  0  0  0  0  0  0  0  0  0  0  0
   -1.2701   -0.3534    0.3328 N   0  0  0  0  0  0  0  0  0  0  0  0
   -2.0601    0.2345    0.0798 H   0  0  0  0  0  0  0  0  0  0  0  0
    0.0518    0.3135    0.3801 C   0  0  1  0  0  0  0  0  0  0  0  0
    0.3340    0.5925   -0.6408 H   0  0  0  0  0  0  0  0  0  0  0  0
   -0.1271    1.5994    1.2171 C   0  0  0  0  0  0  0  0  0  0  0  0
   -0.5827    1.3500    2.1797 H   0  0  0  0  0  0  0  0  0  0  0  0
    0.8503    2.0468    1.4221 H   0  0  0  0  0  0  0  0  0  0  0  0
   -0.9617    2.6477    0.4995 C   0  0  0  0  0  0  0  0  0  0  0  0
   -0.8286    2.8891   -0.6852 O   0  0  0  0  0  0  0  0  0  0  0  0
   -1.9425    3.3446    1.1450 N   0  0  0  0  0  0  0  0  0  0  0  0
   -2.3144    4.1451    0.6412 H   0  0  0  0  0  0  0  0  0  0  0  0
   -1.9427    3.3447    2.1602 H   0  0  0  0  0  0  0  0  0  0  0  0
    1.2503   -0.5124    0.9233 C   0  0  0  0  0  0  0  0  0  0  0  0
    1.6362   -0.3699    2.0793 O   0  0  0  0  0  0  0  0  0  0  0  0
    2.0131   -1.2671    0.0502 N   0  0  0  0  0  0  0  0  0  0  0  0
    1.5625   -1.5131   -0.8259 H   0  0  0  0  0  0  0  0  0  0  0  0
    3.1079   -2.1124    0.5107 C   0  0  0  0  0  0  0  0  0  0  0  0
    2.7364   -2.8733    1.2055 H   0  0  0  0  0  0  0  0  0  0  0  0
    3.5784   -2.6169   -0.3386 H   0  0  0  0  0  0  0  0  0  0  0  0
    3.8699   -1.5123    1.0191 H   0  0  0  0  0  0  0  0  0  0  0  0
  1  2  1  0  0  0  0
  2  3  1  0  0  0  0
  2  4  1  0  0  0  0
  2  5  1  0  0  0  0
  5  6  2  0  0  0  0
  5  7  1  0  0  0  0
  7  8  1  0  0  0  0
  7  9  1  0  0  0  0
  9 10  1  0  0  0  0
  9 11  1  0  0  0  0
  9 19  1  0  0  0  0
 11 12  1  0  0  0  0
 11 13  1  0  0  0  0
 11 14  1  0  0  0  0
 14 15  2  0  0  0  0
 14 16  1  0  0  0  0
 16 17  1  0  0  0  0
 16 18  1  0  0  0  0
 19 20  2  0  0  0  0
 19 21  1  0  0  0  0
 21 22  1  0  0  0  0
 21 23  1  0  0  0  0
 23 24  1  0  0  0  0
 23 25  1  0  0  0  0
 23 26  1  0  0  0  0
M  END
$$$$

  -OEChem-01062216063D

 26 25  0     1  0  0  0  0  0999 V2000
   -3.1744   -3.0562    1.1350 H   0  0  0  0  0  0  0  0  0  0  0  0
   -3.0723   -2.0314    0.7669 C   0  0  0  0  0  0  0  0  0  0  0  0
   -3.5856   -1.3591    1.4584 H   0  0  0  0  0  0  0  0  0  0  0  0
   -3.5426   -1.9617   -0.2169 H   0  0  0  0  0  0  0  0  0  0  0  0
   -1.6054   -1.6547    0.6686 C   0  0  0  0  0  0  0  0  0  0  0  0
   -0.7641   -2.5229    0.8179 O   0  0  0  0  0  0  0  0  0  0  0  0
   -1.2750   -0.3624    0.2967 N   0  0  0  0  0  0  0  0  0  0  0  0
   -2.0691    0.2397    0.0968 H   0  0  0  0  0  0  0  0  0  0  0  0
    0.0469    0.3006    0.3671 C   0  0  1  0  0  0  0  0  0  0  0  0
    0.3404    0.5859   -0.6487 H   0  0  0  0  0  0  0  0  0  0  0  0
   -0.1298    1.5787    1.2146 C   0  0  0  0  0  0  0  0  0  0  0  0
   -0.5985    1.3230    2.1693 H   0  0  0  0  0  0  0  0  0  0  0  0
    0.8498    2.0130    1.4354 H   0  0  0  0  0  0  0  0  0  0  0  0
   -0.9498    2.6407    0.5005 C   0  0  0  0  0  0  0  0  0  0  0  0
   -0.8029    2.8922   -0.6803 O   0  0  0  0  0  0  0  0  0  0  0  0
   -1.9313    3.3390    1.1432 N   0  0  0  0  0  0  0  0  0  0  0  0
   -2.2949    4.1450    0.6422 H   0  0  0  0  0  0  0  0  0  0  0  0
   -1.9440    3.3286    2.1583 H   0  0  0  0  0  0  0  0  0  0  0  0
    1.2345   -0.5272    0.9273 C   0  0  0  0  0  0  0  0  0  0  0  0
    1.4570   -0.5473    2.1337 O   0  0  0  0  0  0  0  0  0  0  0  0
    2.1929   -1.0269    0.0637 N   0  0  0  0  0  0  0  0  0  0  0  0
    1.9216   -1.1091   -0.9114 H   0  0  0  0  0  0  0  0  0  0  0  0
    3.3276   -1.8144    0.5298 C   0  0  0  0  0  0  0  0  0  0  0  0
    2.9798   -2.7209    1.0365 H   0  0  0  0  0  0  0  0  0  0  0  0
    3.9574   -2.1077   -0.3153 H   0  0  0  0  0  0  0  0  0  0  0  0
    3.9385   -1.2326    1.2280 H   0  0  0  0  0  0  0  0  0  0  0  0
  1  2  1  0  0  0  0
  2  3  1  0  0  0  0
  2  4  1  0  0  0  0
  2  5  1  0  0  0  0
  5  6  2  0  0  0  0
  5  7  1  0  0  0  0
  7  8  1  0  0  0  0
  7  9  1  0  0  0  0
  9 10  1  0  0  0  0
  9 11  1  0  0  0  0
  9 19  1  0  0  0  0
 11 12  1  0  0  0  0
 11 13  1  0  0  0  0
 11 14  1  0  0  0  0
 14 15  2  0  0  0  0
 14 16  1  0  0  0  0
 16 17  1  0  0  0  0
 16 18  1  0  0  0  0
 19 20  2  0  0  0  0
 19 21  1  0  0  0  0
 21 22  1  0  0  0  0
 21 23  1  0  0  0  0
 23 24  1  0  0  0  0
 23 25  1  0  0  0  0
 23 26  1  0  0  0  0
M  END
$$$$

  -OEChem-01062216063D

 26 25  0     1  0  0  0  0  0999 V2000
   -3.1716   -3.0705    1.1159 H   0  0  0  0  0  0  0  0  0  0  0  0
   -3.0764   -2.0322    0.7854 C   0  0  0  0  0  0  0  0  0  0  0  0
   -3.5411   -1.3837    1.5319 H   0  0  0  0  0  0  0  0  0  0  0  0
   -3.5995   -1.9160   -0.1668 H   0  0  0  0  0  0  0  0  0  0  0  0
   -1.6119   -1.6692    0.6209 C   0  0  0  0  0  0  0  0  0  0  0  0
   -0.7763   -2.5533    0.6841 O   0  0  0  0  0  0  0  0  0  0  0  0
   -1.2825   -0.3749    0.2556 N   0  0  0  0  0  0  0  0  0  0  0  0
   -2.0789    0.2396    0.1117 H   0  0  0  0  0  0  0  0  0  0  0  0
    0.0409    0.2827    0.3470 C   0  0  1  0  0  0  0  0  0  0  0  0
    0.3427    0.5724   -0.6647 H   0  0  0  0  0  0  0  0  0  0  0  0
   -0.1313    1.5526    1.2064 C   0  0  0  0  0  0  0  0  0  0  0  0
   -0.6108    1.2896    2.1537 H   0  0  0  0  0  0  0  0  0  0  0  0
    0.8503    1.9744    1.4418 H   0  0  0  0  0  0  0  0  0  0  0  0
   -0.9369    2.6299    0.4991 C   0  0  0  0  0  0  0  0  0  0  0  0
   -0.7790    2.8929   -0.6777 O   0  0  0  0  0  0  0  0  0  0  0  0
   -1.9099    3.3361    1.1465 N   0  0  0  0  0  0  0  0  0  0  0  0
   -2.2628    4.1511    0.6523 H   0  0  0  0  0  0  0  0  0  0  0  0
   -1.9263    3.3158    2.1615 H   0  0  0  0  0  0  0  0  0  0  0  0
    1.2210   -0.5455    0.9201 C   0  0  0  0  0  0  0  0  0  0  0  0
    1.3014   -0.7308    2.1303 O   0  0  0  0  0  0  0  0  0  0  0  0
    2.3417   -0.7796    0.1425 N   0  0  0  0  0  0  0  0  0  0  0  0
    2.2326   -0.6780   -0.8618 H   0  0  0  0  0  0  0  0  0  0  0  0
    3.5090   -1.4953    0.6437 C   0  0  0  0  0  0  0  0  0  0  0  0
    3.2280   -2.5014    0.9729 H   0  0  0  0  0  0  0  0  0  0  0  0
    4.2645   -1.5855   -0.1427 H   0  0  0  0  0  0  0  0  0  0  0  0
    3.9542   -0.9597    1.4888 H   0  0  0  0  0  0  0  0  0  0  0  0
  1  2  1  0  0  0  0
  2  3  1  0  0  0  0
  2  4  1  0  0  0  0
  2  5  1  0  0  0  0
  5  6  2  0  0  0  0
  5  7  1  0  0  0  0
  7  8  1  0  0  0  0
  7  9  1  0  0  0  0
  9 10  1  0  0  0  0
  9 11  1  0  0  0  0
  9 19  1  0  0  0  0
 11 12  1  0  0  0  0
 11 13  1  0  0  0  0
 11 14  1  0  0  0  0
 14 15  2  0  0  0  0
 14 16  1  0  0  0  0
 16 17  1  0  0  0  0
 16 18  1  0  0  0  0
 19 20  2  0  0  0  0
 19 21  1  0  0  0  0
 21 22  1  0  0  0  0
 21 23  1  0  0  0  0
 23 24  1  0  0  0  0
 23 25  1  0  0  0  0
 23 26  1  0  0  0  0
M  END
$$$$

  -OEChem-01062216063D

 26 25  0     1  0  0  0  0  0999 V2000
   -3.1670   -3.0687    1.1235 H   0  0  0  0  0  0  0  0  0  0  0  0
   -3.0753   -2.0245    0.8105 C   0  0  0  0  0  0  0  0  0  0  0  0
   -3.4795   -1.3865    1.6000 H   0  0  0  0  0  0  0  0  0  0  0  0
   -3.6556   -1.8773   -0.1034 H   0  0  0  0  0  0  0  0  0  0  0  0
   -1.6185   -1.6814    0.5608 C   0  0  0  0  0  0  0  0  0  0  0  0
   -0.7994   -2.5825    0.5166 O   0  0  0  0  0  0  0  0  0  0  0  0
   -1.2869   -0.3848    0.2067 N   0  0  0  0  0  0  0  0  0  0  0  0
   -2.0813    0.2435    0.1293 H   0  0  0  0  0  0  0  0  0  0  0  0
    0.0403    0.2613    0.3220 C   0  0  1  0  0  0  0  0  0  0  0  0
    0.3532    0.5577   -0.6845 H   0  0  0  0  0  0  0  0  0  0  0  0
   -0.1291    1.5192    1.1984 C   0  0  0  0  0  0  0  0  0  0  0  0
   -0.6203    1.2455    2.1368 H   0  0  0  0  0  0  0  0  0  0  0  0
    0.8535    1.9288    1.4504 H   0  0  0  0  0  0  0  0  0  0  0  0
   -0.9177    2.6157    0.5016 C   0  0  0  0  0  0  0  0  0  0  0  0
   -0.7447    2.8952   -0.6691 O   0  0  0  0  0  0  0  0  0  0  0  0
   -1.8871    3.3247    1.1510 N   0  0  0  0  0  0  0  0  0  0  0  0
   -2.2275    4.1497    0.6644 H   0  0  0  0  0  0  0  0  0  0  0  0
   -1.9143    3.2903    2.1652 H   0  0  0  0  0  0  0  0  0  0  0  0
    1.2122   -0.5704    0.9044 C   0  0  0  0  0  0  0  0  0  0  0  0
    1.1761   -0.9219    2.0790 O   0  0  0  0  0  0  0  0  0  0  0  0
    2.4460   -0.5405    0.2776 N   0  0  0  0  0  0  0  0  0  0  0  0
    2.4641   -0.2517   -0.6957 H   0  0  0  0  0  0  0  0  0  0  0  0
    3.6326   -1.1773    0.8366 C   0  0  0  0  0  0  0  0  0  0  0  0
    3.4522   -2.2451    1.0003 H   0  0  0  0  0  0  0  0  0  0  0  0
    4.4784   -1.0695    0.1508 H   0  0  0  0  0  0  0  0  0  0  0  0
    3.9020   -0.7150    1.7921 H   0  0  0  0  0  0  0  0  0  0  0  0
  1  2  1  0  0  0  0
  2  3  1  0  0  0  0
  2  4  1  0  0  0  0
  2  5  1  0  0  0  0
  5  6  2  0  0  0  0
  5  7  1  0  0  0  0
  7  8  1  0  0  0  0
  7  9  1  0  0  0  0
  9 10  1  0  0  0  0
  9 11  1  0  0  0  0
  9 19  1  0  0  0  0
 11 12  1  0  0  0  0
 11 13  1  0  0  0  0
 11 14  1  0  0  0  0
 14 15  2  0  0  0  0
 14 16  1  0  0  0  0
 16 17  1  0  0  0  0
 16 18  1  0  0  0  0
 19 20  2  0  0  0  0
 19 21  1  0  0  0  0
 21 22  1  0  0  0  0
 21 23  1  0  0  0  0
 23 24  1  0  0  0  0
 23 25  1  0  0  0  0
 23 26  1  0  0  0  0
M  END
$$$$

  -OEChem-01062216063D

 26 25  0     1  0  0  0  0  0999 V2000
   -3.1721   -3.0577    1.0975 H   0  0  0  0  0  0  0  0  0  0  0  0
   -3.0684   -1.9984    0.8458 C   0  0  0  0  0  0  0  0  0  0  0  0
   -3.3882   -1.4024    1.7037 H   0  0  0  0  0  0  0  0  0  0  0  0
   -3.7117   -1.7742   -0.0084 H   0  0  0  0  0  0  0  0  0  0  0  0
   -1.6238   -1.6820    0.5059 C   0  0  0  0  0  0  0  0  0  0  0  0
   -0.8374   -2.5999    0.3492 O   0  0  0  0  0  0  0  0  0  0  0  0
   -1.2828   -0.3850    0.1640 N   0  0  0  0  0  0  0  0  0  0  0  0
   -2.0695    0.2570    0.1527 H   0  0  0  0  0  0  0  0  0  0  0  0
    0.0518    0.2432    0.2971 C   0  0  1  0  0  0  0  0  0  0  0  0
    0.3742    0.5477   -0.7040 H   0  0  0  0  0  0  0  0  0  0  0  0
   -0.1195    1.4881    1.1920 C   0  0  0  0  0  0  0  0  0  0  0  0
   -0.6222    1.2019    2.1203 H   0  0  0  0  0  0  0  0  0  0  0  0
    0.8615    1.8898    1.4623 H   0  0  0  0  0  0  0  0  0  0  0  0
   -0.8943    2.5994    0.5023 C   0  0  0  0  0  0  0  0  0  0  0  0
   -0.7052    2.8942   -0.6620 O   0  0  0  0  0  0  0  0  0  0  0  0
   -1.8828    3.2889    1.1438 N   0  0  0  0  0  0  0  0  0  0  0  0
   -2.2272    4.1149    0.6618 H   0  0  0  0  0  0  0  0  0  0  0  0
   -1.9338    3.2362    2.1562 H   0  0  0  0  0  0  0  0  0  0  0  0
    1.2190   -0.5940    0.8815 C   0  0  0  0  0  0  0  0  0  0  0  0
    1.0970   -1.1122    1.9861 O   0  0  0  0  0  0  0  0  0  0  0  0
    2.5096   -0.3231    0.4582 N   0  0  0  0  0  0  0  0  0  0  0  0
    2.6167    0.1462   -0.4360 H   0  0  0  0  0  0  0  0  0  0  0  0
    3.6933   -0.8926    1.0928 C   0  0  0  0  0  0  0  0  0  0  0  0
    3.6382   -1.9864    1.0934 H   0  0  0  0  0  0  0  0  0  0  0  0
    4.5952   -0.5918    0.5512 H   0  0  0  0  0  0  0  0  0  0  0  0
    3.7793   -0.5436    2.1272 H   0  0  0  0  0  0  0  0  0  0  0  0
  1  2  1  0  0  0  0
  2  3  1  0  0  0  0
  2  4  1  0  0  0  0
  2  5  1  0  0  0  0
  5  6  2  0  0  0  0
  5  7  1  0  0  0  0
  7  8  1  0  0  0  0
  7  9  1  0  0  0  0
  9 10  1  0  0  0  0
  9 11  1  0  0  0  0
  9 19  1  0  0  0  0
 11 12  1  0  0  0  0
 11 13  1  0  0  0  0
 11 14  1  0  0  0  0
 14 15  2  0  0  0  0
 14 16  1  0  0  0  0
 16 17  1  0  0  0  0
 16 18  1  0  0  0  0
 19 20  2  0  0  0  0
 19 21  1  0  0  0  0
 21 22  1  0  0  0  0
 21 23  1  0  0  0  0
 23 24  1  0  0  0  0
 23 25  1  0  0  0  0
 23 26  1  0  0  0  0
M  END
$$$$

  -OEChem-01062216063D

 26 25  0     1  0  0  0  0  0999 V2000
   -3.1572   -3.0430    1.1029 H   0  0  0  0  0  0  0  0  0  0  0  0
   -3.0459   -1.9770    0.8852 C   0  0  0  0  0  0  0  0  0  0  0  0
   -3.2867   -1.4094    1.7870 H   0  0  0  0  0  0  0  0  0  0  0  0
   -3.7440   -1.7037    0.0904 H   0  0  0  0  0  0  0  0  0  0  0  0
   -1.6222   -1.6807    0.4515 C   0  0  0  0  0  0  0  0  0  0  0  0
   -0.8806   -2.6077    0.1746 O   0  0  0  0  0  0  0  0  0  0  0  0
   -1.2720   -0.3833    0.1234 N   0  0  0  0  0  0  0  0  0  0  0  0
   -2.0507    0.2664    0.1640 H   0  0  0  0  0  0  0  0  0  0  0  0
    0.0683    0.2312    0.2734 C   0  0  1  0  0  0  0  0  0  0  0  0
    0.3996    0.5455   -0.7220 H   0  0  0  0  0  0  0  0  0  0  0  0
   -0.1201    1.4641    1.1848 C   0  0  0  0  0  0  0  0  0  0  0  0
   -0.6354    1.1624    2.1013 H   0  0  0  0  0  0  0  0  0  0  0  0
    0.8525    1.8692    1.4775 H   0  0  0  0  0  0  0  0  0  0  0  0
   -0.8868    2.5845    0.5006 C   0  0  0  0  0  0  0  0  0  0  0  0
   -0.6797    2.8967   -0.6557 O   0  0  0  0  0  0  0  0  0  0  0  0
   -1.8894    3.2598    1.1352 N   0  0  0  0  0  0  0  0  0  0  0  0
   -2.2317    4.0901    0.6590 H   0  0  0  0  0  0  0  0  0  0  0  0
   -1.9630    3.1892    2.1451 H   0  0  0  0  0  0  0  0  0  0  0  0
    1.2390   -0.6049    0.8590 C   0  0  0  0  0  0  0  0  0  0  0  0
    1.0596   -1.3009    1.8513 O   0  0  0  0  0  0  0  0  0  0  0  0
    2.5294   -0.1278    0.6883 N   0  0  0  0  0  0  0  0  0  0  0  0
    2.6899    0.5100   -0.0859 H   0  0  0  0  0  0  0  0  0  0  0  0
    3.6859   -0.6650    1.3982 C   0  0  0  0  0  0  0  0  0  0  0  0
    3.7683   -1.7448    1.2343 H   0  0  0  0  0  0  0  0  0  0  0  0
    4.6041   -0.1899    1.0400 H   0  0  0  0  0  0  0  0  0  0  0  0
    3.5974   -0.4777    2.4736 H   0  0  0  0  0  0  0  0  0  0  0  0
  1  2  1  0  0  0  0
  2  3  1  0  0  0  0
  2  4  1  0  0  0  0
  2  5  1  0  0  0  0
  5  6  2  0  0  0  0
  5  7  1  0  0  0  0
  7  8  1  0  0  0  0
  7  9  1  0  0  0  0
  9 10  1  0  0  0  0
  9 11  1  0  0  0  0
  9 19  1  0  0  0  0
 11 12  1  0  0  0  0
 11 13  1  0  0  0  0
 11 14  1  0  0  0  0
 14 15  2  0  0  0  0
 14 16  1  0  0  0  0
 16 17  1  0  0  0  0
 16 18  1  0  0  0  0
 19 20  2  0  0  0  0
 19 21  1  0  0  0  0
 21 22  1  0  0  0  0
 21 23  1  0  0  0  0
 23 24  1  0  0  0  0
 23 25  1  0  0  0  0
 23 26  1  0  0  0  0
M  END
$$$$

  -OEChem-01062216063D

 26 25  0     1  0  0  0  0  0999 V2000
   -2.9472   -3.1852    1.0974 H   0  0  0  0  0  0  0  0  0  0  0  0
   -2.8038   -2.2669    0.5210 C   0  0  0  0  0  0  0  0  0  0  0  0
   -3.7444   -1.7115    0.4998 H   0  0  0  0  0  0  0  0  0  0  0  0
   -2.5212   -2.5358   -0.4998 H   0  0  0  0  0  0  0  0  0  0  0  0
   -1.7121   -1.4230    1.1516 C   0  0  0  0  0  0  0  0  0  0  0  0
   -1.2928   -1.6996    2.2648 O   0  0  0  0  0  0  0  0  0  0  0  0
   -1.3867   -0.1928    0.6121 N   0  0  0  0  0  0  0  0  0  0  0  0
   -1.9543    0.0337   -0.1999 H   0  0  0  0  0  0  0  0  0  0  0  0
   -0.0057    0.3391    0.5367 C   0  0  1  0  0  0  0  0  0  0  0  0
    0.1456    0.7767   -0.4559 H   0  0  0  0  0  0  0  0  0  0  0  0
    0.0412    1.4466    1.6124 C   0  0  0  0  0  0  0  0  0  0  0  0
   -0.3111    1.0418    2.5662 H   0  0  0  0  0  0  0  0  0  0  0  0
    1.0629    1.8003    1.7660 H   0  0  0  0  0  0  0  0  0  0  0  0
   -0.7957    2.6555    1.2226 C   0  0  0  0  0  0  0  0  0  0  0  0
   -0.7964    3.1004    0.0892 O   0  0  0  0  0  0  0  0  0  0  0  0
   -1.6058    3.2871    2.1220 N   0  0  0  0  0  0  0  0  0  0  0  0
   -2.2608    3.9612    1.7369 H   0  0  0  0  0  0  0  0  0  0  0  0
   -1.8128    2.8204    2.9996 H   0  0  0  0  0  0  0  0  0  0  0  0
    1.1995   -0.6257    0.7410 C   0  0  0  0  0  0  0  0  0  0  0  0
    1.0946   -1.8309    0.5539 O   0  0  0  0  0  0  0  0  0  0  0  0
    2.4846   -0.1104    0.6712 N   0  0  0  0  0  0  0  0  0  0  0  0
    2.5855    0.8995    0.6448 H   0  0  0  0  0  0  0  0  0  0  0  0
    3.6846   -0.9355    0.5752 C   0  0  0  0  0  0  0  0  0  0  0  0
    3.7020   -1.4777   -0.3760 H   0  0  0  0  0  0  0  0  0  0  0  0
    4.5801   -0.3095    0.6341 H   0  0  0  0  0  0  0  0  0  0  0  0
    3.7180   -1.6612    1.3949 H   0  0  0  0  0  0  0  0  0  0  0  0
  1  2  1  0  0  0  0
  2  3  1  0  0  0  0
  2  4  1  0  0  0  0
  2  5  1  0  0  0  0
  5  6  2  0  0  0  0
  5  7  1  0  0  0  0
  7  8  1  0  0  0  0
  7  9  1  0  0  0  0
  9 10  1  0  0  0  0
  9 11  1  0  0  0  0
  9 19  1  0  0  0  0
 11 12  1  0  0  0  0
 11 13  1  0  0  0  0
 11 14  1  0  0  0  0
 14 15  2  0  0  0  0
 14 16  1  0  0  0  0
 16 17  1  0  0  0  0
 16 18  1  0  0  0  0
 19 20  2  0  0  0  0
 19 21  1  0  0  0  0
 21 22  1  0  0  0  0
 21 23  1  0  0  0  0
 23 24  1  0  0  0  0
 23 25  1  0  0  0  0
 23 26  1  0  0  0  0
M  END
$$$$

  -OEChem-01062216063D

 26 25  0     1  0  0  0  0  0999 V2000
   -2.9321   -3.1776    1.1231 H   0  0  0  0  0  0  0  0  0  0  0  0
   -2.7922   -2.2643    0.5379 C   0  0  0  0  0  0  0  0  0  0  0  0
   -3.7274   -1.6997    0.5337 H   0  0  0  0  0  0  0  0  0  0  0  0
   -2.5340   -2.5417   -0.4870 H   0  0  0  0  0  0  0  0  0  0  0  0
   -1.6787   -1.4271    1.1381 C   0  0  0  0  0  0  0  0  0  0  0  0
   -1.1891   -1.7402    2.2126 O   0  0  0  0  0  0  0  0  0  0  0  0
   -1.3828   -0.1841    0.6096 N   0  0  0  0  0  0  0  0  0  0  0  0
   -1.9662    0.0486   -0.1895 H   0  0  0  0  0  0  0  0  0  0  0  0
   -0.0106    0.3684    0.5310 C   0  0  1  0  0  0  0  0  0  0  0  0
    0.1407    0.8073   -0.4611 H   0  0  0  0  0  0  0  0  0  0  0  0
    0.0195    1.4800    1.6046 C   0  0  0  0  0  0  0  0  0  0  0  0
   -0.3227    1.0725    2.5608 H   0  0  0  0  0  0  0  0  0  0  0  0
    1.0331    1.8567    1.7518 H   0  0  0  0  0  0  0  0  0  0  0  0
   -0.8379    2.6743    1.2114 C   0  0  0  0  0  0  0  0  0  0  0  0
   -0.8480    3.1166    0.0775 O   0  0  0  0  0  0  0  0  0  0  0  0
   -1.6520    3.3011    2.1107 N   0  0  0  0  0  0  0  0  0  0  0  0
   -2.3138    3.9684    1.7248 H   0  0  0  0  0  0  0  0  0  0  0  0
   -1.8477    2.8420    2.9948 H   0  0  0  0  0  0  0  0  0  0  0  0
    1.1792   -0.6191    0.7221 C   0  0  0  0  0  0  0  0  0  0  0  0
    1.1002   -1.7590    0.2791 O   0  0  0  0  0  0  0  0  0  0  0  0
    2.4573   -0.1447    0.9730 N   0  0  0  0  0  0  0  0  0  0  0  0
    2.5586    0.8357    1.2128 H   0  0  0  0  0  0  0  0  0  0  0  0
    3.6520   -0.9807    0.9278 C   0  0  0  0  0  0  0  0  0  0  0  0
    3.8242   -1.3482   -0.0893 H   0  0  0  0  0  0  0  0  0  0  0  0
    4.5287   -0.4060    1.2414 H   0  0  0  0  0  0  0  0  0  0  0  0
    3.5446   -1.8392    1.5994 H   0  0  0  0  0  0  0  0  0  0  0  0
  1  2  1  0  0  0  0
  2  3  1  0  0  0  0
  2  4  1  0  0  0  0
  2  5  1  0  0  0  0
  5  6  2  0  0  0  0
  5  7  1  0  0  0  0
  7  8  1  0  0  0  0
  7  9  1  0  0  0  0
  9 10  1  0  0  0  0
  9 11  1  0  0  0  0
  9 19  1  0  0  0  0
 11 12  1  0  0  0  0
 11 13  1  0  0  0  0
 11 14  1  0  0  0  0
 14 15  2  0  0  0  0
 14 16  1  0  0  0  0
 16 17  1  0  0  0  0
 16 18  1  0  0  0  0
 19 20  2  0  0  0  0
 19 21  1  0  0  0  0
 21 22  1  0  0  0  0
 21 23  1  0  0  0  0
 23 24  1  0  0  0  0
 23 25  1  0  0  0  0
 23 26  1  0  0  0  0
M  END
$$$$

  -OEChem-01062216063D

 26 25  0     1  0  0  0  0  0999 V2000
   -2.8570   -3.2049    1.1085 H   0  0  0  0  0  0  0  0  0  0  0  0
   -2.7701   -2.2654    0.5556 C   0  0  0  0  0  0  0  0  0  0  0  0
   -3.7157   -1.7230    0.6269 H   0  0  0  0  0  0  0  0  0  0  0  0
   -2.5645   -2.4947   -0.4929 H   0  0  0  0  0  0  0  0  0  0  0  0
   -1.6427   -1.4277    1.1282 C   0  0  0  0  0  0  0  0  0  0  0  0
   -1.0954   -1.7670    2.1666 O   0  0  0  0  0  0  0  0  0  0  0  0
   -1.3789   -0.1730    0.6092 N   0  0  0  0  0  0  0  0  0  0  0  0
   -1.9829    0.0637   -0.1735 H   0  0  0  0  0  0  0  0  0  0  0  0
   -0.0183    0.4035    0.5164 C   0  0  1  0  0  0  0  0  0  0  0  0
    0.1205    0.8433   -0.4775 H   0  0  0  0  0  0  0  0  0  0  0  0
    0.0144    1.5195    1.5842 C   0  0  0  0  0  0  0  0  0  0  0  0
   -0.3023    1.1137    2.5497 H   0  0  0  0  0  0  0  0  0  0  0  0
    1.0248    1.9150    1.7026 H   0  0  0  0  0  0  0  0  0  0  0  0
   -0.8653    2.6997    1.1968 C   0  0  0  0  0  0  0  0  0  0  0  0
   -0.9006    3.1375    0.0618 O   0  0  0  0  0  0  0  0  0  0  0  0
   -1.6844    3.3098    2.1029 N   0  0  0  0  0  0  0  0  0  0  0  0
   -2.3645    3.9606    1.7206 H   0  0  0  0  0  0  0  0  0  0  0  0
   -1.8655    2.8449    2.9869 H   0  0  0  0  0  0  0  0  0  0  0  0
    1.1640   -0.5958    0.6840 C   0  0  0  0  0  0  0  0  0  0  0  0
    1.1350   -1.6477    0.0550 O   0  0  0  0  0  0  0  0  0  0  0  0
    2.3832   -0.2135    1.2201 N   0  0  0  0  0  0  0  0  0  0  0  0
    2.4180    0.6644    1.7264 H   0  0  0  0  0  0  0  0  0  0  0  0
    3.5429   -1.0965    1.2746 C   0  0  0  0  0  0  0  0  0  0  0  0
    3.8678   -1.3659    0.2642 H   0  0  0  0  0  0  0  0  0  0  0  0
    4.3742   -0.5984    1.7824 H   0  0  0  0  0  0  0  0  0  0  0  0
    3.3004   -2.0127    1.8236 H   0  0  0  0  0  0  0  0  0  0  0  0
  1  2  1  0  0  0  0
  2  3  1  0  0  0  0
  2  4  1  0  0  0  0
  2  5  1  0  0  0  0
  5  6  2  0  0  0  0
  5  7  1  0  0  0  0
  7  8  1  0  0  0  0
  7  9  1  0  0  0  0
  9 10  1  0  0  0  0
  9 11  1  0  0  0  0
  9 19  1  0  0  0  0
 11 12  1  0  0  0  0
 11 13  1  0  0  0  0
 11 14  1  0  0  0  0
 14 15  2  0  0  0  0
 14 16  1  0  0  0  0
 16 17  1  0  0  0  0
 16 18  1  0  0  0  0
 19 20  2  0  0  0  0
 19 21  1  0  0  0  0
 21 22  1  0  0  0  0
 21 23  1  0  0  0  0
 23 24  1  0  0  0  0
 23 25  1  0  0  0  0
 23 26  1  0  0  0  0
M  END
$$$$

  -OEChem-01062216063D

 26 25  0     1  0  0  0  0  0999 V2000
   -2.8312   -3.2249    1.0928 H   0  0  0  0  0  0  0  0  0  0  0  0
   -2.7709   -2.2689    0.5652 C   0  0  0  0  0  0  0  0  0  0  0  0
   -3.7130   -1.7316    0.6967 H   0  0  0  0  0  0  0  0  0  0  0  0
   -2.6149   -2.4662   -0.4983 H   0  0  0  0  0  0  0  0  0  0  0  0
   -1.6197   -1.4449    1.1099 C   0  0  0  0  0  0  0  0  0  0  0  0
   -1.0263   -1.8141    2.1121 O   0  0  0  0  0  0  0  0  0  0  0  0
   -1.3743   -0.1824    0.6007 N   0  0  0  0  0  0  0  0  0  0  0  0
   -1.9957    0.0656   -0.1650 H   0  0  0  0  0  0  0  0  0  0  0  0
   -0.0243    0.4159    0.5056 C   0  0  1  0  0  0  0  0  0  0  0  0
    0.1055    0.8535   -0.4906 H   0  0  0  0  0  0  0  0  0  0  0  0
    0.0111    1.5385    1.5653 C   0  0  0  0  0  0  0  0  0  0  0  0
   -0.2919    1.1374    2.5369 H   0  0  0  0  0  0  0  0  0  0  0  0
    1.0221    1.9399    1.6634 H   0  0  0  0  0  0  0  0  0  0  0  0
   -0.8802    2.7112    1.1816 C   0  0  0  0  0  0  0  0  0  0  0  0
   -0.9321    3.1441    0.0455 O   0  0  0  0  0  0  0  0  0  0  0  0
   -1.6868    3.3259    2.0960 N   0  0  0  0  0  0  0  0  0  0  0  0
   -2.3700    3.9783    1.7222 H   0  0  0  0  0  0  0  0  0  0  0  0
   -1.8476    2.8744    2.9905 H   0  0  0  0  0  0  0  0  0  0  0  0
    1.1601   -0.5802    0.6623 C   0  0  0  0  0  0  0  0  0  0  0  0
    1.2168   -1.5319   -0.1076 O   0  0  0  0  0  0  0  0  0  0  0  0
    2.2647   -0.3149    1.4551 N   0  0  0  0  0  0  0  0  0  0  0  0
    2.1675    0.4211    2.1461 H   0  0  0  0  0  0  0  0  0  0  0  0
    3.3856   -1.2392    1.5811 C   0  0  0  0  0  0  0  0  0  0  0  0
    3.8564   -1.4081    0.6069 H   0  0  0  0  0  0  0  0  0  0  0  0
    4.1389   -0.8292    2.2603 H   0  0  0  0  0  0  0  0  0  0  0  0
    3.0451   -2.2011    1.9789 H   0  0  0  0  0  0  0  0  0  0  0  0
  1  2  1  0  0  0  0
  2  3  1  0  0  0  0
  2  4  1  0  0  0  0
  2  5  1  0  0  0  0
  5  6  2  0  0  0  0
  5  7  1  0  0  0  0
  7  8  1  0  0  0  0
  7  9  1  0  0  0  0
  9 10  1  0  0  0  0
  9 11  1  0  0  0  0
  9 19  1  0  0  0  0
 11 12  1  0  0  0  0
 11 13  1  0  0  0  0
 11 14  1  0  0  0  0
 14 15  2  0  0  0  0
 14 16  1  0  0  0  0
 16 17  1  0  0  0  0
 16 18  1  0  0  0  0
 19 20  2  0  0  0  0
 19 21  1  0  0  0  0
 21 22  1  0  0  0  0
 21 23  1  0  0  0  0
 23 24  1  0  0  0  0
 23 25  1  0  0  0  0
 23 26  1  0  0  0  0
M  END
$$$$

  -OEChem-01062216063D

 26 25  0     1  0  0  0  0  0999 V2000
   -2.8306   -3.2248    1.0844 H   0  0  0  0  0  0  0  0  0  0  0  0
   -2.7820   -2.2584    0.5745 C   0  0  0  0  0  0  0  0  0  0  0  0
   -3.7138   -1.7164    0.7535 H   0  0  0  0  0  0  0  0  0  0  0  0
   -2.6689   -2.4343   -0.4982 H   0  0  0  0  0  0  0  0  0  0  0  0
   -1.6038   -1.4548    1.0914 C   0  0  0  0  0  0  0  0  0  0  0  0
   -0.9752   -1.8527    2.0602 O   0  0  0  0  0  0  0  0  0  0  0  0
   -1.3636   -0.1883    0.5894 N   0  0  0  0  0  0  0  0  0  0  0  0
   -1.9986    0.0743   -0.1604 H   0  0  0  0  0  0  0  0  0  0  0  0
   -0.0201    0.4234    0.4959 C   0  0  1  0  0  0  0  0  0  0  0  0
    0.1048    0.8633   -0.5005 H   0  0  0  0  0  0  0  0  0  0  0  0
    0.0176    1.5462    1.5541 C   0  0  0  0  0  0  0  0  0  0  0  0
   -0.2802    1.1466    2.5278 H   0  0  0  0  0  0  0  0  0  0  0  0
    1.0319    1.9438    1.6454 H   0  0  0  0  0  0  0  0  0  0  0  0
   -0.8803    2.7155    1.1741 C   0  0  0  0  0  0  0  0  0  0  0  0
   -0.9410    3.1477    0.0384 O   0  0  0  0  0  0  0  0  0  0  0  0
   -1.6957    3.3198    2.0877 N   0  0  0  0  0  0  0  0  0  0  0  0
   -2.3828    3.9686    1.7145 H   0  0  0  0  0  0  0  0  0  0  0  0
   -1.8520    2.8683    2.9829 H   0  0  0  0  0  0  0  0  0  0  0  0
    1.1690   -0.5646    0.6479 C   0  0  0  0  0  0  0  0  0  0  0  0
    1.3359   -1.3992   -0.2329 O   0  0  0  0  0  0  0  0  0  0  0  0
    2.1178   -0.4519    1.6506 N   0  0  0  0  0  0  0  0  0  0  0  0
    1.8628    0.1234    2.4462 H   0  0  0  0  0  0  0  0  0  0  0  0
    3.1871   -1.4274    1.8253 C   0  0  0  0  0  0  0  0  0  0  0  0
    3.8052   -1.4861    0.9232 H   0  0  0  0  0  0  0  0  0  0  0  0
    3.8287   -1.1386    2.6633 H   0  0  0  0  0  0  0  0  0  0  0  0
    2.7695   -2.4187    2.0317 H   0  0  0  0  0  0  0  0  0  0  0  0
  1  2  1  0  0  0  0
  2  3  1  0  0  0  0
  2  4  1  0  0  0  0
  2  5  1  0  0  0  0
  5  6  2  0  0  0  0
  5  7  1  0  0  0  0
  7  8  1  0  0  0  0
  7  9  1  0  0  0  0
  9 10  1  0  0  0  0
  9 11  1  0  0  0  0
  9 19  1  0  0  0  0
 11 12  1  0  0  0  0
 11 13  1  0  0  0  0
 11 14  1  0  0  0  0
 14 15  2  0  0  0  0
 14 16  1  0  0  0  0
 16 17  1  0  0  0  0
 16 18  1  0  0  0  0
 19 20  2  0  0  0  0
 19 21  1  0  0  0  0
 21 22  1  0  0  0  0
 21 23  1  0  0  0  0
 23 24  1  0  0  0  0
 23 25  1  0  0  0  0
 23 26  1  0  0  0  0
M  END
$$$$

  -OEChem-01062216063D

 26 25  0     1  0  0  0  0  0999 V2000
   -2.8785   -3.2589    1.0476 H   0  0  0  0  0  0  0  0  0  0  0  0
   -2.8296   -2.2817    0.5587 C   0  0  0  0  0  0  0  0  0  0  0  0
   -3.7392   -1.7233    0.7927 H   0  0  0  0  0  0  0  0  0  0  0  0
   -2.7697   -2.4336   -0.5219 H   0  0  0  0  0  0  0  0  0  0  0  0
   -1.6115   -1.5173    1.0412 C   0  0  0  0  0  0  0  0  0  0  0  0
   -0.9463   -1.9617    1.9638 O   0  0  0  0  0  0  0  0  0  0  0  0
   -1.3656   -0.2460    0.5549 N   0  0  0  0  0  0  0  0  0  0  0  0
   -2.0187    0.0520   -0.1658 H   0  0  0  0  0  0  0  0  0  0  0  0
   -0.0328    0.3901    0.4881 C   0  0  1  0  0  0  0  0  0  0  0  0
    0.0961    0.8346   -0.5058 H   0  0  0  0  0  0  0  0  0  0  0  0
   -0.0236    1.5123    1.5468 C   0  0  0  0  0  0  0  0  0  0  0  0
   -0.3370    1.1089    2.5138 H   0  0  0  0  0  0  0  0  0  0  0  0
    0.9880    1.9130    1.6567 H   0  0  0  0  0  0  0  0  0  0  0  0
   -0.9307    2.6713    1.1561 C   0  0  0  0  0  0  0  0  0  0  0  0
   -0.9821    3.1043    0.0204 O   0  0  0  0  0  0  0  0  0  0  0  0
   -1.7416    3.2879    2.0661 N   0  0  0  0  0  0  0  0  0  0  0  0
   -2.1933    4.1457    1.7616 H   0  0  0  0  0  0  0  0  0  0  0  0
   -1.6268    3.0885    3.0542 H   0  0  0  0  0  0  0  0  0  0  0  0
    1.1790   -0.5649    0.6540 C   0  0  0  0  0  0  0  0  0  0  0  0
    1.5363   -1.2166   -0.3190 O   0  0  0  0  0  0  0  0  0  0  0  0
    1.9238   -0.6246    1.8198 N   0  0  0  0  0  0  0  0  0  0  0  0
    1.4495   -0.2878    2.6517 H   0  0  0  0  0  0  0  0  0  0  0  0
    2.9922   -1.5997    2.0014 C   0  0  0  0  0  0  0  0  0  0  0  0
    3.7570   -1.4814    1.2265 H   0  0  0  0  0  0  0  0  0  0  0  0
    3.4679   -1.4618    2.9769 H   0  0  0  0  0  0  0  0  0  0  0  0
    2.5924   -2.6181    1.9492 H   0  0  0  0  0  0  0  0  0  0  0  0
  1  2  1  0  0  0  0
  2  3  1  0  0  0  0
  2  4  1  0  0  0  0
  2  5  1  0  0  0  0
  5  6  2  0  0  0  0
  5  7  1  0  0  0  0
  7  8  1  0  0  0  0
  7  9  1  0  0  0  0
  9 10  1  0  0  0  0
  9 11  1  0  0  0  0
  9 19  1  0  0  0  0
 11 12  1  0  0  0  0
 11 13  1  0  0  0  0
 11 14  1  0  0  0  0
 14 15  2  0  0  0  0
 14 16  1  0  0  0  0
 16 17  1  0  0  0  0
 16 18  1  0  0  0  0
 19 20  2  0  0  0  0
 19 21  1  0  0  0  0
 21 22  1  0  0  0  0
 21 23  1  0  0  0  0
 23 24  1  0  0  0  0
 23 25  1  0  0  0  0
 23 26  1  0  0  0  0
M  END
$$$$

  -OEChem-01062216063D

 26 25  0     1  0  0  0  0  0999 V2000
   -2.9749   -3.2372    1.0290 H   0  0  0  0  0  0  0  0  0  0  0  0
   -2.9041   -2.2553    0.5525 C   0  0  0  0  0  0  0  0  0  0  0  0
   -3.7926   -1.6732    0.8086 H   0  0  0  0  0  0  0  0  0  0  0  0
   -2.8669   -2.3941   -0.5308 H   0  0  0  0  0  0  0  0  0  0  0  0
   -1.6556   -1.5339    1.0240 C   0  0  0  0  0  0  0  0  0  0  0  0
   -0.9887   -2.0106    1.9286 O   0  0  0  0  0  0  0  0  0  0  0  0
   -1.3755   -0.2703    0.5380 N   0  0  0  0  0  0  0  0  0  0  0  0
   -2.0328    0.0573   -0.1661 H   0  0  0  0  0  0  0  0  0  0  0  0
   -0.0379    0.3578    0.4826 C   0  0  1  0  0  0  0  0  0  0  0  0
    0.0963    0.8031   -0.5106 H   0  0  0  0  0  0  0  0  0  0  0  0
   -0.0222    1.4781    1.5420 C   0  0  0  0  0  0  0  0  0  0  0  0
   -0.3432    1.0770    2.5072 H   0  0  0  0  0  0  0  0  0  0  0  0
    0.9949    1.8635    1.6583 H   0  0  0  0  0  0  0  0  0  0  0  0
   -0.9155    2.6476    1.1521 C   0  0  0  0  0  0  0  0  0  0  0  0
   -0.9603    3.0856    0.0181 O   0  0  0  0  0  0  0  0  0  0  0  0
   -1.7139    3.2763    2.0648 N   0  0  0  0  0  0  0  0  0  0  0  0
   -2.1368    4.1494    1.7623 H   0  0  0  0  0  0  0  0  0  0  0  0
   -1.5782    3.0885    3.0524 H   0  0  0  0  0  0  0  0  0  0  0  0
    1.1816   -0.5830    0.6655 C   0  0  0  0  0  0  0  0  0  0  0  0
    1.7383   -1.0146   -0.3354 O   0  0  0  0  0  0  0  0  0  0  0  0
    1.7207   -0.8506    1.9119 N   0  0  0  0  0  0  0  0  0  0  0  0
    1.0517   -0.7741    2.6744 H   0  0  0  0  0  0  0  0  0  0  0  0
    2.8190   -1.7934    2.0852 C   0  0  0  0  0  0  0  0  0  0  0  0
    3.6924   -1.4788    1.5041 H   0  0  0  0  0  0  0  0  0  0  0  0
    3.1088   -1.8452    3.1389 H   0  0  0  0  0  0  0  0  0  0  0  0
    2.5191   -2.7942    1.7568 H   0  0  0  0  0  0  0  0  0  0  0  0
  1  2  1  0  0  0  0
  2  3  1  0  0  0  0
  2  4  1  0  0  0  0
  2  5  1  0  0  0  0
  5  6  2  0  0  0  0
  5  7  1  0  0  0  0
  7  8  1  0  0  0  0
  7  9  1  0  0  0  0
  9 10  1  0  0  0  0
  9 11  1  0  0  0  0
  9 19  1  0  0  0  0
 11 12  1  0  0  0  0
 11 13  1  0  0  0  0
 11 14  1  0  0  0  0
 14 15  2  0  0  0  0
 14 16  1  0  0  0  0
 16 17  1  0  0  0  0
 16 18  1  0  0  0  0
 19 20  2  0  0  0  0
 19 21  1  0  0  0  0
 21 22  1  0  0  0  0
 21 23  1  0  0  0  0
 23 24  1  0  0  0  0
 23 25  1  0  0  0  0
 23 26  1  0  0  0  0
M  END
$$$$

  -OEChem-01062216063D

 26 25  0     1  0  0  0  0  0999 V2000
   -3.1355   -3.1773    0.9959 H   0  0  0  0  0  0  0  0  0  0  0  0
   -3.0262   -2.1845    0.5502 C   0  0  0  0  0  0  0  0  0  0  0  0
   -3.8677   -1.5622    0.8645 H   0  0  0  0  0  0  0  0  0  0  0  0
   -3.0428   -2.2859   -0.5378 H   0  0  0  0  0  0  0  0  0  0  0  0
   -1.7195   -1.5526    0.9920 C   0  0  0  0  0  0  0  0  0  0  0  0
   -1.0597   -2.0906    1.8657 O   0  0  0  0  0  0  0  0  0  0  0  0
   -1.3793   -0.3014    0.5129 N   0  0  0  0  0  0  0  0  0  0  0  0
   -2.0428    0.0784   -0.1589 H   0  0  0  0  0  0  0  0  0  0  0  0
   -0.0329    0.3129    0.4715 C   0  0  1  0  0  0  0  0  0  0  0  0
    0.1074    0.7627   -0.5189 H   0  0  0  0  0  0  0  0  0  0  0  0
   -0.0165    1.4250    1.5381 C   0  0  0  0  0  0  0  0  0  0  0  0
   -0.3452    1.0201    2.4991 H   0  0  0  0  0  0  0  0  0  0  0  0
    1.0034    1.8002    1.6643 H   0  0  0  0  0  0  0  0  0  0  0  0
   -0.8954    2.6049    1.1483 C   0  0  0  0  0  0  0  0  0  0  0  0
   -0.9275    3.0520    0.0175 O   0  0  0  0  0  0  0  0  0  0  0  0
   -1.7066    3.2244    2.0557 N   0  0  0  0  0  0  0  0  0  0  0  0
   -2.1180    4.1042    1.7567 H   0  0  0  0  0  0  0  0  0  0  0  0
   -1.5763    3.0317    3.0432 H   0  0  0  0  0  0  0  0  0  0  0  0
    1.2013   -0.6055    0.6717 C   0  0  0  0  0  0  0  0  0  0  0  0
    1.9563   -0.7813   -0.2752 O   0  0  0  0  0  0  0  0  0  0  0  0
    1.5523   -1.1008    1.9146 N   0  0  0  0  0  0  0  0  0  0  0  0
    0.7492   -1.2489    2.5270 H   0  0  0  0  0  0  0  0  0  0  0  0
    2.6916   -1.9924    2.0938 C   0  0  0  0  0  0  0  0  0  0  0  0
    3.6163   -1.5065    1.7653 H   0  0  0  0  0  0  0  0  0  0  0  0
    2.7994   -2.2574    3.1498 H   0  0  0  0  0  0  0  0  0  0  0  0
    2.5521   -2.9124    1.5164 H   0  0  0  0  0  0  0  0  0  0  0  0
  1  2  1  0  0  0  0
  2  3  1  0  0  0  0
  2  4  1  0  0  0  0
  2  5  1  0  0  0  0
  5  6  2  0  0  0  0
  5  7  1  0  0  0  0
  7  8  1  0  0  0  0
  7  9  1  0  0  0  0
  9 10  1  0  0  0  0
  9 11  1  0  0  0  0
  9 19  1  0  0  0  0
 11 12  1  0  0  0  0
 11 13  1  0  0  0  0
 11 14  1  0  0  0  0
 14 15  2  0  0  0  0
 14 16  1  0  0  0  0
 16 17  1  0  0  0  0
 16 18  1  0  0  0  0
 19 20  2  0  0  0  0
 19 21  1  0  0  0  0
 21 22  1  0  0  0  0
 21 23  1  0  0  0  0
 23 24  1  0  0  0  0
 23 25  1  0  0  0  0
 23 26  1  0  0  0  0
M  END
$$$$

  -OEChem-01062216063D

 26 25  0     1  0  0  0  0  0999 V2000
   -3.3217   -3.0949    0.9712 H   0  0  0  0  0  0  0  0  0  0  0  0
   -3.1502   -2.1081    0.5318 C   0  0  0  0  0  0  0  0  0  0  0  0
   -3.9430   -1.4325    0.8622 H   0  0  0  0  0  0  0  0  0  0  0  0
   -3.1873   -2.1985   -0.5567 H   0  0  0  0  0  0  0  0  0  0  0  0
   -1.7978   -1.5708    0.9615 C   0  0  0  0  0  0  0  0  0  0  0  0
   -1.1571   -2.1829    1.7979 O   0  0  0  0  0  0  0  0  0  0  0  0
   -1.3921   -0.3343    0.4951 N   0  0  0  0  0  0  0  0  0  0  0  0
   -2.0568    0.0992   -0.1423 H   0  0  0  0  0  0  0  0  0  0  0  0
   -0.0362    0.2655    0.4684 C   0  0  1  0  0  0  0  0  0  0  0  0
    0.1076    0.7183   -0.5203 H   0  0  0  0  0  0  0  0  0  0  0  0
   -0.0254    1.3721    1.5407 C   0  0  0  0  0  0  0  0  0  0  0  0
   -0.3675    0.9633    2.4954 H   0  0  0  0  0  0  0  0  0  0  0  0
    0.9954    1.7398    1.6822 H   0  0  0  0  0  0  0  0  0  0  0  0
   -0.8900    2.5616    1.1473 C   0  0  0  0  0  0  0  0  0  0  0  0
   -0.9057    3.0168    0.0193 O   0  0  0  0  0  0  0  0  0  0  0  0
   -1.7068    3.1821    2.0489 N   0  0  0  0  0  0  0  0  0  0  0  0
   -2.1014    4.0694    1.7499 H   0  0  0  0  0  0  0  0  0  0  0  0
   -1.5807    2.9890    3.0370 H   0  0  0  0  0  0  0  0  0  0  0  0
    1.2215   -0.6201    0.6814 C   0  0  0  0  0  0  0  0  0  0  0  0
    2.1173   -0.5559   -0.1498 O   0  0  0  0  0  0  0  0  0  0  0  0
    1.4414   -1.3534    1.8321 N   0  0  0  0  0  0  0  0  0  0  0  0
    0.5858   -1.6163    2.3263 H   0  0  0  0  0  0  0  0  0  0  0  0
    2.6058   -2.2139    2.0017 C   0  0  0  0  0  0  0  0  0  0  0  0
    3.5295   -1.6309    1.9229 H   0  0  0  0  0  0  0  0  0  0  0  0
    2.5823   -2.6887    2.9871 H   0  0  0  0  0  0  0  0  0  0  0  0
    2.6171   -2.9981    1.2375 H   0  0  0  0  0  0  0  0  0  0  0  0
  1  2  1  0  0  0  0
  2  3  1  0  0  0  0
  2  4  1  0  0  0  0
  2  5  1  0  0  0  0
  5  6  2  0  0  0  0
  5  7  1  0  0  0  0
  7  8  1  0  0  0  0
  7  9  1  0  0  0  0
  9 10  1  0  0  0  0
  9 11  1  0  0  0  0
  9 19  1  0  0  0  0
 11 12  1  0  0  0  0
 11 13  1  0  0  0  0
 11 14  1  0  0  0  0
 14 15  2  0  0  0  0
 14 16  1  0  0  0  0
 16 17  1  0  0  0  0
 16 18  1  0  0  0  0
 19 20  2  0  0  0  0
 19 21  1  0  0  0  0
 21 22  1  0  0  0  0
 21 23  1  0  0  0  0
 23 24  1  0  0  0  0
 23 25  1  0  0  0  0
 23 26  1  0  0  0  0
M  END
$$$$

  -OEChem-01062216063D

 26 25  0     1  0  0  0  0  0999 V2000
   -3.4806   -3.0175    0.9334 H   0  0  0  0  0  0  0  0  0  0  0  0
   -3.2647   -2.0268    0.5230 C   0  0  0  0  0  0  0  0  0  0  0  0
   -4.0118   -1.3211    0.8945 H   0  0  0  0  0  0  0  0  0  0  0  0
   -3.3318   -2.0782   -0.5666 H   0  0  0  0  0  0  0  0  0  0  0  0
   -1.8751   -1.5785    0.9372 C   0  0  0  0  0  0  0  0  0  0  0  0
   -1.2578   -2.2530    1.7412 O   0  0  0  0  0  0  0  0  0  0  0  0
   -1.4111   -0.3581    0.4819 N   0  0  0  0  0  0  0  0  0  0  0  0
   -2.0726    0.1212   -0.1256 H   0  0  0  0  0  0  0  0  0  0  0  0
   -0.0437    0.2213    0.4633 C   0  0  1  0  0  0  0  0  0  0  0  0
    0.1042    0.6758   -0.5239 H   0  0  0  0  0  0  0  0  0  0  0  0
   -0.0361    1.3237    1.5401 C   0  0  0  0  0  0  0  0  0  0  0  0
   -0.3911    0.9130    2.4893 H   0  0  0  0  0  0  0  0  0  0  0  0
    0.9857    1.6840    1.6952 H   0  0  0  0  0  0  0  0  0  0  0  0
   -0.8851    2.5229    1.1424 C   0  0  0  0  0  0  0  0  0  0  0  0
   -0.8843    2.9839    0.0168 O   0  0  0  0  0  0  0  0  0  0  0  0
   -1.7067    3.1465    2.0374 N   0  0  0  0  0  0  0  0  0  0  0  0
   -2.0823    4.0427    1.7399 H   0  0  0  0  0  0  0  0  0  0  0  0
   -1.5915    2.9475    3.0256 H   0  0  0  0  0  0  0  0  0  0  0  0
    1.2308   -0.6421    0.6813 C   0  0  0  0  0  0  0  0  0  0  0  0
    2.2141   -0.3770    0.0026 O   0  0  0  0  0  0  0  0  0  0  0  0
    1.3700   -1.5989    1.6668 N   0  0  0  0  0  0  0  0  0  0  0  0
    0.4975   -1.9259    2.0872 H   0  0  0  0  0  0  0  0  0  0  0  0
    2.5592   -2.4279    1.8173 C   0  0  0  0  0  0  0  0  0  0  0  0
    3.4424   -1.8045    1.9918 H   0  0  0  0  0  0  0  0  0  0  0  0
    2.4410   -3.1037    2.6696 H   0  0  0  0  0  0  0  0  0  0  0  0
    2.7236   -3.0291    0.9171 H   0  0  0  0  0  0  0  0  0  0  0  0
  1  2  1  0  0  0  0
  2  3  1  0  0  0  0
  2  4  1  0  0  0  0
  2  5  1  0  0  0  0
  5  6  2  0  0  0  0
  5  7  1  0  0  0  0
  7  8  1  0  0  0  0
  7  9  1  0  0  0  0
  9 10  1  0  0  0  0
  9 11  1  0  0  0  0
  9 19  1  0  0  0  0
 11 12  1  0  0  0  0
 11 13  1  0  0  0  0
 11 14  1  0  0  0  0
 14 15  2  0  0  0  0
 14 16  1  0  0  0  0
 16 17  1  0  0  0  0
 16 18  1  0  0  0  0
 19 20  2  0  0  0  0
 19 21  1  0  0  0  0
 21 22  1  0  0  0  0
 21 23  1  0  0  0  0
 23 24  1  0  0  0  0
 23 25  1  0  0  0  0
 23 26  1  0  0  0  0
M  END
$$$$

  -OEChem-01062216063D

 26 25  0     1  0  0  0  0  0999 V2000
   -3.5657   -2.9900    1.0543 H   0  0  0  0  0  0  0  0  0  0  0  0
   -3.3384   -2.0109    0.6229 C   0  0  0  0  0  0  0  0  0  0  0  0
   -4.0624   -1.2839    0.9988 H   0  0  0  0  0  0  0  0  0  0  0  0
   -3.4305   -2.0778   -0.4639 H   0  0  0  0  0  0  0  0  0  0  0  0
   -1.9313   -1.5848    0.9987 C   0  0  0  0  0  0  0  0  0  0  0  0
   -1.3119   -2.2587    1.8012 O   0  0  0  0  0  0  0  0  0  0  0  0
   -1.4558   -0.3811    0.5121 N   0  0  0  0  0  0  0  0  0  0  0  0
   -2.1317    0.1038   -0.0746 H   0  0  0  0  0  0  0  0  0  0  0  0
   -0.0829    0.1827    0.4342 C   0  0  1  0  0  0  0  0  0  0  0  0
    0.0300    0.6199   -0.5652 H   0  0  0  0  0  0  0  0  0  0  0  0
   -0.0379    1.3037    1.4922 C   0  0  0  0  0  0  0  0  0  0  0  0
   -0.3644    0.9105    2.4588 H   0  0  0  0  0  0  0  0  0  0  0  0
    0.9887    1.6642    1.6108 H   0  0  0  0  0  0  0  0  0  0  0  0
   -0.8929    2.5001    1.0988 C   0  0  0  0  0  0  0  0  0  0  0  0
   -0.9241    2.9422   -0.0341 O   0  0  0  0  0  0  0  0  0  0  0  0
   -1.6850    3.1430    2.0067 N   0  0  0  0  0  0  0  0  0  0  0  0
   -2.0645    4.0360    1.7046 H   0  0  0  0  0  0  0  0  0  0  0  0
   -1.5359    2.9640    2.9943 H   0  0  0  0  0  0  0  0  0  0  0  0
    1.2076   -0.6699    0.6141 C   0  0  0  0  0  0  0  0  0  0  0  0
    2.2220   -0.2654    0.0614 O   0  0  0  0  0  0  0  0  0  0  0  0
    1.3255   -1.8027    1.3933 N   0  0  0  0  0  0  0  0  0  0  0  0
    0.4661   -2.1604    1.8141 H   0  0  0  0  0  0  0  0  0  0  0  0
    2.5492   -2.5828    1.5265 C   0  0  0  0  0  0  0  0  0  0  0  0
    3.3523   -1.9677    1.9453 H   0  0  0  0  0  0  0  0  0  0  0  0
    2.3819   -3.4335    2.1940 H   0  0  0  0  0  0  0  0  0  0  0  0
    2.8683   -2.9651    0.5514 H   0  0  0  0  0  0  0  0  0  0  0  0
  1  2  1  0  0  0  0
  2  3  1  0  0  0  0
  2  4  1  0  0  0  0
  2  5  1  0  0  0  0
  5  6  2  0  0  0  0
  5  7  1  0  0  0  0
  7  8  1  0  0  0  0
  7  9  1  0  0  0  0
  9 10  1  0  0  0  0
  9 11  1  0  0  0  0
  9 19  1  0  0  0  0
 11 12  1  0  0  0  0
 11 13  1  0  0  0  0
 11 14  1  0  0  0  0
 14 15  2  0  0  0  0
 14 16  1  0  0  0  0
 16 17  1  0  0  0  0
 16 18  1  0  0  0  0
 19 20  2  0  0  0  0
 19 21  1  0  0  0  0
 21 22  1  0  0  0  0
 21 23  1  0  0  0  0
 23 24  1  0  0  0  0
 23 25  1  0  0  0  0
 23 26  1  0  0  0  0
M  END
$$$$

  -OEChem-01062216063D

 26 25  0     1  0  0  0  0  0999 V2000
   -2.7776   -3.4046    1.3411 H   0  0  0  0  0  0  0  0  0  0  0  0
   -2.7204   -2.4526    0.8056 C   0  0  0  0  0  0  0  0  0  0  0  0
   -3.6283   -1.8792    1.0084 H   0  0  0  0  0  0  0  0  0  0  0  0
   -2.6577   -2.6570   -0.2659 H   0  0  0  0  0  0  0  0  0  0  0  0
   -1.5013   -1.6699    1.2576 C   0  0  0  0  0  0  0  0  0  0  0  0
   -0.8886   -2.0450    2.2396 O   0  0  0  0  0  0  0  0  0  0  0  0
   -1.2487   -0.4375    0.6902 N   0  0  0  0  0  0  0  0  0  0  0  0
   -1.9556   -0.1614    0.0128 H   0  0  0  0  0  0  0  0  0  0  0  0
    0.0269    0.3108    0.5620 C   0  0  1  0  0  0  0  0  0  0  0  0
    0.0707    0.7072   -0.4585 H   0  0  0  0  0  0  0  0  0  0  0  0
   -0.1321    1.4820    1.5593 C   0  0  0  0  0  0  0  0  0  0  0  0
   -0.4070    1.0896    2.5426 H   0  0  0  0  0  0  0  0  0  0  0  0
    0.8111    2.0228    1.6756 H   0  0  0  0  0  0  0  0  0  0  0  0
   -1.1658    2.4959    1.0908 C   0  0  0  0  0  0  0  0  0  0  0  0
   -1.2482    2.8638   -0.0668 O   0  0  0  0  0  0  0  0  0  0  0  0
   -2.0667    3.0488    1.9556 N   0  0  0  0  0  0  0  0  0  0  0  0
   -2.5821    3.8510    1.6050 H   0  0  0  0  0  0  0  0  0  0  0  0
   -1.9125    2.9390    2.9527 H   0  0  0  0  0  0  0  0  0  0  0  0
    1.4446   -0.3212    0.7598 C   0  0  0  0  0  0  0  0  0  0  0  0
    2.4204    0.4043    0.6429 O   0  0  0  0  0  0  0  0  0  0  0  0
    1.8170   -1.5169    1.3240 N   0  0  0  0  0  0  0  0  0  0  0  0
    2.7781   -1.4574    1.6492 H   0  0  0  0  0  0  0  0  0  0  0  0
    1.4968   -2.7694    0.6494 C   0  0  0  0  0  0  0  0  0  0  0  0
    1.1755   -3.5199    1.3786 H   0  0  0  0  0  0  0  0  0  0  0  0
    0.7015   -2.6375   -0.0905 H   0  0  0  0  0  0  0  0  0  0  0  0
    2.3819   -3.1480    0.1287 H   0  0  0  0  0  0  0  0  0  0  0  0
  1  2  1  0  0  0  0
  2  3  1  0  0  0  0
  2  4  1  0  0  0  0
  2  5  1  0  0  0  0
  5  6  2  0  0  0  0
  5  7  1  0  0  0  0
  7  8  1  0  0  0  0
  7  9  1  0  0  0  0
  9 10  1  0  0  0  0
  9 11  1  0  0  0  0
  9 19  1  0  0  0  0
 11 12  1  0  0  0  0
 11 13  1  0  0  0  0
 11 14  1  0  0  0  0
 14 15  2  0  0  0  0
 14 16  1  0  0  0  0
 16 17  1  0  0  0  0
 16 18  1  0  0  0  0
 19 20  2  0  0  0  0
 19 21  1  0  0  0  0
 21 22  1  0  0  0  0
 21 23  1  0  0  0  0
 23 24  1  0  0  0  0
 23 25  1  0  0  0  0
 23 26  1  0  0  0  0
M  END
$$$$

  -OEChem-01062216063D

 26 25  0     1  0  0  0  0  0999 V2000
   -3.0482   -3.3100    1.1654 H   0  0  0  0  0  0  0  0  0  0  0  0
   -3.0340   -2.3011    0.7434 C   0  0  0  0  0  0  0  0  0  0  0  0
   -3.8679   -1.7316    1.1612 H   0  0  0  0  0  0  0  0  0  0  0  0
   -3.1567   -2.3740   -0.3399 H   0  0  0  0  0  0  0  0  0  0  0  0
   -1.7201   -1.6163    1.0711 C   0  0  0  0  0  0  0  0  0  0  0  0
   -0.9926   -2.1029    1.9163 O   0  0  0  0  0  0  0  0  0  0  0  0
   -1.4984   -0.3302    0.6246 N   0  0  0  0  0  0  0  0  0  0  0  0
   -2.3018    0.0488    0.1290 H   0  0  0  0  0  0  0  0  0  0  0  0
   -0.2173    0.2936    0.2139 C   0  0  1  0  0  0  0  0  0  0  0  0
   -0.4047    0.8595   -0.7063 H   0  0  0  0  0  0  0  0  0  0  0  0
    0.1364    1.2691    1.3540 C   0  0  0  0  0  0  0  0  0  0  0  0
    0.1138    0.7395    2.3107 H   0  0  0  0  0  0  0  0  0  0  0  0
    1.1495    1.6583    1.2150 H   0  0  0  0  0  0  0  0  0  0  0  0
   -0.8024    2.4662    1.3986 C   0  0  0  0  0  0  0  0  0  0  0  0
   -1.1720    3.0492    0.3959 O   0  0  0  0  0  0  0  0  0  0  0  0
   -1.3052    2.9344    2.5790 N   0  0  0  0  0  0  0  0  0  0  0  0
   -2.0345    3.6386    2.5169 H   0  0  0  0  0  0  0  0  0  0  0  0
   -1.1850    2.3853    3.4238 H   0  0  0  0  0  0  0  0  0  0  0  0
    1.0652   -0.5336   -0.1032 C   0  0  0  0  0  0  0  0  0  0  0  0
    1.9225   -0.0037   -0.7919 O   0  0  0  0  0  0  0  0  0  0  0  0
    1.2385   -1.8958   -0.0641 N   0  0  0  0  0  0  0  0  0  0  0  0
    1.7975   -2.1688   -0.8682 H   0  0  0  0  0  0  0  0  0  0  0  0
    1.7780   -2.4554    1.1709 C   0  0  0  0  0  0  0  0  0  0  0  0
    1.5645   -1.8131    2.0323 H   0  0  0  0  0  0  0  0  0  0  0  0
    1.3426   -3.4417    1.3595 H   0  0  0  0  0  0  0  0  0  0  0  0
    2.8643   -2.5624    1.0905 H   0  0  0  0  0  0  0  0  0  0  0  0
  1  2  1  0  0  0  0
  2  3  1  0  0  0  0
  2  4  1  0  0  0  0
  2  5  1  0  0  0  0
  5  6  2  0  0  0  0
  5  7  1  0  0  0  0
  7  8  1  0  0  0  0
  7  9  1  0  0  0  0
  9 10  1  0  0  0  0
  9 11  1  0  0  0  0
  9 19  1  0  0  0  0
 11 12  1  0  0  0  0
 11 13  1  0  0  0  0
 11 14  1  0  0  0  0
 14 15  2  0  0  0  0
 14 16  1  0  0  0  0
 16 17  1  0  0  0  0
 16 18  1  0  0  0  0
 19 20  2  0  0  0  0
 19 21  1  0  0  0  0
 21 22  1  0  0  0  0
 21 23  1  0  0  0  0
 23 24  1  0  0  0  0
 23 25  1  0  0  0  0
 23 26  1  0  0  0  0
M  END
$$$$

  -OEChem-01062216063D

 26 25  0     1  0  0  0  0  0999 V2000
   -3.5358   -2.9530    0.9658 H   0  0  0  0  0  0  0  0  0  0  0  0
   -3.3250   -1.9394    0.6130 C   0  0  0  0  0  0  0  0  0  0  0  0
   -3.9903   -1.2424    1.1284 H   0  0  0  0  0  0  0  0  0  0  0  0
   -3.5226   -1.8944   -0.4609 H   0  0  0  0  0  0  0  0  0  0  0  0
   -1.8779   -1.5761    0.8911 C   0  0  0  0  0  0  0  0  0  0  0  0
   -1.1969   -2.3387    1.5518 O   0  0  0  0  0  0  0  0  0  0  0  0
   -1.4096   -0.3482    0.4627 N   0  0  0  0  0  0  0  0  0  0  0  0
   -2.1091    0.2008   -0.0329 H   0  0  0  0  0  0  0  0  0  0  0  0
   -0.0350    0.2142    0.3998 C   0  0  1  0  0  0  0  0  0  0  0  0
    0.0826    0.6938   -0.5786 H   0  0  0  0  0  0  0  0  0  0  0  0
   -0.0160    1.2940    1.5084 C   0  0  0  0  0  0  0  0  0  0  0  0
   -0.3480    0.8554    2.4536 H   0  0  0  0  0  0  0  0  0  0  0  0
    0.9973    1.6745    1.6630 H   0  0  0  0  0  0  0  0  0  0  0  0
   -0.8824    2.4932    1.1526 C   0  0  0  0  0  0  0  0  0  0  0  0
   -0.9059    2.9800    0.0377 O   0  0  0  0  0  0  0  0  0  0  0  0
   -1.6983    3.0836    2.0749 N   0  0  0  0  0  0  0  0  0  0  0  0
   -2.0803    3.9862    1.8067 H   0  0  0  0  0  0  0  0  0  0  0  0
   -1.5504    2.8696    3.0559 H   0  0  0  0  0  0  0  0  0  0  0  0
    1.2435   -0.6733    0.5214 C   0  0  0  0  0  0  0  0  0  0  0  0
    2.3324   -0.1157    0.5901 O   0  0  0  0  0  0  0  0  0  0  0  0
    1.2522   -2.0497    0.3993 N   0  0  0  0  0  0  0  0  0  0  0  0
    0.3610   -2.5029    0.6044 H   0  0  0  0  0  0  0  0  0  0  0  0
    2.4619   -2.8535    0.5305 C   0  0  0  0  0  0  0  0  0  0  0  0
    2.8995   -2.7285    1.5265 H   0  0  0  0  0  0  0  0  0  0  0  0
    2.2269   -3.9120    0.3842 H   0  0  0  0  0  0  0  0  0  0  0  0
    3.2029   -2.5595   -0.2205 H   0  0  0  0  0  0  0  0  0  0  0  0
  1  2  1  0  0  0  0
  2  3  1  0  0  0  0
  2  4  1  0  0  0  0
  2  5  1  0  0  0  0
  5  6  2  0  0  0  0
  5  7  1  0  0  0  0
  7  8  1  0  0  0  0
  7  9  1  0  0  0  0
  9 10  1  0  0  0  0
  9 11  1  0  0  0  0
  9 19  1  0  0  0  0
 11 12  1  0  0  0  0
 11 13  1  0  0  0  0
 11 14  1  0  0  0  0
 14 15  2  0  0  0  0
 14 16  1  0  0  0  0
 16 17  1  0  0  0  0
 16 18  1  0  0  0  0
 19 20  2  0  0  0  0
 19 21  1  0  0  0  0
 21 22  1  0  0  0  0
 21 23  1  0  0  0  0
 23 24  1  0  0  0  0
 23 25  1  0  0  0  0
 23 26  1  0  0  0  0
M  END
$$$$

  -OEChem-01062216063D

 26 25  0     1  0  0  0  0  0999 V2000
   -3.4449   -2.9899    1.0086 H   0  0  0  0  0  0  0  0  0  0  0  0
   -3.2619   -1.9678    0.6643 C   0  0  0  0  0  0  0  0  0  0  0  0
   -3.8980   -1.2862    1.2346 H   0  0  0  0  0  0  0  0  0  0  0  0
   -3.5258   -1.9022   -0.3942 H   0  0  0  0  0  0  0  0  0  0  0  0
   -1.8023   -1.6012    0.8605 C   0  0  0  0  0  0  0  0  0  0  0  0
   -1.0637   -2.3995    1.4070 O   0  0  0  0  0  0  0  0  0  0  0  0
   -1.3701   -0.3539    0.4491 N   0  0  0  0  0  0  0  0  0  0  0  0
   -2.0977    0.2134    0.0188 H   0  0  0  0  0  0  0  0  0  0  0  0
   -0.0083    0.2389    0.4006 C   0  0  1  0  0  0  0  0  0  0  0  0
    0.1118    0.7210   -0.5759 H   0  0  0  0  0  0  0  0  0  0  0  0
   -0.0150    1.3226    1.5069 C   0  0  0  0  0  0  0  0  0  0  0  0
   -0.3431    0.8810    2.4516 H   0  0  0  0  0  0  0  0  0  0  0  0
    0.9891    1.7254    1.6647 H   0  0  0  0  0  0  0  0  0  0  0  0
   -0.9000    2.5049    1.1429 C   0  0  0  0  0  0  0  0  0  0  0  0
   -0.9256    2.9879    0.0265 O   0  0  0  0  0  0  0  0  0  0  0  0
   -1.7186    3.0951    2.0629 N   0  0  0  0  0  0  0  0  0  0  0  0
   -2.1031    3.9951    1.7890 H   0  0  0  0  0  0  0  0  0  0  0  0
   -1.5586    2.8949    3.0449 H   0  0  0  0  0  0  0  0  0  0  0  0
    1.2656   -0.6557    0.5206 C   0  0  0  0  0  0  0  0  0  0  0  0
    2.3326   -0.1459    0.8428 O   0  0  0  0  0  0  0  0  0  0  0  0
    1.2969   -1.9670    0.0837 N   0  0  0  0  0  0  0  0  0  0  0  0
    0.3952   -2.4401    0.1418 H   0  0  0  0  0  0  0  0  0  0  0  0
    2.4892   -2.8004    0.1874 C   0  0  0  0  0  0  0  0  0  0  0  0
    2.7870   -2.9148    1.2349 H   0  0  0  0  0  0  0  0  0  0  0  0
    2.2916   -3.7929   -0.2287 H   0  0  0  0  0  0  0  0  0  0  0  0
    3.3203   -2.3544   -0.3691 H   0  0  0  0  0  0  0  0  0  0  0  0
  1  2  1  0  0  0  0
  2  3  1  0  0  0  0
  2  4  1  0  0  0  0
  2  5  1  0  0  0  0
  5  6  2  0  0  0  0
  5  7  1  0  0  0  0
  7  8  1  0  0  0  0
  7  9  1  0  0  0  0
  9 10  1  0  0  0  0
  9 11  1  0  0  0  0
  9 19  1  0  0  0  0
 11 12  1  0  0  0  0
 11 13  1  0  0  0  0
 11 14  1  0  0  0  0
 14 15  2  0  0  0  0
 14 16  1  0  0  0  0
 16 17  1  0  0  0  0
 16 18  1  0  0  0  0
 19 20  2  0  0  0  0
 19 21  1  0  0  0  0
 21 22  1  0  0  0  0
 21 23  1  0  0  0  0
 23 24  1  0  0  0  0
 23 25  1  0  0  0  0
 23 26  1  0  0  0  0
M  END
$$$$

  -OEChem-01062216063D

 26 25  0     1  0  0  0  0  0999 V2000
   -3.3369   -3.0146    1.0698 H   0  0  0  0  0  0  0  0  0  0  0  0
   -3.1804   -1.9934    0.7106 C   0  0  0  0  0  0  0  0  0  0  0  0
   -3.7898   -1.3134    1.3109 H   0  0  0  0  0  0  0  0  0  0  0  0
   -3.5014   -1.9353   -0.3322 H   0  0  0  0  0  0  0  0  0  0  0  0
   -1.7151   -1.6151    0.8247 C   0  0  0  0  0  0  0  0  0  0  0  0
   -0.9285   -2.4328    1.2641 O   0  0  0  0  0  0  0  0  0  0  0  0
   -1.3229   -0.3499    0.4267 N   0  0  0  0  0  0  0  0  0  0  0  0
   -2.0779    0.2303    0.0669 H   0  0  0  0  0  0  0  0  0  0  0  0
    0.0249    0.2721    0.3979 C   0  0  1  0  0  0  0  0  0  0  0  0
    0.1530    0.7599   -0.5747 H   0  0  0  0  0  0  0  0  0  0  0  0
   -0.0052    1.3529    1.5059 C   0  0  0  0  0  0  0  0  0  0  0  0
   -0.3287    0.9038    2.4488 H   0  0  0  0  0  0  0  0  0  0  0  0
    0.9924    1.7712    1.6657 H   0  0  0  0  0  0  0  0  0  0  0  0
   -0.9065    2.5216    1.1386 C   0  0  0  0  0  0  0  0  0  0  0  0
   -0.9318    3.0052    0.0225 O   0  0  0  0  0  0  0  0  0  0  0  0
   -1.7577    3.0817    2.0476 N   0  0  0  0  0  0  0  0  0  0  0  0
   -2.1640    3.9716    1.7726 H   0  0  0  0  0  0  0  0  0  0  0  0
   -1.6099    2.8790    3.0312 H   0  0  0  0  0  0  0  0  0  0  0  0
    1.2877   -0.6341    0.5257 C   0  0  0  0  0  0  0  0  0  0  0  0
    2.2859   -0.2347    1.1148 O   0  0  0  0  0  0  0  0  0  0  0  0
    1.3890   -1.8105   -0.1948 N   0  0  0  0  0  0  0  0  0  0  0  0
    0.4921   -2.2571   -0.3738 H   0  0  0  0  0  0  0  0  0  0  0  0
    2.5518   -2.6845   -0.0937 C   0  0  0  0  0  0  0  0  0  0  0  0
    2.6728   -3.0429    0.9339 H   0  0  0  0  0  0  0  0  0  0  0  0
    2.4306   -3.5497   -0.7521 H   0  0  0  0  0  0  0  0  0  0  0  0
    3.4611   -2.1517   -0.3911 H   0  0  0  0  0  0  0  0  0  0  0  0
  1  2  1  0  0  0  0
  2  3  1  0  0  0  0
  2  4  1  0  0  0  0
  2  5  1  0  0  0  0
  5  6  2  0  0  0  0
  5  7  1  0  0  0  0
  7  8  1  0  0  0  0
  7  9  1  0  0  0  0
  9 10  1  0  0  0  0
  9 11  1  0  0  0  0
  9 19  1  0  0  0  0
 11 12  1  0  0  0  0
 11 13  1  0  0  0  0
 11 14  1  0  0  0  0
 14 15  2  0  0  0  0
 14 16  1  0  0  0  0
 16 17  1  0  0  0  0
 16 18  1  0  0  0  0
 19 20  2  0  0  0  0
 19 21  1  0  0  0  0
 21 22  1  0  0  0  0
 21 23  1  0  0  0  0
 23 24  1  0  0  0  0
 23 25  1  0  0  0  0
 23 26  1  0  0  0  0
M  END
$$$$

  -OEChem-01062216063D

 26 25  0     1  0  0  0  0  0999 V2000
   -3.2095   -3.0732    1.0856 H   0  0  0  0  0  0  0  0  0  0  0  0
   -3.0916   -2.0463    0.7278 C   0  0  0  0  0  0  0  0  0  0  0  0
   -3.7061   -1.3871    1.3457 H   0  0  0  0  0  0  0  0  0  0  0  0
   -3.4383   -1.9929   -0.3071 H   0  0  0  0  0  0  0  0  0  0  0  0
   -1.6355   -1.6269    0.8106 C   0  0  0  0  0  0  0  0  0  0  0  0
   -0.8147   -2.4288    1.2153 O   0  0  0  0  0  0  0  0  0  0  0  0
   -1.2898   -0.3476    0.4111 N   0  0  0  0  0  0  0  0  0  0  0  0
   -2.0665    0.2200    0.0794 H   0  0  0  0  0  0  0  0  0  0  0  0
    0.0408    0.3063    0.3927 C   0  0  1  0  0  0  0  0  0  0  0  0
    0.1710    0.7974   -0.5778 H   0  0  0  0  0  0  0  0  0  0  0  0
    0.0009    1.3856    1.4993 C   0  0  0  0  0  0  0  0  0  0  0  0
   -0.3107    0.9323    2.4443 H   0  0  0  0  0  0  0  0  0  0  0  0
    0.9969    1.8121    1.6497 H   0  0  0  0  0  0  0  0  0  0  0  0
   -0.9179    2.5417    1.1373 C   0  0  0  0  0  0  0  0  0  0  0  0
   -0.9539    3.0239    0.0207 O   0  0  0  0  0  0  0  0  0  0  0  0
   -1.7705    3.0911    2.0516 N   0  0  0  0  0  0  0  0  0  0  0  0
   -2.1914    3.9753    1.7802 H   0  0  0  0  0  0  0  0  0  0  0  0
   -1.6155    2.8880    3.0341 H   0  0  0  0  0  0  0  0  0  0  0  0
    1.2956   -0.6030    0.5335 C   0  0  0  0  0  0  0  0  0  0  0  0
    2.1692   -0.3632    1.3601 O   0  0  0  0  0  0  0  0  0  0  0  0
    1.5268   -1.5935   -0.4043 N   0  0  0  0  0  0  0  0  0  0  0  0
    0.7016   -1.9106   -0.9037 H   0  0  0  0  0  0  0  0  0  0  0  0
    2.6432   -2.5238   -0.2899 C   0  0  0  0  0  0  0  0  0  0  0  0
    2.5588   -3.1091    0.6319 H   0  0  0  0  0  0  0  0  0  0  0  0
    2.6497   -3.2123   -1.1403 H   0  0  0  0  0  0  0  0  0  0  0  0
    3.5954   -1.9829   -0.2787 H   0  0  0  0  0  0  0  0  0  0  0  0
  1  2  1  0  0  0  0
  2  3  1  0  0  0  0
  2  4  1  0  0  0  0
  2  5  1  0  0  0  0
  5  6  2  0  0  0  0
  5  7  1  0  0  0  0
  7  8  1  0  0  0  0
  7  9  1  0  0  0  0
  9 10  1  0  0  0  0
  9 11  1  0  0  0  0
  9 19  1  0  0  0  0
 11 12  1  0  0  0  0
 11 13  1  0  0  0  0
 11 14  1  0  0  0  0
 14 15  2  0  0  0  0
 14 16  1  0  0  0  0
 16 17  1  0  0  0  0
 16 18  1  0  0  0  0
 19 20  2  0  0  0  0
 19 21  1  0  0  0  0
 21 22  1  0  0  0  0
 21 23  1  0  0  0  0
 23 24  1  0  0  0  0
 23 25  1  0  0  0  0
 23 26  1  0  0  0  0
M  END
$$$$

  -OEChem-01062216063D

 26 25  0     1  0  0  0  0  0999 V2000
   -3.1835   -3.0745    1.1107 H   0  0  0  0  0  0  0  0  0  0  0  0
   -3.0714   -2.0485    0.7485 C   0  0  0  0  0  0  0  0  0  0  0  0
   -3.6647   -1.3862    1.3836 H   0  0  0  0  0  0  0  0  0  0  0  0
   -3.4477   -1.9944   -0.2759 H   0  0  0  0  0  0  0  0  0  0  0  0
   -1.6118   -1.6349    0.7878 C   0  0  0  0  0  0  0  0  0  0  0  0
   -0.7795   -2.4481    1.1441 O   0  0  0  0  0  0  0  0  0  0  0  0
   -1.2771   -0.3526    0.3872 N   0  0  0  0  0  0  0  0  0  0  0  0
   -2.0623    0.2212    0.0882 H   0  0  0  0  0  0  0  0  0  0  0  0
    0.0481    0.3093    0.3874 C   0  0  1  0  0  0  0  0  0  0  0  0
    0.1903    0.8037   -0.5795 H   0  0  0  0  0  0  0  0  0  0  0  0
   -0.0017    1.3845    1.4960 C   0  0  0  0  0  0  0  0  0  0  0  0
   -0.3205    0.9273    2.4370 H   0  0  0  0  0  0  0  0  0  0  0  0
    0.9956    1.8050    1.6544 H   0  0  0  0  0  0  0  0  0  0  0  0
   -0.9189    2.5414    1.1344 C   0  0  0  0  0  0  0  0  0  0  0  0
   -0.9474    3.0282    0.0195 O   0  0  0  0  0  0  0  0  0  0  0  0
   -1.7811    3.0818    2.0449 N   0  0  0  0  0  0  0  0  0  0  0  0
   -2.2050    3.9652    1.7759 H   0  0  0  0  0  0  0  0  0  0  0  0
   -1.6357    2.8711    3.0273 H   0  0  0  0  0  0  0  0  0  0  0  0
    1.2959   -0.6023    0.5530 C   0  0  0  0  0  0  0  0  0  0  0  0
    2.0242   -0.5161    1.5361 O   0  0  0  0  0  0  0  0  0  0  0  0
    1.7119   -1.3751   -0.5165 N   0  0  0  0  0  0  0  0  0  0  0  0
    1.0130   -1.5536   -1.2306 H   0  0  0  0  0  0  0  0  0  0  0  0
    2.8419   -2.2913   -0.4225 C   0  0  0  0  0  0  0  0  0  0  0  0
    2.6496   -3.0565    0.3370 H   0  0  0  0  0  0  0  0  0  0  0  0
    3.0070   -2.7880   -1.3834 H   0  0  0  0  0  0  0  0  0  0  0  0
    3.7553   -1.7502   -0.1544 H   0  0  0  0  0  0  0  0  0  0  0  0
  1  2  1  0  0  0  0
  2  3  1  0  0  0  0
  2  4  1  0  0  0  0
  2  5  1  0  0  0  0
  5  6  2  0  0  0  0
  5  7  1  0  0  0  0
  7  8  1  0  0  0  0
  7  9  1  0  0  0  0
  9 10  1  0  0  0  0
  9 11  1  0  0  0  0
  9 19  1  0  0  0  0
 11 12  1  0  0  0  0
 11 13  1  0  0  0  0
 11 14  1  0  0  0  0
 14 15  2  0  0  0  0
 14 16  1  0  0  0  0
 16 17  1  0  0  0  0
 16 18  1  0  0  0  0
 19 20  2  0  0  0  0
 19 21  1  0  0  0  0
 21 22  1  0  0  0  0
 21 23  1  0  0  0  0
 23 24  1  0  0  0  0
 23 25  1  0  0  0  0
 23 26  1  0  0  0  0
M  END
$$$$

  -OEChem-01062216063D

 26 25  0     1  0  0  0  0  0999 V2000
   -3.1967   -3.0629    1.1324 H   0  0  0  0  0  0  0  0  0  0  0  0
   -3.0813   -2.0393    0.7646 C   0  0  0  0  0  0  0  0  0  0  0  0
   -3.6508   -1.3683    1.4123 H   0  0  0  0  0  0  0  0  0  0  0  0
   -3.4818   -1.9832   -0.2504 H   0  0  0  0  0  0  0  0  0  0  0  0
   -1.6162   -1.6434    0.7667 C   0  0  0  0  0  0  0  0  0  0  0  0
   -0.7843   -2.4758    1.0756 O   0  0  0  0  0  0  0  0  0  0  0  0
   -1.2783   -0.3614    0.3673 N   0  0  0  0  0  0  0  0  0  0  0  0
   -2.0652    0.2244    0.0990 H   0  0  0  0  0  0  0  0  0  0  0  0
    0.0479    0.2969    0.3817 C   0  0  1  0  0  0  0  0  0  0  0  0
    0.1972    0.7960   -0.5816 H   0  0  0  0  0  0  0  0  0  0  0  0
   -0.0025    1.3670    1.4940 C   0  0  0  0  0  0  0  0  0  0  0  0
   -0.3323    0.9074    2.4302 H   0  0  0  0  0  0  0  0  0  0  0  0
    0.9980    1.7759    1.6622 H   0  0  0  0  0  0  0  0  0  0  0  0
   -0.9114    2.5303    1.1324 C   0  0  0  0  0  0  0  0  0  0  0  0
   -0.9300    3.0215    0.0192 O   0  0  0  0  0  0  0  0  0  0  0  0
   -1.7801    3.0687    2.0378 N   0  0  0  0  0  0  0  0  0  0  0  0
   -2.2006    3.9540    1.7693 H   0  0  0  0  0  0  0  0  0  0  0  0
   -1.6470    2.8508    3.0204 H   0  0  0  0  0  0  0  0  0  0  0  0
    1.2936   -0.6135    0.5632 C   0  0  0  0  0  0  0  0  0  0  0  0
    1.8750   -0.6822    1.6411 O   0  0  0  0  0  0  0  0  0  0  0  0
    1.9112   -1.1434   -0.5560 N   0  0  0  0  0  0  0  0  0  0  0  0
    1.3585   -1.1683   -1.4069 H   0  0  0  0  0  0  0  0  0  0  0  0
    3.0791   -2.0117   -0.4677 C   0  0  0  0  0  0  0  0  0  0  0  0
    2.8412   -2.9131    0.1070 H   0  0  0  0  0  0  0  0  0  0  0  0
    3.4029   -2.3128   -1.4685 H   0  0  0  0  0  0  0  0  0  0  0  0
    3.9101   -1.4915    0.0201 H   0  0  0  0  0  0  0  0  0  0  0  0
  1  2  1  0  0  0  0
  2  3  1  0  0  0  0
  2  4  1  0  0  0  0
  2  5  1  0  0  0  0
  5  6  2  0  0  0  0
  5  7  1  0  0  0  0
  7  8  1  0  0  0  0
  7  9  1  0  0  0  0
  9 10  1  0  0  0  0
  9 11  1  0  0  0  0
  9 19  1  0  0  0  0
 11 12  1  0  0  0  0
 11 13  1  0  0  0  0
 11 14  1  0  0  0  0
 14 15  2  0  0  0  0
 14 16  1  0  0  0  0
 16 17  1  0  0  0  0
 16 18  1  0  0  0  0
 19 20  2  0  0  0  0
 19 21  1  0  0  0  0
 21 22  1  0  0  0  0
 21 23  1  0  0  0  0
 23 24  1  0  0  0  0
 23 25  1  0  0  0  0
 23 26  1  0  0  0  0
M  END
$$$$

  -OEChem-01062216063D

 26 25  0     1  0  0  0  0  0999 V2000
   -3.2367   -3.0430    1.1575 H   0  0  0  0  0  0  0  0  0  0  0  0
   -3.1126   -2.0224    0.7837 C   0  0  0  0  0  0  0  0  0  0  0  0
   -3.6460   -1.3390    1.4486 H   0  0  0  0  0  0  0  0  0  0  0  0
   -3.5451   -1.9589   -0.2177 H   0  0  0  0  0  0  0  0  0  0  0  0
   -1.6401   -1.6575    0.7366 C   0  0  0  0  0  0  0  0  0  0  0  0
   -0.8166   -2.5177    0.9846 O   0  0  0  0  0  0  0  0  0  0  0  0
   -1.2889   -0.3778    0.3413 N   0  0  0  0  0  0  0  0  0  0  0  0
   -2.0736    0.2259    0.1089 H   0  0  0  0  0  0  0  0  0  0  0  0
    0.0423    0.2699    0.3694 C   0  0  1  0  0  0  0  0  0  0  0  0
    0.1964    0.7724   -0.5911 H   0  0  0  0  0  0  0  0  0  0  0  0
   -0.0013    1.3345    1.4863 C   0  0  0  0  0  0  0  0  0  0  0  0
   -0.3421    0.8738    2.4180 H   0  0  0  0  0  0  0  0  0  0  0  0
    1.0043    1.7275    1.6629 H   0  0  0  0  0  0  0  0  0  0  0  0
   -0.8950    2.5105    1.1281 C   0  0  0  0  0  0  0  0  0  0  0  0
   -0.9020    3.0073    0.0174 O   0  0  0  0  0  0  0  0  0  0  0  0
   -1.7637    3.0516    2.0319 N   0  0  0  0  0  0  0  0  0  0  0  0
   -2.1752    3.9424    1.7676 H   0  0  0  0  0  0  0  0  0  0  0  0
   -1.6422    2.8230    3.0136 H   0  0  0  0  0  0  0  0  0  0  0  0
    1.2881   -0.6369    0.5629 C   0  0  0  0  0  0  0  0  0  0  0  0
    1.7286   -0.8608    1.6855 O   0  0  0  0  0  0  0  0  0  0  0  0
    2.1013   -0.9121   -0.5229 N   0  0  0  0  0  0  0  0  0  0  0  0
    1.7022   -0.7661   -1.4447 H   0  0  0  0  0  0  0  0  0  0  0  0
    3.3248   -1.6975   -0.4129 C   0  0  0  0  0  0  0  0  0  0  0  0
    3.1011   -2.7005   -0.0341 H   0  0  0  0  0  0  0  0  0  0  0  0
    3.8024   -1.7939   -1.3927 H   0  0  0  0  0  0  0  0  0  0  0  0
    4.0324   -1.2132    0.2683 H   0  0  0  0  0  0  0  0  0  0  0  0
  1  2  1  0  0  0  0
  2  3  1  0  0  0  0
  2  4  1  0  0  0  0
  2  5  1  0  0  0  0
  5  6  2  0  0  0  0
  5  7  1  0  0  0  0
  7  8  1  0  0  0  0
  7  9  1  0  0  0  0
  9 10  1  0  0  0  0
  9 11  1  0  0  0  0
  9 19  1  0  0  0  0
 11 12  1  0  0  0  0
 11 13  1  0  0  0  0
 11 14  1  0  0  0  0
 14 15  2  0  0  0  0
 14 16  1  0  0  0  0
 16 17  1  0  0  0  0
 16 18  1  0  0  0  0
 19 20  2  0  0  0  0
 19 21  1  0  0  0  0
 21 22  1  0  0  0  0
 21 23  1  0  0  0  0
 23 24  1  0  0  0  0
 23 25  1  0  0  0  0
 23 26  1  0  0  0  0
M  END
$$$$

  -OEChem-01062216063D

 26 25  0     1  0  0  0  0  0999 V2000
   -3.2775   -3.0196    1.1741 H   0  0  0  0  0  0  0  0  0  0  0  0
   -3.1444   -1.9979    0.8065 C   0  0  0  0  0  0  0  0  0  0  0  0
   -3.6253   -1.3092    1.5053 H   0  0  0  0  0  0  0  0  0  0  0  0
   -3.6244   -1.9105   -0.1713 H   0  0  0  0  0  0  0  0  0  0  0  0
   -1.6661   -1.6727    0.6912 C   0  0  0  0  0  0  0  0  0  0  0  0
   -0.8579   -2.5673    0.8516 O   0  0  0  0  0  0  0  0  0  0  0  0
   -1.2989   -0.3954    0.3030 N   0  0  0  0  0  0  0  0  0  0  0  0
   -2.0802    0.2296    0.1222 H   0  0  0  0  0  0  0  0  0  0  0  0
    0.0386    0.2395    0.3456 C   0  0  1  0  0  0  0  0  0  0  0  0
    0.1978    0.7461   -0.6119 H   0  0  0  0  0  0  0  0  0  0  0  0
    0.0024    1.2939    1.4719 C   0  0  0  0  0  0  0  0  0  0  0  0
   -0.3489    0.8280    2.3972 H   0  0  0  0  0  0  0  0  0  0  0  0
    1.0123    1.6712    1.6581 H   0  0  0  0  0  0  0  0  0  0  0  0
   -0.8756    2.4841    1.1230 C   0  0  0  0  0  0  0  0  0  0  0  0
   -0.8720    2.9920    0.0174 O   0  0  0  0  0  0  0  0  0  0  0  0
   -1.7407    3.0256    2.0300 N   0  0  0  0  0  0  0  0  0  0  0  0
   -2.1435    3.9227    1.7736 H   0  0  0  0  0  0  0  0  0  0  0  0
   -1.6263    2.7843    3.0096 H   0  0  0  0  0  0  0  0  0  0  0  0
    1.2852   -0.6640    0.5487 C   0  0  0  0  0  0  0  0  0  0  0  0
    1.5970   -1.0402    1.6736 O   0  0  0  0  0  0  0  0  0  0  0  0
    2.2692   -0.6866   -0.4254 N   0  0  0  0  0  0  0  0  0  0  0  0
    2.0117   -0.3676   -1.3541 H   0  0  0  0  0  0  0  0  0  0  0  0
    3.5407   -1.3809   -0.2543 C   0  0  0  0  0  0  0  0  0  0  0  0
    3.3724   -2.4448   -0.0559 H   0  0  0  0  0  0  0  0  0  0  0  0
    4.1472   -1.2890   -1.1604 H   0  0  0  0  0  0  0  0  0  0  0  0
    4.1030   -0.9515    0.5816 H   0  0  0  0  0  0  0  0  0  0  0  0
  1  2  1  0  0  0  0
  2  3  1  0  0  0  0
  2  4  1  0  0  0  0
  2  5  1  0  0  0  0
  5  6  2  0  0  0  0
  5  7  1  0  0  0  0
  7  8  1  0  0  0  0
  7  9  1  0  0  0  0
  9 10  1  0  0  0  0
  9 11  1  0  0  0  0
  9 19  1  0  0  0  0
 11 12  1  0  0  0  0
 11 13  1  0  0  0  0
 11 14  1  0  0  0  0
 14 15  2  0  0  0  0
 14 16  1  0  0  0  0
 16 17  1  0  0  0  0
 16 18  1  0  0  0  0
 19 20  2  0  0  0  0
 19 21  1  0  0  0  0
 21 22  1  0  0  0  0
 21 23  1  0  0  0  0
 23 24  1  0  0  0  0
 23 25  1  0  0  0  0
 23 26  1  0  0  0  0
M  END
$$$$

  -OEChem-01062216063D

 26 25  0     1  0  0  0  0  0999 V2000
   -3.3061   -2.9893    1.2042 H   0  0  0  0  0  0  0  0  0  0  0  0
   -3.1638   -1.9690    0.8363 C   0  0  0  0  0  0  0  0  0  0  0  0
   -3.5863   -1.2729    1.5645 H   0  0  0  0  0  0  0  0  0  0  0  0
   -3.6927   -1.8594   -0.1134 H   0  0  0  0  0  0  0  0  0  0  0  0
   -1.6853   -1.6855    0.6430 C   0  0  0  0  0  0  0  0  0  0  0  0
   -0.9027   -2.6144    0.7017 O   0  0  0  0  0  0  0  0  0  0  0  0
   -1.3018   -0.4109    0.2622 N   0  0  0  0  0  0  0  0  0  0  0  0
   -2.0767    0.2340    0.1329 H   0  0  0  0  0  0  0  0  0  0  0  0
    0.0421    0.2099    0.3178 C   0  0  1  0  0  0  0  0  0  0  0  0
    0.2066    0.7214   -0.6361 H   0  0  0  0  0  0  0  0  0  0  0  0
    0.0089    1.2512    1.4562 C   0  0  0  0  0  0  0  0  0  0  0  0
   -0.3535    0.7765    2.3728 H   0  0  0  0  0  0  0  0  0  0  0  0
    1.0210    1.6163    1.6544 H   0  0  0  0  0  0  0  0  0  0  0  0
   -0.8559    2.4541    1.1173 C   0  0  0  0  0  0  0  0  0  0  0  0
   -0.8397    2.9742    0.0176 O   0  0  0  0  0  0  0  0  0  0  0  0
   -1.7189    2.9966    2.0257 N   0  0  0  0  0  0  0  0  0  0  0  0
   -2.1110    3.9005    1.7761 H   0  0  0  0  0  0  0  0  0  0  0  0
   -1.6140    2.7439    3.0034 H   0  0  0  0  0  0  0  0  0  0  0  0
    1.2910   -0.6876    0.5288 C   0  0  0  0  0  0  0  0  0  0  0  0
    1.4884   -1.2204    1.6150 O   0  0  0  0  0  0  0  0  0  0  0  0
    2.4049   -0.4709   -0.2658 N   0  0  0  0  0  0  0  0  0  0  0  0
    2.2649    0.0220   -1.1422 H   0  0  0  0  0  0  0  0  0  0  0  0
    3.6998   -1.0942   -0.0154 C   0  0  0  0  0  0  0  0  0  0  0  0
    3.6021   -2.1849    0.0034 H   0  0  0  0  0  0  0  0  0  0  0  0
    4.4089   -0.8237   -0.8035 H   0  0  0  0  0  0  0  0  0  0  0  0
    4.1070   -0.7599    0.9446 H   0  0  0  0  0  0  0  0  0  0  0  0
  1  2  1  0  0  0  0
  2  3  1  0  0  0  0
  2  4  1  0  0  0  0
  2  5  1  0  0  0  0
  5  6  2  0  0  0  0
  5  7  1  0  0  0  0
  7  8  1  0  0  0  0
  7  9  1  0  0  0  0
  9 10  1  0  0  0  0
  9 11  1  0  0  0  0
  9 19  1  0  0  0  0
 11 12  1  0  0  0  0
 11 13  1  0  0  0  0
 11 14  1  0  0  0  0
 14 15  2  0  0  0  0
 14 16  1  0  0  0  0
 16 17  1  0  0  0  0
 16 18  1  0  0  0  0
 19 20  2  0  0  0  0
 19 21  1  0  0  0  0
 21 22  1  0  0  0  0
 21 23  1  0  0  0  0
 23 24  1  0  0  0  0
 23 25  1  0  0  0  0
 23 26  1  0  0  0  0
M  END
$$$$

  -OEChem-01062216063D

 26 25  0     1  0  0  0  0  0999 V2000
   -3.3272   -2.9603    1.2039 H   0  0  0  0  0  0  0  0  0  0  0  0
   -3.1683   -1.9278    0.8797 C   0  0  0  0  0  0  0  0  0  0  0  0
   -3.5081   -1.2564    1.6718 H   0  0  0  0  0  0  0  0  0  0  0  0
   -3.7579   -1.7468   -0.0222 H   0  0  0  0  0  0  0  0  0  0  0  0
   -1.6968   -1.6907    0.5943 C   0  0  0  0  0  0  0  0  0  0  0  0
   -0.9543   -2.6519    0.5382 O   0  0  0  0  0  0  0  0  0  0  0  0
   -1.2942   -0.4202    0.2208 N   0  0  0  0  0  0  0  0  0  0  0  0
   -2.0604    0.2433    0.1471 H   0  0  0  0  0  0  0  0  0  0  0  0
    0.0570    0.1858    0.2879 C   0  0  1  0  0  0  0  0  0  0  0  0
    0.2285    0.7020   -0.6622 H   0  0  0  0  0  0  0  0  0  0  0  0
    0.0172    1.2123    1.4396 C   0  0  0  0  0  0  0  0  0  0  0  0
   -0.3559    0.7273    2.3465 H   0  0  0  0  0  0  0  0  0  0  0  0
    1.0276    1.5724    1.6548 H   0  0  0  0  0  0  0  0  0  0  0  0
   -0.8382    2.4234    1.1065 C   0  0  0  0  0  0  0  0  0  0  0  0
   -0.8064    2.9560    0.0135 O   0  0  0  0  0  0  0  0  0  0  0  0
   -1.7239    2.9461    2.0045 N   0  0  0  0  0  0  0  0  0  0  0  0
   -2.1202    3.8493    1.7592 H   0  0  0  0  0  0  0  0  0  0  0  0
   -1.6412    2.6779    2.9802 H   0  0  0  0  0  0  0  0  0  0  0  0
    1.3117   -0.7019    0.5055 C   0  0  0  0  0  0  0  0  0  0  0  0
    1.4113   -1.3988    1.5076 O   0  0  0  0  0  0  0  0  0  0  0  0
    2.5089   -0.2772   -0.0490 N   0  0  0  0  0  0  0  0  0  0  0  0
    2.4589    0.3789   -0.8224 H   0  0  0  0  0  0  0  0  0  0  0  0
    3.8041   -0.8571    0.2906 C   0  0  0  0  0  0  0  0  0  0  0  0
    3.7864   -1.9432    0.1501 H   0  0  0  0  0  0  0  0  0  0  0  0
    4.5857   -0.4389   -0.3507 H   0  0  0  0  0  0  0  0  0  0  0  0
    4.0588   -0.6407    1.3335 H   0  0  0  0  0  0  0  0  0  0  0  0
  1  2  1  0  0  0  0
  2  3  1  0  0  0  0
  2  4  1  0  0  0  0
  2  5  1  0  0  0  0
  5  6  2  0  0  0  0
  5  7  1  0  0  0  0
  7  8  1  0  0  0  0
  7  9  1  0  0  0  0
  9 10  1  0  0  0  0
  9 11  1  0  0  0  0
  9 19  1  0  0  0  0
 11 12  1  0  0  0  0
 11 13  1  0  0  0  0
 11 14  1  0  0  0  0
 14 15  2  0  0  0  0
 14 16  1  0  0  0  0
 16 17  1  0  0  0  0
 16 18  1  0  0  0  0
 19 20  2  0  0  0  0
 19 21  1  0  0  0  0
 21 22  1  0  0  0  0
 21 23  1  0  0  0  0
 23 24  1  0  0  0  0
 23 25  1  0  0  0  0
 23 26  1  0  0  0  0
M  END
$$$$

  -OEChem-01062216063D

 26 25  0     1  0  0  0  0  0999 V2000
   -2.9166   -3.2175    1.0567 H   0  0  0  0  0  0  0  0  0  0  0  0
   -2.7842   -2.2887    0.4946 C   0  0  0  0  0  0  0  0  0  0  0  0
   -3.7395   -1.7604    0.4526 H   0  0  0  0  0  0  0  0  0  0  0  0
   -2.4648   -2.5376   -0.5203 H   0  0  0  0  0  0  0  0  0  0  0  0
   -1.7368   -1.4214    1.1669 C   0  0  0  0  0  0  0  0  0  0  0  0
   -1.3964   -1.6586    2.3148 O   0  0  0  0  0  0  0  0  0  0  0  0
   -1.3984   -0.1965    0.6247 N   0  0  0  0  0  0  0  0  0  0  0  0
   -1.9597    0.0244   -0.1931 H   0  0  0  0  0  0  0  0  0  0  0  0
   -0.0138    0.3245    0.5406 C   0  0  1  0  0  0  0  0  0  0  0  0
    0.1205    0.7593   -0.4555 H   0  0  0  0  0  0  0  0  0  0  0  0
    0.0637    1.4326    1.6105 C   0  0  0  0  0  0  0  0  0  0  0  0
   -0.2819    1.0359    2.5702 H   0  0  0  0  0  0  0  0  0  0  0  0
    1.0957    1.7655    1.7471 H   0  0  0  0  0  0  0  0  0  0  0  0
   -0.7598    2.6526    1.2282 C   0  0  0  0  0  0  0  0  0  0  0  0
   -0.7669    3.0924    0.0925 O   0  0  0  0  0  0  0  0  0  0  0  0
   -1.5520    3.2968    2.1343 N   0  0  0  0  0  0  0  0  0  0  0  0
   -2.2061    3.9740    1.7532 H   0  0  0  0  0  0  0  0  0  0  0  0
   -1.7543    2.8345    3.0155 H   0  0  0  0  0  0  0  0  0  0  0  0
    1.2091   -0.6190    0.7347 C   0  0  0  0  0  0  0  0  0  0  0  0
    1.1111   -1.8308    0.8616 O   0  0  0  0  0  0  0  0  0  0  0  0
    2.4508   -0.1471    0.3394 N   0  0  0  0  0  0  0  0  0  0  0  0
    2.5243    0.8357    0.0936 H   0  0  0  0  0  0  0  0  0  0  0  0
    3.6414   -0.9848    0.2370 C   0  0  0  0  0  0  0  0  0  0  0  0
    3.5124   -1.7392   -0.5465 H   0  0  0  0  0  0  0  0  0  0  0  0
    4.5140   -0.3732   -0.0111 H   0  0  0  0  0  0  0  0  0  0  0  0
    3.8359   -1.4928    1.1878 H   0  0  0  0  0  0  0  0  0  0  0  0
  1  2  1  0  0  0  0
  2  3  1  0  0  0  0
  2  4  1  0  0  0  0
  2  5  1  0  0  0  0
  5  6  2  0  0  0  0
  5  7  1  0  0  0  0
  7  8  1  0  0  0  0
  7  9  1  0  0  0  0
  9 10  1  0  0  0  0
  9 11  1  0  0  0  0
  9 19  1  0  0  0  0
 11 12  1  0  0  0  0
 11 13  1  0  0  0  0
 11 14  1  0  0  0  0
 14 15  2  0  0  0  0
 14 16  1  0  0  0  0
 16 17  1  0  0  0  0
 16 18  1  0  0  0  0
 19 20  2  0  0  0  0
 19 21  1  0  0  0  0
 21 22  1  0  0  0  0
 21 23  1  0  0  0  0
 23 24  1  0  0  0  0
 23 25  1  0  0  0  0
 23 26  1  0  0  0  0
M  END
$$$$

  -OEChem-01062216063D

 26 25  0     1  0  0  0  0  0999 V2000
   -2.8827   -3.2176    1.0979 H   0  0  0  0  0  0  0  0  0  0  0  0
   -2.7920   -2.2741    0.5525 C   0  0  0  0  0  0  0  0  0  0  0  0
   -3.7227   -1.7121    0.6593 H   0  0  0  0  0  0  0  0  0  0  0  0
   -2.6245   -2.4962   -0.5043 H   0  0  0  0  0  0  0  0  0  0  0  0
   -1.6292   -1.4673    1.0984 C   0  0  0  0  0  0  0  0  0  0  0  0
   -1.0468   -1.8404    2.1058 O   0  0  0  0  0  0  0  0  0  0  0  0
   -1.3554   -0.2124    0.5835 N   0  0  0  0  0  0  0  0  0  0  0  0
   -1.9635    0.0426   -0.1896 H   0  0  0  0  0  0  0  0  0  0  0  0
    0.0091    0.3573    0.5099 C   0  0  1  0  0  0  0  0  0  0  0  0
    0.0612    1.0246   -0.3570 H   0  0  0  0  0  0  0  0  0  0  0  0
    0.2017    1.1801    1.8036 C   0  0  0  0  0  0  0  0  0  0  0  0
   -0.0385    0.5632    2.6741 H   0  0  0  0  0  0  0  0  0  0  0  0
    1.2407    1.4989    1.9086 H   0  0  0  0  0  0  0  0  0  0  0  0
   -0.6559    2.4363    1.8103 C   0  0  0  0  0  0  0  0  0  0  0  0
   -0.7834    3.1358    0.8219 O   0  0  0  0  0  0  0  0  0  0  0  0
   -1.3497    2.8248    2.9201 N   0  0  0  0  0  0  0  0  0  0  0  0
   -2.0420    3.5545    2.7780 H   0  0  0  0  0  0  0  0  0  0  0  0
   -1.4628    2.1577    3.6772 H   0  0  0  0  0  0  0  0  0  0  0  0
    1.1903   -0.6389    0.3286 C   0  0  0  0  0  0  0  0  0  0  0  0
    1.0063   -1.7665   -0.1137 O   0  0  0  0  0  0  0  0  0  0  0  0
    2.4845   -0.1488    0.2586 N   0  0  0  0  0  0  0  0  0  0  0  0
    2.6298    0.8316    0.4779 H   0  0  0  0  0  0  0  0  0  0  0  0
    3.6315   -0.9534   -0.1479 C   0  0  0  0  0  0  0  0  0  0  0  0
    3.5279   -1.2681   -1.1916 H   0  0  0  0  0  0  0  0  0  0  0  0
    4.5543   -0.3736   -0.0508 H   0  0  0  0  0  0  0  0  0  0  0  0
    3.7170   -1.8449    0.4825 H   0  0  0  0  0  0  0  0  0  0  0  0
  1  2  1  0  0  0  0
  2  3  1  0  0  0  0
  2  4  1  0  0  0  0
  2  5  1  0  0  0  0
  5  6  2  0  0  0  0
  5  7  1  0  0  0  0
  7  8  1  0  0  0  0
  7  9  1  0  0  0  0
  9 10  1  0  0  0  0
  9 11  1  0  0  0  0
  9 19  1  0  0  0  0
 11 12  1  0  0  0  0
 11 13  1  0  0  0  0
 11 14  1  0  0  0  0
 14 15  2  0  0  0  0
 14 16  1  0  0  0  0
 16 17  1  0  0  0  0
 16 18  1  0  0  0  0
 19 20  2  0  0  0  0
 19 21  1  0  0  0  0
 21 22  1  0  0  0  0
 21 23  1  0  0  0  0
 23 24  1  0  0  0  0
 23 25  1  0  0  0  0
 23 26  1  0  0  0  0
M  END
$$$$

  -OEChem-01062216063D

 26 25  0     1  0  0  0  0  0999 V2000
   -2.8404   -3.2225    1.1086 H   0  0  0  0  0  0  0  0  0  0  0  0
   -2.7685   -2.2746    0.5680 C   0  0  0  0  0  0  0  0  0  0  0  0
   -3.6998   -1.7190    0.7006 H   0  0  0  0  0  0  0  0  0  0  0  0
   -2.6250   -2.4876   -0.4941 H   0  0  0  0  0  0  0  0  0  0  0  0
   -1.5979   -1.4641    1.0908 C   0  0  0  0  0  0  0  0  0  0  0  0
   -0.9663   -1.8565    2.0608 O   0  0  0  0  0  0  0  0  0  0  0  0
   -1.3510   -0.2005    0.5836 N   0  0  0  0  0  0  0  0  0  0  0  0
   -1.9717    0.0544   -0.1796 H   0  0  0  0  0  0  0  0  0  0  0  0
    0.0040    0.3892    0.5055 C   0  0  1  0  0  0  0  0  0  0  0  0
    0.0520    1.0582   -0.3605 H   0  0  0  0  0  0  0  0  0  0  0  0
    0.1840    1.2133    1.8010 C   0  0  0  0  0  0  0  0  0  0  0  0
   -0.0414    0.5908    2.6717 H   0  0  0  0  0  0  0  0  0  0  0  0
    1.2146    1.5573    1.9023 H   0  0  0  0  0  0  0  0  0  0  0  0
   -0.6949    2.4552    1.8101 C   0  0  0  0  0  0  0  0  0  0  0  0
   -0.8367    3.1554    0.8245 O   0  0  0  0  0  0  0  0  0  0  0  0
   -1.3902    2.8323    2.9229 N   0  0  0  0  0  0  0  0  0  0  0  0
   -2.0885    3.5571    2.7855 H   0  0  0  0  0  0  0  0  0  0  0  0
   -1.4958    2.1616    3.6775 H   0  0  0  0  0  0  0  0  0  0  0  0
    1.1714   -0.6206    0.3086 C   0  0  0  0  0  0  0  0  0  0  0  0
    0.9868   -1.6461   -0.3372 O   0  0  0  0  0  0  0  0  0  0  0  0
    2.4856   -0.2416    0.5288 N   0  0  0  0  0  0  0  0  0  0  0  0
    2.6504    0.6542    0.9754 H   0  0  0  0  0  0  0  0  0  0  0  0
    3.6316   -1.0776    0.1892 C   0  0  0  0  0  0  0  0  0  0  0  0
    3.6824   -1.2367   -0.8929 H   0  0  0  0  0  0  0  0  0  0  0  0
    4.5599   -0.5966    0.5117 H   0  0  0  0  0  0  0  0  0  0  0  0
    3.5564   -2.0510    0.6857 H   0  0  0  0  0  0  0  0  0  0  0  0
  1  2  1  0  0  0  0
  2  3  1  0  0  0  0
  2  4  1  0  0  0  0
  2  5  1  0  0  0  0
  5  6  2  0  0  0  0
  5  7  1  0  0  0  0
  7  8  1  0  0  0  0
  7  9  1  0  0  0  0
  9 10  1  0  0  0  0
  9 11  1  0  0  0  0
  9 19  1  0  0  0  0
 11 12  1  0  0  0  0
 11 13  1  0  0  0  0
 11 14  1  0  0  0  0
 14 15  2  0  0  0  0
 14 16  1  0  0  0  0
 16 17  1  0  0  0  0
 16 18  1  0  0  0  0
 19 20  2  0  0  0  0
 19 21  1  0  0  0  0
 21 22  1  0  0  0  0
 21 23  1  0  0  0  0
 23 24  1  0  0  0  0
 23 25  1  0  0  0  0
 23 26  1  0  0  0  0
M  END
$$$$

  -OEChem-01062216063D

 26 25  0     1  0  0  0  0  0999 V2000
   -2.7584   -3.2605    1.0633 H   0  0  0  0  0  0  0  0  0  0  0  0
   -2.7437   -2.2820    0.5750 C   0  0  0  0  0  0  0  0  0  0  0  0
   -3.6768   -1.7601    0.7995 H   0  0  0  0  0  0  0  0  0  0  0  0
   -2.6659   -2.4314   -0.5048 H   0  0  0  0  0  0  0  0  0  0  0  0
   -1.5605   -1.4711    1.0685 C   0  0  0  0  0  0  0  0  0  0  0  0
   -0.8831   -1.8832    1.9989 O   0  0  0  0  0  0  0  0  0  0  0  0
   -1.3428   -0.1961    0.5762 N   0  0  0  0  0  0  0  0  0  0  0  0
   -1.9813    0.0666   -0.1698 H   0  0  0  0  0  0  0  0  0  0  0  0
   -0.0009    0.4214    0.4972 C   0  0  1  0  0  0  0  0  0  0  0  0
    0.0363    1.0922   -0.3681 H   0  0  0  0  0  0  0  0  0  0  0  0
    0.1732    1.2507    1.7900 C   0  0  0  0  0  0  0  0  0  0  0  0
   -0.0322    0.6254    2.6635 H   0  0  0  0  0  0  0  0  0  0  0  0
    1.1971    1.6191    1.8768 H   0  0  0  0  0  0  0  0  0  0  0  0
   -0.7285    2.4768    1.8026 C   0  0  0  0  0  0  0  0  0  0  0  0
   -0.8911    3.1735    0.8179 O   0  0  0  0  0  0  0  0  0  0  0  0
   -1.4163    2.8473    2.9224 N   0  0  0  0  0  0  0  0  0  0  0  0
   -2.1263    3.5619    2.7912 H   0  0  0  0  0  0  0  0  0  0  0  0
   -1.4993    2.1816    3.6840 H   0  0  0  0  0  0  0  0  0  0  0  0
    1.1624   -0.5884    0.2805 C   0  0  0  0  0  0  0  0  0  0  0  0
    1.0140   -1.4929   -0.5337 O   0  0  0  0  0  0  0  0  0  0  0  0
    2.4398   -0.3588    0.7644 N   0  0  0  0  0  0  0  0  0  0  0  0
    2.5521    0.3753    1.4551 H   0  0  0  0  0  0  0  0  0  0  0  0
    3.5577   -1.2628    0.5198 C   0  0  0  0  0  0  0  0  0  0  0  0
    3.7662   -1.3340   -0.5529 H   0  0  0  0  0  0  0  0  0  0  0  0
    4.4578   -0.8960    1.0221 H   0  0  0  0  0  0  0  0  0  0  0  0
    3.3302   -2.2635    0.9024 H   0  0  0  0  0  0  0  0  0  0  0  0
  1  2  1  0  0  0  0
  2  3  1  0  0  0  0
  2  4  1  0  0  0  0
  2  5  1  0  0  0  0
  5  6  2  0  0  0  0
  5  7  1  0  0  0  0
  7  8  1  0  0  0  0
  7  9  1  0  0  0  0
  9 10  1  0  0  0  0
  9 11  1  0  0  0  0
  9 19  1  0  0  0  0
 11 12  1  0  0  0  0
 11 13  1  0  0  0  0
 11 14  1  0  0  0  0
 14 15  2  0  0  0  0
 14 16  1  0  0  0  0
 16 17  1  0  0  0  0
 16 18  1  0  0  0  0
 19 20  2  0  0  0  0
 19 21  1  0  0  0  0
 21 22  1  0  0  0  0
 21 23  1  0  0  0  0
 23 24  1  0  0  0  0
 23 25  1  0  0  0  0
 23 26  1  0  0  0  0
M  END
$$$$

  -OEChem-01062216063D

 26 25  0     1  0  0  0  0  0999 V2000
   -2.7393   -3.2605    1.0651 H   0  0  0  0  0  0  0  0  0  0  0  0
   -2.7295   -2.2809    0.5791 C   0  0  0  0  0  0  0  0  0  0  0  0
   -3.6583   -1.7576    0.8180 H   0  0  0  0  0  0  0  0  0  0  0  0
   -2.6676   -2.4275   -0.5022 H   0  0  0  0  0  0  0  0  0  0  0  0
   -1.5386   -1.4728    1.0579 C   0  0  0  0  0  0  0  0  0  0  0  0
   -0.8370   -1.8968    1.9646 O   0  0  0  0  0  0  0  0  0  0  0  0
   -1.3348   -0.1936    0.5722 N   0  0  0  0  0  0  0  0  0  0  0  0
   -1.9817    0.0722   -0.1657 H   0  0  0  0  0  0  0  0  0  0  0  0
   -0.0013    0.4392    0.4947 C   0  0  1  0  0  0  0  0  0  0  0  0
    0.0296    1.1095   -0.3716 H   0  0  0  0  0  0  0  0  0  0  0  0
    0.1735    1.2725    1.7835 C   0  0  0  0  0  0  0  0  0  0  0  0
   -0.0202    0.6484    2.6606 H   0  0  0  0  0  0  0  0  0  0  0  0
    1.1965    1.6487    1.8565 H   0  0  0  0  0  0  0  0  0  0  0  0
   -0.7383    2.4910    1.7983 C   0  0  0  0  0  0  0  0  0  0  0  0
   -0.9137    3.1850    0.8141 O   0  0  0  0  0  0  0  0  0  0  0  0
   -1.4313    2.8509    2.9183 N   0  0  0  0  0  0  0  0  0  0  0  0
   -2.1482    3.5588    2.7885 H   0  0  0  0  0  0  0  0  0  0  0  0
   -1.5067    2.1834    3.6791 H   0  0  0  0  0  0  0  0  0  0  0  0
    1.1602   -0.5689    0.2723 C   0  0  0  0  0  0  0  0  0  0  0  0
    1.0789   -1.3471   -0.6710 O   0  0  0  0  0  0  0  0  0  0  0  0
    2.3460   -0.5161    0.9858 N   0  0  0  0  0  0  0  0  0  0  0  0
    2.3464    0.0442    1.8313 H   0  0  0  0  0  0  0  0  0  0  0  0
    3.4258   -1.4764    0.7923 C   0  0  0  0  0  0  0  0  0  0  0  0
    3.7841   -1.4480   -0.2422 H   0  0  0  0  0  0  0  0  0  0  0  0
    4.2654   -1.2399    1.4528 H   0  0  0  0  0  0  0  0  0  0  0  0
    3.0803   -2.4907    1.0185 H   0  0  0  0  0  0  0  0  0  0  0  0
  1  2  1  0  0  0  0
  2  3  1  0  0  0  0
  2  4  1  0  0  0  0
  2  5  1  0  0  0  0
  5  6  2  0  0  0  0
  5  7  1  0  0  0  0
  7  8  1  0  0  0  0
  7  9  1  0  0  0  0
  9 10  1  0  0  0  0
  9 11  1  0  0  0  0
  9 19  1  0  0  0  0
 11 12  1  0  0  0  0
 11 13  1  0  0  0  0
 11 14  1  0  0  0  0
 14 15  2  0  0  0  0
 14 16  1  0  0  0  0
 16 17  1  0  0  0  0
 16 18  1  0  0  0  0
 19 20  2  0  0  0  0
 19 21  1  0  0  0  0
 21 22  1  0  0  0  0
 21 23  1  0  0  0  0
 23 24  1  0  0  0  0
 23 25  1  0  0  0  0
 23 26  1  0  0  0  0
M  END
$$$$

  -OEChem-01062216063D

 26 25  0     1  0  0  0  0  0999 V2000
   -2.7398   -3.2616    1.0616 H   0  0  0  0  0  0  0  0  0  0  0  0
   -2.7345   -2.2769    0.5860 C   0  0  0  0  0  0  0  0  0  0  0  0
   -3.6550   -1.7512    0.8504 H   0  0  0  0  0  0  0  0  0  0  0  0
   -2.6967   -2.4123   -0.4977 H   0  0  0  0  0  0  0  0  0  0  0  0
   -1.5289   -1.4804    1.0472 C   0  0  0  0  0  0  0  0  0  0  0  0
   -0.8069   -1.9212    1.9295 O   0  0  0  0  0  0  0  0  0  0  0  0
   -1.3260   -0.1996    0.5659 N   0  0  0  0  0  0  0  0  0  0  0  0
   -1.9840    0.0806   -0.1569 H   0  0  0  0  0  0  0  0  0  0  0  0
    0.0027    0.4418    0.4925 C   0  0  1  0  0  0  0  0  0  0  0  0
    0.0318    1.1109   -0.3750 H   0  0  0  0  0  0  0  0  0  0  0  0
    0.1771    1.2795    1.7773 C   0  0  0  0  0  0  0  0  0  0  0  0
   -0.0174    0.6582    2.6563 H   0  0  0  0  0  0  0  0  0  0  0  0
    1.2023    1.6525    1.8461 H   0  0  0  0  0  0  0  0  0  0  0  0
   -0.7387    2.4955    1.7903 C   0  0  0  0  0  0  0  0  0  0  0  0
   -0.9190    3.1862    0.8048 O   0  0  0  0  0  0  0  0  0  0  0  0
   -1.4340    2.8559    2.9090 N   0  0  0  0  0  0  0  0  0  0  0  0
   -2.1522    3.5624    2.7780 H   0  0  0  0  0  0  0  0  0  0  0  0
   -1.5022    2.1957    3.6765 H   0  0  0  0  0  0  0  0  0  0  0  0
    1.1682   -0.5590    0.2714 C   0  0  0  0  0  0  0  0  0  0  0  0
    1.1953   -1.1884   -0.7791 O   0  0  0  0  0  0  0  0  0  0  0  0
    2.2133   -0.7024    1.1680 N   0  0  0  0  0  0  0  0  0  0  0  0
    2.0526   -0.3353    2.1003 H   0  0  0  0  0  0  0  0  0  0  0  0
    3.2535   -1.7098    0.9993 C   0  0  0  0  0  0  0  0  0  0  0  0
    3.7679   -1.5742    0.0421 H   0  0  0  0  0  0  0  0  0  0  0  0
    3.9933   -1.6263    1.8010 H   0  0  0  0  0  0  0  0  0  0  0  0
    2.8202   -2.7152    1.0275 H   0  0  0  0  0  0  0  0  0  0  0  0
  1  2  1  0  0  0  0
  2  3  1  0  0  0  0
  2  4  1  0  0  0  0
  2  5  1  0  0  0  0
  5  6  2  0  0  0  0
  5  7  1  0  0  0  0
  7  8  1  0  0  0  0
  7  9  1  0  0  0  0
  9 10  1  0  0  0  0
  9 11  1  0  0  0  0
  9 19  1  0  0  0  0
 11 12  1  0  0  0  0
 11 13  1  0  0  0  0
 11 14  1  0  0  0  0
 14 15  2  0  0  0  0
 14 16  1  0  0  0  0
 16 17  1  0  0  0  0
 16 18  1  0  0  0  0
 19 20  2  0  0  0  0
 19 21  1  0  0  0  0
 21 22  1  0  0  0  0
 21 23  1  0  0  0  0
 23 24  1  0  0  0  0
 23 25  1  0  0  0  0
 23 26  1  0  0  0  0
M  END
$$$$

  -OEChem-01062216063D

 26 25  0     1  0  0  0  0  0999 V2000
   -2.7726   -3.2515    1.0748 H   0  0  0  0  0  0  0  0  0  0  0  0
   -2.7586   -2.2675    0.5975 C   0  0  0  0  0  0  0  0  0  0  0  0
   -3.6662   -1.7268    0.8762 H   0  0  0  0  0  0  0  0  0  0  0  0
   -2.7412   -2.4045   -0.4866 H   0  0  0  0  0  0  0  0  0  0  0  0
   -1.5335   -1.4897    1.0390 C   0  0  0  0  0  0  0  0  0  0  0  0
   -0.8029   -1.9443    1.9070 O   0  0  0  0  0  0  0  0  0  0  0  0
   -1.3203   -0.2113    0.5568 N   0  0  0  0  0  0  0  0  0  0  0  0
   -1.9869    0.0867   -0.1514 H   0  0  0  0  0  0  0  0  0  0  0  0
    0.0073    0.4323    0.4880 C   0  0  1  0  0  0  0  0  0  0  0  0
    0.0358    1.1005   -0.3807 H   0  0  0  0  0  0  0  0  0  0  0  0
    0.1834    1.2726    1.7698 C   0  0  0  0  0  0  0  0  0  0  0  0
   -0.0145    0.6553    2.6503 H   0  0  0  0  0  0  0  0  0  0  0  0
    1.2124    1.6368    1.8372 H   0  0  0  0  0  0  0  0  0  0  0  0
   -0.7305    2.4900    1.7814 C   0  0  0  0  0  0  0  0  0  0  0  0
   -0.9117    3.1796    0.7953 O   0  0  0  0  0  0  0  0  0  0  0  0
   -1.4264    2.8527    2.8990 N   0  0  0  0  0  0  0  0  0  0  0  0
   -2.1376    3.5667    2.7710 H   0  0  0  0  0  0  0  0  0  0  0  0
   -1.4894    2.2000    3.6733 H   0  0  0  0  0  0  0  0  0  0  0  0
    1.1817   -0.5579    0.2762 C   0  0  0  0  0  0  0  0  0  0  0  0
    1.3589   -1.0117   -0.8470 O   0  0  0  0  0  0  0  0  0  0  0  0
    2.0486   -0.9108    1.2959 N   0  0  0  0  0  0  0  0  0  0  0  0
    1.6899   -0.7564    2.2337 H   0  0  0  0  0  0  0  0  0  0  0  0
    3.0588   -1.9479    1.1252 C   0  0  0  0  0  0  0  0  0  0  0  0
    3.7389   -1.6916    0.3060 H   0  0  0  0  0  0  0  0  0  0  0  0
    3.6486   -2.0550    2.0406 H   0  0  0  0  0  0  0  0  0  0  0  0
    2.5846   -2.9096    0.9020 H   0  0  0  0  0  0  0  0  0  0  0  0
  1  2  1  0  0  0  0
  2  3  1  0  0  0  0
  2  4  1  0  0  0  0
  2  5  1  0  0  0  0
  5  6  2  0  0  0  0
  5  7  1  0  0  0  0
  7  8  1  0  0  0  0
  7  9  1  0  0  0  0
  9 10  1  0  0  0  0
  9 11  1  0  0  0  0
  9 19  1  0  0  0  0
 11 12  1  0  0  0  0
 11 13  1  0  0  0  0
 11 14  1  0  0  0  0
 14 15  2  0  0  0  0
 14 16  1  0  0  0  0
 16 17  1  0  0  0  0
 16 18  1  0  0  0  0
 19 20  2  0  0  0  0
 19 21  1  0  0  0  0
 21 22  1  0  0  0  0
 21 23  1  0  0  0  0
 23 24  1  0  0  0  0
 23 25  1  0  0  0  0
 23 26  1  0  0  0  0
M  END
$$$$

  -OEChem-01062216063D

 26 25  0     1  0  0  0  0  0999 V2000
   -2.8911   -3.2756    0.9951 H   0  0  0  0  0  0  0  0  0  0  0  0
   -2.8714   -2.2662    0.5747 C   0  0  0  0  0  0  0  0  0  0  0  0
   -3.7443   -1.7163    0.9349 H   0  0  0  0  0  0  0  0  0  0  0  0
   -2.9196   -2.3397   -0.5145 H   0  0  0  0  0  0  0  0  0  0  0  0
   -1.5991   -1.5512    0.9893 C   0  0  0  0  0  0  0  0  0  0  0  0
   -0.8675   -2.0523    1.8299 O   0  0  0  0  0  0  0  0  0  0  0  0
   -1.3439   -0.2787    0.5138 N   0  0  0  0  0  0  0  0  0  0  0  0
   -2.0238    0.0688   -0.1585 H   0  0  0  0  0  0  0  0  0  0  0  0
   -0.0157    0.3670    0.4723 C   0  0  1  0  0  0  0  0  0  0  0  0
    0.0211    1.0369   -0.3951 H   0  0  0  0  0  0  0  0  0  0  0  0
    0.1379    1.2064    1.7568 C   0  0  0  0  0  0  0  0  0  0  0  0
   -0.0779    0.5882    2.6325 H   0  0  0  0  0  0  0  0  0  0  0  0
    1.1677    1.5644    1.8436 H   0  0  0  0  0  0  0  0  0  0  0  0
   -0.7753    2.4243    1.7547 C   0  0  0  0  0  0  0  0  0  0  0  0
   -0.9401    3.1153    0.7668 O   0  0  0  0  0  0  0  0  0  0  0  0
   -1.4509    2.8172    2.8748 N   0  0  0  0  0  0  0  0  0  0  0  0
   -1.8939    3.7308    2.8340 H   0  0  0  0  0  0  0  0  0  0  0  0
   -1.2099    2.4031    3.7690 H   0  0  0  0  0  0  0  0  0  0  0  0
    1.1873   -0.5943    0.2924 C   0  0  0  0  0  0  0  0  0  0  0  0
    1.6108   -0.7941   -0.8383 O   0  0  0  0  0  0  0  0  0  0  0  0
    1.8426   -1.1572    1.3730 N   0  0  0  0  0  0  0  0  0  0  0  0
    1.2513   -1.2666    2.1958 H   0  0  0  0  0  0  0  0  0  0  0  0
    2.9281   -2.1149    1.2022 C   0  0  0  0  0  0  0  0  0  0  0  0
    3.7443   -1.6720    0.6216 H   0  0  0  0  0  0  0  0  0  0  0  0
    3.3239   -2.4131    2.1776 H   0  0  0  0  0  0  0  0  0  0  0  0
    2.5703   -3.0096    0.6820 H   0  0  0  0  0  0  0  0  0  0  0  0
  1  2  1  0  0  0  0
  2  3  1  0  0  0  0
  2  4  1  0  0  0  0
  2  5  1  0  0  0  0
  5  6  2  0  0  0  0
  5  7  1  0  0  0  0
  7  8  1  0  0  0  0
  7  9  1  0  0  0  0
  9 10  1  0  0  0  0
  9 11  1  0  0  0  0
  9 19  1  0  0  0  0
 11 12  1  0  0  0  0
 11 13  1  0  0  0  0
 11 14  1  0  0  0  0
 14 15  2  0  0  0  0
 14 16  1  0  0  0  0
 16 17  1  0  0  0  0
 16 18  1  0  0  0  0
 19 20  2  0  0  0  0
 19 21  1  0  0  0  0
 21 22  1  0  0  0  0
 21 23  1  0  0  0  0
 23 24  1  0  0  0  0
 23 25  1  0  0  0  0
 23 26  1  0  0  0  0
M  END
$$$$

  -OEChem-01062216063D

 26 25  0     1  0  0  0  0  0999 V2000
   -3.0544   -3.2040    1.0283 H   0  0  0  0  0  0  0  0  0  0  0  0
   -2.9753   -2.2071    0.5854 C   0  0  0  0  0  0  0  0  0  0  0  0
   -3.8128   -1.5983    0.9348 H   0  0  0  0  0  0  0  0  0  0  0  0
   -3.0309   -2.3017   -0.5020 H   0  0  0  0  0  0  0  0  0  0  0  0
   -1.6618   -1.5601    0.9825 C   0  0  0  0  0  0  0  0  0  0  0  0
   -0.9527   -2.0993    1.8176 O   0  0  0  0  0  0  0  0  0  0  0  0
   -1.3521   -0.3024    0.5006 N   0  0  0  0  0  0  0  0  0  0  0  0
   -2.0384    0.0839   -0.1437 H   0  0  0  0  0  0  0  0  0  0  0  0
   -0.0154    0.3301    0.4554 C   0  0  1  0  0  0  0  0  0  0  0  0
    0.0207    1.0023   -0.4104 H   0  0  0  0  0  0  0  0  0  0  0  0
    0.1425    1.1616    1.7434 C   0  0  0  0  0  0  0  0  0  0  0  0
   -0.0762    0.5397    2.6158 H   0  0  0  0  0  0  0  0  0  0  0  0
    1.1755    1.5109    1.8324 H   0  0  0  0  0  0  0  0  0  0  0  0
   -0.7611    2.3864    1.7479 C   0  0  0  0  0  0  0  0  0  0  0  0
   -0.9214    3.0856    0.7650 O   0  0  0  0  0  0  0  0  0  0  0  0
   -1.4459    2.7664    2.8668 N   0  0  0  0  0  0  0  0  0  0  0  0
   -1.8848    3.6821    2.8335 H   0  0  0  0  0  0  0  0  0  0  0  0
   -1.2073    2.3446    3.7581 H   0  0  0  0  0  0  0  0  0  0  0  0
    1.2081   -0.6096    0.2931 C   0  0  0  0  0  0  0  0  0  0  0  0
    1.8153   -0.5988   -0.7690 O   0  0  0  0  0  0  0  0  0  0  0  0
    1.6863   -1.3868    1.3320 N   0  0  0  0  0  0  0  0  0  0  0  0
    0.9779   -1.6160    2.0322 H   0  0  0  0  0  0  0  0  0  0  0  0
    2.7863   -2.3273    1.1593 C   0  0  0  0  0  0  0  0  0  0  0  0
    3.6891   -1.8064    0.8236 H   0  0  0  0  0  0  0  0  0  0  0  0
    3.0094   -2.8235    2.1086 H   0  0  0  0  0  0  0  0  0  0  0  0
    2.5246   -3.0913    0.4199 H   0  0  0  0  0  0  0  0  0  0  0  0
  1  2  1  0  0  0  0
  2  3  1  0  0  0  0
  2  4  1  0  0  0  0
  2  5  1  0  0  0  0
  5  6  2  0  0  0  0
  5  7  1  0  0  0  0
  7  8  1  0  0  0  0
  7  9  1  0  0  0  0
  9 10  1  0  0  0  0
  9 11  1  0  0  0  0
  9 19  1  0  0  0  0
 11 12  1  0  0  0  0
 11 13  1  0  0  0  0
 11 14  1  0  0  0  0
 14 15  2  0  0  0  0
 14 16  1  0  0  0  0
 16 17  1  0  0  0  0
 16 18  1  0  0  0  0
 19 20  2  0  0  0  0
 19 21  1  0  0  0  0
 21 22  1  0  0  0  0
 21 23  1  0  0  0  0
 23 24  1  0  0  0  0
 23 25  1  0  0  0  0
 23 26  1  0  0  0  0
M  END
$$$$

  -OEChem-01062216063D

 26 25  0     1  0  0  0  0  0999 V2000
   -3.2209   -3.1356    1.0334 H   0  0  0  0  0  0  0  0  0  0  0  0
   -3.0885   -2.1458    0.5869 C   0  0  0  0  0  0  0  0  0  0  0  0
   -3.8904   -1.4911    0.9369 H   0  0  0  0  0  0  0  0  0  0  0  0
   -3.1529   -2.2409   -0.4999 H   0  0  0  0  0  0  0  0  0  0  0  0
   -1.7405   -1.5697    0.9778 C   0  0  0  0  0  0  0  0  0  0  0  0
   -1.0605   -2.1518    1.8066 O   0  0  0  0  0  0  0  0  0  0  0  0
   -1.3731   -0.3285    0.4931 N   0  0  0  0  0  0  0  0  0  0  0  0
   -2.0593    0.0941   -0.1283 H   0  0  0  0  0  0  0  0  0  0  0  0
   -0.0256    0.2864    0.4438 C   0  0  1  0  0  0  0  0  0  0  0  0
    0.0099    0.9586   -0.4222 H   0  0  0  0  0  0  0  0  0  0  0  0
    0.1370    1.1142    1.7329 C   0  0  0  0  0  0  0  0  0  0  0  0
   -0.0876    0.4913    2.6032 H   0  0  0  0  0  0  0  0  0  0  0  0
    1.1729    1.4539    1.8250 H   0  0  0  0  0  0  0  0  0  0  0  0
   -0.7530    2.3489    1.7385 C   0  0  0  0  0  0  0  0  0  0  0  0
   -0.9045    3.0531    0.7579 O   0  0  0  0  0  0  0  0  0  0  0  0
   -1.4359    2.7326    2.8573 N   0  0  0  0  0  0  0  0  0  0  0  0
   -1.8563    3.6571    2.8277 H   0  0  0  0  0  0  0  0  0  0  0  0
   -1.1994    2.3067    3.7473 H   0  0  0  0  0  0  0  0  0  0  0  0
    1.2184   -0.6304    0.2945 C   0  0  0  0  0  0  0  0  0  0  0  0
    1.9758   -0.4265   -0.6445 O   0  0  0  0  0  0  0  0  0  0  0  0
    1.5533   -1.6122    1.2069 N   0  0  0  0  0  0  0  0  0  0  0  0
    0.7934   -1.9040    1.8264 H   0  0  0  0  0  0  0  0  0  0  0  0
    2.6764   -2.5220    1.0211 C   0  0  0  0  0  0  0  0  0  0  0  0
    3.6134   -1.9619    0.9362 H   0  0  0  0  0  0  0  0  0  0  0  0
    2.7571   -3.1997    1.8763 H   0  0  0  0  0  0  0  0  0  0  0  0
    2.5394   -3.1200    0.1142 H   0  0  0  0  0  0  0  0  0  0  0  0
  1  2  1  0  0  0  0
  2  3  1  0  0  0  0
  2  4  1  0  0  0  0
  2  5  1  0  0  0  0
  5  6  2  0  0  0  0
  5  7  1  0  0  0  0
  7  8  1  0  0  0  0
  7  9  1  0  0  0  0
  9 10  1  0  0  0  0
  9 11  1  0  0  0  0
  9 19  1  0  0  0  0
 11 12  1  0  0  0  0
 11 13  1  0  0  0  0
 11 14  1  0  0  0  0
 14 15  2  0  0  0  0
 14 16  1  0  0  0  0
 16 17  1  0  0  0  0
 16 18  1  0  0  0  0
 19 20  2  0  0  0  0
 19 21  1  0  0  0  0
 21 22  1  0  0  0  0
 21 23  1  0  0  0  0
 23 24  1  0  0  0  0
 23 25  1  0  0  0  0
 23 26  1  0  0  0  0
M  END
$$$$

  -OEChem-01062216063D

 26 25  0     1  0  0  0  0  0999 V2000
   -3.3600   -3.0789    1.0304 H   0  0  0  0  0  0  0  0  0  0  0  0
   -3.1964   -2.0881    0.5969 C   0  0  0  0  0  0  0  0  0  0  0  0
   -3.9654   -1.4082    0.9721 H   0  0  0  0  0  0  0  0  0  0  0  0
   -3.2847   -2.1625   -0.4900 H   0  0  0  0  0  0  0  0  0  0  0  0
   -1.8194   -1.5726    0.9718 C   0  0  0  0  0  0  0  0  0  0  0  0
   -1.1561   -2.1896    1.7878 O   0  0  0  0  0  0  0  0  0  0  0  0
   -1.4097   -0.3451    0.4869 N   0  0  0  0  0  0  0  0  0  0  0  0
   -2.0978    0.1117   -0.1079 H   0  0  0  0  0  0  0  0  0  0  0  0
   -0.0505    0.2459    0.4238 C   0  0  1  0  0  0  0  0  0  0  0  0
   -0.0186    0.9201   -0.4408 H   0  0  0  0  0  0  0  0  0  0  0  0
    0.1323    1.0667    1.7146 C   0  0  0  0  0  0  0  0  0  0  0  0
   -0.0948    0.4434    2.5840 H   0  0  0  0  0  0  0  0  0  0  0  0
    1.1734    1.3923    1.8013 H   0  0  0  0  0  0  0  0  0  0  0  0
   -0.7385    2.3148    1.7303 C   0  0  0  0  0  0  0  0  0  0  0  0
   -0.8863    3.0254    0.7536 O   0  0  0  0  0  0  0  0  0  0  0  0
   -1.3983    2.7104    2.8587 N   0  0  0  0  0  0  0  0  0  0  0  0
   -1.7957    3.6452    2.8357 H   0  0  0  0  0  0  0  0  0  0  0  0
   -1.1494    2.2840    3.7450 H   0  0  0  0  0  0  0  0  0  0  0  0
    1.2013   -0.6617    0.2655 C   0  0  0  0  0  0  0  0  0  0  0  0
    2.0779   -0.2907   -0.5032 O   0  0  0  0  0  0  0  0  0  0  0  0
    1.4215   -1.8240    0.9772 N   0  0  0  0  0  0  0  0  0  0  0  0
    0.6459   -2.1583    1.5534 H   0  0  0  0  0  0  0  0  0  0  0  0
    2.5903   -2.6772    0.8074 C   0  0  0  0  0  0  0  0  0  0  0  0
    3.5080   -2.1177    1.0162 H   0  0  0  0  0  0  0  0  0  0  0  0
    2.5396   -3.5251    1.4971 H   0  0  0  0  0  0  0  0  0  0  0  0
    2.6373   -3.0638   -0.2158 H   0  0  0  0  0  0  0  0  0  0  0  0
  1  2  1  0  0  0  0
  2  3  1  0  0  0  0
  2  4  1  0  0  0  0
  2  5  1  0  0  0  0
  5  6  2  0  0  0  0
  5  7  1  0  0  0  0
  7  8  1  0  0  0  0
  7  9  1  0  0  0  0
  9 10  1  0  0  0  0
  9 11  1  0  0  0  0
  9 19  1  0  0  0  0
 11 12  1  0  0  0  0
 11 13  1  0  0  0  0
 11 14  1  0  0  0  0
 14 15  2  0  0  0  0
 14 16  1  0  0  0  0
 16 17  1  0  0  0  0
 16 18  1  0  0  0  0
 19 20  2  0  0  0  0
 19 21  1  0  0  0  0
 21 22  1  0  0  0  0
 21 23  1  0  0  0  0
 23 24  1  0  0  0  0
 23 25  1  0  0  0  0
 23 26  1  0  0  0  0
M  END
$$$$

  -OEChem-01062216063D

 26 25  0     1  0  0  0  0  0999 V2000
   -2.7453   -3.4101    1.0862 H   0  0  0  0  0  0  0  0  0  0  0  0
   -2.6628   -2.4516    0.5659 C   0  0  0  0  0  0  0  0  0  0  0  0
   -3.5681   -1.8696    0.7555 H   0  0  0  0  0  0  0  0  0  0  0  0
   -2.5769   -2.6405   -0.5068 H   0  0  0  0  0  0  0  0  0  0  0  0
   -1.4452   -1.6918    1.0583 C   0  0  0  0  0  0  0  0  0  0  0  0
   -0.8244   -2.1168    2.0155 O   0  0  0  0  0  0  0  0  0  0  0  0
   -1.1809   -0.4382    0.5460 N   0  0  0  0  0  0  0  0  0  0  0  0
   -1.8645   -0.1207   -0.1370 H   0  0  0  0  0  0  0  0  0  0  0  0
    0.0934    0.3192    0.5433 C   0  0  1  0  0  0  0  0  0  0  0  0
    0.0893    0.9634   -0.3432 H   0  0  0  0  0  0  0  0  0  0  0  0
    0.0365    1.2002    1.8101 C   0  0  0  0  0  0  0  0  0  0  0  0
   -0.1814    0.5773    2.6822 H   0  0  0  0  0  0  0  0  0  0  0  0
    1.0043    1.6797    1.9834 H   0  0  0  0  0  0  0  0  0  0  0  0
   -0.9982    2.3097    1.6881 C   0  0  0  0  0  0  0  0  0  0  0  0
   -1.1497    2.9596    0.6696 O   0  0  0  0  0  0  0  0  0  0  0  0
   -1.8267    2.6297    2.7256 N   0  0  0  0  0  0  0  0  0  0  0  0
   -2.3523    3.4932    2.6268 H   0  0  0  0  0  0  0  0  0  0  0  0
   -1.6213    2.2579    3.6472 H   0  0  0  0  0  0  0  0  0  0  0  0
    1.4957   -0.3669    0.4946 C   0  0  0  0  0  0  0  0  0  0  0  0
    2.4657    0.3489    0.2996 O   0  0  0  0  0  0  0  0  0  0  0  0
    1.9021   -1.5903    0.9713 N   0  0  0  0  0  0  0  0  0  0  0  0
    2.8954   -1.5568    1.1852 H   0  0  0  0  0  0  0  0  0  0  0  0
    1.4898   -2.8139    0.2944 C   0  0  0  0  0  0  0  0  0  0  0  0
    2.3330   -3.2301   -0.2658 H   0  0  0  0  0  0  0  0  0  0  0  0
    1.1590   -3.5585    1.0254 H   0  0  0  0  0  0  0  0  0  0  0  0
    0.6756   -2.6294   -0.4128 H   0  0  0  0  0  0  0  0  0  0  0  0
  1  2  1  0  0  0  0
  2  3  1  0  0  0  0
  2  4  1  0  0  0  0
  2  5  1  0  0  0  0
  5  6  2  0  0  0  0
  5  7  1  0  0  0  0
  7  8  1  0  0  0  0
  7  9  1  0  0  0  0
  9 10  1  0  0  0  0
  9 11  1  0  0  0  0
  9 19  1  0  0  0  0
 11 12  1  0  0  0  0
 11 13  1  0  0  0  0
 11 14  1  0  0  0  0
 14 15  2  0  0  0  0
 14 16  1  0  0  0  0
 16 17  1  0  0  0  0
 16 18  1  0  0  0  0
 19 20  2  0  0  0  0
 19 21  1  0  0  0  0
 21 22  1  0  0  0  0
 21 23  1  0  0  0  0
 23 24  1  0  0  0  0
 23 25  1  0  0  0  0
 23 26  1  0  0  0  0
M  END
$$$$

  -OEChem-01062216063D

 26 25  0     1  0  0  0  0  0999 V2000
   -3.0626   -3.2633    1.0101 H   0  0  0  0  0  0  0  0  0  0  0  0
   -3.0372   -2.2387    0.6285 C   0  0  0  0  0  0  0  0  0  0  0  0
   -3.8596   -1.6747    1.0756 H   0  0  0  0  0  0  0  0  0  0  0  0
   -3.1694   -2.2664   -0.4558 H   0  0  0  0  0  0  0  0  0  0  0  0
   -1.7116   -1.5859    0.9729 C   0  0  0  0  0  0  0  0  0  0  0  0
   -0.9884   -2.1077    1.8018 O   0  0  0  0  0  0  0  0  0  0  0  0
   -1.4633   -0.2955    0.5537 N   0  0  0  0  0  0  0  0  0  0  0  0
   -2.2423    0.1057    0.0377 H   0  0  0  0  0  0  0  0  0  0  0  0
   -0.1572    0.3255    0.2296 C   0  0  1  0  0  0  0  0  0  0  0  0
   -0.3355    1.1017   -0.5241 H   0  0  0  0  0  0  0  0  0  0  0  0
    0.3336    0.9882    1.5313 C   0  0  0  0  0  0  0  0  0  0  0  0
    0.3202    0.2613    2.3480 H   0  0  0  0  0  0  0  0  0  0  0  0
    1.3662    1.3282    1.4083 H   0  0  0  0  0  0  0  0  0  0  0  0
   -0.5012    2.2043    1.9066 C   0  0  0  0  0  0  0  0  0  0  0  0
   -0.8729    3.0246    1.0877 O   0  0  0  0  0  0  0  0  0  0  0  0
   -0.9212    2.4108    3.1896 N   0  0  0  0  0  0  0  0  0  0  0  0
   -1.6193    3.1367    3.3207 H   0  0  0  0  0  0  0  0  0  0  0  0
   -0.8365    1.6534    3.8598 H   0  0  0  0  0  0  0  0  0  0  0  0
    1.0214   -0.5176   -0.3426 C   0  0  0  0  0  0  0  0  0  0  0  0
    1.7428    0.0147   -1.1700 O   0  0  0  0  0  0  0  0  0  0  0  0
    1.1773   -1.8829   -0.3691 N   0  0  0  0  0  0  0  0  0  0  0  0
    1.6991   -2.1335   -1.2053 H   0  0  0  0  0  0  0  0  0  0  0  0
    1.6906   -2.5443    0.8252 C   0  0  0  0  0  0  0  0  0  0  0  0
    1.5776   -1.9167    1.7155 H   0  0  0  0  0  0  0  0  0  0  0  0
    1.1591   -3.4863    0.9936 H   0  0  0  0  0  0  0  0  0  0  0  0
    2.7557   -2.7638    0.7017 H   0  0  0  0  0  0  0  0  0  0  0  0
  1  2  1  0  0  0  0
  2  3  1  0  0  0  0
  2  4  1  0  0  0  0
  2  5  1  0  0  0  0
  5  6  2  0  0  0  0
  5  7  1  0  0  0  0
  7  8  1  0  0  0  0
  7  9  1  0  0  0  0
  9 10  1  0  0  0  0
  9 11  1  0  0  0  0
  9 19  1  0  0  0  0
 11 12  1  0  0  0  0
 11 13  1  0  0  0  0
 11 14  1  0  0  0  0
 14 15  2  0  0  0  0
 14 16  1  0  0  0  0
 16 17  1  0  0  0  0
 16 18  1  0  0  0  0
 19 20  2  0  0  0  0
 19 21  1  0  0  0  0
 21 22  1  0  0  0  0
 21 23  1  0  0  0  0
 23 24  1  0  0  0  0
 23 25  1  0  0  0  0
 23 26  1  0  0  0  0
M  END
$$$$

  -OEChem-01062216063D

 26 25  0     1  0  0  0  0  0999 V2000
   -3.4539   -2.9947    1.0876 H   0  0  0  0  0  0  0  0  0  0  0  0
   -3.2830   -1.9897    0.6911 C   0  0  0  0  0  0  0  0  0  0  0  0
   -3.9498   -1.2918    1.2035 H   0  0  0  0  0  0  0  0  0  0  0  0
   -3.5175   -1.9893   -0.3762 H   0  0  0  0  0  0  0  0  0  0  0  0
   -1.8381   -1.5788    0.9060 C   0  0  0  0  0  0  0  0  0  0  0  0
   -1.1009   -2.3077    1.5467 O   0  0  0  0  0  0  0  0  0  0  0  0
   -1.4180   -0.3441    0.4497 N   0  0  0  0  0  0  0  0  0  0  0  0
   -2.1444    0.2000   -0.0112 H   0  0  0  0  0  0  0  0  0  0  0  0
   -0.0531    0.2342    0.3660 C   0  0  1  0  0  0  0  0  0  0  0  0
   -0.0327    0.9277   -0.4826 H   0  0  0  0  0  0  0  0  0  0  0  0
    0.1374    1.0247    1.6788 C   0  0  0  0  0  0  0  0  0  0  0  0
   -0.0842    0.3790    2.5329 H   0  0  0  0  0  0  0  0  0  0  0  0
    1.1759    1.3545    1.7763 H   0  0  0  0  0  0  0  0  0  0  0  0
   -0.7341    2.2714    1.7259 C   0  0  0  0  0  0  0  0  0  0  0  0
   -0.8870    3.0044    0.7666 O   0  0  0  0  0  0  0  0  0  0  0  0
   -1.3977    2.6362    2.8624 N   0  0  0  0  0  0  0  0  0  0  0  0
   -1.7849    3.5756    2.8622 H   0  0  0  0  0  0  0  0  0  0  0  0
   -1.1334    2.1975    3.7384 H   0  0  0  0  0  0  0  0  0  0  0  0
    1.1970   -0.6687    0.1439 C   0  0  0  0  0  0  0  0  0  0  0  0
    2.2787   -0.1165   -0.0143 O   0  0  0  0  0  0  0  0  0  0  0  0
    1.1584   -2.0435    0.0088 N   0  0  0  0  0  0  0  0  0  0  0  0
    0.3253   -2.4896    0.3941 H   0  0  0  0  0  0  0  0  0  0  0  0
    2.3556   -2.8615   -0.1462 C   0  0  0  0  0  0  0  0  0  0  0  0
    3.0084   -2.7552    0.7263 H   0  0  0  0  0  0  0  0  0  0  0  0
    2.0806   -3.9156   -0.2485 H   0  0  0  0  0  0  0  0  0  0  0  0
    2.9118   -2.5633   -1.0410 H   0  0  0  0  0  0  0  0  0  0  0  0
  1  2  1  0  0  0  0
  2  3  1  0  0  0  0
  2  4  1  0  0  0  0
  2  5  1  0  0  0  0
  5  6  2  0  0  0  0
  5  7  1  0  0  0  0
  7  8  1  0  0  0  0
  7  9  1  0  0  0  0
  9 10  1  0  0  0  0
  9 11  1  0  0  0  0
  9 19  1  0  0  0  0
 11 12  1  0  0  0  0
 11 13  1  0  0  0  0
 11 14  1  0  0  0  0
 14 15  2  0  0  0  0
 14 16  1  0  0  0  0
 16 17  1  0  0  0  0
 16 18  1  0  0  0  0
 19 20  2  0  0  0  0
 19 21  1  0  0  0  0
 21 22  1  0  0  0  0
 21 23  1  0  0  0  0
 23 24  1  0  0  0  0
 23 25  1  0  0  0  0
 23 26  1  0  0  0  0
M  END
$$$$

  -OEChem-01062216063D

 26 25  0     1  0  0  0  0  0999 V2000
   -3.3837   -3.0148    1.0964 H   0  0  0  0  0  0  0  0  0  0  0  0
   -3.2352   -1.9963    0.7262 C   0  0  0  0  0  0  0  0  0  0  0  0
   -3.8703   -1.3175    1.3009 H   0  0  0  0  0  0  0  0  0  0  0  0
   -3.5314   -1.9586   -0.3251 H   0  0  0  0  0  0  0  0  0  0  0  0
   -1.7801   -1.5919    0.8718 C   0  0  0  0  0  0  0  0  0  0  0  0
   -1.0004   -2.3564    1.4118 O   0  0  0  0  0  0  0  0  0  0  0  0
   -1.3831   -0.3435    0.4316 N   0  0  0  0  0  0  0  0  0  0  0  0
   -2.1298    0.2228    0.0343 H   0  0  0  0  0  0  0  0  0  0  0  0
   -0.0263    0.2546    0.3636 C   0  0  1  0  0  0  0  0  0  0  0  0
   -0.0041    0.9507   -0.4825 H   0  0  0  0  0  0  0  0  0  0  0  0
    0.1390    1.0442    1.6824 C   0  0  0  0  0  0  0  0  0  0  0  0
   -0.0809    0.3921    2.5322 H   0  0  0  0  0  0  0  0  0  0  0  0
    1.1691    1.3932    1.7952 H   0  0  0  0  0  0  0  0  0  0  0  0
   -0.7517    2.2768    1.7229 C   0  0  0  0  0  0  0  0  0  0  0  0
   -0.9052    3.0097    0.7637 O   0  0  0  0  0  0  0  0  0  0  0  0
   -1.4330    2.6282    2.8529 N   0  0  0  0  0  0  0  0  0  0  0  0
   -1.8305    3.5632    2.8500 H   0  0  0  0  0  0  0  0  0  0  0  0
   -1.1609    2.1985    3.7310 H   0  0  0  0  0  0  0  0  0  0  0  0
    1.2211   -0.6516    0.1385 C   0  0  0  0  0  0  0  0  0  0  0  0
    2.3347   -0.1443    0.1990 O   0  0  0  0  0  0  0  0  0  0  0  0
    1.1348   -1.9595   -0.3013 N   0  0  0  0  0  0  0  0  0  0  0  0
    0.2663   -2.4259   -0.0402 H   0  0  0  0  0  0  0  0  0  0  0  0
    2.3091   -2.8005   -0.5005 C   0  0  0  0  0  0  0  0  0  0  0  0
    2.8592   -2.9197    0.4387 H   0  0  0  0  0  0  0  0  0  0  0  0
    2.0064   -3.7905   -0.8543 H   0  0  0  0  0  0  0  0  0  0  0  0
    2.9770   -2.3584   -1.2473 H   0  0  0  0  0  0  0  0  0  0  0  0
  1  2  1  0  0  0  0
  2  3  1  0  0  0  0
  2  4  1  0  0  0  0
  2  5  1  0  0  0  0
  5  6  2  0  0  0  0
  5  7  1  0  0  0  0
  7  8  1  0  0  0  0
  7  9  1  0  0  0  0
  9 10  1  0  0  0  0
  9 11  1  0  0  0  0
  9 19  1  0  0  0  0
 11 12  1  0  0  0  0
 11 13  1  0  0  0  0
 11 14  1  0  0  0  0
 14 15  2  0  0  0  0
 14 16  1  0  0  0  0
 16 17  1  0  0  0  0
 16 18  1  0  0  0  0
 19 20  2  0  0  0  0
 19 21  1  0  0  0  0
 21 22  1  0  0  0  0
 21 23  1  0  0  0  0
 23 24  1  0  0  0  0
 23 25  1  0  0  0  0
 23 26  1  0  0  0  0
M  END
$$$$

  -OEChem-01062216063D

 26 25  0     1  0  0  0  0  0999 V2000
   -3.2931   -3.0360    1.1295 H   0  0  0  0  0  0  0  0  0  0  0  0
   -3.1673   -2.0158    0.7553 C   0  0  0  0  0  0  0  0  0  0  0  0
   -3.7776   -1.3418    1.3615 H   0  0  0  0  0  0  0  0  0  0  0  0
   -3.5131   -1.9767   -0.2806 H   0  0  0  0  0  0  0  0  0  0  0  0
   -1.7086   -1.6054    0.8325 C   0  0  0  0  0  0  0  0  0  0  0  0
   -0.8915   -2.3905    1.2775 O   0  0  0  0  0  0  0  0  0  0  0  0
   -1.3419   -0.3412    0.4107 N   0  0  0  0  0  0  0  0  0  0  0  0
   -2.1083    0.2410    0.0790 H   0  0  0  0  0  0  0  0  0  0  0  0
    0.0048    0.2792    0.3664 C   0  0  1  0  0  0  0  0  0  0  0  0
    0.0339    0.9785   -0.4763 H   0  0  0  0  0  0  0  0  0  0  0  0
    0.1411    1.0676    1.6903 C   0  0  0  0  0  0  0  0  0  0  0  0
   -0.0784    0.4089    2.5349 H   0  0  0  0  0  0  0  0  0  0  0  0
    1.1629    1.4355    1.8176 H   0  0  0  0  0  0  0  0  0  0  0  0
   -0.7691    2.2860    1.7217 C   0  0  0  0  0  0  0  0  0  0  0  0
   -0.9204    3.0179    0.7612 O   0  0  0  0  0  0  0  0  0  0  0  0
   -1.4721    2.6249    2.8424 N   0  0  0  0  0  0  0  0  0  0  0  0
   -1.8818    3.5547    2.8355 H   0  0  0  0  0  0  0  0  0  0  0  0
   -1.2055    2.1981    3.7238 H   0  0  0  0  0  0  0  0  0  0  0  0
    1.2452   -0.6363    0.1424 C   0  0  0  0  0  0  0  0  0  0  0  0
    2.3623   -0.2341    0.4459 O   0  0  0  0  0  0  0  0  0  0  0  0
    1.1551   -1.8065   -0.5898 N   0  0  0  0  0  0  0  0  0  0  0  0
    0.2423   -2.2529   -0.5357 H   0  0  0  0  0  0  0  0  0  0  0  0
    2.3060   -2.6733   -0.8156 C   0  0  0  0  0  0  0  0  0  0  0  0
    2.7005   -3.0421    0.1369 H   0  0  0  0  0  0  0  0  0  0  0  0
    2.0168   -3.5322   -1.4286 H   0  0  0  0  0  0  0  0  0  0  0  0
    3.0998   -2.1301   -1.3392 H   0  0  0  0  0  0  0  0  0  0  0  0
  1  2  1  0  0  0  0
  2  3  1  0  0  0  0
  2  4  1  0  0  0  0
  2  5  1  0  0  0  0
  5  6  2  0  0  0  0
  5  7  1  0  0  0  0
  7  8  1  0  0  0  0
  7  9  1  0  0  0  0
  9 10  1  0  0  0  0
  9 11  1  0  0  0  0
  9 19  1  0  0  0  0
 11 12  1  0  0  0  0
 11 13  1  0  0  0  0
 11 14  1  0  0  0  0
 14 15  2  0  0  0  0
 14 16  1  0  0  0  0
 16 17  1  0  0  0  0
 16 18  1  0  0  0  0
 19 20  2  0  0  0  0
 19 21  1  0  0  0  0
 21 22  1  0  0  0  0
 21 23  1  0  0  0  0
 23 24  1  0  0  0  0
 23 25  1  0  0  0  0
 23 26  1  0  0  0  0
M  END
$$$$

  -OEChem-01062216063D

 26 25  0     1  0  0  0  0  0999 V2000
   -3.1563   -3.0988    1.1154 H   0  0  0  0  0  0  0  0  0  0  0  0
   -3.0674   -2.0714    0.7500 C   0  0  0  0  0  0  0  0  0  0  0  0
   -3.6937   -1.4234    1.3683 H   0  0  0  0  0  0  0  0  0  0  0  0
   -3.4235   -2.0339   -0.2823 H   0  0  0  0  0  0  0  0  0  0  0  0
   -1.6222   -1.6142    0.8179 C   0  0  0  0  0  0  0  0  0  0  0  0
   -0.7767   -2.3757    1.2497 O   0  0  0  0  0  0  0  0  0  0  0  0
   -1.3025   -0.3340    0.4031 N   0  0  0  0  0  0  0  0  0  0  0  0
   -2.0892    0.2336    0.0949 H   0  0  0  0  0  0  0  0  0  0  0  0
    0.0283    0.3176    0.3707 C   0  0  1  0  0  0  0  0  0  0  0  0
    0.0541    1.0193   -0.4702 H   0  0  0  0  0  0  0  0  0  0  0  0
    0.1504    1.1077    1.6943 C   0  0  0  0  0  0  0  0  0  0  0  0
   -0.0540    0.4443    2.5392 H   0  0  0  0  0  0  0  0  0  0  0  0
    1.1657    1.4949    1.8172 H   0  0  0  0  0  0  0  0  0  0  0  0
   -0.7824    2.3078    1.7277 C   0  0  0  0  0  0  0  0  0  0  0  0
   -0.9472    3.0364    0.7668 O   0  0  0  0  0  0  0  0  0  0  0  0
   -1.4949    2.6281    2.8478 N   0  0  0  0  0  0  0  0  0  0  0  0
   -1.9249    3.5486    2.8445 H   0  0  0  0  0  0  0  0  0  0  0  0
   -1.2222    2.2020    3.7278 H   0  0  0  0  0  0  0  0  0  0  0  0
    1.2608   -0.6048    0.1447 C   0  0  0  0  0  0  0  0  0  0  0  0
    2.3316   -0.3785    0.6965 O   0  0  0  0  0  0  0  0  0  0  0  0
    1.2204   -1.5810   -0.8352 N   0  0  0  0  0  0  0  0  0  0  0  0
    0.2894   -1.8753   -1.1117 H   0  0  0  0  0  0  0  0  0  0  0  0
    2.3197   -2.5134   -1.0524 C   0  0  0  0  0  0  0  0  0  0  0  0
    2.4944   -3.1128   -0.1528 H   0  0  0  0  0  0  0  0  0  0  0  0
    2.0842   -3.1883   -1.8805 H   0  0  0  0  0  0  0  0  0  0  0  0
    3.2394   -1.9736   -1.3013 H   0  0  0  0  0  0  0  0  0  0  0  0
  1  2  1  0  0  0  0
  2  3  1  0  0  0  0
  2  4  1  0  0  0  0
  2  5  1  0  0  0  0
  5  6  2  0  0  0  0
  5  7  1  0  0  0  0
  7  8  1  0  0  0  0
  7  9  1  0  0  0  0
  9 10  1  0  0  0  0
  9 11  1  0  0  0  0
  9 19  1  0  0  0  0
 11 12  1  0  0  0  0
 11 13  1  0  0  0  0
 11 14  1  0  0  0  0
 14 15  2  0  0  0  0
 14 16  1  0  0  0  0
 16 17  1  0  0  0  0
 16 18  1  0  0  0  0
 19 20  2  0  0  0  0
 19 21  1  0  0  0  0
 21 22  1  0  0  0  0
 21 23  1  0  0  0  0
 23 24  1  0  0  0  0
 23 25  1  0  0  0  0
 23 26  1  0  0  0  0
M  END
$$$$

  -OEChem-01062216063D

 26 25  0     1  0  0  0  0  0999 V2000
   -3.0954   -3.1218    1.1103 H   0  0  0  0  0  0  0  0  0  0  0  0
   -3.0200   -2.0930    0.7465 C   0  0  0  0  0  0  0  0  0  0  0  0
   -3.6503   -1.4537    1.3694 H   0  0  0  0  0  0  0  0  0  0  0  0
   -3.3818   -2.0578   -0.2839 H   0  0  0  0  0  0  0  0  0  0  0  0
   -1.5795   -1.6201    0.8080 C   0  0  0  0  0  0  0  0  0  0  0  0
   -0.7256   -2.3750    1.2346 O   0  0  0  0  0  0  0  0  0  0  0  0
   -1.2781   -0.3346    0.3936 N   0  0  0  0  0  0  0  0  0  0  0  0
   -2.0728    0.2273    0.0964 H   0  0  0  0  0  0  0  0  0  0  0  0
    0.0437    0.3320    0.3768 C   0  0  1  0  0  0  0  0  0  0  0  0
    0.0763    1.0343   -0.4631 H   0  0  0  0  0  0  0  0  0  0  0  0
    0.1535    1.1232    1.6994 C   0  0  0  0  0  0  0  0  0  0  0  0
   -0.0476    0.4584    2.5442 H   0  0  0  0  0  0  0  0  0  0  0  0
    1.1672    1.5157    1.8221 H   0  0  0  0  0  0  0  0  0  0  0  0
   -0.7889    2.3156    1.7288 C   0  0  0  0  0  0  0  0  0  0  0  0
   -0.9545    3.0418    0.7659 O   0  0  0  0  0  0  0  0  0  0  0  0
   -1.5129    2.6279    2.8439 N   0  0  0  0  0  0  0  0  0  0  0  0
   -1.9527    3.5438    2.8393 H   0  0  0  0  0  0  0  0  0  0  0  0
   -1.2469    2.1998    3.7251 H   0  0  0  0  0  0  0  0  0  0  0  0
    1.2709   -0.5979    0.1667 C   0  0  0  0  0  0  0  0  0  0  0  0
    2.2471   -0.5549    0.9072 O   0  0  0  0  0  0  0  0  0  0  0  0
    1.3518   -1.3493   -0.9923 N   0  0  0  0  0  0  0  0  0  0  0  0
    0.4857   -1.4676   -1.5073 H   0  0  0  0  0  0  0  0  0  0  0  0
    2.4354   -2.2924   -1.2405 C   0  0  0  0  0  0  0  0  0  0  0  0
    2.4521   -3.0660   -0.4655 H   0  0  0  0  0  0  0  0  0  0  0  0
    2.3004   -2.7763   -2.2125 H   0  0  0  0  0  0  0  0  0  0  0  0
    3.4014   -1.7766   -1.2448 H   0  0  0  0  0  0  0  0  0  0  0  0
  1  2  1  0  0  0  0
  2  3  1  0  0  0  0
  2  4  1  0  0  0  0
  2  5  1  0  0  0  0
  5  6  2  0  0  0  0
  5  7  1  0  0  0  0
  7  8  1  0  0  0  0
  7  9  1  0  0  0  0
  9 10  1  0  0  0  0
  9 11  1  0  0  0  0
  9 19  1  0  0  0  0
 11 12  1  0  0  0  0
 11 13  1  0  0  0  0
 11 14  1  0  0  0  0
 14 15  2  0  0  0  0
 14 16  1  0  0  0  0
 16 17  1  0  0  0  0
 16 18  1  0  0  0  0
 19 20  2  0  0  0  0
 19 21  1  0  0  0  0
 21 22  1  0  0  0  0
 21 23  1  0  0  0  0
 23 24  1  0  0  0  0
 23 25  1  0  0  0  0
 23 26  1  0  0  0  0
M  END
$$$$

  -OEChem-01062216063D

 26 25  0     1  0  0  0  0  0999 V2000
   -3.1143   -3.1159    1.1218 H   0  0  0  0  0  0  0  0  0  0  0  0
   -3.0316   -2.0888    0.7548 C   0  0  0  0  0  0  0  0  0  0  0  0
   -3.6528   -1.4421    1.3790 H   0  0  0  0  0  0  0  0  0  0  0  0
   -3.3978   -2.0530   -0.2739 H   0  0  0  0  0  0  0  0  0  0  0  0
   -1.5864   -1.6286    0.8080 C   0  0  0  0  0  0  0  0  0  0  0  0
   -0.7376   -2.3926    1.2275 O   0  0  0  0  0  0  0  0  0  0  0  0
   -1.2786   -0.3458    0.3897 N   0  0  0  0  0  0  0  0  0  0  0  0
   -2.0719    0.2193    0.0959 H   0  0  0  0  0  0  0  0  0  0  0  0
    0.0442    0.3175    0.3796 C   0  0  1  0  0  0  0  0  0  0  0  0
    0.0826    1.0195   -0.4601 H   0  0  0  0  0  0  0  0  0  0  0  0
    0.1532    1.1121    1.6995 C   0  0  0  0  0  0  0  0  0  0  0  0
   -0.0536    0.4504    2.5455 H   0  0  0  0  0  0  0  0  0  0  0  0
    1.1700    1.4962    1.8225 H   0  0  0  0  0  0  0  0  0  0  0  0
   -0.7837    2.3087    1.7239 C   0  0  0  0  0  0  0  0  0  0  0  0
   -0.9427    3.0327    0.7581 O   0  0  0  0  0  0  0  0  0  0  0  0
   -1.5101    2.6266    2.8355 N   0  0  0  0  0  0  0  0  0  0  0  0
   -1.9467    3.5440    2.8284 H   0  0  0  0  0  0  0  0  0  0  0  0
   -1.2517    2.1963    3.7179 H   0  0  0  0  0  0  0  0  0  0  0  0
    1.2701   -0.6166    0.1842 C   0  0  0  0  0  0  0  0  0  0  0  0
    2.1332   -0.7368    1.0468 O   0  0  0  0  0  0  0  0  0  0  0  0
    1.5238   -1.1286   -1.0761 N   0  0  0  0  0  0  0  0  0  0  0  0
    0.7612   -1.0905   -1.7446 H   0  0  0  0  0  0  0  0  0  0  0  0
    2.6508   -2.0102   -1.3566 C   0  0  0  0  0  0  0  0  0  0  0  0
    2.5784   -2.9246   -0.7583 H   0  0  0  0  0  0  0  0  0  0  0  0
    2.6602   -2.2870   -2.4151 H   0  0  0  0  0  0  0  0  0  0  0  0
    3.5970   -1.5104   -1.1237 H   0  0  0  0  0  0  0  0  0  0  0  0
  1  2  1  0  0  0  0
  2  3  1  0  0  0  0
  2  4  1  0  0  0  0
  2  5  1  0  0  0  0
  5  6  2  0  0  0  0
  5  7  1  0  0  0  0
  7  8  1  0  0  0  0
  7  9  1  0  0  0  0
  9 10  1  0  0  0  0
  9 11  1  0  0  0  0
  9 19  1  0  0  0  0
 11 12  1  0  0  0  0
 11 13  1  0  0  0  0
 11 14  1  0  0  0  0
 14 15  2  0  0  0  0
 14 16  1  0  0  0  0
 16 17  1  0  0  0  0
 16 18  1  0  0  0  0
 19 20  2  0  0  0  0
 19 21  1  0  0  0  0
 21 22  1  0  0  0  0
 21 23  1  0  0  0  0
 23 24  1  0  0  0  0
 23 25  1  0  0  0  0
 23 26  1  0  0  0  0
M  END
$$$$

  -OEChem-01062216063D

 26 25  0     1  0  0  0  0  0999 V2000
   -3.1599   -3.1011    1.1392 H   0  0  0  0  0  0  0  0  0  0  0  0
   -3.0636   -2.0774    0.7662 C   0  0  0  0  0  0  0  0  0  0  0  0
   -3.6703   -1.4179    1.3913 H   0  0  0  0  0  0  0  0  0  0  0  0
   -3.4367   -2.0413   -0.2601 H   0  0  0  0  0  0  0  0  0  0  0  0
   -1.6108   -1.6402    0.8065 C   0  0  0  0  0  0  0  0  0  0  0  0
   -0.7713   -2.4216    1.2108 O   0  0  0  0  0  0  0  0  0  0  0  0
   -1.2885   -0.3621    0.3846 N   0  0  0  0  0  0  0  0  0  0  0  0
   -2.0781    0.2120    0.0992 H   0  0  0  0  0  0  0  0  0  0  0  0
    0.0385    0.2922    0.3748 C   0  0  1  0  0  0  0  0  0  0  0  0
    0.0773    0.9946   -0.4644 H   0  0  0  0  0  0  0  0  0  0  0  0
    0.1556    1.0883    1.6922 C   0  0  0  0  0  0  0  0  0  0  0  0
   -0.0581    0.4299    2.5393 H   0  0  0  0  0  0  0  0  0  0  0  0
    1.1775    1.4596    1.8135 H   0  0  0  0  0  0  0  0  0  0  0  0
   -0.7712    2.2927    1.7160 C   0  0  0  0  0  0  0  0  0  0  0  0
   -0.9247    3.0157    0.7486 O   0  0  0  0  0  0  0  0  0  0  0  0
   -1.4934    2.6183    2.8282 N   0  0  0  0  0  0  0  0  0  0  0  0
   -1.9258    3.5378    2.8206 H   0  0  0  0  0  0  0  0  0  0  0  0
   -1.2405    2.1846    3.7107 H   0  0  0  0  0  0  0  0  0  0  0  0
    1.2679   -0.6387    0.1878 C   0  0  0  0  0  0  0  0  0  0  0  0
    2.0102   -0.9156    1.1235 O   0  0  0  0  0  0  0  0  0  0  0  0
    1.7150   -0.9018   -1.0954 N   0  0  0  0  0  0  0  0  0  0  0  0
    1.0761   -0.6995   -1.8575 H   0  0  0  0  0  0  0  0  0  0  0  0
    2.9012   -1.7034   -1.3727 C   0  0  0  0  0  0  0  0  0  0  0  0
    2.7836   -2.7135   -0.9660 H   0  0  0  0  0  0  0  0  0  0  0  0
    3.0622   -1.7801   -2.4521 H   0  0  0  0  0  0  0  0  0  0  0  0
    3.7883   -1.2441   -0.9241 H   0  0  0  0  0  0  0  0  0  0  0  0
  1  2  1  0  0  0  0
  2  3  1  0  0  0  0
  2  4  1  0  0  0  0
  2  5  1  0  0  0  0
  5  6  2  0  0  0  0
  5  7  1  0  0  0  0
  7  8  1  0  0  0  0
  7  9  1  0  0  0  0
  9 10  1  0  0  0  0
  9 11  1  0  0  0  0
  9 19  1  0  0  0  0
 11 12  1  0  0  0  0
 11 13  1  0  0  0  0
 11 14  1  0  0  0  0
 14 15  2  0  0  0  0
 14 16  1  0  0  0  0
 16 17  1  0  0  0  0
 16 18  1  0  0  0  0
 19 20  2  0  0  0  0
 19 21  1  0  0  0  0
 21 22  1  0  0  0  0
 21 23  1  0  0  0  0
 23 24  1  0  0  0  0
 23 25  1  0  0  0  0
 23 26  1  0  0  0  0
M  END
$$$$

  -OEChem-01062216063D

 26 25  0     1  0  0  0  0  0999 V2000
   -3.2229   -3.0799    1.1597 H   0  0  0  0  0  0  0  0  0  0  0  0
   -3.1080   -2.0613    0.7776 C   0  0  0  0  0  0  0  0  0  0  0  0
   -3.6957   -1.3843    1.4023 H   0  0  0  0  0  0  0  0  0  0  0  0
   -3.4880   -2.0256   -0.2462 H   0  0  0  0  0  0  0  0  0  0  0  0
   -1.6456   -1.6552    0.8038 C   0  0  0  0  0  0  0  0  0  0  0  0
   -0.8211   -2.4577    1.1948 O   0  0  0  0  0  0  0  0  0  0  0  0
   -1.3034   -0.3843    0.3762 N   0  0  0  0  0  0  0  0  0  0  0  0
   -2.0874    0.1998    0.0960 H   0  0  0  0  0  0  0  0  0  0  0  0
    0.0293    0.2586    0.3608 C   0  0  1  0  0  0  0  0  0  0  0  0
    0.0630    0.9603   -0.4789 H   0  0  0  0  0  0  0  0  0  0  0  0
    0.1599    1.0541    1.6763 C   0  0  0  0  0  0  0  0  0  0  0  0
   -0.0584    0.3979    2.5240 H   0  0  0  0  0  0  0  0  0  0  0  0
    1.1871    1.4115    1.7938 H   0  0  0  0  0  0  0  0  0  0  0  0
   -0.7548    2.2676    1.7052 C   0  0  0  0  0  0  0  0  0  0  0  0
   -0.9053    2.9914    0.7377 O   0  0  0  0  0  0  0  0  0  0  0  0
   -1.4617    2.6055    2.8236 N   0  0  0  0  0  0  0  0  0  0  0  0
   -1.8839    3.5296    2.8180 H   0  0  0  0  0  0  0  0  0  0  0  0
   -1.2084    2.1693    3.7047 H   0  0  0  0  0  0  0  0  0  0  0  0
    1.2663   -0.6638    0.1795 C   0  0  0  0  0  0  0  0  0  0  0  0
    1.8881   -1.0930    1.1446 O   0  0  0  0  0  0  0  0  0  0  0  0
    1.9066   -0.6832   -1.0480 N   0  0  0  0  0  0  0  0  0  0  0  0
    1.3995   -0.3116   -1.8446 H   0  0  0  0  0  0  0  0  0  0  0  0
    3.1595   -1.3913   -1.2848 C   0  0  0  0  0  0  0  0  0  0  0  0
    3.0407   -2.4596   -1.0748 H   0  0  0  0  0  0  0  0  0  0  0  0
    3.4683   -1.2747   -2.3280 H   0  0  0  0  0  0  0  0  0  0  0  0
    3.9527   -0.9924   -0.6438 H   0  0  0  0  0  0  0  0  0  0  0  0
  1  2  1  0  0  0  0
  2  3  1  0  0  0  0
  2  4  1  0  0  0  0
  2  5  1  0  0  0  0
  5  6  2  0  0  0  0
  5  7  1  0  0  0  0
  7  8  1  0  0  0  0
  7  9  1  0  0  0  0
  9 10  1  0  0  0  0
  9 11  1  0  0  0  0
  9 19  1  0  0  0  0
 11 12  1  0  0  0  0
 11 13  1  0  0  0  0
 11 14  1  0  0  0  0
 14 15  2  0  0  0  0
 14 16  1  0  0  0  0
 16 17  1  0  0  0  0
 16 18  1  0  0  0  0
 19 20  2  0  0  0  0
 19 21  1  0  0  0  0
 21 22  1  0  0  0  0
 21 23  1  0  0  0  0
 23 24  1  0  0  0  0
 23 25  1  0  0  0  0
 23 26  1  0  0  0  0
M  END
$$$$

  -OEChem-01062216063D

 26 25  0     1  0  0  0  0  0999 V2000
   -3.2826   -3.0633    1.1611 H   0  0  0  0  0  0  0  0  0  0  0  0
   -3.1470   -2.0501    0.7719 C   0  0  0  0  0  0  0  0  0  0  0  0
   -3.7345   -1.3589    1.3809 H   0  0  0  0  0  0  0  0  0  0  0  0
   -3.5100   -2.0191   -0.2581 H   0  0  0  0  0  0  0  0  0  0  0  0
   -1.6797   -1.6641    0.8176 C   0  0  0  0  0  0  0  0  0  0  0  0
   -0.8783   -2.4751    1.2355 O   0  0  0  0  0  0  0  0  0  0  0  0
   -1.3154   -0.4031    0.3783 N   0  0  0  0  0  0  0  0  0  0  0  0
   -2.0911    0.1825    0.0791 H   0  0  0  0  0  0  0  0  0  0  0  0
    0.0239    0.2276    0.3464 C   0  0  1  0  0  0  0  0  0  0  0  0
    0.0460    0.9267   -0.4957 H   0  0  0  0  0  0  0  0  0  0  0  0
    0.1750    1.0226    1.6593 C   0  0  0  0  0  0  0  0  0  0  0  0
   -0.0422    0.3683    2.5090 H   0  0  0  0  0  0  0  0  0  0  0  0
    1.2071    1.3688    1.7675 H   0  0  0  0  0  0  0  0  0  0  0  0
   -0.7277    2.2445    1.6975 C   0  0  0  0  0  0  0  0  0  0  0  0
   -0.8802    2.9685    0.7304 O   0  0  0  0  0  0  0  0  0  0  0  0
   -1.4231    2.5868    2.8216 N   0  0  0  0  0  0  0  0  0  0  0  0
   -1.8423    3.5122    2.8209 H   0  0  0  0  0  0  0  0  0  0  0  0
   -1.1731    2.1427    3.6997 H   0  0  0  0  0  0  0  0  0  0  0  0
    1.2710   -0.6818    0.1658 C   0  0  0  0  0  0  0  0  0  0  0  0
    1.7799   -1.2636    1.1158 O   0  0  0  0  0  0  0  0  0  0  0  0
    2.0828   -0.4742   -0.9376 N   0  0  0  0  0  0  0  0  0  0  0  0
    1.7021    0.0686   -1.7062 H   0  0  0  0  0  0  0  0  0  0  0  0
    3.3849   -1.1099   -1.1074 C   0  0  0  0  0  0  0  0  0  0  0  0
    3.2834   -2.2003   -1.0934 H   0  0  0  0  0  0  0  0  0  0  0  0
    3.8280   -0.8158   -2.0635 H   0  0  0  0  0  0  0  0  0  0  0  0
    4.0661   -0.8089   -0.3045 H   0  0  0  0  0  0  0  0  0  0  0  0
  1  2  1  0  0  0  0
  2  3  1  0  0  0  0
  2  4  1  0  0  0  0
  2  5  1  0  0  0  0
  5  6  2  0  0  0  0
  5  7  1  0  0  0  0
  7  8  1  0  0  0  0
  7  9  1  0  0  0  0
  9 10  1  0  0  0  0
  9 11  1  0  0  0  0
  9 19  1  0  0  0  0
 11 12  1  0  0  0  0
 11 13  1  0  0  0  0
 11 14  1  0  0  0  0
 14 15  2  0  0  0  0
 14 16  1  0  0  0  0
 16 17  1  0  0  0  0
 16 18  1  0  0  0  0
 19 20  2  0  0  0  0
 19 21  1  0  0  0  0
 21 22  1  0  0  0  0
 21 23  1  0  0  0  0
 23 24  1  0  0  0  0
 23 25  1  0  0  0  0
 23 26  1  0  0  0  0
M  END
$$$$

  -OEChem-01062216063D

 26 25  0     1  0  0  0  0  0999 V2000
   -2.9521   -3.2113    1.0445 H   0  0  0  0  0  0  0  0  0  0  0  0
   -2.8307   -2.2689    0.5026 C   0  0  0  0  0  0  0  0  0  0  0  0
   -3.7600   -1.6986    0.5734 H   0  0  0  0  0  0  0  0  0  0  0  0
   -2.6246   -2.4937   -0.5467 H   0  0  0  0  0  0  0  0  0  0  0  0
   -1.6834   -1.4724    1.0954 C   0  0  0  0  0  0  0  0  0  0  0  0
   -1.2087   -1.8164    2.1636 O   0  0  0  0  0  0  0  0  0  0  0  0
   -1.3802   -0.2267    0.5771 N   0  0  0  0  0  0  0  0  0  0  0  0
   -2.0148    0.0508   -0.1662 H   0  0  0  0  0  0  0  0  0  0  0  0
   -0.0178    0.3411    0.4513 C   0  0  1  0  0  0  0  0  0  0  0  0
   -0.0199    1.0251   -0.4035 H   0  0  0  0  0  0  0  0  0  0  0  0
    0.2569    1.1400    1.7389 C   0  0  0  0  0  0  0  0  0  0  0  0
    0.0653    0.5098    2.6125 H   0  0  0  0  0  0  0  0  0  0  0  0
    1.3080    1.4393    1.7770 H   0  0  0  0  0  0  0  0  0  0  0  0
   -0.5845    2.4032    1.8162 C   0  0  0  0  0  0  0  0  0  0  0  0
   -0.7624    3.1201    0.8469 O   0  0  0  0  0  0  0  0  0  0  0  0
   -1.2157    2.7710    2.9694 N   0  0  0  0  0  0  0  0  0  0  0  0
   -1.9093    3.5076    2.8835 H   0  0  0  0  0  0  0  0  0  0  0  0
   -1.2893    2.0864    3.7161 H   0  0  0  0  0  0  0  0  0  0  0  0
    1.1836   -0.6187    0.2263 C   0  0  0  0  0  0  0  0  0  0  0  0
    1.3543   -1.6597    0.8398 O   0  0  0  0  0  0  0  0  0  0  0  0
    2.1219   -0.2822   -0.7352 N   0  0  0  0  0  0  0  0  0  0  0  0
    2.0128    0.6082   -1.2118 H   0  0  0  0  0  0  0  0  0  0  0  0
    3.3083   -1.0842   -1.0144 C   0  0  0  0  0  0  0  0  0  0  0  0
    3.0234   -2.0935   -1.3302 H   0  0  0  0  0  0  0  0  0  0  0  0
    3.8952   -0.6249   -1.8156 H   0  0  0  0  0  0  0  0  0  0  0  0
    3.9390   -1.1594   -0.1222 H   0  0  0  0  0  0  0  0  0  0  0  0
  1  2  1  0  0  0  0
  2  3  1  0  0  0  0
  2  4  1  0  0  0  0
  2  5  1  0  0  0  0
  5  6  2  0  0  0  0
  5  7  1  0  0  0  0
  7  8  1  0  0  0  0
  7  9  1  0  0  0  0
  9 10  1  0  0  0  0
  9 11  1  0  0  0  0
  9 19  1  0  0  0  0
 11 12  1  0  0  0  0
 11 13  1  0  0  0  0
 11 14  1  0  0  0  0
 14 15  2  0  0  0  0
 14 16  1  0  0  0  0
 16 17  1  0  0  0  0
 16 18  1  0  0  0  0
 19 20  2  0  0  0  0
 19 21  1  0  0  0  0
 21 22  1  0  0  0  0
 21 23  1  0  0  0  0
 23 24  1  0  0  0  0
 23 25  1  0  0  0  0
 23 26  1  0  0  0  0
M  END
$$$$

  -OEChem-01062216063D

 26 25  0     1  0  0  0  0  0999 V2000
   -2.8791   -3.2468    1.0450 H   0  0  0  0  0  0  0  0  0  0  0  0
   -2.7873   -2.2960    0.5124 C   0  0  0  0  0  0  0  0  0  0  0  0
   -3.7355   -1.7579    0.5813 H   0  0  0  0  0  0  0  0  0  0  0  0
   -2.5661   -2.5040   -0.5371 H   0  0  0  0  0  0  0  0  0  0  0  0
   -1.6715   -1.4668    1.1196 C   0  0  0  0  0  0  0  0  0  0  0  0
   -1.2078   -1.7791    2.2046 O   0  0  0  0  0  0  0  0  0  0  0  0
   -1.3737   -0.2226    0.5943 N   0  0  0  0  0  0  0  0  0  0  0  0
   -1.9794    0.0253   -0.1827 H   0  0  0  0  0  0  0  0  0  0  0  0
   -0.0057    0.3358    0.4928 C   0  0  1  0  0  0  0  0  0  0  0  0
    0.0121    1.0045   -0.3741 H   0  0  0  0  0  0  0  0  0  0  0  0
    0.2397    1.1557    1.7745 C   0  0  0  0  0  0  0  0  0  0  0  0
    0.0216    0.5426    2.6538 H   0  0  0  0  0  0  0  0  0  0  0  0
    1.2899    1.4532    1.8371 H   0  0  0  0  0  0  0  0  0  0  0  0
   -0.5976    2.4244    1.8080 C   0  0  0  0  0  0  0  0  0  0  0  0
   -0.7455    3.1244    0.8217 O   0  0  0  0  0  0  0  0  0  0  0  0
   -1.2591    2.8153    2.9366 N   0  0  0  0  0  0  0  0  0  0  0  0
   -1.9488    3.5509    2.8155 H   0  0  0  0  0  0  0  0  0  0  0  0
   -1.3615    2.1424    3.6903 H   0  0  0  0  0  0  0  0  0  0  0  0
    1.2029   -0.6237    0.2977 C   0  0  0  0  0  0  0  0  0  0  0  0
    1.1532   -1.8309    0.4796 O   0  0  0  0  0  0  0  0  0  0  0  0
    2.3010   -0.1418   -0.3957 N   0  0  0  0  0  0  0  0  0  0  0  0
    2.3247    0.8506   -0.6118 H   0  0  0  0  0  0  0  0  0  0  0  0
    3.4389   -0.9693   -0.7816 C   0  0  0  0  0  0  0  0  0  0  0  0
    3.1249   -1.7518   -1.4803 H   0  0  0  0  0  0  0  0  0  0  0  0
    4.2039   -0.3575   -1.2691 H   0  0  0  0  0  0  0  0  0  0  0  0
    3.8851   -1.4421    0.0997 H   0  0  0  0  0  0  0  0  0  0  0  0
  1  2  1  0  0  0  0
  2  3  1  0  0  0  0
  2  4  1  0  0  0  0
  2  5  1  0  0  0  0
  5  6  2  0  0  0  0
  5  7  1  0  0  0  0
  7  8  1  0  0  0  0
  7  9  1  0  0  0  0
  9 10  1  0  0  0  0
  9 11  1  0  0  0  0
  9 19  1  0  0  0  0
 11 12  1  0  0  0  0
 11 13  1  0  0  0  0
 11 14  1  0  0  0  0
 14 15  2  0  0  0  0
 14 16  1  0  0  0  0
 16 17  1  0  0  0  0
 16 18  1  0  0  0  0
 19 20  2  0  0  0  0
 19 21  1  0  0  0  0
 21 22  1  0  0  0  0
 21 23  1  0  0  0  0
 23 24  1  0  0  0  0
 23 25  1  0  0  0  0
 23 26  1  0  0  0  0
M  END
$$$$

  -OEChem-01062216063D

 26 25  0     1  0  0  0  0  0999 V2000
   -2.8937   -3.2266    1.0773 H   0  0  0  0  0  0  0  0  0  0  0  0
   -2.7985   -2.2811    0.5362 C   0  0  0  0  0  0  0  0  0  0  0  0
   -3.7356   -1.7267    0.6244 H   0  0  0  0  0  0  0  0  0  0  0  0
   -2.6063   -2.4990   -0.5171 H   0  0  0  0  0  0  0  0  0  0  0  0
   -1.6546   -1.4670    1.1101 C   0  0  0  0  0  0  0  0  0  0  0  0
   -1.1309   -1.8086    2.1594 O   0  0  0  0  0  0  0  0  0  0  0  0
   -1.3631   -0.2201    0.5869 N   0  0  0  0  0  0  0  0  0  0  0  0
   -1.9639    0.0286   -0.1936 H   0  0  0  0  0  0  0  0  0  0  0  0
    0.0060    0.3384    0.5049 C   0  0  1  0  0  0  0  0  0  0  0  0
    0.0463    1.0042   -0.3637 H   0  0  0  0  0  0  0  0  0  0  0  0
    0.2233    1.1604    1.7927 C   0  0  0  0  0  0  0  0  0  0  0  0
   -0.0116    0.5478    2.6678 H   0  0  0  0  0  0  0  0  0  0  0  0
    1.2697    1.4634    1.8802 H   0  0  0  0  0  0  0  0  0  0  0  0
   -0.6183    2.4268    1.8091 C   0  0  0  0  0  0  0  0  0  0  0  0
   -0.7488    3.1264    0.8208 O   0  0  0  0  0  0  0  0  0  0  0  0
   -1.3047    2.8158    2.9233 N   0  0  0  0  0  0  0  0  0  0  0  0
   -1.9946    3.5483    2.7857 H   0  0  0  0  0  0  0  0  0  0  0  0
   -1.4237    2.1419    3.6736 H   0  0  0  0  0  0  0  0  0  0  0  0
    1.2039   -0.6378    0.3262 C   0  0  0  0  0  0  0  0  0  0  0  0
    1.0561   -1.8400    0.1516 O   0  0  0  0  0  0  0  0  0  0  0  0
    2.4239   -0.1052   -0.0583 N   0  0  0  0  0  0  0  0  0  0  0  0
    2.5222    0.9058   -0.0437 H   0  0  0  0  0  0  0  0  0  0  0  0
    3.5634   -0.9140   -0.4788 C   0  0  0  0  0  0  0  0  0  0  0  0
    3.3314   -1.4521   -1.4039 H   0  0  0  0  0  0  0  0  0  0  0  0
    4.4343   -0.2766   -0.6582 H   0  0  0  0  0  0  0  0  0  0  0  0
    3.8234   -1.6423    0.2967 H   0  0  0  0  0  0  0  0  0  0  0  0
  1  2  1  0  0  0  0
  2  3  1  0  0  0  0
  2  4  1  0  0  0  0
  2  5  1  0  0  0  0
  5  6  2  0  0  0  0
  5  7  1  0  0  0  0
  7  8  1  0  0  0  0
  7  9  1  0  0  0  0
  9 10  1  0  0  0  0
  9 11  1  0  0  0  0
  9 19  1  0  0  0  0
 11 12  1  0  0  0  0
 11 13  1  0  0  0  0
 11 14  1  0  0  0  0
 14 15  2  0  0  0  0
 14 16  1  0  0  0  0
 16 17  1  0  0  0  0
 16 18  1  0  0  0  0
 19 20  2  0  0  0  0
 19 21  1  0  0  0  0
 21 22  1  0  0  0  0
 21 23  1  0  0  0  0
 23 24  1  0  0  0  0
 23 25  1  0  0  0  0
 23 26  1  0  0  0  0
M  END
$$$$

  -OEChem-01062216063D

 26 25  0     1  0  0  0  0  0999 V2000
   -2.8440   -3.2643    1.0211 H   0  0  0  0  0  0  0  0  0  0  0  0
   -2.7984   -2.2794    0.5482 C   0  0  0  0  0  0  0  0  0  0  0  0
   -3.7017   -1.7215    0.8054 H   0  0  0  0  0  0  0  0  0  0  0  0
   -2.7545   -2.4133   -0.5355 H   0  0  0  0  0  0  0  0  0  0  0  0
   -1.5685   -1.5291    1.0234 C   0  0  0  0  0  0  0  0  0  0  0  0
   -0.8598   -2.0182    1.8903 O   0  0  0  0  0  0  0  0  0  0  0  0
   -1.3272   -0.2476    0.5568 N   0  0  0  0  0  0  0  0  0  0  0  0
   -1.9753    0.0539   -0.1654 H   0  0  0  0  0  0  0  0  0  0  0  0
    0.0177    0.3665    0.5029 C   0  0  1  0  0  0  0  0  0  0  0  0
   -0.0262    1.2211   -0.1806 H   0  0  0  0  0  0  0  0  0  0  0  0
    0.3868    0.8813    1.9139 C   0  0  0  0  0  0  0  0  0  0  0  0
    0.2697    0.0873    2.6546 H   0  0  0  0  0  0  0  0  0  0  0  0
    1.4321    1.1951    1.9428 H   0  0  0  0  0  0  0  0  0  0  0  0
   -0.4509    2.0852    2.3154 C   0  0  0  0  0  0  0  0  0  0  0  0
   -0.7021    2.9875    1.5375 O   0  0  0  0  0  0  0  0  0  0  0  0
   -0.9847    2.1985    3.5667 N   0  0  0  0  0  0  0  0  0  0  0  0
   -1.6838    2.9256    3.6861 H   0  0  0  0  0  0  0  0  0  0  0  0
   -1.0048    1.3730    4.1575 H   0  0  0  0  0  0  0  0  0  0  0  0
    1.1345   -0.5494   -0.0686 C   0  0  0  0  0  0  0  0  0  0  0  0
    0.8572   -1.5584   -0.7065 O   0  0  0  0  0  0  0  0  0  0  0  0
    2.4325   -0.0749   -0.1613 N   0  0  0  0  0  0  0  0  0  0  0  0
    2.6415    0.8173    0.2758 H   0  0  0  0  0  0  0  0  0  0  0  0
    3.5056   -0.7933   -0.8397 C   0  0  0  0  0  0  0  0  0  0  0  0
    3.2895   -0.8849   -1.9093 H   0  0  0  0  0  0  0  0  0  0  0  0
    4.4527   -0.2582   -0.7227 H   0  0  0  0  0  0  0  0  0  0  0  0
    3.6220   -1.7968   -0.4165 H   0  0  0  0  0  0  0  0  0  0  0  0
  1  2  1  0  0  0  0
  2  3  1  0  0  0  0
  2  4  1  0  0  0  0
  2  5  1  0  0  0  0
  5  6  2  0  0  0  0
  5  7  1  0  0  0  0
  7  8  1  0  0  0  0
  7  9  1  0  0  0  0
  9 10  1  0  0  0  0
  9 11  1  0  0  0  0
  9 19  1  0  0  0  0
 11 12  1  0  0  0  0
 11 13  1  0  0  0  0
 11 14  1  0  0  0  0
 14 15  2  0  0  0  0
 14 16  1  0  0  0  0
 16 17  1  0  0  0  0
 16 18  1  0  0  0  0
 19 20  2  0  0  0  0
 19 21  1  0  0  0  0
 21 22  1  0  0  0  0
 21 23  1  0  0  0  0
 23 24  1  0  0  0  0
 23 25  1  0  0  0  0
 23 26  1  0  0  0  0
M  END
$$$$

  -OEChem-01062216063D

 26 25  0     1  0  0  0  0  0999 V2000
   -2.8035   -3.2661    1.0207 H   0  0  0  0  0  0  0  0  0  0  0  0
   -2.7752   -2.2747    0.5597 C   0  0  0  0  0  0  0  0  0  0  0  0
   -3.6727   -1.7241    0.8509 H   0  0  0  0  0  0  0  0  0  0  0  0
   -2.7632   -2.3939   -0.5266 H   0  0  0  0  0  0  0  0  0  0  0  0
   -1.5346   -1.5251    1.0076 C   0  0  0  0  0  0  0  0  0  0  0  0
   -0.7876   -2.0291    1.8331 O   0  0  0  0  0  0  0  0  0  0  0  0
   -1.3145   -0.2357    0.5536 N   0  0  0  0  0  0  0  0  0  0  0  0
   -1.9721    0.0694   -0.1586 H   0  0  0  0  0  0  0  0  0  0  0  0
    0.0207    0.3981    0.5056 C   0  0  1  0  0  0  0  0  0  0  0  0
   -0.0243    1.2558   -0.1741 H   0  0  0  0  0  0  0  0  0  0  0  0
    0.3713    0.9106    1.9232 C   0  0  0  0  0  0  0  0  0  0  0  0
    0.2639    0.1101    2.6584 H   0  0  0  0  0  0  0  0  0  0  0  0
    1.4083    1.2487    1.9620 H   0  0  0  0  0  0  0  0  0  0  0  0
   -0.4900    2.0985    2.3244 C   0  0  0  0  0  0  0  0  0  0  0  0
   -0.7513    3.0014    1.5508 O   0  0  0  0  0  0  0  0  0  0  0  0
   -1.0364    2.1946    3.5721 N   0  0  0  0  0  0  0  0  0  0  0  0
   -1.7463    2.9113    3.6910 H   0  0  0  0  0  0  0  0  0  0  0  0
   -1.0471    1.3666    4.1597 H   0  0  0  0  0  0  0  0  0  0  0  0
    1.1271   -0.5228   -0.0796 C   0  0  0  0  0  0  0  0  0  0  0  0
    0.8317   -1.3917   -0.8924 O   0  0  0  0  0  0  0  0  0  0  0  0
    2.4693   -0.2219    0.0814 N   0  0  0  0  0  0  0  0  0  0  0  0
    2.7111    0.5326    0.7151 H   0  0  0  0  0  0  0  0  0  0  0  0
    3.5437   -0.9885   -0.5389 C   0  0  0  0  0  0  0  0  0  0  0  0
    3.4740   -0.9333   -1.6303 H   0  0  0  0  0  0  0  0  0  0  0  0
    4.5166   -0.5911   -0.2342 H   0  0  0  0  0  0  0  0  0  0  0  0
    3.4889   -2.0392   -0.2346 H   0  0  0  0  0  0  0  0  0  0  0  0
  1  2  1  0  0  0  0
  2  3  1  0  0  0  0
  2  4  1  0  0  0  0
  2  5  1  0  0  0  0
  5  6  2  0  0  0  0
  5  7  1  0  0  0  0
  7  8  1  0  0  0  0
  7  9  1  0  0  0  0
  9 10  1  0  0  0  0
  9 11  1  0  0  0  0
  9 19  1  0  0  0  0
 11 12  1  0  0  0  0
 11 13  1  0  0  0  0
 11 14  1  0  0  0  0
 14 15  2  0  0  0  0
 14 16  1  0  0  0  0
 16 17  1  0  0  0  0
 16 18  1  0  0  0  0
 19 20  2  0  0  0  0
 19 21  1  0  0  0  0
 21 22  1  0  0  0  0
 21 23  1  0  0  0  0
 23 24  1  0  0  0  0
 23 25  1  0  0  0  0
 23 26  1  0  0  0  0
M  END
$$$$

  -OEChem-01062216063D

 26 25  0     1  0  0  0  0  0999 V2000
   -2.7582   -3.2738    1.0137 H   0  0  0  0  0  0  0  0  0  0  0  0
   -2.7436   -2.2795    0.5587 C   0  0  0  0  0  0  0  0  0  0  0  0
   -3.6414   -1.7373    0.8646 H   0  0  0  0  0  0  0  0  0  0  0  0
   -2.7450   -2.3918   -0.5284 H   0  0  0  0  0  0  0  0  0  0  0  0
   -1.5037   -1.5223    0.9957 C   0  0  0  0  0  0  0  0  0  0  0  0
   -0.7302   -2.0327    1.7925 O   0  0  0  0  0  0  0  0  0  0  0  0
   -1.3038   -0.2259    0.5541 N   0  0  0  0  0  0  0  0  0  0  0  0
   -1.9689    0.0819   -0.1503 H   0  0  0  0  0  0  0  0  0  0  0  0
    0.0219    0.4257    0.5135 C   0  0  1  0  0  0  0  0  0  0  0  0
   -0.0280    1.2842   -0.1650 H   0  0  0  0  0  0  0  0  0  0  0  0
    0.3619    0.9417    1.9322 C   0  0  0  0  0  0  0  0  0  0  0  0
    0.2642    0.1388    2.6666 H   0  0  0  0  0  0  0  0  0  0  0  0
    1.3928    1.2987    1.9695 H   0  0  0  0  0  0  0  0  0  0  0  0
   -0.5172    2.1179    2.3306 C   0  0  0  0  0  0  0  0  0  0  0  0
   -0.7892    3.0177    1.5574 O   0  0  0  0  0  0  0  0  0  0  0  0
   -1.0716    2.2059    3.5752 N   0  0  0  0  0  0  0  0  0  0  0  0
   -1.7910    2.9138    3.6899 H   0  0  0  0  0  0  0  0  0  0  0  0
   -1.0751    1.3781    4.1628 H   0  0  0  0  0  0  0  0  0  0  0  0
    1.1223   -0.4950   -0.0823 C   0  0  0  0  0  0  0  0  0  0  0  0
    0.8451   -1.2077   -1.0405 O   0  0  0  0  0  0  0  0  0  0  0  0
    2.4497   -0.4052    0.3022 N   0  0  0  0  0  0  0  0  0  0  0  0
    2.6630    0.1548    1.1206 H   0  0  0  0  0  0  0  0  0  0  0  0
    3.5029   -1.2363   -0.2694 C   0  0  0  0  0  0  0  0  0  0  0  0
    3.5785   -1.0709   -1.3494 H   0  0  0  0  0  0  0  0  0  0  0  0
    4.4678   -0.9904    0.1843 H   0  0  0  0  0  0  0  0  0  0  0  0
    3.2940   -2.2961   -0.0883 H   0  0  0  0  0  0  0  0  0  0  0  0
  1  2  1  0  0  0  0
  2  3  1  0  0  0  0
  2  4  1  0  0  0  0
  2  5  1  0  0  0  0
  5  6  2  0  0  0  0
  5  7  1  0  0  0  0
  7  8  1  0  0  0  0
  7  9  1  0  0  0  0
  9 10  1  0  0  0  0
  9 11  1  0  0  0  0
  9 19  1  0  0  0  0
 11 12  1  0  0  0  0
 11 13  1  0  0  0  0
 11 14  1  0  0  0  0
 14 15  2  0  0  0  0
 14 16  1  0  0  0  0
 16 17  1  0  0  0  0
 16 18  1  0  0  0  0
 19 20  2  0  0  0  0
 19 21  1  0  0  0  0
 21 22  1  0  0  0  0
 21 23  1  0  0  0  0
 23 24  1  0  0  0  0
 23 25  1  0  0  0  0
 23 26  1  0  0  0  0
M  END
$$$$

  -OEChem-01062216063D

 26 25  0     1  0  0  0  0  0999 V2000
   -2.7090   -3.2916    0.9846 H   0  0  0  0  0  0  0  0  0  0  0  0
   -2.7226   -2.2828    0.5626 C   0  0  0  0  0  0  0  0  0  0  0  0
   -3.6157   -1.7630    0.9174 H   0  0  0  0  0  0  0  0  0  0  0  0
   -2.7605   -2.3593   -0.5270 H   0  0  0  0  0  0  0  0  0  0  0  0
   -1.4783   -1.5234    0.9821 C   0  0  0  0  0  0  0  0  0  0  0  0
   -0.6820   -2.0387    1.7531 O   0  0  0  0  0  0  0  0  0  0  0  0
   -1.2921   -0.2235    0.5467 N   0  0  0  0  0  0  0  0  0  0  0  0
   -1.9665    0.0899   -0.1465 H   0  0  0  0  0  0  0  0  0  0  0  0
    0.0251    0.4427    0.5134 C   0  0  1  0  0  0  0  0  0  0  0  0
   -0.0293    1.3001   -0.1667 H   0  0  0  0  0  0  0  0  0  0  0  0
    0.3604    0.9650    1.9299 C   0  0  0  0  0  0  0  0  0  0  0  0
    0.2707    0.1630    2.6664 H   0  0  0  0  0  0  0  0  0  0  0  0
    1.3890    1.3320    1.9602 H   0  0  0  0  0  0  0  0  0  0  0  0
   -0.5302    2.1336    2.3268 C   0  0  0  0  0  0  0  0  0  0  0  0
   -0.8128    3.0298    1.5534 O   0  0  0  0  0  0  0  0  0  0  0  0
   -1.0889    2.2159    3.5701 N   0  0  0  0  0  0  0  0  0  0  0  0
   -1.8127    2.9192    3.6857 H   0  0  0  0  0  0  0  0  0  0  0  0
   -1.0809    1.3916    4.1623 H   0  0  0  0  0  0  0  0  0  0  0  0
    1.1255   -0.4742   -0.0835 C   0  0  0  0  0  0  0  0  0  0  0  0
    0.9098   -1.0216   -1.1585 O   0  0  0  0  0  0  0  0  0  0  0  0
    2.3775   -0.6088    0.4919 N   0  0  0  0  0  0  0  0  0  0  0  0
    2.4821   -0.2684    1.4420 H   0  0  0  0  0  0  0  0  0  0  0  0
    3.3949   -1.5101   -0.0357 C   0  0  0  0  0  0  0  0  0  0  0  0
    3.6425   -1.2464   -1.0693 H   0  0  0  0  0  0  0  0  0  0  0  0
    4.3074   -1.4425    0.5641 H   0  0  0  0  0  0  0  0  0  0  0  0
    3.0383   -2.5452   -0.0118 H   0  0  0  0  0  0  0  0  0  0  0  0
  1  2  1  0  0  0  0
  2  3  1  0  0  0  0
  2  4  1  0  0  0  0
  2  5  1  0  0  0  0
  5  6  2  0  0  0  0
  5  7  1  0  0  0  0
  7  8  1  0  0  0  0
  7  9  1  0  0  0  0
  9 10  1  0  0  0  0
  9 11  1  0  0  0  0
  9 19  1  0  0  0  0
 11 12  1  0  0  0  0
 11 13  1  0  0  0  0
 11 14  1  0  0  0  0
 14 15  2  0  0  0  0
 14 16  1  0  0  0  0
 16 17  1  0  0  0  0
 16 18  1  0  0  0  0
 19 20  2  0  0  0  0
 19 21  1  0  0  0  0
 21 22  1  0  0  0  0
 21 23  1  0  0  0  0
 23 24  1  0  0  0  0
 23 25  1  0  0  0  0
 23 26  1  0  0  0  0
M  END
$$$$

  -OEChem-01062216063D

 26 25  0     1  0  0  0  0  0999 V2000
   -2.7115   -3.2882    0.9930 H   0  0  0  0  0  0  0  0  0  0  0  0
   -2.7278   -2.2782    0.5741 C   0  0  0  0  0  0  0  0  0  0  0  0
   -3.6096   -1.7539    0.9498 H   0  0  0  0  0  0  0  0  0  0  0  0
   -2.7909   -2.3512   -0.5146 H   0  0  0  0  0  0  0  0  0  0  0  0
   -1.4700   -1.5279    0.9689 C   0  0  0  0  0  0  0  0  0  0  0  0
   -0.6618   -2.0493    1.7235 O   0  0  0  0  0  0  0  0  0  0  0  0
   -1.2822   -0.2292    0.5321 N   0  0  0  0  0  0  0  0  0  0  0  0
   -1.9658    0.0969   -0.1467 H   0  0  0  0  0  0  0  0  0  0  0  0
    0.0306    0.4442    0.5060 C   0  0  1  0  0  0  0  0  0  0  0  0
   -0.0243    1.3007   -0.1757 H   0  0  0  0  0  0  0  0  0  0  0  0
    0.3626    0.9694    1.9212 C   0  0  0  0  0  0  0  0  0  0  0  0
    0.2732    0.1680    2.6585 H   0  0  0  0  0  0  0  0  0  0  0  0
    1.3922    1.3352    1.9484 H   0  0  0  0  0  0  0  0  0  0  0  0
   -0.5326    2.1344    2.3177 C   0  0  0  0  0  0  0  0  0  0  0  0
   -0.8200    3.0295    1.5450 O   0  0  0  0  0  0  0  0  0  0  0  0
   -1.0869    2.2165    3.5631 N   0  0  0  0  0  0  0  0  0  0  0  0
   -1.8106    2.9195    3.6824 H   0  0  0  0  0  0  0  0  0  0  0  0
   -1.0677    1.3967    4.1613 H   0  0  0  0  0  0  0  0  0  0  0  0
    1.1383   -0.4680   -0.0798 C   0  0  0  0  0  0  0  0  0  0  0  0
    1.0306   -0.8398   -1.2418 O   0  0  0  0  0  0  0  0  0  0  0  0
    2.2601   -0.8337    0.6440 N   0  0  0  0  0  0  0  0  0  0  0  0
    2.2005   -0.7036    1.6491 H   0  0  0  0  0  0  0  0  0  0  0  0
    3.2441   -1.7808    0.1344 C   0  0  0  0  0  0  0  0  0  0  0  0
    3.6690   -1.4227   -0.8094 H   0  0  0  0  0  0  0  0  0  0  0  0
    4.0595   -1.9021    0.8536 H   0  0  0  0  0  0  0  0  0  0  0  0
    2.7812   -2.7587   -0.0358 H   0  0  0  0  0  0  0  0  0  0  0  0
  1  2  1  0  0  0  0
  2  3  1  0  0  0  0
  2  4  1  0  0  0  0
  2  5  1  0  0  0  0
  5  6  2  0  0  0  0
  5  7  1  0  0  0  0
  7  8  1  0  0  0  0
  7  9  1  0  0  0  0
  9 10  1  0  0  0  0
  9 11  1  0  0  0  0
  9 19  1  0  0  0  0
 11 12  1  0  0  0  0
 11 13  1  0  0  0  0
 11 14  1  0  0  0  0
 14 15  2  0  0  0  0
 14 16  1  0  0  0  0
 16 17  1  0  0  0  0
 16 18  1  0  0  0  0
 19 20  2  0  0  0  0
 19 21  1  0  0  0  0
 21 22  1  0  0  0  0
 21 23  1  0  0  0  0
 23 24  1  0  0  0  0
 23 25  1  0  0  0  0
 23 26  1  0  0  0  0
M  END
$$$$

  -OEChem-01062216063D

 26 25  0     1  0  0  0  0  0999 V2000
   -2.7804   -3.2989    0.9790 H   0  0  0  0  0  0  0  0  0  0  0  0
   -2.7822   -2.2883    0.5610 C   0  0  0  0  0  0  0  0  0  0  0  0
   -3.6401   -1.7425    0.9612 H   0  0  0  0  0  0  0  0  0  0  0  0
   -2.8773   -2.3584   -0.5255 H   0  0  0  0  0  0  0  0  0  0  0  0
   -1.4956   -1.5702    0.9222 C   0  0  0  0  0  0  0  0  0  0  0  0
   -0.6758   -2.1168    1.6465 O   0  0  0  0  0  0  0  0  0  0  0  0
   -1.2908   -0.2729    0.4891 N   0  0  0  0  0  0  0  0  0  0  0  0
   -1.9934    0.0918   -0.1495 H   0  0  0  0  0  0  0  0  0  0  0  0
    0.0182    0.4074    0.4872 C   0  0  1  0  0  0  0  0  0  0  0  0
   -0.0317    1.2647   -0.1943 H   0  0  0  0  0  0  0  0  0  0  0  0
    0.3217    0.9327    1.9078 C   0  0  0  0  0  0  0  0  0  0  0  0
    0.2158    0.1296    2.6410 H   0  0  0  0  0  0  0  0  0  0  0  0
    1.3526    1.2944    1.9534 H   0  0  0  0  0  0  0  0  0  0  0  0
   -0.5860    2.0932    2.2902 C   0  0  0  0  0  0  0  0  0  0  0  0
   -0.8644    2.9884    1.5143 O   0  0  0  0  0  0  0  0  0  0  0  0
   -1.1374    2.1903    3.5360 N   0  0  0  0  0  0  0  0  0  0  0  0
   -1.6039    3.0645    3.7602 H   0  0  0  0  0  0  0  0  0  0  0  0
   -0.8248    1.5662    4.2724 H   0  0  0  0  0  0  0  0  0  0  0  0
    1.1528   -0.4868   -0.0711 C   0  0  0  0  0  0  0  0  0  0  0  0
    1.2374   -0.6363   -1.2831 O   0  0  0  0  0  0  0  0  0  0  0  0
    2.0925   -1.0784    0.7546 N   0  0  0  0  0  0  0  0  0  0  0  0
    1.7969   -1.1883    1.7214 H   0  0  0  0  0  0  0  0  0  0  0  0
    3.0939   -2.0085    0.2474 C   0  0  0  0  0  0  0  0  0  0  0  0
    3.7025   -1.5326   -0.5288 H   0  0  0  0  0  0  0  0  0  0  0  0
    3.7580   -2.3261    1.0570 H   0  0  0  0  0  0  0  0  0  0  0  0
    2.6119   -2.8955   -0.1768 H   0  0  0  0  0  0  0  0  0  0  0  0
  1  2  1  0  0  0  0
  2  3  1  0  0  0  0
  2  4  1  0  0  0  0
  2  5  1  0  0  0  0
  5  6  2  0  0  0  0
  5  7  1  0  0  0  0
  7  8  1  0  0  0  0
  7  9  1  0  0  0  0
  9 10  1  0  0  0  0
  9 11  1  0  0  0  0
  9 19  1  0  0  0  0
 11 12  1  0  0  0  0
 11 13  1  0  0  0  0
 11 14  1  0  0  0  0
 14 15  2  0  0  0  0
 14 16  1  0  0  0  0
 16 17  1  0  0  0  0
 16 18  1  0  0  0  0
 19 20  2  0  0  0  0
 19 21  1  0  0  0  0
 21 22  1  0  0  0  0
 21 23  1  0  0  0  0
 23 24  1  0  0  0  0
 23 25  1  0  0  0  0
 23 26  1  0  0  0  0
M  END
$$$$

  -OEChem-01062216063D

 26 25  0     1  0  0  0  0  0999 V2000
   -2.8651   -3.2839    0.9658 H   0  0  0  0  0  0  0  0  0  0  0  0
   -2.8591   -2.2574    0.5888 C   0  0  0  0  0  0  0  0  0  0  0  0
   -3.6824   -1.7068    1.0505 H   0  0  0  0  0  0  0  0  0  0  0  0
   -3.0070   -2.2809   -0.4937 H   0  0  0  0  0  0  0  0  0  0  0  0
   -1.5387   -1.5862    0.9169 C   0  0  0  0  0  0  0  0  0  0  0  0
   -0.7271   -2.1586    1.6303 O   0  0  0  0  0  0  0  0  0  0  0  0
   -1.2989   -0.2981    0.4746 N   0  0  0  0  0  0  0  0  0  0  0  0
   -2.0145    0.1007   -0.1287 H   0  0  0  0  0  0  0  0  0  0  0  0
    0.0160    0.3729    0.4704 C   0  0  1  0  0  0  0  0  0  0  0  0
   -0.0318    1.2284   -0.2138 H   0  0  0  0  0  0  0  0  0  0  0  0
    0.3239    0.8989    1.8888 C   0  0  0  0  0  0  0  0  0  0  0  0
    0.2129    0.0979    2.6236 H   0  0  0  0  0  0  0  0  0  0  0  0
    1.3590    1.2491    1.9324 H   0  0  0  0  0  0  0  0  0  0  0  0
   -0.5742    2.0668    2.2705 C   0  0  0  0  0  0  0  0  0  0  0  0
   -0.8473    2.9630    1.4941 O   0  0  0  0  0  0  0  0  0  0  0  0
   -1.1192    2.1727    3.5184 N   0  0  0  0  0  0  0  0  0  0  0  0
   -1.5616    3.0593    3.7427 H   0  0  0  0  0  0  0  0  0  0  0  0
   -0.7892    1.5609    4.2574 H   0  0  0  0  0  0  0  0  0  0  0  0
    1.1652   -0.5138   -0.0681 C   0  0  0  0  0  0  0  0  0  0  0  0
    1.4561   -0.4460   -1.2548 O   0  0  0  0  0  0  0  0  0  0  0  0
    1.9067   -1.3262    0.7701 N   0  0  0  0  0  0  0  0  0  0  0  0
    1.4098   -1.6062    1.6160 H   0  0  0  0  0  0  0  0  0  0  0  0
    2.9357   -2.2276    0.2673 C   0  0  0  0  0  0  0  0  0  0  0  0
    3.7063   -1.6676   -0.2728 H   0  0  0  0  0  0  0  0  0  0  0  0
    3.4142   -2.7542    1.0984 H   0  0  0  0  0  0  0  0  0  0  0  0
    2.4986   -2.9688   -0.4099 H   0  0  0  0  0  0  0  0  0  0  0  0
  1  2  1  0  0  0  0
  2  3  1  0  0  0  0
  2  4  1  0  0  0  0
  2  5  1  0  0  0  0
  5  6  2  0  0  0  0
  5  7  1  0  0  0  0
  7  8  1  0  0  0  0
  7  9  1  0  0  0  0
  9 10  1  0  0  0  0
  9 11  1  0  0  0  0
  9 19  1  0  0  0  0
 11 12  1  0  0  0  0
 11 13  1  0  0  0  0
 11 14  1  0  0  0  0
 14 15  2  0  0  0  0
 14 16  1  0  0  0  0
 16 17  1  0  0  0  0
 16 18  1  0  0  0  0
 19 20  2  0  0  0  0
 19 21  1  0  0  0  0
 21 22  1  0  0  0  0
 21 23  1  0  0  0  0
 23 24  1  0  0  0  0
 23 25  1  0  0  0  0
 23 26  1  0  0  0  0
M  END
$$$$

  -OEChem-01062216063D

 26 25  0     1  0  0  0  0  0999 V2000
   -2.9985   -3.2343    1.0014 H   0  0  0  0  0  0  0  0  0  0  0  0
   -2.9483   -2.2163    0.6047 C   0  0  0  0  0  0  0  0  0  0  0  0
   -3.7493   -1.6233    1.0530 H   0  0  0  0  0  0  0  0  0  0  0  0
   -3.0944   -2.2548   -0.4777 H   0  0  0  0  0  0  0  0  0  0  0  0
   -1.6016   -1.5948    0.9242 C   0  0  0  0  0  0  0  0  0  0  0  0
   -0.8155   -2.1950    1.6419 O   0  0  0  0  0  0  0  0  0  0  0  0
   -1.3161   -0.3205    0.4696 N   0  0  0  0  0  0  0  0  0  0  0  0
   -2.0376    0.1073   -0.1061 H   0  0  0  0  0  0  0  0  0  0  0  0
    0.0071    0.3392    0.4522 C   0  0  1  0  0  0  0  0  0  0  0  0
   -0.0430    1.1950   -0.2317 H   0  0  0  0  0  0  0  0  0  0  0  0
    0.3266    0.8602    1.8686 C   0  0  0  0  0  0  0  0  0  0  0  0
    0.2144    0.0577    2.6018 H   0  0  0  0  0  0  0  0  0  0  0  0
    1.3653    1.2008    1.9072 H   0  0  0  0  0  0  0  0  0  0  0  0
   -0.5590    2.0349    2.2581 C   0  0  0  0  0  0  0  0  0  0  0  0
   -0.8298    2.9355    1.4860 O   0  0  0  0  0  0  0  0  0  0  0  0
   -1.0994    2.1396    3.5081 N   0  0  0  0  0  0  0  0  0  0  0  0
   -1.5318    3.0300    3.7367 H   0  0  0  0  0  0  0  0  0  0  0  0
   -0.7642    1.5273    4.2443 H   0  0  0  0  0  0  0  0  0  0  0  0
    1.1759   -0.5332   -0.0690 C   0  0  0  0  0  0  0  0  0  0  0  0
    1.6530   -0.2852   -1.1680 O   0  0  0  0  0  0  0  0  0  0  0  0
    1.7314   -1.5428    0.6939 N   0  0  0  0  0  0  0  0  0  0  0  0
    1.1231   -1.8933    1.4375 H   0  0  0  0  0  0  0  0  0  0  0  0
    2.7732   -2.4280    0.1903 C   0  0  0  0  0  0  0  0  0  0  0  0
    3.6491   -1.8497   -0.1220 H   0  0  0  0  0  0  0  0  0  0  0  0
    3.0841   -3.1267    0.9729 H   0  0  0  0  0  0  0  0  0  0  0  0
    2.4067   -3.0038   -0.6658 H   0  0  0  0  0  0  0  0  0  0  0  0
  1  2  1  0  0  0  0
  2  3  1  0  0  0  0
  2  4  1  0  0  0  0
  2  5  1  0  0  0  0
  5  6  2  0  0  0  0
  5  7  1  0  0  0  0
  7  8  1  0  0  0  0
  7  9  1  0  0  0  0
  9 10  1  0  0  0  0
  9 11  1  0  0  0  0
  9 19  1  0  0  0  0
 11 12  1  0  0  0  0
 11 13  1  0  0  0  0
 11 14  1  0  0  0  0
 14 15  2  0  0  0  0
 14 16  1  0  0  0  0
 16 17  1  0  0  0  0
 16 18  1  0  0  0  0
 19 20  2  0  0  0  0
 19 21  1  0  0  0  0
 21 22  1  0  0  0  0
 21 23  1  0  0  0  0
 23 24  1  0  0  0  0
 23 25  1  0  0  0  0
 23 26  1  0  0  0  0
M  END
$$$$

  -OEChem-01062216063D

 26 25  0     1  0  0  0  0  0999 V2000
   -3.1416   -3.1754    1.0252 H   0  0  0  0  0  0  0  0  0  0  0  0
   -3.0518   -2.1590    0.6314 C   0  0  0  0  0  0  0  0  0  0  0  0
   -3.8151   -1.5313    1.0978 H   0  0  0  0  0  0  0  0  0  0  0  0
   -3.2210   -2.1854   -0.4479 H   0  0  0  0  0  0  0  0  0  0  0  0
   -1.6721   -1.6018    0.9271 C   0  0  0  0  0  0  0  0  0  0  0  0
   -0.9104   -2.2341    1.6416 O   0  0  0  0  0  0  0  0  0  0  0  0
   -1.3399   -0.3430    0.4623 N   0  0  0  0  0  0  0  0  0  0  0  0
   -2.0647    0.1161   -0.0849 H   0  0  0  0  0  0  0  0  0  0  0  0
   -0.0069    0.3009    0.4310 C   0  0  1  0  0  0  0  0  0  0  0  0
   -0.0584    1.1567   -0.2529 H   0  0  0  0  0  0  0  0  0  0  0  0
    0.3203    0.8165    1.8464 C   0  0  0  0  0  0  0  0  0  0  0  0
    0.2039    0.0124    2.5774 H   0  0  0  0  0  0  0  0  0  0  0  0
    1.3620    1.1483    1.8826 H   0  0  0  0  0  0  0  0  0  0  0  0
   -0.5519    1.9998    2.2404 C   0  0  0  0  0  0  0  0  0  0  0  0
   -0.8161    2.9053    1.4716 O   0  0  0  0  0  0  0  0  0  0  0  0
   -1.0877    2.1068    3.4921 N   0  0  0  0  0  0  0  0  0  0  0  0
   -1.5023    3.0045    3.7253 H   0  0  0  0  0  0  0  0  0  0  0  0
   -0.7508    1.4919    4.2257 H   0  0  0  0  0  0  0  0  0  0  0  0
    1.1802   -0.5574   -0.0772 C   0  0  0  0  0  0  0  0  0  0  0  0
    1.8257   -0.1530   -1.0344 O   0  0  0  0  0  0  0  0  0  0  0  0
    1.5699   -1.7346    0.5313 N   0  0  0  0  0  0  0  0  0  0  0  0
    0.9092   -2.1232    1.2088 H   0  0  0  0  0  0  0  0  0  0  0  0
    2.6362   -2.5894    0.0264 C   0  0  0  0  0  0  0  0  0  0  0  0
    3.5778   -2.0336   -0.0335 H   0  0  0  0  0  0  0  0  0  0  0  0
    2.7831   -3.4428    0.6954 H   0  0  0  0  0  0  0  0  0  0  0  0
    2.3852   -2.9674   -0.9699 H   0  0  0  0  0  0  0  0  0  0  0  0
  1  2  1  0  0  0  0
  2  3  1  0  0  0  0
  2  4  1  0  0  0  0
  2  5  1  0  0  0  0
  5  6  2  0  0  0  0
  5  7  1  0  0  0  0
  7  8  1  0  0  0  0
  7  9  1  0  0  0  0
  9 10  1  0  0  0  0
  9 11  1  0  0  0  0
  9 19  1  0  0  0  0
 11 12  1  0  0  0  0
 11 13  1  0  0  0  0
 11 14  1  0  0  0  0
 14 15  2  0  0  0  0
 14 16  1  0  0  0  0
 16 17  1  0  0  0  0
 16 18  1  0  0  0  0
 19 20  2  0  0  0  0
 19 21  1  0  0  0  0
 21 22  1  0  0  0  0
 21 23  1  0  0  0  0
 23 24  1  0  0  0  0
 23 25  1  0  0  0  0
 23 26  1  0  0  0  0
M  END
$$$$

  -OEChem-01062216063D

 26 25  0     1  0  0  0  0  0999 V2000
   -3.2555   -3.1238    1.0691 H   0  0  0  0  0  0  0  0  0  0  0  0
   -3.1416   -2.1121    0.6695 C   0  0  0  0  0  0  0  0  0  0  0  0
   -3.8753   -1.4592    1.1488 H   0  0  0  0  0  0  0  0  0  0  0  0
   -3.3344   -2.1373   -0.4059 H   0  0  0  0  0  0  0  0  0  0  0  0
   -1.7389   -1.5977    0.9340 C   0  0  0  0  0  0  0  0  0  0  0  0
   -0.9835   -2.2546    1.6324 O   0  0  0  0  0  0  0  0  0  0  0  0
   -1.3783   -0.3497    0.4607 N   0  0  0  0  0  0  0  0  0  0  0  0
   -2.1074    0.1334   -0.0592 H   0  0  0  0  0  0  0  0  0  0  0  0
   -0.0342    0.2728    0.4018 C   0  0  1  0  0  0  0  0  0  0  0  0
   -0.0886    1.1308   -0.2793 H   0  0  0  0  0  0  0  0  0  0  0  0
    0.3210    0.7779    1.8140 C   0  0  0  0  0  0  0  0  0  0  0  0
    0.2050   -0.0282    2.5431 H   0  0  0  0  0  0  0  0  0  0  0  0
    1.3676    1.0958    1.8368 H   0  0  0  0  0  0  0  0  0  0  0  0
   -0.5278    1.9722    2.2249 C   0  0  0  0  0  0  0  0  0  0  0  0
   -0.7902    2.8849    1.4642 O   0  0  0  0  0  0  0  0  0  0  0  0
   -1.0510    2.0769    3.4821 N   0  0  0  0  0  0  0  0  0  0  0  0
   -1.4480    2.9793    3.7271 H   0  0  0  0  0  0  0  0  0  0  0  0
   -0.7162    1.4511    4.2072 H   0  0  0  0  0  0  0  0  0  0  0  0
    1.1505   -0.5831   -0.1203 C   0  0  0  0  0  0  0  0  0  0  0  0
    1.9415   -0.0623   -0.8946 O   0  0  0  0  0  0  0  0  0  0  0  0
    1.3847   -1.8873    0.2680 N   0  0  0  0  0  0  0  0  0  0  0  0
    0.7113   -2.2997    0.9176 H   0  0  0  0  0  0  0  0  0  0  0  0
    2.5047   -2.6931   -0.1997 C   0  0  0  0  0  0  0  0  0  0  0  0
    3.4553   -2.2089    0.0475 H   0  0  0  0  0  0  0  0  0  0  0  0
    2.4846   -3.6778    0.2769 H   0  0  0  0  0  0  0  0  0  0  0  0
    2.4501   -2.8315   -1.2844 H   0  0  0  0  0  0  0  0  0  0  0  0
  1  2  1  0  0  0  0
  2  3  1  0  0  0  0
  2  4  1  0  0  0  0
  2  5  1  0  0  0  0
  5  6  2  0  0  0  0
  5  7  1  0  0  0  0
  7  8  1  0  0  0  0
  7  9  1  0  0  0  0
  9 10  1  0  0  0  0
  9 11  1  0  0  0  0
  9 19  1  0  0  0  0
 11 12  1  0  0  0  0
 11 13  1  0  0  0  0
 11 14  1  0  0  0  0
 14 15  2  0  0  0  0
 14 16  1  0  0  0  0
 16 17  1  0  0  0  0
 16 18  1  0  0  0  0
 19 20  2  0  0  0  0
 19 21  1  0  0  0  0
 21 22  1  0  0  0  0
 21 23  1  0  0  0  0
 23 24  1  0  0  0  0
 23 25  1  0  0  0  0
 23 26  1  0  0  0  0
M  END
$$$$

  -OEChem-01062216063D

 26 25  0     1  0  0  0  0  0999 V2000
   -3.3511   -3.0611    1.0121 H   0  0  0  0  0  0  0  0  0  0  0  0
   -3.2060   -2.0501    0.6209 C   0  0  0  0  0  0  0  0  0  0  0  0
   -3.9052   -1.3758    1.1218 H   0  0  0  0  0  0  0  0  0  0  0  0
   -3.4198   -2.0548   -0.4509 H   0  0  0  0  0  0  0  0  0  0  0  0
   -1.7800   -1.5923    0.8643 C   0  0  0  0  0  0  0  0  0  0  0  0
   -1.0261   -2.3011    1.5113 O   0  0  0  0  0  0  0  0  0  0  0  0
   -1.3905   -0.3411    0.4247 N   0  0  0  0  0  0  0  0  0  0  0  0
   -2.1185    0.1885   -0.0497 H   0  0  0  0  0  0  0  0  0  0  0  0
   -0.0366    0.2629    0.3918 C   0  0  1  0  0  0  0  0  0  0  0  0
   -0.0738    1.1363   -0.2700 H   0  0  0  0  0  0  0  0  0  0  0  0
    0.3017    0.7308    1.8215 C   0  0  0  0  0  0  0  0  0  0  0  0
    0.1640   -0.0916    2.5282 H   0  0  0  0  0  0  0  0  0  0  0  0
    1.3514    1.0352    1.8702 H   0  0  0  0  0  0  0  0  0  0  0  0
   -0.5391    1.9265    2.2454 C   0  0  0  0  0  0  0  0  0  0  0  0
   -0.7777    2.8597    1.5016 O   0  0  0  0  0  0  0  0  0  0  0  0
   -1.0782    2.0127    3.4974 N   0  0  0  0  0  0  0  0  0  0  0  0
   -1.4598    2.9184    3.7547 H   0  0  0  0  0  0  0  0  0  0  0  0
   -0.7504    1.3749    4.2153 H   0  0  0  0  0  0  0  0  0  0  0  0
    1.1544   -0.5826   -0.1366 C   0  0  0  0  0  0  0  0  0  0  0  0
    2.0855    0.0104   -0.6644 O   0  0  0  0  0  0  0  0  0  0  0  0
    1.2379   -1.9573   -0.0342 N   0  0  0  0  0  0  0  0  0  0  0  0
    0.5276   -2.4083    0.5459 H   0  0  0  0  0  0  0  0  0  0  0  0
    2.4037   -2.7310   -0.4420 C   0  0  0  0  0  0  0  0  0  0  0  0
    3.2843   -2.4304    0.1352 H   0  0  0  0  0  0  0  0  0  0  0  0
    2.2256   -3.7974   -0.2737 H   0  0  0  0  0  0  0  0  0  0  0  0
    2.6107   -2.5806   -1.5067 H   0  0  0  0  0  0  0  0  0  0  0  0
  1  2  1  0  0  0  0
  2  3  1  0  0  0  0
  2  4  1  0  0  0  0
  2  5  1  0  0  0  0
  5  6  2  0  0  0  0
  5  7  1  0  0  0  0
  7  8  1  0  0  0  0
  7  9  1  0  0  0  0
  9 10  1  0  0  0  0
  9 11  1  0  0  0  0
  9 19  1  0  0  0  0
 11 12  1  0  0  0  0
 11 13  1  0  0  0  0
 11 14  1  0  0  0  0
 14 15  2  0  0  0  0
 14 16  1  0  0  0  0
 16 17  1  0  0  0  0
 16 18  1  0  0  0  0
 19 20  2  0  0  0  0
 19 21  1  0  0  0  0
 21 22  1  0  0  0  0
 21 23  1  0  0  0  0
 23 24  1  0  0  0  0
 23 25  1  0  0  0  0
 23 26  1  0  0  0  0
M  END
$$$$

  -OEChem-01062216063D

 26 25  0     1  0  0  0  0  0999 V2000
   -3.3432   -3.0533    1.1460 H   0  0  0  0  0  0  0  0  0  0  0  0
   -3.2176   -2.0412    0.7509 C   0  0  0  0  0  0  0  0  0  0  0  0
   -3.8695   -1.3630    1.3073 H   0  0  0  0  0  0  0  0  0  0  0  0
   -3.5121   -2.0366   -0.3015 H   0  0  0  0  0  0  0  0  0  0  0  0
   -1.7726   -1.5996    0.8877 C   0  0  0  0  0  0  0  0  0  0  0  0
   -0.9731   -2.3292    1.4505 O   0  0  0  0  0  0  0  0  0  0  0  0
   -1.4033   -0.3497    0.4281 N   0  0  0  0  0  0  0  0  0  0  0  0
   -2.1590    0.1980    0.0224 H   0  0  0  0  0  0  0  0  0  0  0  0
   -0.0540    0.2611    0.3536 C   0  0  1  0  0  0  0  0  0  0  0  0
   -0.1112    1.1292   -0.3136 H   0  0  0  0  0  0  0  0  0  0  0  0
    0.3114    0.7386    1.7744 C   0  0  0  0  0  0  0  0  0  0  0  0
    0.1943   -0.0821    2.4870 H   0  0  0  0  0  0  0  0  0  0  0  0
    1.3594    1.0516    1.8025 H   0  0  0  0  0  0  0  0  0  0  0  0
   -0.5285    1.9303    2.2099 C   0  0  0  0  0  0  0  0  0  0  0  0
   -0.7900    2.8583    1.4672 O   0  0  0  0  0  0  0  0  0  0  0  0
   -1.0368    2.0197    3.4745 N   0  0  0  0  0  0  0  0  0  0  0  0
   -1.4121    2.9267    3.7363 H   0  0  0  0  0  0  0  0  0  0  0  0
   -0.6765    1.3940    4.1874 H   0  0  0  0  0  0  0  0  0  0  0  0
    1.1291   -0.5806   -0.2003 C   0  0  0  0  0  0  0  0  0  0  0  0
    2.1385    0.0147   -0.5541 O   0  0  0  0  0  0  0  0  0  0  0  0
    1.0964   -1.9529   -0.3586 N   0  0  0  0  0  0  0  0  0  0  0  0
    0.3614   -2.4321    0.1641 H   0  0  0  0  0  0  0  0  0  0  0  0
    2.2485   -2.7332   -0.7930 C   0  0  0  0  0  0  0  0  0  0  0  0
    3.0770   -2.6200   -0.0862 H   0  0  0  0  0  0  0  0  0  0  0  0
    1.9843   -3.7934   -0.8519 H   0  0  0  0  0  0  0  0  0  0  0  0
    2.5821   -2.4063   -1.7835 H   0  0  0  0  0  0  0  0  0  0  0  0
  1  2  1  0  0  0  0
  2  3  1  0  0  0  0
  2  4  1  0  0  0  0
  2  5  1  0  0  0  0
  5  6  2  0  0  0  0
  5  7  1  0  0  0  0
  7  8  1  0  0  0  0
  7  9  1  0  0  0  0
  9 10  1  0  0  0  0
  9 11  1  0  0  0  0
  9 19  1  0  0  0  0
 11 12  1  0  0  0  0
 11 13  1  0  0  0  0
 11 14  1  0  0  0  0
 14 15  2  0  0  0  0
 14 16  1  0  0  0  0
 16 17  1  0  0  0  0
 16 18  1  0  0  0  0
 19 20  2  0  0  0  0
 19 21  1  0  0  0  0
 21 22  1  0  0  0  0
 21 23  1  0  0  0  0
 23 24  1  0  0  0  0
 23 25  1  0  0  0  0
 23 26  1  0  0  0  0
M  END
$$$$

  -OEChem-01062216063D

 26 25  0     1  0  0  0  0  0999 V2000
   -3.3050   -3.0499    1.1629 H   0  0  0  0  0  0  0  0  0  0  0  0
   -3.1923   -2.0310    0.7814 C   0  0  0  0  0  0  0  0  0  0  0  0
   -3.8109   -1.3605    1.3831 H   0  0  0  0  0  0  0  0  0  0  0  0
   -3.5392   -2.0037   -0.2545 H   0  0  0  0  0  0  0  0  0  0  0  0
   -1.7391   -1.6012    0.8540 C   0  0  0  0  0  0  0  0  0  0  0  0
   -0.9100   -2.3614    1.3248 O   0  0  0  0  0  0  0  0  0  0  0  0
   -1.3823   -0.3429    0.4081 N   0  0  0  0  0  0  0  0  0  0  0  0
   -2.1515    0.2316    0.0708 H   0  0  0  0  0  0  0  0  0  0  0  0
   -0.0356    0.2750    0.3484 C   0  0  1  0  0  0  0  0  0  0  0  0
   -0.0881    1.1465   -0.3140 H   0  0  0  0  0  0  0  0  0  0  0  0
    0.3092    0.7436    1.7787 C   0  0  0  0  0  0  0  0  0  0  0  0
    0.1876   -0.0841    2.4826 H   0  0  0  0  0  0  0  0  0  0  0  0
    1.3538    1.0645    1.8275 H   0  0  0  0  0  0  0  0  0  0  0  0
   -0.5448    1.9265    2.2098 C   0  0  0  0  0  0  0  0  0  0  0  0
   -0.8022    2.8574    1.4693 O   0  0  0  0  0  0  0  0  0  0  0  0
   -1.0740    2.0034    3.4663 N   0  0  0  0  0  0  0  0  0  0  0  0
   -1.4557    2.9081    3.7273 H   0  0  0  0  0  0  0  0  0  0  0  0
   -0.7129    1.3804    4.1813 H   0  0  0  0  0  0  0  0  0  0  0  0
    1.1469   -0.5665   -0.2087 C   0  0  0  0  0  0  0  0  0  0  0  0
    2.2295   -0.0159   -0.3635 O   0  0  0  0  0  0  0  0  0  0  0  0
    1.0088   -1.8684   -0.6526 N   0  0  0  0  0  0  0  0  0  0  0  0
    0.2207   -2.3691   -0.2416 H   0  0  0  0  0  0  0  0  0  0  0  0
    2.1341   -2.6609   -1.1335 C   0  0  0  0  0  0  0  0  0  0  0  0
    2.8897   -2.7713   -0.3487 H   0  0  0  0  0  0  0  0  0  0  0  0
    1.7927   -3.6572   -1.4301 H   0  0  0  0  0  0  0  0  0  0  0  0
    2.5965   -2.1829   -2.0035 H   0  0  0  0  0  0  0  0  0  0  0  0
  1  2  1  0  0  0  0
  2  3  1  0  0  0  0
  2  4  1  0  0  0  0
  2  5  1  0  0  0  0
  5  6  2  0  0  0  0
  5  7  1  0  0  0  0
  7  8  1  0  0  0  0
  7  9  1  0  0  0  0
  9 10  1  0  0  0  0
  9 11  1  0  0  0  0
  9 19  1  0  0  0  0
 11 12  1  0  0  0  0
 11 13  1  0  0  0  0
 11 14  1  0  0  0  0
 14 15  2  0  0  0  0
 14 16  1  0  0  0  0
 16 17  1  0  0  0  0
 16 18  1  0  0  0  0
 19 20  2  0  0  0  0
 19 21  1  0  0  0  0
 21 22  1  0  0  0  0
 21 23  1  0  0  0  0
 23 24  1  0  0  0  0
 23 25  1  0  0  0  0
 23 26  1  0  0  0  0
M  END
$$$$

  -OEChem-01062216063D

 26 25  0     1  0  0  0  0  0999 V2000
   -3.2388   -3.0528    1.1910 H   0  0  0  0  0  0  0  0  0  0  0  0
   -3.1432   -2.0312    0.8120 C   0  0  0  0  0  0  0  0  0  0  0  0
   -3.7283   -1.3640    1.4500 H   0  0  0  0  0  0  0  0  0  0  0  0
   -3.5428   -1.9948   -0.2045 H   0  0  0  0  0  0  0  0  0  0  0  0
   -1.6867   -1.6057    0.8135 C   0  0  0  0  0  0  0  0  0  0  0  0
   -0.8312   -2.3870    1.1908 O   0  0  0  0  0  0  0  0  0  0  0  0
   -1.3506   -0.3363    0.3839 N   0  0  0  0  0  0  0  0  0  0  0  0
   -2.1342    0.2587    0.1230 H   0  0  0  0  0  0  0  0  0  0  0  0
   -0.0095    0.2936    0.3449 C   0  0  1  0  0  0  0  0  0  0  0  0
   -0.0566    1.1685   -0.3132 H   0  0  0  0  0  0  0  0  0  0  0  0
    0.3100    0.7559    1.7845 C   0  0  0  0  0  0  0  0  0  0  0  0
    0.1866   -0.0784    2.4801 H   0  0  0  0  0  0  0  0  0  0  0  0
    1.3494    1.0887    1.8543 H   0  0  0  0  0  0  0  0  0  0  0  0
   -0.5618    1.9272    2.2103 C   0  0  0  0  0  0  0  0  0  0  0  0
   -0.8169    2.8602    1.4716 O   0  0  0  0  0  0  0  0  0  0  0  0
   -1.1186    1.9861    3.4558 N   0  0  0  0  0  0  0  0  0  0  0  0
   -1.5162    2.8840    3.7165 H   0  0  0  0  0  0  0  0  0  0  0  0
   -0.7615    1.3633    4.1732 H   0  0  0  0  0  0  0  0  0  0  0  0
    1.1690   -0.5521   -0.2148 C   0  0  0  0  0  0  0  0  0  0  0  0
    2.3062   -0.1004   -0.1610 O   0  0  0  0  0  0  0  0  0  0  0  0
    0.9599   -1.7135   -0.9359 N   0  0  0  0  0  0  0  0  0  0  0  0
    0.0982   -2.1984   -0.6933 H   0  0  0  0  0  0  0  0  0  0  0  0
    2.0596   -2.5204   -1.4511 C   0  0  0  0  0  0  0  0  0  0  0  0
    2.6857   -2.8835   -0.6294 H   0  0  0  0  0  0  0  0  0  0  0  0
    1.6694   -3.3831   -1.9995 H   0  0  0  0  0  0  0  0  0  0  0  0
    2.6806   -1.9320   -2.1346 H   0  0  0  0  0  0  0  0  0  0  0  0
  1  2  1  0  0  0  0
  2  3  1  0  0  0  0
  2  4  1  0  0  0  0
  2  5  1  0  0  0  0
  5  6  2  0  0  0  0
  5  7  1  0  0  0  0
  7  8  1  0  0  0  0
  7  9  1  0  0  0  0
  9 10  1  0  0  0  0
  9 11  1  0  0  0  0
  9 19  1  0  0  0  0
 11 12  1  0  0  0  0
 11 13  1  0  0  0  0
 11 14  1  0  0  0  0
 14 15  2  0  0  0  0
 14 16  1  0  0  0  0
 16 17  1  0  0  0  0
 16 18  1  0  0  0  0
 19 20  2  0  0  0  0
 19 21  1  0  0  0  0
 21 22  1  0  0  0  0
 21 23  1  0  0  0  0
 23 24  1  0  0  0  0
 23 25  1  0  0  0  0
 23 26  1  0  0  0  0
M  END
$$$$

  -OEChem-01062216063D

 26 25  0     1  0  0  0  0  0999 V2000
   -3.1239   -3.1038    1.1627 H   0  0  0  0  0  0  0  0  0  0  0  0
   -3.0588   -2.0758    0.7946 C   0  0  0  0  0  0  0  0  0  0  0  0
   -3.6561   -1.4319    1.4449 H   0  0  0  0  0  0  0  0  0  0  0  0
   -3.4671   -2.0385   -0.2183 H   0  0  0  0  0  0  0  0  0  0  0  0
   -1.6142   -1.6117    0.7894 C   0  0  0  0  0  0  0  0  0  0  0  0
   -0.7358   -2.3729    1.1526 O   0  0  0  0  0  0  0  0  0  0  0  0
   -1.3157   -0.3274    0.3741 N   0  0  0  0  0  0  0  0  0  0  0  0
   -2.1144    0.2603    0.1444 H   0  0  0  0  0  0  0  0  0  0  0  0
    0.0143    0.3244    0.3537 C   0  0  1  0  0  0  0  0  0  0  0  0
   -0.0339    1.2017   -0.3008 H   0  0  0  0  0  0  0  0  0  0  0  0
    0.3153    0.7867    1.7981 C   0  0  0  0  0  0  0  0  0  0  0  0
    0.2007   -0.0527    2.4891 H   0  0  0  0  0  0  0  0  0  0  0  0
    1.3476    1.1380    1.8788 H   0  0  0  0  0  0  0  0  0  0  0  0
   -0.5784    1.9421    2.2203 C   0  0  0  0  0  0  0  0  0  0  0  0
   -0.8418    2.8728    1.4813 O   0  0  0  0  0  0  0  0  0  0  0  0
   -1.1410    1.9904    3.4637 N   0  0  0  0  0  0  0  0  0  0  0  0
   -1.5506    2.8825    3.7256 H   0  0  0  0  0  0  0  0  0  0  0  0
   -0.7751    1.3724    4.1809 H   0  0  0  0  0  0  0  0  0  0  0  0
    1.1837   -0.5275   -0.2147 C   0  0  0  0  0  0  0  0  0  0  0  0
    2.3449   -0.2536    0.0641 O   0  0  0  0  0  0  0  0  0  0  0  0
    0.9494   -1.4852   -1.1853 N   0  0  0  0  0  0  0  0  0  0  0  0
   -0.0047   -1.8291   -1.2263 H   0  0  0  0  0  0  0  0  0  0  0  0
    2.0052   -2.3417   -1.7116 C   0  0  0  0  0  0  0  0  0  0  0  0
    2.4414   -2.9471   -0.9100 H   0  0  0  0  0  0  0  0  0  0  0  0
    1.6008   -3.0137   -2.4743 H   0  0  0  0  0  0  0  0  0  0  0  0
    2.7970   -1.7396   -2.1698 H   0  0  0  0  0  0  0  0  0  0  0  0
  1  2  1  0  0  0  0
  2  3  1  0  0  0  0
  2  4  1  0  0  0  0
  2  5  1  0  0  0  0
  5  6  2  0  0  0  0
  5  7  1  0  0  0  0
  7  8  1  0  0  0  0
  7  9  1  0  0  0  0
  9 10  1  0  0  0  0
  9 11  1  0  0  0  0
  9 19  1  0  0  0  0
 11 12  1  0  0  0  0
 11 13  1  0  0  0  0
 11 14  1  0  0  0  0
 14 15  2  0  0  0  0
 14 16  1  0  0  0  0
 16 17  1  0  0  0  0
 16 18  1  0  0  0  0
 19 20  2  0  0  0  0
 19 21  1  0  0  0  0
 21 22  1  0  0  0  0
 21 23  1  0  0  0  0
 23 24  1  0  0  0  0
 23 25  1  0  0  0  0
 23 26  1  0  0  0  0
M  END
$$$$

  -OEChem-01062216063D

 26 25  0     1  0  0  0  0  0999 V2000
   -3.0418   -3.1414    1.1325 H   0  0  0  0  0  0  0  0  0  0  0  0
   -2.9955   -2.1119    0.7658 C   0  0  0  0  0  0  0  0  0  0  0  0
   -3.6135   -1.4814    1.4098 H   0  0  0  0  0  0  0  0  0  0  0  0
   -3.3933   -2.0830   -0.2515 H   0  0  0  0  0  0  0  0  0  0  0  0
   -1.5611   -1.6176    0.7773 C   0  0  0  0  0  0  0  0  0  0  0  0
   -0.6747   -2.3581    1.1625 O   0  0  0  0  0  0  0  0  0  0  0  0
   -1.2865   -0.3252    0.3684 N   0  0  0  0  0  0  0  0  0  0  0  0
   -2.0937    0.2507    0.1399 H   0  0  0  0  0  0  0  0  0  0  0  0
    0.0340    0.3427    0.3672 C   0  0  1  0  0  0  0  0  0  0  0  0
   -0.0116    1.2193   -0.2879 H   0  0  0  0  0  0  0  0  0  0  0  0
    0.3196    0.8095    1.8130 C   0  0  0  0  0  0  0  0  0  0  0  0
    0.2106   -0.0312    2.5037 H   0  0  0  0  0  0  0  0  0  0  0  0
    1.3478    1.1724    1.8975 H   0  0  0  0  0  0  0  0  0  0  0  0
   -0.5891    1.9548    2.2284 C   0  0  0  0  0  0  0  0  0  0  0  0
   -0.8565    2.8814    1.4855 O   0  0  0  0  0  0  0  0  0  0  0  0
   -1.1578    2.0005    3.4691 N   0  0  0  0  0  0  0  0  0  0  0  0
   -1.5721    2.8906    3.7297 H   0  0  0  0  0  0  0  0  0  0  0  0
   -0.7933    1.3829    4.1874 H   0  0  0  0  0  0  0  0  0  0  0  0
    1.1960   -0.5205   -0.1962 C   0  0  0  0  0  0  0  0  0  0  0  0
    2.3254   -0.4600    0.2753 O   0  0  0  0  0  0  0  0  0  0  0  0
    1.0056   -1.2370   -1.3644 N   0  0  0  0  0  0  0  0  0  0  0  0
    0.0422   -1.3705   -1.6527 H   0  0  0  0  0  0  0  0  0  0  0  0
    2.0265   -2.1123   -1.9272 C   0  0  0  0  0  0  0  0  0  0  0  0
    2.2845   -2.9038   -1.2158 H   0  0  0  0  0  0  0  0  0  0  0  0
    1.6610   -2.5774   -2.8476 H   0  0  0  0  0  0  0  0  0  0  0  0
    2.9315   -1.5437   -2.1658 H   0  0  0  0  0  0  0  0  0  0  0  0
  1  2  1  0  0  0  0
  2  3  1  0  0  0  0
  2  4  1  0  0  0  0
  2  5  1  0  0  0  0
  5  6  2  0  0  0  0
  5  7  1  0  0  0  0
  7  8  1  0  0  0  0
  7  9  1  0  0  0  0
  9 10  1  0  0  0  0
  9 11  1  0  0  0  0
  9 19  1  0  0  0  0
 11 12  1  0  0  0  0
 11 13  1  0  0  0  0
 11 14  1  0  0  0  0
 14 15  2  0  0  0  0
 14 16  1  0  0  0  0
 16 17  1  0  0  0  0
 16 18  1  0  0  0  0
 19 20  2  0  0  0  0
 19 21  1  0  0  0  0
 21 22  1  0  0  0  0
 21 23  1  0  0  0  0
 23 24  1  0  0  0  0
 23 25  1  0  0  0  0
 23 26  1  0  0  0  0
M  END
$$$$

  -OEChem-01062216063D

 26 25  0     1  0  0  0  0  0999 V2000
   -3.0305   -3.1508    1.1214 H   0  0  0  0  0  0  0  0  0  0  0  0
   -2.9829   -2.1214    0.7548 C   0  0  0  0  0  0  0  0  0  0  0  0
   -3.6110   -1.4927    1.3906 H   0  0  0  0  0  0  0  0  0  0  0  0
   -3.3679   -2.0947   -0.2673 H   0  0  0  0  0  0  0  0  0  0  0  0
   -1.5503   -1.6219    0.7834 C   0  0  0  0  0  0  0  0  0  0  0  0
   -0.6688   -2.3562    1.1902 O   0  0  0  0  0  0  0  0  0  0  0  0
   -1.2764   -0.3305    0.3699 N   0  0  0  0  0  0  0  0  0  0  0  0
   -2.0839    0.2402    0.1302 H   0  0  0  0  0  0  0  0  0  0  0  0
    0.0418    0.3400    0.3741 C   0  0  1  0  0  0  0  0  0  0  0  0
    0.0017    1.2153   -0.2831 H   0  0  0  0  0  0  0  0  0  0  0  0
    0.3235    0.8124    1.8179 C   0  0  0  0  0  0  0  0  0  0  0  0
    0.2151   -0.0260    2.5115 H   0  0  0  0  0  0  0  0  0  0  0  0
    1.3520    1.1755    1.8997 H   0  0  0  0  0  0  0  0  0  0  0  0
   -0.5873    1.9576    2.2279 C   0  0  0  0  0  0  0  0  0  0  0  0
   -0.8538    2.8810    1.4803 O   0  0  0  0  0  0  0  0  0  0  0  0
   -1.1606    2.0041    3.4664 N   0  0  0  0  0  0  0  0  0  0  0  0
   -1.5807    2.8921    3.7249 H   0  0  0  0  0  0  0  0  0  0  0  0
   -0.7998    1.3858    4.1863 H   0  0  0  0  0  0  0  0  0  0  0  0
    1.1995   -0.5341   -0.1790 C   0  0  0  0  0  0  0  0  0  0  0  0
    2.2571   -0.6654    0.4259 O   0  0  0  0  0  0  0  0  0  0  0  0
    1.1230   -0.9986   -1.4799 N   0  0  0  0  0  0  0  0  0  0  0  0
    0.2140   -0.9484   -1.9278 H   0  0  0  0  0  0  0  0  0  0  0  0
    2.1560   -1.8305   -2.0853 C   0  0  0  0  0  0  0  0  0  0  0  0
    2.2734   -2.7629   -1.5229 H   0  0  0  0  0  0  0  0  0  0  0  0
    1.8869   -2.0778   -3.1166 H   0  0  0  0  0  0  0  0  0  0  0  0
    3.1158   -1.3031   -2.0976 H   0  0  0  0  0  0  0  0  0  0  0  0
  1  2  1  0  0  0  0
  2  3  1  0  0  0  0
  2  4  1  0  0  0  0
  2  5  1  0  0  0  0
  5  6  2  0  0  0  0
  5  7  1  0  0  0  0
  7  8  1  0  0  0  0
  7  9  1  0  0  0  0
  9 10  1  0  0  0  0
  9 11  1  0  0  0  0
  9 19  1  0  0  0  0
 11 12  1  0  0  0  0
 11 13  1  0  0  0  0
 11 14  1  0  0  0  0
 14 15  2  0  0  0  0
 14 16  1  0  0  0  0
 16 17  1  0  0  0  0
 16 18  1  0  0  0  0
 19 20  2  0  0  0  0
 19 21  1  0  0  0  0
 21 22  1  0  0  0  0
 21 23  1  0  0  0  0
 23 24  1  0  0  0  0
 23 25  1  0  0  0  0
 23 26  1  0  0  0  0
M  END
$$$$

  -OEChem-01062216063D

 26 25  0     1  0  0  0  0  0999 V2000
   -3.0503   -3.1525    1.1187 H   0  0  0  0  0  0  0  0  0  0  0  0
   -2.9955   -2.1235    0.7519 C   0  0  0  0  0  0  0  0  0  0  0  0
   -3.6307   -1.4929    1.3787 H   0  0  0  0  0  0  0  0  0  0  0  0
   -3.3664   -2.0974   -0.2755 H   0  0  0  0  0  0  0  0  0  0  0  0
   -1.5623   -1.6272    0.8001 C   0  0  0  0  0  0  0  0  0  0  0  0
   -0.6922   -2.3596    1.2326 O   0  0  0  0  0  0  0  0  0  0  0  0
   -1.2800   -0.3402    0.3791 N   0  0  0  0  0  0  0  0  0  0  0  0
   -2.0831    0.2254    0.1154 H   0  0  0  0  0  0  0  0  0  0  0  0
    0.0401    0.3252    0.3763 C   0  0  1  0  0  0  0  0  0  0  0  0
   -0.0005    1.1995   -0.2819 H   0  0  0  0  0  0  0  0  0  0  0  0
    0.3300    0.8040    1.8158 C   0  0  0  0  0  0  0  0  0  0  0  0
    0.2194   -0.0299    2.5148 H   0  0  0  0  0  0  0  0  0  0  0  0
    1.3620    1.1587    1.8895 H   0  0  0  0  0  0  0  0  0  0  0  0
   -0.5738    1.9555    2.2236 C   0  0  0  0  0  0  0  0  0  0  0  0
   -0.8384    2.8757    1.4711 O   0  0  0  0  0  0  0  0  0  0  0  0
   -1.1491    2.0068    3.4610 N   0  0  0  0  0  0  0  0  0  0  0  0
   -1.5715    2.8943    3.7175 H   0  0  0  0  0  0  0  0  0  0  0  0
   -0.7982    1.3837    4.1817 H   0  0  0  0  0  0  0  0  0  0  0  0
    1.1960   -0.5533   -0.1730 C   0  0  0  0  0  0  0  0  0  0  0  0
    2.1554   -0.8706    0.5202 O   0  0  0  0  0  0  0  0  0  0  0  0
    1.2798   -0.7627   -1.5385 N   0  0  0  0  0  0  0  0  0  0  0  0
    0.4637   -0.5266   -2.0934 H   0  0  0  0  0  0  0  0  0  0  0  0
    2.3548   -1.5261   -2.1615 C   0  0  0  0  0  0  0  0  0  0  0  0
    2.3609   -2.5545   -1.7849 H   0  0  0  0  0  0  0  0  0  0  0  0
    2.2199   -1.5543   -3.2469 H   0  0  0  0  0  0  0  0  0  0  0  0
    3.3258   -1.0670   -1.9474 H   0  0  0  0  0  0  0  0  0  0  0  0
  1  2  1  0  0  0  0
  2  3  1  0  0  0  0
  2  4  1  0  0  0  0
  2  5  1  0  0  0  0
  5  6  2  0  0  0  0
  5  7  1  0  0  0  0
  7  8  1  0  0  0  0
  7  9  1  0  0  0  0
  9 10  1  0  0  0  0
  9 11  1  0  0  0  0
  9 19  1  0  0  0  0
 11 12  1  0  0  0  0
 11 13  1  0  0  0  0
 11 14  1  0  0  0  0
 14 15  2  0  0  0  0
 14 16  1  0  0  0  0
 16 17  1  0  0  0  0
 16 18  1  0  0  0  0
 19 20  2  0  0  0  0
 19 21  1  0  0  0  0
 21 22  1  0  0  0  0
 21 23  1  0  0  0  0
 23 24  1  0  0  0  0
 23 25  1  0  0  0  0
 23 26  1  0  0  0  0
M  END
$$$$

  -OEChem-01062216063D

 26 25  0     1  0  0  0  0  0999 V2000
   -3.0914   -3.1513    1.1229 H   0  0  0  0  0  0  0  0  0  0  0  0
   -3.0245   -2.1251    0.7503 C   0  0  0  0  0  0  0  0  0  0  0  0
   -3.6643   -1.4860    1.3633 H   0  0  0  0  0  0  0  0  0  0  0  0
   -3.3795   -2.1032   -0.2827 H   0  0  0  0  0  0  0  0  0  0  0  0
   -1.5891   -1.6374    0.8165 C   0  0  0  0  0  0  0  0  0  0  0  0
   -0.7347   -2.3686    1.2799 O   0  0  0  0  0  0  0  0  0  0  0  0
   -1.2953   -0.3559    0.3864 N   0  0  0  0  0  0  0  0  0  0  0  0
   -2.0921    0.2022    0.0902 H   0  0  0  0  0  0  0  0  0  0  0  0
    0.0281    0.3026    0.3700 C   0  0  1  0  0  0  0  0  0  0  0  0
   -0.0201    1.1764   -0.2877 H   0  0  0  0  0  0  0  0  0  0  0  0
    0.3345    0.7859    1.8036 C   0  0  0  0  0  0  0  0  0  0  0  0
    0.2230   -0.0445    2.5067 H   0  0  0  0  0  0  0  0  0  0  0  0
    1.3712    1.1294    1.8650 H   0  0  0  0  0  0  0  0  0  0  0  0
   -0.5577    1.9447    2.2166 C   0  0  0  0  0  0  0  0  0  0  0  0
   -0.8228    2.8629    1.4614 O   0  0  0  0  0  0  0  0  0  0  0  0
   -1.1176    2.0095    3.4604 N   0  0  0  0  0  0  0  0  0  0  0  0
   -1.5316    2.9011    3.7164 H   0  0  0  0  0  0  0  0  0  0  0  0
   -0.7693    1.3844    4.1806 H   0  0  0  0  0  0  0  0  0  0  0  0
    1.1890   -0.5702   -0.1783 C   0  0  0  0  0  0  0  0  0  0  0  0
    2.0316   -1.0667    0.5595 O   0  0  0  0  0  0  0  0  0  0  0  0
    1.4631   -0.5333   -1.5348 N   0  0  0  0  0  0  0  0  0  0  0  0
    0.7695   -0.1075   -2.1410 H   0  0  0  0  0  0  0  0  0  0  0  0
    2.5972   -1.2218   -2.1404 C   0  0  0  0  0  0  0  0  0  0  0  0
    2.5293   -2.3001   -1.9612 H   0  0  0  0  0  0  0  0  0  0  0  0
    2.6120   -1.0498   -3.2209 H   0  0  0  0  0  0  0  0  0  0  0  0
    3.5389   -0.8531   -1.7202 H   0  0  0  0  0  0  0  0  0  0  0  0
  1  2  1  0  0  0  0
  2  3  1  0  0  0  0
  2  4  1  0  0  0  0
  2  5  1  0  0  0  0
  5  6  2  0  0  0  0
  5  7  1  0  0  0  0
  7  8  1  0  0  0  0
  7  9  1  0  0  0  0
  9 10  1  0  0  0  0
  9 11  1  0  0  0  0
  9 19  1  0  0  0  0
 11 12  1  0  0  0  0
 11 13  1  0  0  0  0
 11 14  1  0  0  0  0
 14 15  2  0  0  0  0
 14 16  1  0  0  0  0
 16 17  1  0  0  0  0
 16 18  1  0  0  0  0
 19 20  2  0  0  0  0
 19 21  1  0  0  0  0
 21 22  1  0  0  0  0
 21 23  1  0  0  0  0
 23 24  1  0  0  0  0
 23 25  1  0  0  0  0
 23 26  1  0  0  0  0
M  END
$$$$

  -OEChem-01062216063D

 26 25  0     1  0  0  0  0  0999 V2000
   -3.1283   -3.1609    1.1026 H   0  0  0  0  0  0  0  0  0  0  0  0
   -3.0502   -2.1369    0.7259 C   0  0  0  0  0  0  0  0  0  0  0  0
   -3.7198   -1.4966    1.3053 H   0  0  0  0  0  0  0  0  0  0  0  0
   -3.3592   -2.1242   -0.3220 H   0  0  0  0  0  0  0  0  0  0  0  0
   -1.6214   -1.6412    0.8517 C   0  0  0  0  0  0  0  0  0  0  0  0
   -0.7959   -2.3510    1.3927 O   0  0  0  0  0  0  0  0  0  0  0  0
   -1.3152   -0.3682    0.4053 N   0  0  0  0  0  0  0  0  0  0  0  0
   -2.0996    0.1651    0.0398 H   0  0  0  0  0  0  0  0  0  0  0  0
    0.0116    0.2830    0.3631 C   0  0  1  0  0  0  0  0  0  0  0  0
   -0.0513    1.1547   -0.2961 H   0  0  0  0  0  0  0  0  0  0  0  0
    0.3475    0.7715    1.7872 C   0  0  0  0  0  0  0  0  0  0  0  0
    0.2416   -0.0544    2.4967 H   0  0  0  0  0  0  0  0  0  0  0  0
    1.3883    1.1054    1.8274 H   0  0  0  0  0  0  0  0  0  0  0  0
   -0.5295    1.9379    2.2109 C   0  0  0  0  0  0  0  0  0  0  0  0
   -0.8018    2.8535    1.4546 O   0  0  0  0  0  0  0  0  0  0  0  0
   -1.0624    2.0142    3.4657 N   0  0  0  0  0  0  0  0  0  0  0  0
   -1.4720    2.9064    3.7261 H   0  0  0  0  0  0  0  0  0  0  0  0
   -0.7147    1.3824    4.1805 H   0  0  0  0  0  0  0  0  0  0  0  0
    1.1769   -0.5822   -0.1883 C   0  0  0  0  0  0  0  0  0  0  0  0
    1.8877   -1.2601    0.5423 O   0  0  0  0  0  0  0  0  0  0  0  0
    1.6446   -0.3249   -1.4662 N   0  0  0  0  0  0  0  0  0  0  0  0
    1.0934    0.2912   -2.0552 H   0  0  0  0  0  0  0  0  0  0  0  0
    2.8393   -0.9480   -2.0250 C   0  0  0  0  0  0  0  0  0  0  0  0
    2.7243   -2.0365   -2.0554 H   0  0  0  0  0  0  0  0  0  0  0  0
    3.0119   -0.5892   -3.0441 H   0  0  0  0  0  0  0  0  0  0  0  0
    3.7184   -0.7035   -1.4195 H   0  0  0  0  0  0  0  0  0  0  0  0
  1  2  1  0  0  0  0
  2  3  1  0  0  0  0
  2  4  1  0  0  0  0
  2  5  1  0  0  0  0
  5  6  2  0  0  0  0
  5  7  1  0  0  0  0
  7  8  1  0  0  0  0
  7  9  1  0  0  0  0
  9 10  1  0  0  0  0
  9 11  1  0  0  0  0
  9 19  1  0  0  0  0
 11 12  1  0  0  0  0
 11 13  1  0  0  0  0
 11 14  1  0  0  0  0
 14 15  2  0  0  0  0
 14 16  1  0  0  0  0
 16 17  1  0  0  0  0
 16 18  1  0  0  0  0
 19 20  2  0  0  0  0
 19 21  1  0  0  0  0
 21 22  1  0  0  0  0
 21 23  1  0  0  0  0
 23 24  1  0  0  0  0
 23 25  1  0  0  0  0
 23 26  1  0  0  0  0
M  END
$$$$

  -OEChem-01062216063D

 26 25  0     1  0  0  0  0  0999 V2000
   -3.0460   -3.1922    1.0452 H   0  0  0  0  0  0  0  0  0  0  0  0
   -2.9655   -2.1911    0.6117 C   0  0  0  0  0  0  0  0  0  0  0  0
   -3.7806   -1.5739    0.9970 H   0  0  0  0  0  0  0  0  0  0  0  0
   -3.0583   -2.2717   -0.4738 H   0  0  0  0  0  0  0  0  0  0  0  0
   -1.6286   -1.5710    0.9738 C   0  0  0  0  0  0  0  0  0  0  0  0
   -0.9195   -2.1349    1.7861 O   0  0  0  0  0  0  0  0  0  0  0  0
   -1.3306   -0.3048    0.5005 N   0  0  0  0  0  0  0  0  0  0  0  0
   -2.0536    0.1003   -0.0873 H   0  0  0  0  0  0  0  0  0  0  0  0
    0.0059    0.3247    0.4055 C   0  0  1  0  0  0  0  0  0  0  0  0
   -0.0765    1.1934   -0.2553 H   0  0  0  0  0  0  0  0  0  0  0  0
    0.4219    0.8153    1.8069 C   0  0  0  0  0  0  0  0  0  0  0  0
    0.3413    0.0002    2.5310 H   0  0  0  0  0  0  0  0  0  0  0  0
    1.4687    1.1308    1.7923 H   0  0  0  0  0  0  0  0  0  0  0  0
   -0.4103    2.0011    2.2656 C   0  0  0  0  0  0  0  0  0  0  0  0
   -0.7018    2.9170    1.5163 O   0  0  0  0  0  0  0  0  0  0  0  0
   -0.8998    2.0784    3.5378 N   0  0  0  0  0  0  0  0  0  0  0  0
   -1.5904    2.8015    3.7143 H   0  0  0  0  0  0  0  0  0  0  0  0
   -0.8617    1.2498    4.1240 H   0  0  0  0  0  0  0  0  0  0  0  0
    1.1457   -0.5532   -0.1774 C   0  0  0  0  0  0  0  0  0  0  0  0
    1.6118   -1.5170    0.4106 O   0  0  0  0  0  0  0  0  0  0  0  0
    1.7945   -0.1287   -1.3252 N   0  0  0  0  0  0  0  0  0  0  0  0
    1.4700    0.7276   -1.7638 H   0  0  0  0  0  0  0  0  0  0  0  0
    2.9667   -0.7984   -1.8789 C   0  0  0  0  0  0  0  0  0  0  0  0
    2.7501   -1.8543   -2.0726 H   0  0  0  0  0  0  0  0  0  0  0  0
    3.2603   -0.3291   -2.8227 H   0  0  0  0  0  0  0  0  0  0  0  0
    3.8094   -0.7341   -1.1826 H   0  0  0  0  0  0  0  0  0  0  0  0
  1  2  1  0  0  0  0
  2  3  1  0  0  0  0
  2  4  1  0  0  0  0
  2  5  1  0  0  0  0
  5  6  2  0  0  0  0
  5  7  1  0  0  0  0
  7  8  1  0  0  0  0
  7  9  1  0  0  0  0
  9 10  1  0  0  0  0
  9 11  1  0  0  0  0
  9 19  1  0  0  0  0
 11 12  1  0  0  0  0
 11 13  1  0  0  0  0
 11 14  1  0  0  0  0
 14 15  2  0  0  0  0
 14 16  1  0  0  0  0
 16 17  1  0  0  0  0
 16 18  1  0  0  0  0
 19 20  2  0  0  0  0
 19 21  1  0  0  0  0
 21 22  1  0  0  0  0
 21 23  1  0  0  0  0
 23 24  1  0  0  0  0
 23 25  1  0  0  0  0
 23 26  1  0  0  0  0
M  END
$$$$

  -OEChem-01062216063D

 26 25  0     1  0  0  0  0  0999 V2000
   -2.9026   -3.2541    0.9970 H   0  0  0  0  0  0  0  0  0  0  0  0
   -2.8213   -2.2791    0.5080 C   0  0  0  0  0  0  0  0  0  0  0  0
   -3.7342   -1.7102    0.6996 H   0  0  0  0  0  0  0  0  0  0  0  0
   -2.7139   -2.4362   -0.5680 H   0  0  0  0  0  0  0  0  0  0  0  0
   -1.6172   -1.5270    1.0434 C   0  0  0  0  0  0  0  0  0  0  0  0
   -1.0242   -1.9664    2.0147 O   0  0  0  0  0  0  0  0  0  0  0  0
   -1.3452   -0.2565    0.5645 N   0  0  0  0  0  0  0  0  0  0  0  0
   -2.0012    0.0491   -0.1483 H   0  0  0  0  0  0  0  0  0  0  0  0
    0.0020    0.3514    0.4722 C   0  0  1  0  0  0  0  0  0  0  0  0
   -0.0772    1.2122   -0.1991 H   0  0  0  0  0  0  0  0  0  0  0  0
    0.4341    0.8555    1.8638 C   0  0  0  0  0  0  0  0  0  0  0  0
    0.3467    0.0574    2.6046 H   0  0  0  0  0  0  0  0  0  0  0  0
    1.4851    1.1554    1.8381 H   0  0  0  0  0  0  0  0  0  0  0  0
   -0.3756    2.0636    2.3053 C   0  0  0  0  0  0  0  0  0  0  0  0
   -0.6518    2.9708    1.5400 O   0  0  0  0  0  0  0  0  0  0  0  0
   -0.8878    2.1571    3.5670 N   0  0  0  0  0  0  0  0  0  0  0  0
   -1.5907    2.8765    3.7064 H   0  0  0  0  0  0  0  0  0  0  0  0
   -0.9023    1.3175    4.1385 H   0  0  0  0  0  0  0  0  0  0  0  0
    1.1358   -0.5332   -0.1123 C   0  0  0  0  0  0  0  0  0  0  0  0
    1.2373   -1.7308    0.1048 O   0  0  0  0  0  0  0  0  0  0  0  0
    1.9947    0.0248   -1.0442 N   0  0  0  0  0  0  0  0  0  0  0  0
    1.9154    1.0217   -1.2232 H   0  0  0  0  0  0  0  0  0  0  0  0
    3.0593   -0.7234   -1.7038 C   0  0  0  0  0  0  0  0  0  0  0  0
    2.6421   -1.5534   -2.2837 H   0  0  0  0  0  0  0  0  0  0  0  0
    3.6142   -0.0712   -2.3851 H   0  0  0  0  0  0  0  0  0  0  0  0
    3.7590   -1.1271   -0.9643 H   0  0  0  0  0  0  0  0  0  0  0  0
  1  2  1  0  0  0  0
  2  3  1  0  0  0  0
  2  4  1  0  0  0  0
  2  5  1  0  0  0  0
  5  6  2  0  0  0  0
  5  7  1  0  0  0  0
  7  8  1  0  0  0  0
  7  9  1  0  0  0  0
  9 10  1  0  0  0  0
  9 11  1  0  0  0  0
  9 19  1  0  0  0  0
 11 12  1  0  0  0  0
 11 13  1  0  0  0  0
 11 14  1  0  0  0  0
 14 15  2  0  0  0  0
 14 16  1  0  0  0  0
 16 17  1  0  0  0  0
 16 18  1  0  0  0  0
 19 20  2  0  0  0  0
 19 21  1  0  0  0  0
 21 22  1  0  0  0  0
 21 23  1  0  0  0  0
 23 24  1  0  0  0  0
 23 25  1  0  0  0  0
 23 26  1  0  0  0  0
M  END
$$$$

  -OEChem-01062216063D

 26 25  0     1  0  0  0  0  0999 V2000
   -2.8965   -3.2607    1.0135 H   0  0  0  0  0  0  0  0  0  0  0  0
   -2.8146   -2.2904    0.5155 C   0  0  0  0  0  0  0  0  0  0  0  0
   -3.7283   -1.7204    0.6990 H   0  0  0  0  0  0  0  0  0  0  0  0
   -2.7037   -2.4574   -0.5586 H   0  0  0  0  0  0  0  0  0  0  0  0
   -1.6115   -1.5327    1.0448 C   0  0  0  0  0  0  0  0  0  0  0  0
   -0.9942   -1.9769    2.0001 O   0  0  0  0  0  0  0  0  0  0  0  0
   -1.3422   -0.2618    0.5649 N   0  0  0  0  0  0  0  0  0  0  0  0
   -1.9828    0.0333   -0.1661 H   0  0  0  0  0  0  0  0  0  0  0  0
    0.0094    0.3380    0.4914 C   0  0  1  0  0  0  0  0  0  0  0  0
   -0.0543    1.1917   -0.1913 H   0  0  0  0  0  0  0  0  0  0  0  0
    0.4194    0.8550    1.8864 C   0  0  0  0  0  0  0  0  0  0  0  0
    0.3129    0.0662    2.6342 H   0  0  0  0  0  0  0  0  0  0  0  0
    1.4720    1.1497    1.8792 H   0  0  0  0  0  0  0  0  0  0  0  0
   -0.3906    2.0723    2.3022 C   0  0  0  0  0  0  0  0  0  0  0  0
   -0.6478    2.9734    1.5236 O   0  0  0  0  0  0  0  0  0  0  0  0
   -0.9047    2.1914    3.5612 N   0  0  0  0  0  0  0  0  0  0  0  0
   -1.5983    2.9220    3.6889 H   0  0  0  0  0  0  0  0  0  0  0  0
   -0.9276    1.3629    4.1484 H   0  0  0  0  0  0  0  0  0  0  0  0
    1.1485   -0.5523   -0.0752 C   0  0  0  0  0  0  0  0  0  0  0  0
    1.0446   -1.7634   -0.2109 O   0  0  0  0  0  0  0  0  0  0  0  0
    2.1962    0.0694   -0.7338 N   0  0  0  0  0  0  0  0  0  0  0  0
    2.2496    1.0828   -0.6850 H   0  0  0  0  0  0  0  0  0  0  0  0
    3.2428   -0.6545   -1.4470 C   0  0  0  0  0  0  0  0  0  0  0  0
    2.8185   -1.2100   -2.2899 H   0  0  0  0  0  0  0  0  0  0  0  0
    3.9898    0.0448   -1.8345 H   0  0  0  0  0  0  0  0  0  0  0  0
    3.7452   -1.3602   -0.7769 H   0  0  0  0  0  0  0  0  0  0  0  0
  1  2  1  0  0  0  0
  2  3  1  0  0  0  0
  2  4  1  0  0  0  0
  2  5  1  0  0  0  0
  5  6  2  0  0  0  0
  5  7  1  0  0  0  0
  7  8  1  0  0  0  0
  7  9  1  0  0  0  0
  9 10  1  0  0  0  0
  9 11  1  0  0  0  0
  9 19  1  0  0  0  0
 11 12  1  0  0  0  0
 11 13  1  0  0  0  0
 11 14  1  0  0  0  0
 14 15  2  0  0  0  0
 14 16  1  0  0  0  0
 16 17  1  0  0  0  0
 16 18  1  0  0  0  0
 19 20  2  0  0  0  0
 19 21  1  0  0  0  0
 21 22  1  0  0  0  0
 21 23  1  0  0  0  0
 23 24  1  0  0  0  0
 23 25  1  0  0  0  0
 23 26  1  0  0  0  0
M  END
$$$$

  -OEChem-01062216063D

 26 25  0     1  0  0  0  0  0999 V2000
   -2.8956   -3.2480    1.0377 H   0  0  0  0  0  0  0  0  0  0  0  0
   -2.8158   -2.2786    0.5377 C   0  0  0  0  0  0  0  0  0  0  0  0
   -3.7196   -1.6997    0.7417 H   0  0  0  0  0  0  0  0  0  0  0  0
   -2.7312   -2.4463   -0.5387 H   0  0  0  0  0  0  0  0  0  0  0  0
   -1.5936   -1.5319    1.0382 C   0  0  0  0  0  0  0  0  0  0  0  0
   -0.9310   -2.0018    1.9506 O   0  0  0  0  0  0  0  0  0  0  0  0
   -1.3313   -0.2579    0.5627 N   0  0  0  0  0  0  0  0  0  0  0  0
   -1.9728    0.0420   -0.1657 H   0  0  0  0  0  0  0  0  0  0  0  0
    0.0198    0.3431    0.5011 C   0  0  1  0  0  0  0  0  0  0  0  0
   -0.0296    1.1957   -0.1843 H   0  0  0  0  0  0  0  0  0  0  0  0
    0.4080    0.8601    1.9044 C   0  0  0  0  0  0  0  0  0  0  0  0
    0.2905    0.0711    2.6503 H   0  0  0  0  0  0  0  0  0  0  0  0
    1.4592    1.1581    1.9177 H   0  0  0  0  0  0  0  0  0  0  0  0
   -0.4121    2.0753    2.3083 C   0  0  0  0  0  0  0  0  0  0  0  0
   -0.6596    2.9761    1.5269 O   0  0  0  0  0  0  0  0  0  0  0  0
   -0.9508    2.1906    3.5575 N   0  0  0  0  0  0  0  0  0  0  0  0
   -1.6489    2.9191    3.6728 H   0  0  0  0  0  0  0  0  0  0  0  0
   -0.9803    1.3629    4.1451 H   0  0  0  0  0  0  0  0  0  0  0  0
    1.1498   -0.5611   -0.0621 C   0  0  0  0  0  0  0  0  0  0  0  0
    0.9326   -1.6929   -0.4756 O   0  0  0  0  0  0  0  0  0  0  0  0
    2.3473    0.0280   -0.4334 N   0  0  0  0  0  0  0  0  0  0  0  0
    2.4878    1.0044   -0.1916 H   0  0  0  0  0  0  0  0  0  0  0  0
    3.4020   -0.6746   -1.1561 C   0  0  0  0  0  0  0  0  0  0  0  0
    3.0515   -0.9754   -2.1490 H   0  0  0  0  0  0  0  0  0  0  0  0
    4.2738   -0.0249   -1.2792 H   0  0  0  0  0  0  0  0  0  0  0  0
    3.7131   -1.5694   -0.6064 H   0  0  0  0  0  0  0  0  0  0  0  0
  1  2  1  0  0  0  0
  2  3  1  0  0  0  0
  2  4  1  0  0  0  0
  2  5  1  0  0  0  0
  5  6  2  0  0  0  0
  5  7  1  0  0  0  0
  7  8  1  0  0  0  0
  7  9  1  0  0  0  0
  9 10  1  0  0  0  0
  9 11  1  0  0  0  0
  9 19  1  0  0  0  0
 11 12  1  0  0  0  0
 11 13  1  0  0  0  0
 11 14  1  0  0  0  0
 14 15  2  0  0  0  0
 14 16  1  0  0  0  0
 16 17  1  0  0  0  0
 16 18  1  0  0  0  0
 19 20  2  0  0  0  0
 19 21  1  0  0  0  0
 21 22  1  0  0  0  0
 21 23  1  0  0  0  0
 23 24  1  0  0  0  0
 23 25  1  0  0  0  0
 23 26  1  0  0  0  0
M  END
$$$$

  -OEChem-01062216063D

 26 25  0     1  0  0  0  0  0999 V2000
   -2.8734   -3.2815    0.9100 H   0  0  0  0  0  0  0  0  0  0  0  0
   -2.8384   -2.2568    0.5298 C   0  0  0  0  0  0  0  0  0  0  0  0
   -3.6896   -1.7015    0.9303 H   0  0  0  0  0  0  0  0  0  0  0  0
   -2.9092   -2.2858   -0.5604 H   0  0  0  0  0  0  0  0  0  0  0  0
   -1.5402   -1.5892    0.9434 C   0  0  0  0  0  0  0  0  0  0  0  0
   -0.7640   -2.1913    1.6690 O   0  0  0  0  0  0  0  0  0  0  0  0
   -1.2923   -0.2900    0.5327 N   0  0  0  0  0  0  0  0  0  0  0  0
   -1.9739    0.0735   -0.1274 H   0  0  0  0  0  0  0  0  0  0  0  0
    0.0385    0.3559    0.5091 C   0  0  1  0  0  0  0  0  0  0  0  0
   -0.0835    1.3452    0.0553 H   0  0  0  0  0  0  0  0  0  0  0  0
    0.5960    0.5578    1.9401 C   0  0  0  0  0  0  0  0  0  0  0  0
    0.5985   -0.3756    2.5036 H   0  0  0  0  0  0  0  0  0  0  0  0
    1.6327    0.8973    1.8925 H   0  0  0  0  0  0  0  0  0  0  0  0
   -0.1786    1.6199    2.7037 C   0  0  0  0  0  0  0  0  0  0  0  0
   -0.5308    2.6639    2.1855 O   0  0  0  0  0  0  0  0  0  0  0  0
   -0.5618    1.4277    3.9997 N   0  0  0  0  0  0  0  0  0  0  0  0
   -1.2478    2.0846    4.3595 H   0  0  0  0  0  0  0  0  0  0  0  0
   -0.5150    0.4861    4.3776 H   0  0  0  0  0  0  0  0  0  0  0  0
    1.0518   -0.3769   -0.4090 C   0  0  0  0  0  0  0  0  0  0  0  0
    0.6814   -1.2499   -1.1853 O   0  0  0  0  0  0  0  0  0  0  0  0
    2.3450    0.1005   -0.5406 N   0  0  0  0  0  0  0  0  0  0  0  0
    2.6247    0.8775    0.0499 H   0  0  0  0  0  0  0  0  0  0  0  0
    3.3183   -0.4628   -1.4691 C   0  0  0  0  0  0  0  0  0  0  0  0
    2.9683   -0.3594   -2.5016 H   0  0  0  0  0  0  0  0  0  0  0  0
    4.2763    0.0574   -1.3751 H   0  0  0  0  0  0  0  0  0  0  0  0
    3.4799   -1.5250   -1.2567 H   0  0  0  0  0  0  0  0  0  0  0  0
  1  2  1  0  0  0  0
  2  3  1  0  0  0  0
  2  4  1  0  0  0  0
  2  5  1  0  0  0  0
  5  6  2  0  0  0  0
  5  7  1  0  0  0  0
  7  8  1  0  0  0  0
  7  9  1  0  0  0  0
  9 10  1  0  0  0  0
  9 11  1  0  0  0  0
  9 19  1  0  0  0  0
 11 12  1  0  0  0  0
 11 13  1  0  0  0  0
 11 14  1  0  0  0  0
 14 15  2  0  0  0  0
 14 16  1  0  0  0  0
 16 17  1  0  0  0  0
 16 18  1  0  0  0  0
 19 20  2  0  0  0  0
 19 21  1  0  0  0  0
 21 22  1  0  0  0  0
 21 23  1  0  0  0  0
 23 24  1  0  0  0  0
 23 25  1  0  0  0  0
 23 26  1  0  0  0  0
M  END
$$$$

  -OEChem-01062216063D

 26 25  0     1  0  0  0  0  0999 V2000
   -2.8345   -3.2861    0.9093 H   0  0  0  0  0  0  0  0  0  0  0  0
   -2.8116   -2.2592    0.5338 C   0  0  0  0  0  0  0  0  0  0  0  0
   -3.6582   -1.7105    0.9533 H   0  0  0  0  0  0  0  0  0  0  0  0
   -2.9028   -2.2824   -0.5551 H   0  0  0  0  0  0  0  0  0  0  0  0
   -1.5093   -1.5867    0.9265 C   0  0  0  0  0  0  0  0  0  0  0  0
   -0.7024   -2.1981    1.6096 O   0  0  0  0  0  0  0  0  0  0  0  0
   -1.2788   -0.2804    0.5307 N   0  0  0  0  0  0  0  0  0  0  0  0
   -1.9658    0.0870   -0.1221 H   0  0  0  0  0  0  0  0  0  0  0  0
    0.0441    0.3806    0.5209 C   0  0  1  0  0  0  0  0  0  0  0  0
   -0.0786    1.3712    0.0701 H   0  0  0  0  0  0  0  0  0  0  0  0
    0.5806    0.5819    1.9611 C   0  0  0  0  0  0  0  0  0  0  0  0
    0.5873   -0.3546    2.5199 H   0  0  0  0  0  0  0  0  0  0  0  0
    1.6111    0.9397    1.9307 H   0  0  0  0  0  0  0  0  0  0  0  0
   -0.2173    1.6315    2.7189 C   0  0  0  0  0  0  0  0  0  0  0  0
   -0.5758    2.6740    2.2025 O   0  0  0  0  0  0  0  0  0  0  0  0
   -0.6089    1.4319    4.0114 N   0  0  0  0  0  0  0  0  0  0  0  0
   -1.3037    2.0813    4.3682 H   0  0  0  0  0  0  0  0  0  0  0  0
   -0.5514    0.4919    4.3910 H   0  0  0  0  0  0  0  0  0  0  0  0
    1.0500   -0.3515   -0.4068 C   0  0  0  0  0  0  0  0  0  0  0  0
    0.6390   -1.0398   -1.3344 O   0  0  0  0  0  0  0  0  0  0  0  0
    2.4101   -0.1007   -0.3365 N   0  0  0  0  0  0  0  0  0  0  0  0
    2.7425    0.4955    0.4144 H   0  0  0  0  0  0  0  0  0  0  0  0
    3.3855   -0.7155   -1.2294 C   0  0  0  0  0  0  0  0  0  0  0  0
    3.1850   -0.4340   -2.2686 H   0  0  0  0  0  0  0  0  0  0  0  0
    4.3961   -0.3853   -0.9709 H   0  0  0  0  0  0  0  0  0  0  0  0
    3.3460   -1.8069   -1.1457 H   0  0  0  0  0  0  0  0  0  0  0  0
  1  2  1  0  0  0  0
  2  3  1  0  0  0  0
  2  4  1  0  0  0  0
  2  5  1  0  0  0  0
  5  6  2  0  0  0  0
  5  7  1  0  0  0  0
  7  8  1  0  0  0  0
  7  9  1  0  0  0  0
  9 10  1  0  0  0  0
  9 11  1  0  0  0  0
  9 19  1  0  0  0  0
 11 12  1  0  0  0  0
 11 13  1  0  0  0  0
 11 14  1  0  0  0  0
 14 15  2  0  0  0  0
 14 16  1  0  0  0  0
 16 17  1  0  0  0  0
 16 18  1  0  0  0  0
 19 20  2  0  0  0  0
 19 21  1  0  0  0  0
 21 22  1  0  0  0  0
 21 23  1  0  0  0  0
 23 24  1  0  0  0  0
 23 25  1  0  0  0  0
 23 26  1  0  0  0  0
M  END
$$$$

  -OEChem-01062216063D

 26 25  0     1  0  0  0  0  0999 V2000
   -2.7905   -3.2944    0.8934 H   0  0  0  0  0  0  0  0  0  0  0  0
   -2.7859   -2.2596    0.5400 C   0  0  0  0  0  0  0  0  0  0  0  0
   -3.6234   -1.7266    0.9964 H   0  0  0  0  0  0  0  0  0  0  0  0
   -2.9096   -2.2593   -0.5460 H   0  0  0  0  0  0  0  0  0  0  0  0
   -1.4779   -1.5856    0.9091 C   0  0  0  0  0  0  0  0  0  0  0  0
   -0.6437   -2.2033    1.5533 O   0  0  0  0  0  0  0  0  0  0  0  0
   -1.2630   -0.2740    0.5253 N   0  0  0  0  0  0  0  0  0  0  0  0
   -1.9603    0.1024   -0.1115 H   0  0  0  0  0  0  0  0  0  0  0  0
    0.0505    0.4021    0.5286 C   0  0  1  0  0  0  0  0  0  0  0  0
   -0.0760    1.3927    0.0787 H   0  0  0  0  0  0  0  0  0  0  0  0
    0.5720    0.6073    1.9734 C   0  0  0  0  0  0  0  0  0  0  0  0
    0.5852   -0.3310    2.5302 H   0  0  0  0  0  0  0  0  0  0  0  0
    1.5966    0.9833    1.9501 H   0  0  0  0  0  0  0  0  0  0  0  0
   -0.2462    1.6461    2.7253 C   0  0  0  0  0  0  0  0  0  0  0  0
   -0.6142    2.6852    2.2093 O   0  0  0  0  0  0  0  0  0  0  0  0
   -0.6475    1.4385    4.0134 N   0  0  0  0  0  0  0  0  0  0  0  0
   -1.3529    2.0796    4.3648 H   0  0  0  0  0  0  0  0  0  0  0  0
   -0.5812    0.4992    4.3928 H   0  0  0  0  0  0  0  0  0  0  0  0
    1.0542   -0.3256   -0.4038 C   0  0  0  0  0  0  0  0  0  0  0  0
    0.6507   -0.8135   -1.4535 O   0  0  0  0  0  0  0  0  0  0  0  0
    2.4172   -0.3270   -0.1602 N   0  0  0  0  0  0  0  0  0  0  0  0
    2.7305    0.0226    0.7389 H   0  0  0  0  0  0  0  0  0  0  0  0
    3.3786   -1.0131   -1.0152 C   0  0  0  0  0  0  0  0  0  0  0  0
    3.3439   -0.6094   -2.0326 H   0  0  0  0  0  0  0  0  0  0  0  0
    4.3928   -0.8804   -0.6264 H   0  0  0  0  0  0  0  0  0  0  0  0
    3.1591   -2.0854   -1.0534 H   0  0  0  0  0  0  0  0  0  0  0  0
  1  2  1  0  0  0  0
  2  3  1  0  0  0  0
  2  4  1  0  0  0  0
  2  5  1  0  0  0  0
  5  6  2  0  0  0  0
  5  7  1  0  0  0  0
  7  8  1  0  0  0  0
  7  9  1  0  0  0  0
  9 10  1  0  0  0  0
  9 11  1  0  0  0  0
  9 19  1  0  0  0  0
 11 12  1  0  0  0  0
 11 13  1  0  0  0  0
 11 14  1  0  0  0  0
 14 15  2  0  0  0  0
 14 16  1  0  0  0  0
 16 17  1  0  0  0  0
 16 18  1  0  0  0  0
 19 20  2  0  0  0  0
 19 21  1  0  0  0  0
 21 22  1  0  0  0  0
 21 23  1  0  0  0  0
 23 24  1  0  0  0  0
 23 25  1  0  0  0  0
 23 26  1  0  0  0  0
M  END
$$$$

  -OEChem-01062216063D

 26 25  0     1  0  0  0  0  0999 V2000
   -2.7623   -3.2986    0.8913 H   0  0  0  0  0  0  0  0  0  0  0  0
   -2.7681   -2.2608    0.5469 C   0  0  0  0  0  0  0  0  0  0  0  0
   -3.5991   -1.7353    1.0233 H   0  0  0  0  0  0  0  0  0  0  0  0
   -2.9120   -2.2518   -0.5364 H   0  0  0  0  0  0  0  0  0  0  0  0
   -1.4562   -1.5846    0.8980 C   0  0  0  0  0  0  0  0  0  0  0  0
   -0.6048   -2.2037    1.5183 O   0  0  0  0  0  0  0  0  0  0  0  0
   -1.2486   -0.2712    0.5182 N   0  0  0  0  0  0  0  0  0  0  0  0
   -1.9543    0.1146   -0.1040 H   0  0  0  0  0  0  0  0  0  0  0  0
    0.0590    0.4136    0.5333 C   0  0  1  0  0  0  0  0  0  0  0  0
   -0.0678    1.4032    0.0806 H   0  0  0  0  0  0  0  0  0  0  0  0
    0.5715    0.6248    1.9795 C   0  0  0  0  0  0  0  0  0  0  0  0
    0.5875   -0.3124    2.5381 H   0  0  0  0  0  0  0  0  0  0  0  0
    1.5944    1.0075    1.9551 H   0  0  0  0  0  0  0  0  0  0  0  0
   -0.2579    1.6593    2.7258 C   0  0  0  0  0  0  0  0  0  0  0  0
   -0.6312    2.6950    2.2073 O   0  0  0  0  0  0  0  0  0  0  0  0
   -0.6732    1.4479    4.0092 N   0  0  0  0  0  0  0  0  0  0  0  0
   -1.3844    2.0863    4.3539 H   0  0  0  0  0  0  0  0  0  0  0  0
   -0.6057    0.5096    4.3904 H   0  0  0  0  0  0  0  0  0  0  0  0
    1.0643   -0.3141   -0.3942 C   0  0  0  0  0  0  0  0  0  0  0  0
    0.7162   -0.5984   -1.5342 O   0  0  0  0  0  0  0  0  0  0  0  0
    2.3666   -0.5820   -0.0094 N   0  0  0  0  0  0  0  0  0  0  0  0
    2.5829   -0.4744    0.9762 H   0  0  0  0  0  0  0  0  0  0  0  0
    3.3005   -1.3254   -0.8465 C   0  0  0  0  0  0  0  0  0  0  0  0
    3.4479   -0.8147   -1.8040 H   0  0  0  0  0  0  0  0  0  0  0  0
    4.2710   -1.4085   -0.3482 H   0  0  0  0  0  0  0  0  0  0  0  0
    2.9213   -2.3345   -1.0398 H   0  0  0  0  0  0  0  0  0  0  0  0
  1  2  1  0  0  0  0
  2  3  1  0  0  0  0
  2  4  1  0  0  0  0
  2  5  1  0  0  0  0
  5  6  2  0  0  0  0
  5  7  1  0  0  0  0
  7  8  1  0  0  0  0
  7  9  1  0  0  0  0
  9 10  1  0  0  0  0
  9 11  1  0  0  0  0
  9 19  1  0  0  0  0
 11 12  1  0  0  0  0
 11 13  1  0  0  0  0
 11 14  1  0  0  0  0
 14 15  2  0  0  0  0
 14 16  1  0  0  0  0
 16 17  1  0  0  0  0
 16 18  1  0  0  0  0
 19 20  2  0  0  0  0
 19 21  1  0  0  0  0
 21 22  1  0  0  0  0
 21 23  1  0  0  0  0
 23 24  1  0  0  0  0
 23 25  1  0  0  0  0
 23 26  1  0  0  0  0
M  END
$$$$

  -OEChem-01062216063D

 26 25  0     1  0  0  0  0  0999 V2000
   -2.7644   -3.2929    0.9084 H   0  0  0  0  0  0  0  0  0  0  0  0
   -2.7716   -2.2543    0.5661 C   0  0  0  0  0  0  0  0  0  0  0  0
   -3.5850   -1.7232    1.0660 H   0  0  0  0  0  0  0  0  0  0  0  0
   -2.9451   -2.2419   -0.5128 H   0  0  0  0  0  0  0  0  0  0  0  0
   -1.4459   -1.5886    0.8835 C   0  0  0  0  0  0  0  0  0  0  0  0
   -0.5813   -2.2139    1.4792 O   0  0  0  0  0  0  0  0  0  0  0  0
   -1.2371   -0.2763    0.5017 N   0  0  0  0  0  0  0  0  0  0  0  0
   -1.9566    0.1283   -0.0924 H   0  0  0  0  0  0  0  0  0  0  0  0
    0.0669    0.4128    0.5264 C   0  0  1  0  0  0  0  0  0  0  0  0
   -0.0600    1.4013    0.0704 H   0  0  0  0  0  0  0  0  0  0  0  0
    0.5726    0.6281    1.9732 C   0  0  0  0  0  0  0  0  0  0  0  0
    0.5845   -0.3079    2.5340 H   0  0  0  0  0  0  0  0  0  0  0  0
    1.5972    1.0086    1.9478 H   0  0  0  0  0  0  0  0  0  0  0  0
   -0.2628    1.6606    2.7155 C   0  0  0  0  0  0  0  0  0  0  0  0
   -0.6384    2.6946    2.1954 O   0  0  0  0  0  0  0  0  0  0  0  0
   -0.6820    1.4493    3.9976 N   0  0  0  0  0  0  0  0  0  0  0  0
   -1.3921    2.0886    4.3426 H   0  0  0  0  0  0  0  0  0  0  0  0
   -0.6063    0.5146    4.3857 H   0  0  0  0  0  0  0  0  0  0  0  0
    1.0816   -0.3138   -0.3883 C   0  0  0  0  0  0  0  0  0  0  0  0
    0.8403   -0.3945   -1.5863 O   0  0  0  0  0  0  0  0  0  0  0  0
    2.2636   -0.8436    0.0990 N   0  0  0  0  0  0  0  0  0  0  0  0
    2.3200   -0.9533    1.1071 H   0  0  0  0  0  0  0  0  0  0  0  0
    3.1711   -1.6288   -0.7287 C   0  0  0  0  0  0  0  0  0  0  0  0
    3.5175   -1.0396   -1.5842 H   0  0  0  0  0  0  0  0  0  0  0  0
    4.0451   -1.9347   -0.1460 H   0  0  0  0  0  0  0  0  0  0  0  0
    2.6688   -2.5280   -1.1005 H   0  0  0  0  0  0  0  0  0  0  0  0
  1  2  1  0  0  0  0
  2  3  1  0  0  0  0
  2  4  1  0  0  0  0
  2  5  1  0  0  0  0
  5  6  2  0  0  0  0
  5  7  1  0  0  0  0
  7  8  1  0  0  0  0
  7  9  1  0  0  0  0
  9 10  1  0  0  0  0
  9 11  1  0  0  0  0
  9 19  1  0  0  0  0
 11 12  1  0  0  0  0
 11 13  1  0  0  0  0
 11 14  1  0  0  0  0
 14 15  2  0  0  0  0
 14 16  1  0  0  0  0
 16 17  1  0  0  0  0
 16 18  1  0  0  0  0
 19 20  2  0  0  0  0
 19 21  1  0  0  0  0
 21 22  1  0  0  0  0
 21 23  1  0  0  0  0
 23 24  1  0  0  0  0
 23 25  1  0  0  0  0
 23 26  1  0  0  0  0
M  END
$$$$

  -OEChem-01062216063D

 26 25  0     1  0  0  0  0  0999 V2000
   -2.7916   -3.2802    0.9438 H   0  0  0  0  0  0  0  0  0  0  0  0
   -2.7945   -2.2432    0.5968 C   0  0  0  0  0  0  0  0  0  0  0  0
   -3.5835   -1.6985    1.1207 H   0  0  0  0  0  0  0  0  0  0  0  0
   -3.0033   -2.2328   -0.4758 H   0  0  0  0  0  0  0  0  0  0  0  0
   -1.4496   -1.5959    0.8681 C   0  0  0  0  0  0  0  0  0  0  0  0
   -0.5738   -2.2321    1.4361 O   0  0  0  0  0  0  0  0  0  0  0  0
   -1.2319   -0.2872    0.4787 N   0  0  0  0  0  0  0  0  0  0  0  0
   -1.9693    0.1440   -0.0736 H   0  0  0  0  0  0  0  0  0  0  0  0
    0.0721    0.4009    0.5100 C   0  0  1  0  0  0  0  0  0  0  0  0
   -0.0510    1.3888    0.0510 H   0  0  0  0  0  0  0  0  0  0  0  0
    0.5735    0.6177    1.9572 C   0  0  0  0  0  0  0  0  0  0  0  0
    0.5795   -0.3174    2.5195 H   0  0  0  0  0  0  0  0  0  0  0  0
    1.6015    0.9900    1.9314 H   0  0  0  0  0  0  0  0  0  0  0  0
   -0.2621    1.6518    2.6971 C   0  0  0  0  0  0  0  0  0  0  0  0
   -0.6361    2.6860    2.1764 O   0  0  0  0  0  0  0  0  0  0  0  0
   -0.6768    1.4454    3.9817 N   0  0  0  0  0  0  0  0  0  0  0  0
   -1.3773    2.0915    4.3336 H   0  0  0  0  0  0  0  0  0  0  0  0
   -0.5906    0.5165    4.3811 H   0  0  0  0  0  0  0  0  0  0  0  0
    1.0980   -0.3285   -0.3871 C   0  0  0  0  0  0  0  0  0  0  0  0
    1.0228   -0.1959   -1.6016 O   0  0  0  0  0  0  0  0  0  0  0  0
    2.1057   -1.1068    0.1534 N   0  0  0  0  0  0  0  0  0  0  0  0
    1.9434   -1.4160    1.1089 H   0  0  0  0  0  0  0  0  0  0  0  0
    3.0057   -1.9011   -0.6736 C   0  0  0  0  0  0  0  0  0  0  0  0
    3.5522   -1.2593   -1.3726 H   0  0  0  0  0  0  0  0  0  0  0  0
    3.7340   -2.4223   -0.0451 H   0  0  0  0  0  0  0  0  0  0  0  0
    2.4428   -2.6460   -1.2457 H   0  0  0  0  0  0  0  0  0  0  0  0
  1  2  1  0  0  0  0
  2  3  1  0  0  0  0
  2  4  1  0  0  0  0
  2  5  1  0  0  0  0
  5  6  2  0  0  0  0
  5  7  1  0  0  0  0
  7  8  1  0  0  0  0
  7  9  1  0  0  0  0
  9 10  1  0  0  0  0
  9 11  1  0  0  0  0
  9 19  1  0  0  0  0
 11 12  1  0  0  0  0
 11 13  1  0  0  0  0
 11 14  1  0  0  0  0
 14 15  2  0  0  0  0
 14 16  1  0  0  0  0
 16 17  1  0  0  0  0
 16 18  1  0  0  0  0
 19 20  2  0  0  0  0
 19 21  1  0  0  0  0
 21 22  1  0  0  0  0
 21 23  1  0  0  0  0
 23 24  1  0  0  0  0
 23 25  1  0  0  0  0
 23 26  1  0  0  0  0
M  END
$$$$

  -OEChem-01062216063D

 26 25  0     1  0  0  0  0  0999 V2000
   -2.8600   -3.2559    0.9864 H   0  0  0  0  0  0  0  0  0  0  0  0
   -2.8458   -2.2210    0.6328 C   0  0  0  0  0  0  0  0  0  0  0  0
   -3.6040   -1.6527    1.1771 H   0  0  0  0  0  0  0  0  0  0  0  0
   -3.0877   -2.2111   -0.4330 H   0  0  0  0  0  0  0  0  0  0  0  0
   -1.4767   -1.6083    0.8592 C   0  0  0  0  0  0  0  0  0  0  0  0
   -0.6022   -2.2627    1.4090 O   0  0  0  0  0  0  0  0  0  0  0  0
   -1.2380   -0.3069    0.4577 N   0  0  0  0  0  0  0  0  0  0  0  0
   -1.9922    0.1553   -0.0448 H   0  0  0  0  0  0  0  0  0  0  0  0
    0.0691    0.3768    0.4858 C   0  0  1  0  0  0  0  0  0  0  0  0
   -0.0520    1.3641    0.0241 H   0  0  0  0  0  0  0  0  0  0  0  0
    0.5732    0.5928    1.9311 C   0  0  0  0  0  0  0  0  0  0  0  0
    0.5750   -0.3428    2.4929 H   0  0  0  0  0  0  0  0  0  0  0  0
    1.6042    0.9566    1.9019 H   0  0  0  0  0  0  0  0  0  0  0  0
   -0.2559    1.6301    2.6739 C   0  0  0  0  0  0  0  0  0  0  0  0
   -0.6277    2.6662    2.1554 O   0  0  0  0  0  0  0  0  0  0  0  0
   -0.6599    1.4291    3.9629 N   0  0  0  0  0  0  0  0  0  0  0  0
   -1.3451    2.0843    4.3280 H   0  0  0  0  0  0  0  0  0  0  0  0
   -0.5566    0.5079    4.3756 H   0  0  0  0  0  0  0  0  0  0  0  0
    1.1096   -0.3526   -0.3927 C   0  0  0  0  0  0  0  0  0  0  0  0
    1.2442   -0.0205   -1.5627 O   0  0  0  0  0  0  0  0  0  0  0  0
    1.9106   -1.3486    0.1343 N   0  0  0  0  0  0  0  0  0  0  0  0
    1.5370   -1.7858    0.9772 H   0  0  0  0  0  0  0  0  0  0  0  0
    2.8262   -2.1298   -0.6871 C   0  0  0  0  0  0  0  0  0  0  0  0
    3.5505   -1.4750   -1.1827 H   0  0  0  0  0  0  0  0  0  0  0  0
    3.3768   -2.8418   -0.0648 H   0  0  0  0  0  0  0  0  0  0  0  0
    2.2748   -2.6876   -1.4511 H   0  0  0  0  0  0  0  0  0  0  0  0
  1  2  1  0  0  0  0
  2  3  1  0  0  0  0
  2  4  1  0  0  0  0
  2  5  1  0  0  0  0
  5  6  2  0  0  0  0
  5  7  1  0  0  0  0
  7  8  1  0  0  0  0
  7  9  1  0  0  0  0
  9 10  1  0  0  0  0
  9 11  1  0  0  0  0
  9 19  1  0  0  0  0
 11 12  1  0  0  0  0
 11 13  1  0  0  0  0
 11 14  1  0  0  0  0
 14 15  2  0  0  0  0
 14 16  1  0  0  0  0
 16 17  1  0  0  0  0
 16 18  1  0  0  0  0
 19 20  2  0  0  0  0
 19 21  1  0  0  0  0
 21 22  1  0  0  0  0
 21 23  1  0  0  0  0
 23 24  1  0  0  0  0
 23 25  1  0  0  0  0
 23 26  1  0  0  0  0
M  END
$$$$

  -OEChem-01062216063D

 26 25  0     1  0  0  0  0  0999 V2000
   -2.9901   -3.2294    0.9960 H   0  0  0  0  0  0  0  0  0  0  0  0
   -2.9431   -2.1963    0.6403 C   0  0  0  0  0  0  0  0  0  0  0  0
   -3.6606   -1.5960    1.2051 H   0  0  0  0  0  0  0  0  0  0  0  0
   -3.2154   -2.1765   -0.4178 H   0  0  0  0  0  0  0  0  0  0  0  0
   -1.5434   -1.6409    0.8252 C   0  0  0  0  0  0  0  0  0  0  0  0
   -0.6828   -2.3330    1.3495 O   0  0  0  0  0  0  0  0  0  0  0  0
   -1.2680   -0.3485    0.4177 N   0  0  0  0  0  0  0  0  0  0  0  0
   -2.0367    0.1560   -0.0179 H   0  0  0  0  0  0  0  0  0  0  0  0
    0.0425    0.3328    0.4518 C   0  0  1  0  0  0  0  0  0  0  0  0
   -0.0774    1.3216   -0.0073 H   0  0  0  0  0  0  0  0  0  0  0  0
    0.5260    0.5379    1.9040 C   0  0  0  0  0  0  0  0  0  0  0  0
    0.5147   -0.4036    2.4566 H   0  0  0  0  0  0  0  0  0  0  0  0
    1.5589    0.8968    1.8925 H   0  0  0  0  0  0  0  0  0  0  0  0
   -0.3113    1.5729    2.6407 C   0  0  0  0  0  0  0  0  0  0  0  0
   -0.6729    2.6131    2.1232 O   0  0  0  0  0  0  0  0  0  0  0  0
   -0.7206    1.3740    3.9283 N   0  0  0  0  0  0  0  0  0  0  0  0
   -1.1333    2.1745    4.3982 H   0  0  0  0  0  0  0  0  0  0  0  0
   -0.3122    0.6163    4.4656 H   0  0  0  0  0  0  0  0  0  0  0  0
    1.1217   -0.3788   -0.3960 C   0  0  0  0  0  0  0  0  0  0  0  0
    1.4837    0.1240   -1.4508 O   0  0  0  0  0  0  0  0  0  0  0  0
    1.7174   -1.5475    0.0387 N   0  0  0  0  0  0  0  0  0  0  0  0
    1.2035   -2.0442    0.7703 H   0  0  0  0  0  0  0  0  0  0  0  0
    2.6658   -2.3010   -0.7710 C   0  0  0  0  0  0  0  0  0  0  0  0
    3.5231   -1.6747   -1.0397 H   0  0  0  0  0  0  0  0  0  0  0  0
    3.0347   -3.1661   -0.2116 H   0  0  0  0  0  0  0  0  0  0  0  0
    2.1875   -2.6575   -1.6892 H   0  0  0  0  0  0  0  0  0  0  0  0
  1  2  1  0  0  0  0
  2  3  1  0  0  0  0
  2  4  1  0  0  0  0
  2  5  1  0  0  0  0
  5  6  2  0  0  0  0
  5  7  1  0  0  0  0
  7  8  1  0  0  0  0
  7  9  1  0  0  0  0
  9 10  1  0  0  0  0
  9 11  1  0  0  0  0
  9 19  1  0  0  0  0
 11 12  1  0  0  0  0
 11 13  1  0  0  0  0
 11 14  1  0  0  0  0
 14 15  2  0  0  0  0
 14 16  1  0  0  0  0
 16 17  1  0  0  0  0
 16 18  1  0  0  0  0
 19 20  2  0  0  0  0
 19 21  1  0  0  0  0
 21 22  1  0  0  0  0
 21 23  1  0  0  0  0
 23 24  1  0  0  0  0
 23 25  1  0  0  0  0
 23 26  1  0  0  0  0
M  END
$$$$

  -OEChem-01062216063D

 26 25  0     1  0  0  0  0  0999 V2000
   -3.0963   -3.1788    1.0580 H   0  0  0  0  0  0  0  0  0  0  0  0
   -3.0170   -2.1560    0.6790 C   0  0  0  0  0  0  0  0  0  0  0  0
   -3.7089   -1.5200    1.2367 H   0  0  0  0  0  0  0  0  0  0  0  0
   -3.2983   -2.1501   -0.3769 H   0  0  0  0  0  0  0  0  0  0  0  0
   -1.5979   -1.6445    0.8403 C   0  0  0  0  0  0  0  0  0  0  0  0
   -0.7569   -2.3609    1.3622 O   0  0  0  0  0  0  0  0  0  0  0  0
   -1.2897   -0.3639    0.4184 N   0  0  0  0  0  0  0  0  0  0  0  0
   -2.0594    0.1609    0.0092 H   0  0  0  0  0  0  0  0  0  0  0  0
    0.0296    0.3060    0.4320 C   0  0  1  0  0  0  0  0  0  0  0  0
   -0.0896    1.2946   -0.0277 H   0  0  0  0  0  0  0  0  0  0  0  0
    0.5222    0.5054    1.8807 C   0  0  0  0  0  0  0  0  0  0  0  0
    0.5063   -0.4375    2.4309 H   0  0  0  0  0  0  0  0  0  0  0  0
    1.5583    0.8554    1.8649 H   0  0  0  0  0  0  0  0  0  0  0  0
   -0.3022    1.5483    2.6211 C   0  0  0  0  0  0  0  0  0  0  0  0
   -0.6572    2.5921    2.1061 O   0  0  0  0  0  0  0  0  0  0  0  0
   -0.7125    1.3505    3.9086 N   0  0  0  0  0  0  0  0  0  0  0  0
   -1.1145    2.1553    4.3805 H   0  0  0  0  0  0  0  0  0  0  0  0
   -0.3087    0.5891    4.4442 H   0  0  0  0  0  0  0  0  0  0  0  0
    1.1211   -0.4008   -0.4061 C   0  0  0  0  0  0  0  0  0  0  0  0
    1.6650    0.2124   -1.3140 O   0  0  0  0  0  0  0  0  0  0  0  0
    1.5197   -1.6964   -0.1411 N   0  0  0  0  0  0  0  0  0  0  0  0
    0.9502   -2.2102    0.5361 H   0  0  0  0  0  0  0  0  0  0  0  0
    2.4785   -2.4295   -0.9569 C   0  0  0  0  0  0  0  0  0  0  0  0
    3.4343   -1.8968   -0.9969 H   0  0  0  0  0  0  0  0  0  0  0  0
    2.6548   -3.4216   -0.5302 H   0  0  0  0  0  0  0  0  0  0  0  0
    2.0993   -2.5512   -1.9767 H   0  0  0  0  0  0  0  0  0  0  0  0
  1  2  1  0  0  0  0
  2  3  1  0  0  0  0
  2  4  1  0  0  0  0
  2  5  1  0  0  0  0
  5  6  2  0  0  0  0
  5  7  1  0  0  0  0
  7  8  1  0  0  0  0
  7  9  1  0  0  0  0
  9 10  1  0  0  0  0
  9 11  1  0  0  0  0
  9 19  1  0  0  0  0
 11 12  1  0  0  0  0
 11 13  1  0  0  0  0
 11 14  1  0  0  0  0
 14 15  2  0  0  0  0
 14 16  1  0  0  0  0
 16 17  1  0  0  0  0
 16 18  1  0  0  0  0
 19 20  2  0  0  0  0
 19 21  1  0  0  0  0
 21 22  1  0  0  0  0
 21 23  1  0  0  0  0
 23 24  1  0  0  0  0
 23 25  1  0  0  0  0
 23 26  1  0  0  0  0
M  END
$$$$

  -OEChem-01062216063D

 26 25  0     1  0  0  0  0  0999 V2000
   -3.1712   -3.1238    1.1495 H   0  0  0  0  0  0  0  0  0  0  0  0
   -3.0805   -2.1064    0.7582 C   0  0  0  0  0  0  0  0  0  0  0  0
   -3.7448   -1.4510    1.3269 H   0  0  0  0  0  0  0  0  0  0  0  0
   -3.3889   -2.1049   -0.2902 H   0  0  0  0  0  0  0  0  0  0  0  0
   -1.6472   -1.6234    0.8782 C   0  0  0  0  0  0  0  0  0  0  0  0
   -0.8081   -2.3526    1.3837 O   0  0  0  0  0  0  0  0  0  0  0  0
   -1.3236   -0.3533    0.4371 N   0  0  0  0  0  0  0  0  0  0  0  0
   -2.0959    0.1813    0.0461 H   0  0  0  0  0  0  0  0  0  0  0  0
    0.0063    0.2986    0.3998 C   0  0  1  0  0  0  0  0  0  0  0  0
   -0.1170    1.2878   -0.0573 H   0  0  0  0  0  0  0  0  0  0  0  0
    0.5568    0.4899    1.8282 C   0  0  0  0  0  0  0  0  0  0  0  0
    0.5539   -0.4543    2.3763 H   0  0  0  0  0  0  0  0  0  0  0  0
    1.5955    0.8286    1.7725 H   0  0  0  0  0  0  0  0  0  0  0  0
   -0.2211    1.5421    2.6037 C   0  0  0  0  0  0  0  0  0  0  0  0
   -0.5821    2.5927    2.1068 O   0  0  0  0  0  0  0  0  0  0  0  0
   -0.5874    1.3400    3.9038 N   0  0  0  0  0  0  0  0  0  0  0  0
   -1.2214    2.0197    4.3134 H   0  0  0  0  0  0  0  0  0  0  0  0
   -0.4636    0.4242    4.3232 H   0  0  0  0  0  0  0  0  0  0  0  0
    1.0743   -0.4159   -0.4641 C   0  0  0  0  0  0  0  0  0  0  0  0
    1.7854    0.2554   -1.1986 O   0  0  0  0  0  0  0  0  0  0  0  0
    1.2716   -1.7821   -0.4177 N   0  0  0  0  0  0  0  0  0  0  0  0
    0.7011   -2.3026    0.2529 H   0  0  0  0  0  0  0  0  0  0  0  0
    2.3018   -2.4837   -1.1718 C   0  0  0  0  0  0  0  0  0  0  0  0
    3.2957   -2.1125   -0.9008 H   0  0  0  0  0  0  0  0  0  0  0  0
    2.2620   -3.5558   -0.9559 H   0  0  0  0  0  0  0  0  0  0  0  0
    2.1528   -2.3416   -2.2472 H   0  0  0  0  0  0  0  0  0  0  0  0
  1  2  1  0  0  0  0
  2  3  1  0  0  0  0
  2  4  1  0  0  0  0
  2  5  1  0  0  0  0
  5  6  2  0  0  0  0
  5  7  1  0  0  0  0
  7  8  1  0  0  0  0
  7  9  1  0  0  0  0
  9 10  1  0  0  0  0
  9 11  1  0  0  0  0
  9 19  1  0  0  0  0
 11 12  1  0  0  0  0
 11 13  1  0  0  0  0
 11 14  1  0  0  0  0
 14 15  2  0  0  0  0
 14 16  1  0  0  0  0
 16 17  1  0  0  0  0
 16 18  1  0  0  0  0
 19 20  2  0  0  0  0
 19 21  1  0  0  0  0
 21 22  1  0  0  0  0
 21 23  1  0  0  0  0
 23 24  1  0  0  0  0
 23 25  1  0  0  0  0
 23 26  1  0  0  0  0
M  END
$$$$

  -OEChem-01062216063D

 26 25  0     1  0  0  0  0  0999 V2000
   -3.2428   -3.1061    1.1682 H   0  0  0  0  0  0  0  0  0  0  0  0
   -3.1464   -2.0867    0.7837 C   0  0  0  0  0  0  0  0  0  0  0  0
   -3.7568   -1.4206    1.3984 H   0  0  0  0  0  0  0  0  0  0  0  0
   -3.5157   -2.0625   -0.2447 H   0  0  0  0  0  0  0  0  0  0  0  0
   -1.6955   -1.6448    0.8239 C   0  0  0  0  0  0  0  0  0  0  0  0
   -0.8437   -2.4130    1.2422 O   0  0  0  0  0  0  0  0  0  0  0  0
   -1.3652   -0.3724    0.3958 N   0  0  0  0  0  0  0  0  0  0  0  0
   -2.1488    0.2002    0.0901 H   0  0  0  0  0  0  0  0  0  0  0  0
   -0.0323    0.2745    0.3673 C   0  0  1  0  0  0  0  0  0  0  0  0
   -0.1524    1.2686   -0.0794 H   0  0  0  0  0  0  0  0  0  0  0  0
    0.4997    0.4465    1.8053 C   0  0  0  0  0  0  0  0  0  0  0  0
    0.4798   -0.5056    2.3398 H   0  0  0  0  0  0  0  0  0  0  0  0
    1.5417    0.7779    1.7702 H   0  0  0  0  0  0  0  0  0  0  0  0
   -0.2853    1.4941    2.5808 C   0  0  0  0  0  0  0  0  0  0  0  0
   -0.6347    2.5515    2.0900 O   0  0  0  0  0  0  0  0  0  0  0  0
   -0.6464    1.2953    3.8828 N   0  0  0  0  0  0  0  0  0  0  0  0
   -0.9947    2.1121    4.3763 H   0  0  0  0  0  0  0  0  0  0  0  0
   -0.2159    0.5337    4.3970 H   0  0  0  0  0  0  0  0  0  0  0  0
    1.0523   -0.4185   -0.4952 C   0  0  0  0  0  0  0  0  0  0  0  0
    1.9260    0.2725   -1.0013 O   0  0  0  0  0  0  0  0  0  0  0  0
    1.0817   -1.7828   -0.7102 N   0  0  0  0  0  0  0  0  0  0  0  0
    0.4591   -2.3371   -0.1189 H   0  0  0  0  0  0  0  0  0  0  0  0
    2.1571   -2.4615   -1.4220 C   0  0  0  0  0  0  0  0  0  0  0  0
    3.1125   -2.3074   -0.9098 H   0  0  0  0  0  0  0  0  0  0  0  0
    1.9578   -3.5362   -1.4701 H   0  0  0  0  0  0  0  0  0  0  0  0
    2.2395   -2.0803   -2.4452 H   0  0  0  0  0  0  0  0  0  0  0  0
  1  2  1  0  0  0  0
  2  3  1  0  0  0  0
  2  4  1  0  0  0  0
  2  5  1  0  0  0  0
  5  6  2  0  0  0  0
  5  7  1  0  0  0  0
  7  8  1  0  0  0  0
  7  9  1  0  0  0  0
  9 10  1  0  0  0  0
  9 11  1  0  0  0  0
  9 19  1  0  0  0  0
 11 12  1  0  0  0  0
 11 13  1  0  0  0  0
 11 14  1  0  0  0  0
 14 15  2  0  0  0  0
 14 16  1  0  0  0  0
 16 17  1  0  0  0  0
 16 18  1  0  0  0  0
 19 20  2  0  0  0  0
 19 21  1  0  0  0  0
 21 22  1  0  0  0  0
 21 23  1  0  0  0  0
 23 24  1  0  0  0  0
 23 25  1  0  0  0  0
 23 26  1  0  0  0  0
M  END
$$$$

  -OEChem-01062216063D

 26 25  0     1  0  0  0  0  0999 V2000
   -3.2308   -3.0863    1.2117 H   0  0  0  0  0  0  0  0  0  0  0  0
   -3.1445   -2.0645    0.8312 C   0  0  0  0  0  0  0  0  0  0  0  0
   -3.7135   -1.3980    1.4841 H   0  0  0  0  0  0  0  0  0  0  0  0
   -3.5687   -2.0272   -0.1754 H   0  0  0  0  0  0  0  0  0  0  0  0
   -1.6890   -1.6382    0.7970 C   0  0  0  0  0  0  0  0  0  0  0  0
   -0.8208   -2.4291    1.1282 O   0  0  0  0  0  0  0  0  0  0  0  0
   -1.3653   -0.3628    0.3741 N   0  0  0  0  0  0  0  0  0  0  0  0
   -2.1568    0.2329    0.1415 H   0  0  0  0  0  0  0  0  0  0  0  0
   -0.0313    0.2825    0.3498 C   0  0  1  0  0  0  0  0  0  0  0  0
   -0.1456    1.2794   -0.0916 H   0  0  0  0  0  0  0  0  0  0  0  0
    0.4910    0.4399    1.7939 C   0  0  0  0  0  0  0  0  0  0  0  0
    0.4650   -0.5181    2.3180 H   0  0  0  0  0  0  0  0  0  0  0  0
    1.5336    0.7705    1.7724 H   0  0  0  0  0  0  0  0  0  0  0  0
   -0.2978    1.4810    2.5734 C   0  0  0  0  0  0  0  0  0  0  0  0
   -0.6426    2.5437    2.0907 O   0  0  0  0  0  0  0  0  0  0  0  0
   -0.6707    1.2676    3.8698 N   0  0  0  0  0  0  0  0  0  0  0  0
   -1.0171    2.0821    4.3687 H   0  0  0  0  0  0  0  0  0  0  0  0
   -0.2346    0.5065    4.3803 H   0  0  0  0  0  0  0  0  0  0  0  0
    1.0550   -0.4069   -0.5152 C   0  0  0  0  0  0  0  0  0  0  0  0
    2.0472    0.2366   -0.8310 O   0  0  0  0  0  0  0  0  0  0  0  0
    0.9263   -1.7001   -0.9853 N   0  0  0  0  0  0  0  0  0  0  0  0
    0.2434   -2.2698   -0.4836 H   0  0  0  0  0  0  0  0  0  0  0  0
    1.9849   -2.3853   -1.7159 C   0  0  0  0  0  0  0  0  0  0  0  0
    2.8861   -2.4666   -1.0994 H   0  0  0  0  0  0  0  0  0  0  0  0
    1.6602   -3.3930   -1.9920 H   0  0  0  0  0  0  0  0  0  0  0  0
    2.2328   -1.8404   -2.6328 H   0  0  0  0  0  0  0  0  0  0  0  0
  1  2  1  0  0  0  0
  2  3  1  0  0  0  0
  2  4  1  0  0  0  0
  2  5  1  0  0  0  0
  5  6  2  0  0  0  0
  5  7  1  0  0  0  0
  7  8  1  0  0  0  0
  7  9  1  0  0  0  0
  9 10  1  0  0  0  0
  9 11  1  0  0  0  0
  9 19  1  0  0  0  0
 11 12  1  0  0  0  0
 11 13  1  0  0  0  0
 11 14  1  0  0  0  0
 14 15  2  0  0  0  0
 14 16  1  0  0  0  0
 16 17  1  0  0  0  0
 16 18  1  0  0  0  0
 19 20  2  0  0  0  0
 19 21  1  0  0  0  0
 21 22  1  0  0  0  0
 21 23  1  0  0  0  0
 23 24  1  0  0  0  0
 23 25  1  0  0  0  0
 23 26  1  0  0  0  0
M  END
$$$$

  -OEChem-01062216063D

 26 25  0     1  0  0  0  0  0999 V2000
   -3.1860   -3.0797    1.2438 H   0  0  0  0  0  0  0  0  0  0  0  0
   -3.1154   -2.0528    0.8736 C   0  0  0  0  0  0  0  0  0  0  0  0
   -3.6423   -1.3928    1.5671 H   0  0  0  0  0  0  0  0  0  0  0  0
   -3.5959   -1.9978   -0.1063 H   0  0  0  0  0  0  0  0  0  0  0  0
   -1.6614   -1.6343    0.7633 C   0  0  0  0  0  0  0  0  0  0  0  0
   -0.7789   -2.4395    1.0078 O   0  0  0  0  0  0  0  0  0  0  0  0
   -1.3509   -0.3533    0.3495 N   0  0  0  0  0  0  0  0  0  0  0  0
   -2.1486    0.2585    0.1908 H   0  0  0  0  0  0  0  0  0  0  0  0
   -0.0180    0.2939    0.3402 C   0  0  1  0  0  0  0  0  0  0  0  0
   -0.1267    1.2928   -0.0972 H   0  0  0  0  0  0  0  0  0  0  0  0
    0.4839    0.4394    1.7943 C   0  0  0  0  0  0  0  0  0  0  0  0
    0.4518   -0.5240    2.3086 H   0  0  0  0  0  0  0  0  0  0  0  0
    1.5258    0.7725    1.7947 H   0  0  0  0  0  0  0  0  0  0  0  0
   -0.3182    1.4727    2.5698 C   0  0  0  0  0  0  0  0  0  0  0  0
   -0.6575    2.5385    2.0902 O   0  0  0  0  0  0  0  0  0  0  0  0
   -0.7109    1.2479    3.8583 N   0  0  0  0  0  0  0  0  0  0  0  0
   -1.0629    2.0593    4.3582 H   0  0  0  0  0  0  0  0  0  0  0  0
   -0.2752    0.4874    4.3701 H   0  0  0  0  0  0  0  0  0  0  0  0
    1.0692   -0.3961   -0.5242 C   0  0  0  0  0  0  0  0  0  0  0  0
    2.1561    0.1516   -0.6575 O   0  0  0  0  0  0  0  0  0  0  0  0
    0.8138   -1.5488   -1.2432 N   0  0  0  0  0  0  0  0  0  0  0  0
    0.0472   -2.1086   -0.8722 H   0  0  0  0  0  0  0  0  0  0  0  0
    1.8428   -2.2354   -2.0143 C   0  0  0  0  0  0  0  0  0  0  0  0
    2.6524   -2.5727   -1.3586 H   0  0  0  0  0  0  0  0  0  0  0  0
    1.4169   -3.1078   -2.5191 H   0  0  0  0  0  0  0  0  0  0  0  0
    2.2610   -1.5688   -2.7760 H   0  0  0  0  0  0  0  0  0  0  0  0
  1  2  1  0  0  0  0
  2  3  1  0  0  0  0
  2  4  1  0  0  0  0
  2  5  1  0  0  0  0
  5  6  2  0  0  0  0
  5  7  1  0  0  0  0
  7  8  1  0  0  0  0
  7  9  1  0  0  0  0
  9 10  1  0  0  0  0
  9 11  1  0  0  0  0
  9 19  1  0  0  0  0
 11 12  1  0  0  0  0
 11 13  1  0  0  0  0
 11 14  1  0  0  0  0
 14 15  2  0  0  0  0
 14 16  1  0  0  0  0
 16 17  1  0  0  0  0
 16 18  1  0  0  0  0
 19 20  2  0  0  0  0
 19 21  1  0  0  0  0
 21 22  1  0  0  0  0
 21 23  1  0  0  0  0
 23 24  1  0  0  0  0
 23 25  1  0  0  0  0
 23 26  1  0  0  0  0
M  END
$$$$

  -OEChem-01062216063D

 26 25  0     1  0  0  0  0  0999 V2000
   -3.1083   -3.1074    1.2254 H   0  0  0  0  0  0  0  0  0  0  0  0
   -3.0585   -2.0751    0.8670 C   0  0  0  0  0  0  0  0  0  0  0  0
   -3.5850   -1.4320    1.5764 H   0  0  0  0  0  0  0  0  0  0  0  0
   -3.5541   -2.0157   -0.1051 H   0  0  0  0  0  0  0  0  0  0  0  0
   -1.6125   -1.6340    0.7401 C   0  0  0  0  0  0  0  0  0  0  0  0
   -0.7155   -2.4303    0.9550 O   0  0  0  0  0  0  0  0  0  0  0  0
   -1.3253   -0.3422    0.3419 N   0  0  0  0  0  0  0  0  0  0  0  0
   -2.1298    0.2703    0.2262 H   0  0  0  0  0  0  0  0  0  0  0  0
    0.0043    0.3110    0.3490 C   0  0  1  0  0  0  0  0  0  0  0  0
   -0.1008    1.3119   -0.0843 H   0  0  0  0  0  0  0  0  0  0  0  0
    0.4896    0.4528    1.8107 C   0  0  0  0  0  0  0  0  0  0  0  0
    0.4549   -0.5130    2.3203 H   0  0  0  0  0  0  0  0  0  0  0  0
    1.5297    0.7906    1.8286 H   0  0  0  0  0  0  0  0  0  0  0  0
   -0.3272    1.4796    2.5796 C   0  0  0  0  0  0  0  0  0  0  0  0
   -0.6655    2.5451    2.0983 O   0  0  0  0  0  0  0  0  0  0  0  0
   -0.7409    1.2466    3.8602 N   0  0  0  0  0  0  0  0  0  0  0  0
   -1.1055    2.0539    4.3579 H   0  0  0  0  0  0  0  0  0  0  0  0
   -0.3065    0.4881    4.3760 H   0  0  0  0  0  0  0  0  0  0  0  0
    1.0814   -0.3812   -0.5272 C   0  0  0  0  0  0  0  0  0  0  0  0
    2.2430    0.0040   -0.4807 O   0  0  0  0  0  0  0  0  0  0  0  0
    0.7337   -1.3245   -1.4769 N   0  0  0  0  0  0  0  0  0  0  0  0
   -0.1596   -1.7802   -1.3137 H   0  0  0  0  0  0  0  0  0  0  0  0
    1.7238   -2.0328   -2.2787 C   0  0  0  0  0  0  0  0  0  0  0  0
    2.3919   -2.6148   -1.6352 H   0  0  0  0  0  0  0  0  0  0  0  0
    1.2272   -2.7165   -2.9738 H   0  0  0  0  0  0  0  0  0  0  0  0
    2.3228   -1.3255   -2.8618 H   0  0  0  0  0  0  0  0  0  0  0  0
  1  2  1  0  0  0  0
  2  3  1  0  0  0  0
  2  4  1  0  0  0  0
  2  5  1  0  0  0  0
  5  6  2  0  0  0  0
  5  7  1  0  0  0  0
  7  8  1  0  0  0  0
  7  9  1  0  0  0  0
  9 10  1  0  0  0  0
  9 11  1  0  0  0  0
  9 19  1  0  0  0  0
 11 12  1  0  0  0  0
 11 13  1  0  0  0  0
 11 14  1  0  0  0  0
 14 15  2  0  0  0  0
 14 16  1  0  0  0  0
 16 17  1  0  0  0  0
 16 18  1  0  0  0  0
 19 20  2  0  0  0  0
 19 21  1  0  0  0  0
 21 22  1  0  0  0  0
 21 23  1  0  0  0  0
 23 24  1  0  0  0  0
 23 25  1  0  0  0  0
 23 26  1  0  0  0  0
M  END
$$$$

  -OEChem-01062216063D

 26 25  0     1  0  0  0  0  0999 V2000
   -3.0367   -3.1440    1.1812 H   0  0  0  0  0  0  0  0  0  0  0  0
   -3.0016   -2.1097    0.8269 C   0  0  0  0  0  0  0  0  0  0  0  0
   -3.5516   -1.4793    1.5300 H   0  0  0  0  0  0  0  0  0  0  0  0
   -3.4826   -2.0571   -0.1527 H   0  0  0  0  0  0  0  0  0  0  0  0
   -1.5624   -1.6402    0.7253 C   0  0  0  0  0  0  0  0  0  0  0  0
   -0.6555   -2.4163    0.9685 O   0  0  0  0  0  0  0  0  0  0  0  0
   -1.2962   -0.3397    0.3380 N   0  0  0  0  0  0  0  0  0  0  0  0
   -2.1087    0.2645    0.2361 H   0  0  0  0  0  0  0  0  0  0  0  0
    0.0264    0.3249    0.3644 C   0  0  1  0  0  0  0  0  0  0  0  0
   -0.0781    1.3257   -0.0689 H   0  0  0  0  0  0  0  0  0  0  0  0
    0.4969    0.4718    1.8311 C   0  0  0  0  0  0  0  0  0  0  0  0
    0.4701   -0.4943    2.3403 H   0  0  0  0  0  0  0  0  0  0  0  0
    1.5319    0.8231    1.8594 H   0  0  0  0  0  0  0  0  0  0  0  0
   -0.3367    1.4906    2.5912 C   0  0  0  0  0  0  0  0  0  0  0  0
   -0.6801    2.5525    2.1047 O   0  0  0  0  0  0  0  0  0  0  0  0
   -0.7557    1.2565    3.8697 N   0  0  0  0  0  0  0  0  0  0  0  0
   -1.1264    2.0624    4.3649 H   0  0  0  0  0  0  0  0  0  0  0  0
   -0.3169    0.5020    4.3880 H   0  0  0  0  0  0  0  0  0  0  0  0
    1.0946   -0.3746   -0.5165 C   0  0  0  0  0  0  0  0  0  0  0  0
    2.2898   -0.2122   -0.3033 O   0  0  0  0  0  0  0  0  0  0  0  0
    0.7124   -1.0627   -1.6539 N   0  0  0  0  0  0  0  0  0  0  0  0
   -0.2716   -1.3030   -1.7135 H   0  0  0  0  0  0  0  0  0  0  0  0
    1.6572   -1.7852   -2.4965 C   0  0  0  0  0  0  0  0  0  0  0  0
    2.1521   -2.5769   -1.9241 H   0  0  0  0  0  0  0  0  0  0  0  0
    1.1359   -2.2419   -3.3431 H   0  0  0  0  0  0  0  0  0  0  0  0
    2.4196   -1.1040   -2.8892 H   0  0  0  0  0  0  0  0  0  0  0  0
  1  2  1  0  0  0  0
  2  3  1  0  0  0  0
  2  4  1  0  0  0  0
  2  5  1  0  0  0  0
  5  6  2  0  0  0  0
  5  7  1  0  0  0  0
  7  8  1  0  0  0  0
  7  9  1  0  0  0  0
  9 10  1  0  0  0  0
  9 11  1  0  0  0  0
  9 19  1  0  0  0  0
 11 12  1  0  0  0  0
 11 13  1  0  0  0  0
 11 14  1  0  0  0  0
 14 15  2  0  0  0  0
 14 16  1  0  0  0  0
 16 17  1  0  0  0  0
 16 18  1  0  0  0  0
 19 20  2  0  0  0  0
 19 21  1  0  0  0  0
 21 22  1  0  0  0  0
 21 23  1  0  0  0  0
 23 24  1  0  0  0  0
 23 25  1  0  0  0  0
 23 26  1  0  0  0  0
M  END
$$$$

  -OEChem-01062216063D

 26 25  0     1  0  0  0  0  0999 V2000
   -3.0064   -3.1614    1.1523 H   0  0  0  0  0  0  0  0  0  0  0  0
   -2.9732   -2.1277    0.7960 C   0  0  0  0  0  0  0  0  0  0  0  0
   -3.5424   -1.5003    1.4862 H   0  0  0  0  0  0  0  0  0  0  0  0
   -3.4353   -2.0821   -0.1930 H   0  0  0  0  0  0  0  0  0  0  0  0
   -1.5364   -1.6461    0.7213 C   0  0  0  0  0  0  0  0  0  0  0  0
   -0.6300   -2.4128    0.9934 O   0  0  0  0  0  0  0  0  0  0  0  0
   -1.2759   -0.3430    0.3380 N   0  0  0  0  0  0  0  0  0  0  0  0
   -2.0916    0.2542    0.2242 H   0  0  0  0  0  0  0  0  0  0  0  0
    0.0424    0.3269    0.3761 C   0  0  1  0  0  0  0  0  0  0  0  0
   -0.0600    1.3268   -0.0596 H   0  0  0  0  0  0  0  0  0  0  0  0
    0.5046    0.4807    1.8447 C   0  0  0  0  0  0  0  0  0  0  0  0
    0.4794   -0.4840    2.3567 H   0  0  0  0  0  0  0  0  0  0  0  0
    1.5383    0.8363    1.8751 H   0  0  0  0  0  0  0  0  0  0  0  0
   -0.3369    1.4980    2.5973 C   0  0  0  0  0  0  0  0  0  0  0  0
   -0.6816    2.5567    2.1044 O   0  0  0  0  0  0  0  0  0  0  0  0
   -0.7632    1.2655    3.8735 N   0  0  0  0  0  0  0  0  0  0  0  0
   -1.1411    2.0701    4.3652 H   0  0  0  0  0  0  0  0  0  0  0  0
   -0.3289    0.5107    4.3954 H   0  0  0  0  0  0  0  0  0  0  0  0
    1.1035   -0.3831   -0.5039 C   0  0  0  0  0  0  0  0  0  0  0  0
    2.2795   -0.4447   -0.1662 O   0  0  0  0  0  0  0  0  0  0  0  0
    0.7592   -0.7940   -1.7793 N   0  0  0  0  0  0  0  0  0  0  0  0
   -0.2330   -0.8235   -1.9892 H   0  0  0  0  0  0  0  0  0  0  0  0
    1.6838   -1.4911   -2.6648 C   0  0  0  0  0  0  0  0  0  0  0  0
    2.0121   -2.4318   -2.2102 H   0  0  0  0  0  0  0  0  0  0  0  0
    1.1971   -1.7171   -3.6183 H   0  0  0  0  0  0  0  0  0  0  0  0
    2.5635   -0.8707   -2.8662 H   0  0  0  0  0  0  0  0  0  0  0  0
  1  2  1  0  0  0  0
  2  3  1  0  0  0  0
  2  4  1  0  0  0  0
  2  5  1  0  0  0  0
  5  6  2  0  0  0  0
  5  7  1  0  0  0  0
  7  8  1  0  0  0  0
  7  9  1  0  0  0  0
  9 10  1  0  0  0  0
  9 11  1  0  0  0  0
  9 19  1  0  0  0  0
 11 12  1  0  0  0  0
 11 13  1  0  0  0  0
 11 14  1  0  0  0  0
 14 15  2  0  0  0  0
 14 16  1  0  0  0  0
 16 17  1  0  0  0  0
 16 18  1  0  0  0  0
 19 20  2  0  0  0  0
 19 21  1  0  0  0  0
 21 22  1  0  0  0  0
 21 23  1  0  0  0  0
 23 24  1  0  0  0  0
 23 25  1  0  0  0  0
 23 26  1  0  0  0  0
M  END
$$$$

  -OEChem-01062216063D

 26 25  0     1  0  0  0  0  0999 V2000
   -3.0107   -3.1689    1.1348 H   0  0  0  0  0  0  0  0  0  0  0  0
   -2.9722   -2.1342    0.7820 C   0  0  0  0  0  0  0  0  0  0  0  0
   -3.5543   -1.5094    1.4638 H   0  0  0  0  0  0  0  0  0  0  0  0
   -3.4164   -2.0865   -0.2150 H   0  0  0  0  0  0  0  0  0  0  0  0
   -1.5345   -1.6511    0.7336 C   0  0  0  0  0  0  0  0  0  0  0  0
   -0.6355   -2.4127    1.0410 O   0  0  0  0  0  0  0  0  0  0  0  0
   -1.2702   -0.3505    0.3442 N   0  0  0  0  0  0  0  0  0  0  0  0
   -2.0857    0.2411    0.2045 H   0  0  0  0  0  0  0  0  0  0  0  0
    0.0467    0.3204    0.3791 C   0  0  1  0  0  0  0  0  0  0  0  0
   -0.0546    1.3192   -0.0587 H   0  0  0  0  0  0  0  0  0  0  0  0
    0.5122    0.4815    1.8452 C   0  0  0  0  0  0  0  0  0  0  0  0
    0.4898   -0.4809    2.3622 H   0  0  0  0  0  0  0  0  0  0  0  0
    1.5461    0.8370    1.8680 H   0  0  0  0  0  0  0  0  0  0  0  0
   -0.3279    1.5013    2.5954 C   0  0  0  0  0  0  0  0  0  0  0  0
   -0.6740    2.5574    2.0975 O   0  0  0  0  0  0  0  0  0  0  0  0
   -0.7573    1.2692    3.8707 N   0  0  0  0  0  0  0  0  0  0  0  0
   -1.1413    2.0707    4.3625 H   0  0  0  0  0  0  0  0  0  0  0  0
   -0.3303    0.5096    4.3918 H   0  0  0  0  0  0  0  0  0  0  0  0
    1.1031   -0.3986   -0.4981 C   0  0  0  0  0  0  0  0  0  0  0  0
    2.2165   -0.6788   -0.0709 O   0  0  0  0  0  0  0  0  0  0  0  0
    0.8646   -0.5342   -1.8540 N   0  0  0  0  0  0  0  0  0  0  0  0
   -0.0821   -0.3556   -2.1724 H   0  0  0  0  0  0  0  0  0  0  0  0
    1.8045   -1.1735   -2.7669 C   0  0  0  0  0  0  0  0  0  0  0  0
    1.9794   -2.2128   -2.4694 H   0  0  0  0  0  0  0  0  0  0  0  0
    1.4070   -1.1660   -3.7862 H   0  0  0  0  0  0  0  0  0  0  0  0
    2.7617   -0.6412   -2.7668 H   0  0  0  0  0  0  0  0  0  0  0  0
  1  2  1  0  0  0  0
  2  3  1  0  0  0  0
  2  4  1  0  0  0  0
  2  5  1  0  0  0  0
  5  6  2  0  0  0  0
  5  7  1  0  0  0  0
  7  8  1  0  0  0  0
  7  9  1  0  0  0  0
  9 10  1  0  0  0  0
  9 11  1  0  0  0  0
  9 19  1  0  0  0  0
 11 12  1  0  0  0  0
 11 13  1  0  0  0  0
 11 14  1  0  0  0  0
 14 15  2  0  0  0  0
 14 16  1  0  0  0  0
 16 17  1  0  0  0  0
 16 18  1  0  0  0  0
 19 20  2  0  0  0  0
 19 21  1  0  0  0  0
 21 22  1  0  0  0  0
 21 23  1  0  0  0  0
 23 24  1  0  0  0  0
 23 25  1  0  0  0  0
 23 26  1  0  0  0  0
M  END
$$$$

  -OEChem-01062216063D

 26 25  0     1  0  0  0  0  0999 V2000
   -3.0314   -3.1776    1.1237 H   0  0  0  0  0  0  0  0  0  0  0  0
   -2.9851   -2.1469    0.7605 C   0  0  0  0  0  0  0  0  0  0  0  0
   -3.5895   -1.5160    1.4167 H   0  0  0  0  0  0  0  0  0  0  0  0
   -3.3979   -2.1120   -0.2505 H   0  0  0  0  0  0  0  0  0  0  0  0
   -1.5478   -1.6606    0.7503 C   0  0  0  0  0  0  0  0  0  0  0  0
   -0.6589   -2.4175    1.0950 O   0  0  0  0  0  0  0  0  0  0  0  0
   -1.2780   -0.3623    0.3564 N   0  0  0  0  0  0  0  0  0  0  0  0
   -2.0916    0.2209    0.1781 H   0  0  0  0  0  0  0  0  0  0  0  0
    0.0387    0.3083    0.3807 C   0  0  1  0  0  0  0  0  0  0  0  0
   -0.0686    1.3069   -0.0560 H   0  0  0  0  0  0  0  0  0  0  0  0
    0.5172    0.4774    1.8409 C   0  0  0  0  0  0  0  0  0  0  0  0
    0.4977   -0.4819    2.3639 H   0  0  0  0  0  0  0  0  0  0  0  0
    1.5528    0.8288    1.8489 H   0  0  0  0  0  0  0  0  0  0  0  0
   -0.3151    1.5016    2.5940 C   0  0  0  0  0  0  0  0  0  0  0  0
   -0.6642    2.5550    2.0918 O   0  0  0  0  0  0  0  0  0  0  0  0
   -0.7262    1.2829    3.8777 N   0  0  0  0  0  0  0  0  0  0  0  0
   -1.1045    2.0880    4.3680 H   0  0  0  0  0  0  0  0  0  0  0  0
   -0.2994    0.5231    4.3987 H   0  0  0  0  0  0  0  0  0  0  0  0
    1.0937   -0.4096   -0.4990 C   0  0  0  0  0  0  0  0  0  0  0  0
    2.1071   -0.9051   -0.0220 O   0  0  0  0  0  0  0  0  0  0  0  0
    1.0145   -0.2802   -1.8746 N   0  0  0  0  0  0  0  0  0  0  0  0
    0.1609    0.1144   -2.2556 H   0  0  0  0  0  0  0  0  0  0  0  0
    1.9897   -0.8624   -2.7892 C   0  0  0  0  0  0  0  0  0  0  0  0
    2.0208   -1.9508   -2.6724 H   0  0  0  0  0  0  0  0  0  0  0  0
    1.7224   -0.6321   -3.8249 H   0  0  0  0  0  0  0  0  0  0  0  0
    2.9884   -0.4582   -2.5933 H   0  0  0  0  0  0  0  0  0  0  0  0
  1  2  1  0  0  0  0
  2  3  1  0  0  0  0
  2  4  1  0  0  0  0
  2  5  1  0  0  0  0
  5  6  2  0  0  0  0
  5  7  1  0  0  0  0
  7  8  1  0  0  0  0
  7  9  1  0  0  0  0
  9 10  1  0  0  0  0
  9 11  1  0  0  0  0
  9 19  1  0  0  0  0
 11 12  1  0  0  0  0
 11 13  1  0  0  0  0
 11 14  1  0  0  0  0
 14 15  2  0  0  0  0
 14 16  1  0  0  0  0
 16 17  1  0  0  0  0
 16 18  1  0  0  0  0
 19 20  2  0  0  0  0
 19 21  1  0  0  0  0
 21 22  1  0  0  0  0
 21 23  1  0  0  0  0
 23 24  1  0  0  0  0
 23 25  1  0  0  0  0
 23 26  1  0  0  0  0
M  END
$$$$

  -OEChem-01062216063D

 26 25  0     1  0  0  0  0  0999 V2000
   -3.0586   -3.1897    1.0974 H   0  0  0  0  0  0  0  0  0  0  0  0
   -3.0035   -2.1585    0.7366 C   0  0  0  0  0  0  0  0  0  0  0  0
   -3.6356   -1.5306    1.3692 H   0  0  0  0  0  0  0  0  0  0  0  0
   -3.3774   -2.1257   -0.2896 H   0  0  0  0  0  0  0  0  0  0  0  0
   -1.5692   -1.6649    0.7817 C   0  0  0  0  0  0  0  0  0  0  0  0
   -0.6989   -2.4087    1.1942 O   0  0  0  0  0  0  0  0  0  0  0  0
   -1.2919   -0.3714    0.3763 N   0  0  0  0  0  0  0  0  0  0  0  0
   -2.1002    0.1939    0.1306 H   0  0  0  0  0  0  0  0  0  0  0  0
    0.0249    0.3000    0.3779 C   0  0  1  0  0  0  0  0  0  0  0  0
   -0.0949    1.2974   -0.0574 H   0  0  0  0  0  0  0  0  0  0  0  0
    0.5299    0.4769    1.8275 C   0  0  0  0  0  0  0  0  0  0  0  0
    0.5188   -0.4789    2.3568 H   0  0  0  0  0  0  0  0  0  0  0  0
    1.5667    0.8243    1.8126 H   0  0  0  0  0  0  0  0  0  0  0  0
   -0.2880    1.5048    2.5913 C   0  0  0  0  0  0  0  0  0  0  0  0
   -0.6454    2.5556    2.0888 O   0  0  0  0  0  0  0  0  0  0  0  0
   -0.6825    1.2885    3.8806 N   0  0  0  0  0  0  0  0  0  0  0  0
   -1.0650    2.0885    4.3758 H   0  0  0  0  0  0  0  0  0  0  0  0
   -0.2664    0.5177    4.3944 H   0  0  0  0  0  0  0  0  0  0  0  0
    1.0797   -0.4135   -0.5058 C   0  0  0  0  0  0  0  0  0  0  0  0
    1.9633   -1.1122   -0.0264 O   0  0  0  0  0  0  0  0  0  0  0  0
    1.1914   -0.0522   -1.8376 N   0  0  0  0  0  0  0  0  0  0  0  0
    0.4688    0.5460   -2.2247 H   0  0  0  0  0  0  0  0  0  0  0  0
    2.2172   -0.5828   -2.7285 C   0  0  0  0  0  0  0  0  0  0  0  0
    2.1279   -1.6715   -2.8086 H   0  0  0  0  0  0  0  0  0  0  0  0
    2.1106   -0.1517   -3.7286 H   0  0  0  0  0  0  0  0  0  0  0  0
    3.2162   -0.3377   -2.3524 H   0  0  0  0  0  0  0  0  0  0  0  0
  1  2  1  0  0  0  0
  2  3  1  0  0  0  0
  2  4  1  0  0  0  0
  2  5  1  0  0  0  0
  5  6  2  0  0  0  0
  5  7  1  0  0  0  0
  7  8  1  0  0  0  0
  7  9  1  0  0  0  0
  9 10  1  0  0  0  0
  9 11  1  0  0  0  0
  9 19  1  0  0  0  0
 11 12  1  0  0  0  0
 11 13  1  0  0  0  0
 11 14  1  0  0  0  0
 14 15  2  0  0  0  0
 14 16  1  0  0  0  0
 16 17  1  0  0  0  0
 16 18  1  0  0  0  0
 19 20  2  0  0  0  0
 19 21  1  0  0  0  0
 21 22  1  0  0  0  0
 21 23  1  0  0  0  0
 23 24  1  0  0  0  0
 23 25  1  0  0  0  0
 23 26  1  0  0  0  0
M  END
$$$$

  -OEChem-01062216063D

 26 25  0     1  0  0  0  0  0999 V2000
   -3.0402   -3.2090    1.0308 H   0  0  0  0  0  0  0  0  0  0  0  0
   -2.9796   -2.1790    0.6677 C   0  0  0  0  0  0  0  0  0  0  0  0
   -3.7068   -1.5707    1.2106 H   0  0  0  0  0  0  0  0  0  0  0  0
   -3.2257   -2.1688   -0.3967 H   0  0  0  0  0  0  0  0  0  0  0  0
   -1.5809   -1.6307    0.8825 C   0  0  0  0  0  0  0  0  0  0  0  0
   -0.7699   -2.3094    1.4847 O   0  0  0  0  0  0  0  0  0  0  0  0
   -1.2967   -0.3446    0.4556 N   0  0  0  0  0  0  0  0  0  0  0  0
   -2.0715    0.1447    0.0168 H   0  0  0  0  0  0  0  0  0  0  0  0
    0.0246    0.3190    0.4068 C   0  0  1  0  0  0  0  0  0  0  0  0
   -0.1136    1.3135   -0.0293 H   0  0  0  0  0  0  0  0  0  0  0  0
    0.6031    0.5086    1.8260 C   0  0  0  0  0  0  0  0  0  0  0  0
    0.6202   -0.4386    2.3694 H   0  0  0  0  0  0  0  0  0  0  0  0
    1.6390    0.8512    1.7531 H   0  0  0  0  0  0  0  0  0  0  0  0
   -0.1692    1.5490    2.6191 C   0  0  0  0  0  0  0  0  0  0  0  0
   -0.5457    2.5968    2.1233 O   0  0  0  0  0  0  0  0  0  0  0  0
   -0.5220    1.3323    3.9201 N   0  0  0  0  0  0  0  0  0  0  0  0
   -1.1873    1.9838    4.3246 H   0  0  0  0  0  0  0  0  0  0  0  0
   -0.4193    0.3967    4.3021 H   0  0  0  0  0  0  0  0  0  0  0  0
    1.0523   -0.4014   -0.5010 C   0  0  0  0  0  0  0  0  0  0  0  0
    1.7284   -1.3401   -0.1055 O   0  0  0  0  0  0  0  0  0  0  0  0
    1.3567    0.1424   -1.7374 N   0  0  0  0  0  0  0  0  0  0  0  0
    0.8412    0.9651   -2.0338 H   0  0  0  0  0  0  0  0  0  0  0  0
    2.4041   -0.3816   -2.6067 C   0  0  0  0  0  0  0  0  0  0  0  0
    2.2060   -1.4293   -2.8567 H   0  0  0  0  0  0  0  0  0  0  0  0
    2.4471    0.1934   -3.5366 H   0  0  0  0  0  0  0  0  0  0  0  0
    3.3797   -0.3157   -2.1136 H   0  0  0  0  0  0  0  0  0  0  0  0
  1  2  1  0  0  0  0
  2  3  1  0  0  0  0
  2  4  1  0  0  0  0
  2  5  1  0  0  0  0
  5  6  2  0  0  0  0
  5  7  1  0  0  0  0
  7  8  1  0  0  0  0
  7  9  1  0  0  0  0
  9 10  1  0  0  0  0
  9 11  1  0  0  0  0
  9 19  1  0  0  0  0
 11 12  1  0  0  0  0
 11 13  1  0  0  0  0
 11 14  1  0  0  0  0
 14 15  2  0  0  0  0
 14 16  1  0  0  0  0
 16 17  1  0  0  0  0
 16 18  1  0  0  0  0
 19 20  2  0  0  0  0
 19 21  1  0  0  0  0
 21 22  1  0  0  0  0
 21 23  1  0  0  0  0
 23 24  1  0  0  0  0
 23 25  1  0  0  0  0
 23 26  1  0  0  0  0
M  END
$$$$

  -OEChem-01062216063D

 26 25  0     1  0  0  0  0  0999 V2000
   -2.9675   -3.2450    0.9527 H   0  0  0  0  0  0  0  0  0  0  0  0
   -2.9000   -2.2334    0.5422 C   0  0  0  0  0  0  0  0  0  0  0  0
   -3.7361   -1.6419    0.9229 H   0  0  0  0  0  0  0  0  0  0  0  0
   -2.9680   -2.2931   -0.5467 H   0  0  0  0  0  0  0  0  0  0  0  0
   -1.5840   -1.5934    0.9445 C   0  0  0  0  0  0  0  0  0  0  0  0
   -0.8613   -2.1820    1.7294 O   0  0  0  0  0  0  0  0  0  0  0  0
   -1.3111   -0.3052    0.5133 N   0  0  0  0  0  0  0  0  0  0  0  0
   -2.0302    0.0920   -0.0841 H   0  0  0  0  0  0  0  0  0  0  0  0
    0.0155    0.3498    0.4535 C   0  0  1  0  0  0  0  0  0  0  0  0
   -0.1315    1.3436    0.0191 H   0  0  0  0  0  0  0  0  0  0  0  0
    0.6295    0.5390    1.8570 C   0  0  0  0  0  0  0  0  0  0  0  0
    0.6643   -0.4039    2.4051 H   0  0  0  0  0  0  0  0  0  0  0  0
    1.6630    0.8809    1.7562 H   0  0  0  0  0  0  0  0  0  0  0  0
   -0.1186    1.5864    2.6639 C   0  0  0  0  0  0  0  0  0  0  0  0
   -0.4995    2.6343    2.1717 O   0  0  0  0  0  0  0  0  0  0  0  0
   -0.4710    1.3630    3.9636 N   0  0  0  0  0  0  0  0  0  0  0  0
   -1.1549    2.0037    4.3541 H   0  0  0  0  0  0  0  0  0  0  0  0
   -0.4069    0.4123    4.3165 H   0  0  0  0  0  0  0  0  0  0  0  0
    1.0337   -0.3706   -0.4646 C   0  0  0  0  0  0  0  0  0  0  0  0
    1.3809   -1.5270   -0.2790 O   0  0  0  0  0  0  0  0  0  0  0  0
    1.5735    0.3096   -1.5429 N   0  0  0  0  0  0  0  0  0  0  0  0
    1.3198    1.2856   -1.6632 H   0  0  0  0  0  0  0  0  0  0  0  0
    2.5603   -0.2747   -2.4444 C   0  0  0  0  0  0  0  0  0  0  0  0
    2.1612   -1.1792   -2.9158 H   0  0  0  0  0  0  0  0  0  0  0  0
    2.8219    0.4377   -3.2327 H   0  0  0  0  0  0  0  0  0  0  0  0
    3.4721   -0.5361   -1.8969 H   0  0  0  0  0  0  0  0  0  0  0  0
  1  2  1  0  0  0  0
  2  3  1  0  0  0  0
  2  4  1  0  0  0  0
  2  5  1  0  0  0  0
  5  6  2  0  0  0  0
  5  7  1  0  0  0  0
  7  8  1  0  0  0  0
  7  9  1  0  0  0  0
  9 10  1  0  0  0  0
  9 11  1  0  0  0  0
  9 19  1  0  0  0  0
 11 12  1  0  0  0  0
 11 13  1  0  0  0  0
 11 14  1  0  0  0  0
 14 15  2  0  0  0  0
 14 16  1  0  0  0  0
 16 17  1  0  0  0  0
 16 18  1  0  0  0  0
 19 20  2  0  0  0  0
 19 21  1  0  0  0  0
 21 22  1  0  0  0  0
 21 23  1  0  0  0  0
 23 24  1  0  0  0  0
 23 25  1  0  0  0  0
 23 26  1  0  0  0  0
M  END
$$$$

  -OEChem-01062216063D

 26 25  0     1  0  0  0  0  0999 V2000
   -2.9329   -3.2627    0.9362 H   0  0  0  0  0  0  0  0  0  0  0  0
   -2.8542   -2.2653    0.4943 C   0  0  0  0  0  0  0  0  0  0  0  0
   -3.7281   -1.6790    0.7880 H   0  0  0  0  0  0  0  0  0  0  0  0
   -2.8367   -2.3657   -0.5936 H   0  0  0  0  0  0  0  0  0  0  0  0
   -1.5846   -1.5830    0.9690 C   0  0  0  0  0  0  0  0  0  0  0  0
   -0.8962   -2.1363    1.8106 O   0  0  0  0  0  0  0  0  0  0  0  0
   -1.3161   -0.2940    0.5365 N   0  0  0  0  0  0  0  0  0  0  0  0
   -1.9981    0.0619   -0.1267 H   0  0  0  0  0  0  0  0  0  0  0  0
    0.0186    0.3456    0.4839 C   0  0  1  0  0  0  0  0  0  0  0  0
   -0.1237    1.3358    0.0391 H   0  0  0  0  0  0  0  0  0  0  0  0
    0.6314    0.5442    1.8869 C   0  0  0  0  0  0  0  0  0  0  0  0
    0.6575   -0.3912    2.4470 H   0  0  0  0  0  0  0  0  0  0  0  0
    1.6679    0.8766    1.7855 H   0  0  0  0  0  0  0  0  0  0  0  0
   -0.1064    1.6091    2.6809 C   0  0  0  0  0  0  0  0  0  0  0  0
   -0.4734    2.6553    2.1751 O   0  0  0  0  0  0  0  0  0  0  0  0
   -0.4640    1.4059    3.9823 N   0  0  0  0  0  0  0  0  0  0  0  0
   -1.1470    2.0570    4.3574 H   0  0  0  0  0  0  0  0  0  0  0  0
   -0.4223    0.4562    4.3409 H   0  0  0  0  0  0  0  0  0  0  0  0
    1.0418   -0.3764   -0.4279 C   0  0  0  0  0  0  0  0  0  0  0  0
    1.0858   -1.5936   -0.5324 O   0  0  0  0  0  0  0  0  0  0  0  0
    1.8214    0.3789   -1.2870 N   0  0  0  0  0  0  0  0  0  0  0  0
    1.7736    1.3903   -1.2041 H   0  0  0  0  0  0  0  0  0  0  0  0
    2.7576   -0.2030   -2.2421 C   0  0  0  0  0  0  0  0  0  0  0  0
    2.2282   -0.8418   -2.9570 H   0  0  0  0  0  0  0  0  0  0  0  0
    3.2699    0.5875   -2.7990 H   0  0  0  0  0  0  0  0  0  0  0  0
    3.5111   -0.8048   -1.7228 H   0  0  0  0  0  0  0  0  0  0  0  0
  1  2  1  0  0  0  0
  2  3  1  0  0  0  0
  2  4  1  0  0  0  0
  2  5  1  0  0  0  0
  5  6  2  0  0  0  0
  5  7  1  0  0  0  0
  7  8  1  0  0  0  0
  7  9  1  0  0  0  0
  9 10  1  0  0  0  0
  9 11  1  0  0  0  0
  9 19  1  0  0  0  0
 11 12  1  0  0  0  0
 11 13  1  0  0  0  0
 11 14  1  0  0  0  0
 14 15  2  0  0  0  0
 14 16  1  0  0  0  0
 16 17  1  0  0  0  0
 16 18  1  0  0  0  0
 19 20  2  0  0  0  0
 19 21  1  0  0  0  0
 21 22  1  0  0  0  0
 21 23  1  0  0  0  0
 23 24  1  0  0  0  0
 23 25  1  0  0  0  0
 23 26  1  0  0  0  0
M  END
$$$$

  -OEChem-01062216063D

 26 25  0     1  0  0  0  0  0999 V2000
   -2.9315   -3.2696    0.9413 H   0  0  0  0  0  0  0  0  0  0  0  0
   -2.8591   -2.2686    0.5066 C   0  0  0  0  0  0  0  0  0  0  0  0
   -3.7257   -1.6829    0.8217 H   0  0  0  0  0  0  0  0  0  0  0  0
   -2.8628   -2.3592   -0.5824 H   0  0  0  0  0  0  0  0  0  0  0  0
   -1.5796   -1.5924    0.9626 C   0  0  0  0  0  0  0  0  0  0  0  0
   -0.8642   -2.1601    1.7725 O   0  0  0  0  0  0  0  0  0  0  0  0
   -1.3141   -0.3016    0.5340 N   0  0  0  0  0  0  0  0  0  0  0  0
   -1.9913    0.0539   -0.1346 H   0  0  0  0  0  0  0  0  0  0  0  0
    0.0230    0.3325    0.4907 C   0  0  1  0  0  0  0  0  0  0  0  0
   -0.1129    1.3202    0.0378 H   0  0  0  0  0  0  0  0  0  0  0  0
    0.6206    0.5385    1.9006 C   0  0  0  0  0  0  0  0  0  0  0  0
    0.6336   -0.3923    2.4684 H   0  0  0  0  0  0  0  0  0  0  0  0
    1.6597    0.8651    1.8119 H   0  0  0  0  0  0  0  0  0  0  0  0
   -0.1215    1.6118    2.6796 C   0  0  0  0  0  0  0  0  0  0  0  0
   -0.4780    2.6558    2.1630 O   0  0  0  0  0  0  0  0  0  0  0  0
   -0.4762    1.4282    3.9848 N   0  0  0  0  0  0  0  0  0  0  0  0
   -1.1519    2.0899    4.3547 H   0  0  0  0  0  0  0  0  0  0  0  0
   -0.4349    0.4850    4.3595 H   0  0  0  0  0  0  0  0  0  0  0  0
    1.0504   -0.3897   -0.4170 C   0  0  0  0  0  0  0  0  0  0  0  0
    0.8950   -1.5446   -0.7906 O   0  0  0  0  0  0  0  0  0  0  0  0
    2.0427    0.3586   -1.0269 N   0  0  0  0  0  0  0  0  0  0  0  0
    2.1332    1.3338   -0.7566 H   0  0  0  0  0  0  0  0  0  0  0  0
    2.9885   -0.1933   -1.9905 C   0  0  0  0  0  0  0  0  0  0  0  0
    2.4626   -0.5503   -2.8821 H   0  0  0  0  0  0  0  0  0  0  0  0
    3.7071    0.5729   -2.2967 H   0  0  0  0  0  0  0  0  0  0  0  0
    3.5418   -1.0291   -1.5492 H   0  0  0  0  0  0  0  0  0  0  0  0
  1  2  1  0  0  0  0
  2  3  1  0  0  0  0
  2  4  1  0  0  0  0
  2  5  1  0  0  0  0
  5  6  2  0  0  0  0
  5  7  1  0  0  0  0
  7  8  1  0  0  0  0
  7  9  1  0  0  0  0
  9 10  1  0  0  0  0
  9 11  1  0  0  0  0
  9 19  1  0  0  0  0
 11 12  1  0  0  0  0
 11 13  1  0  0  0  0
 11 14  1  0  0  0  0
 14 15  2  0  0  0  0
 14 16  1  0  0  0  0
 16 17  1  0  0  0  0
 16 18  1  0  0  0  0
 19 20  2  0  0  0  0
 19 21  1  0  0  0  0
 21 22  1  0  0  0  0
 21 23  1  0  0  0  0
 23 24  1  0  0  0  0
 23 25  1  0  0  0  0
 23 26  1  0  0  0  0
M  END
$$$$

  -OEChem-01062216063D

 26 25  0     1  0  0  0  0  0999 V2000
   -2.9062   -3.2767    0.9251 H   0  0  0  0  0  0  0  0  0  0  0  0
   -2.8523   -2.2637    0.5166 C   0  0  0  0  0  0  0  0  0  0  0  0
   -3.7142   -1.6934    0.8707 H   0  0  0  0  0  0  0  0  0  0  0  0
   -2.8842   -2.3244   -0.5740 H   0  0  0  0  0  0  0  0  0  0  0  0
   -1.5653   -1.5907    0.9560 C   0  0  0  0  0  0  0  0  0  0  0  0
   -0.8216   -2.1749    1.7283 O   0  0  0  0  0  0  0  0  0  0  0  0
   -1.3058   -0.2973    0.5329 N   0  0  0  0  0  0  0  0  0  0  0  0
   -1.9802    0.0573   -0.1389 H   0  0  0  0  0  0  0  0  0  0  0  0
    0.0301    0.3390    0.4995 C   0  0  1  0  0  0  0  0  0  0  0  0
   -0.0964    1.3266    0.0438 H   0  0  0  0  0  0  0  0  0  0  0  0
    0.6092    0.5442    1.9195 C   0  0  0  0  0  0  0  0  0  0  0  0
    0.6155   -0.3868    2.4872 H   0  0  0  0  0  0  0  0  0  0  0  0
    1.6484    0.8737    1.8494 H   0  0  0  0  0  0  0  0  0  0  0  0
   -0.1449    1.6152    2.6907 C   0  0  0  0  0  0  0  0  0  0  0  0
   -0.4965    2.6596    2.1722 O   0  0  0  0  0  0  0  0  0  0  0  0
   -0.5101    1.4308    3.9930 N   0  0  0  0  0  0  0  0  0  0  0  0
   -1.1865    2.0938    4.3592 H   0  0  0  0  0  0  0  0  0  0  0  0
   -0.4716    0.4881    4.3694 H   0  0  0  0  0  0  0  0  0  0  0  0
    1.0522   -0.3911   -0.4091 C   0  0  0  0  0  0  0  0  0  0  0  0
    0.7634   -1.4223   -1.0036 O   0  0  0  0  0  0  0  0  0  0  0  0
    2.2204    0.2584   -0.7709 N   0  0  0  0  0  0  0  0  0  0  0  0
    2.4144    1.1575   -0.3398 H   0  0  0  0  0  0  0  0  0  0  0  0
    3.1784   -0.2838   -1.7280 C   0  0  0  0  0  0  0  0  0  0  0  0
    2.7164   -0.3897   -2.7151 H   0  0  0  0  0  0  0  0  0  0  0  0
    4.0409    0.3833   -1.8196 H   0  0  0  0  0  0  0  0  0  0  0  0
    3.5349   -1.2656   -1.3988 H   0  0  0  0  0  0  0  0  0  0  0  0
  1  2  1  0  0  0  0
  2  3  1  0  0  0  0
  2  4  1  0  0  0  0
  2  5  1  0  0  0  0
  5  6  2  0  0  0  0
  5  7  1  0  0  0  0
  7  8  1  0  0  0  0
  7  9  1  0  0  0  0
  9 10  1  0  0  0  0
  9 11  1  0  0  0  0
  9 19  1  0  0  0  0
 11 12  1  0  0  0  0
 11 13  1  0  0  0  0
 11 14  1  0  0  0  0
 14 15  2  0  0  0  0
 14 16  1  0  0  0  0
 16 17  1  0  0  0  0
 16 18  1  0  0  0  0
 19 20  2  0  0  0  0
 19 21  1  0  0  0  0
 21 22  1  0  0  0  0
 21 23  1  0  0  0  0
 23 24  1  0  0  0  0
 23 25  1  0  0  0  0
 23 26  1  0  0  0  0
M  END
$$$$

  -OEChem-01062216063D

 26 25  0     1  0  0  0  0  0999 V2000
   -2.9515   -3.2603    0.8472 H   0  0  0  0  0  0  0  0  0  0  0  0
   -2.8837   -2.2239    0.5048 C   0  0  0  0  0  0  0  0  0  0  0  0
   -3.6975   -1.6499    0.9544 H   0  0  0  0  0  0  0  0  0  0  0  0
   -2.9903   -2.2071   -0.5828 H   0  0  0  0  0  0  0  0  0  0  0  0
   -1.5460   -1.6268    0.9003 C   0  0  0  0  0  0  0  0  0  0  0  0
   -0.7747   -2.2990    1.5658 O   0  0  0  0  0  0  0  0  0  0  0  0
   -1.2648   -0.3253    0.5205 N   0  0  0  0  0  0  0  0  0  0  0  0
   -1.9552    0.0713   -0.1110 H   0  0  0  0  0  0  0  0  0  0  0  0
    0.0579    0.3423    0.5124 C   0  0  1  0  0  0  0  0  0  0  0  0
   -0.1186    1.4056    0.3176 H   0  0  0  0  0  0  0  0  0  0  0  0
    0.8167    0.2400    1.8603 C   0  0  0  0  0  0  0  0  0  0  0  0
    0.9356   -0.7908    2.1911 H   0  0  0  0  0  0  0  0  0  0  0  0
    1.8268    0.6375    1.7427 H   0  0  0  0  0  0  0  0  0  0  0  0
    0.1565    1.0751    2.9449 C   0  0  0  0  0  0  0  0  0  0  0  0
   -0.2715    2.1951    2.7319 O   0  0  0  0  0  0  0  0  0  0  0  0
   -0.0776    0.5625    4.1877 N   0  0  0  0  0  0  0  0  0  0  0  0
   -0.7329    1.0878    4.7586 H   0  0  0  0  0  0  0  0  0  0  0  0
   -0.0119   -0.4454    4.2984 H   0  0  0  0  0  0  0  0  0  0  0  0
    0.9324   -0.1411   -0.6725 C   0  0  0  0  0  0  0  0  0  0  0  0
    0.4632   -0.8624   -1.5453 O   0  0  0  0  0  0  0  0  0  0  0  0
    2.2084    0.3637   -0.8573 N   0  0  0  0  0  0  0  0  0  0  0  0
    2.5665    1.0104   -0.1612 H   0  0  0  0  0  0  0  0  0  0  0  0
    3.0550    0.0129   -1.9918 C   0  0  0  0  0  0  0  0  0  0  0  0
    2.5814    0.3145   -2.9319 H   0  0  0  0  0  0  0  0  0  0  0  0
    4.0215    0.5198   -1.9135 H   0  0  0  0  0  0  0  0  0  0  0  0
    3.2328   -1.0674   -2.0171 H   0  0  0  0  0  0  0  0  0  0  0  0
  1  2  1  0  0  0  0
  2  3  1  0  0  0  0
  2  4  1  0  0  0  0
  2  5  1  0  0  0  0
  5  6  2  0  0  0  0
  5  7  1  0  0  0  0
  7  8  1  0  0  0  0
  7  9  1  0  0  0  0
  9 10  1  0  0  0  0
  9 11  1  0  0  0  0
  9 19  1  0  0  0  0
 11 12  1  0  0  0  0
 11 13  1  0  0  0  0
 11 14  1  0  0  0  0
 14 15  2  0  0  0  0
 14 16  1  0  0  0  0
 16 17  1  0  0  0  0
 16 18  1  0  0  0  0
 19 20  2  0  0  0  0
 19 21  1  0  0  0  0
 21 22  1  0  0  0  0
 21 23  1  0  0  0  0
 23 24  1  0  0  0  0
 23 25  1  0  0  0  0
 23 26  1  0  0  0  0
M  END
$$$$

  -OEChem-01062216063D

 26 25  0     1  0  0  0  0  0999 V2000
   -2.9223   -3.2677    0.8343 H   0  0  0  0  0  0  0  0  0  0  0  0
   -2.8626   -2.2269    0.5040 C   0  0  0  0  0  0  0  0  0  0  0  0
   -3.6679   -1.6600    0.9771 H   0  0  0  0  0  0  0  0  0  0  0  0
   -2.9910   -2.1957   -0.5809 H   0  0  0  0  0  0  0  0  0  0  0  0
   -1.5183   -1.6324    0.8806 C   0  0  0  0  0  0  0  0  0  0  0  0
   -0.7203   -2.3199    1.4970 O   0  0  0  0  0  0  0  0  0  0  0  0
   -1.2464   -0.3244    0.5197 N   0  0  0  0  0  0  0  0  0  0  0  0
   -1.9416    0.0840   -0.0995 H   0  0  0  0  0  0  0  0  0  0  0  0
    0.0709    0.3520    0.5305 C   0  0  1  0  0  0  0  0  0  0  0  0
   -0.1058    1.4153    0.3356 H   0  0  0  0  0  0  0  0  0  0  0  0
    0.8050    0.2541    1.8936 C   0  0  0  0  0  0  0  0  0  0  0  0
    0.9223   -0.7760    2.2276 H   0  0  0  0  0  0  0  0  0  0  0  0
    1.8128    0.6616    1.7984 H   0  0  0  0  0  0  0  0  0  0  0  0
    0.1186    1.0863    2.9652 C   0  0  0  0  0  0  0  0  0  0  0  0
   -0.3124    2.2036    2.7458 O   0  0  0  0  0  0  0  0  0  0  0  0
   -0.1275    0.5770    4.2073 N   0  0  0  0  0  0  0  0  0  0  0  0
   -0.7893    1.1025    4.7708 H   0  0  0  0  0  0  0  0  0  0  0  0
   -0.0534   -0.4291    4.3273 H   0  0  0  0  0  0  0  0  0  0  0  0
    0.9404   -0.1259   -0.6618 C   0  0  0  0  0  0  0  0  0  0  0  0
    0.4077   -0.6208   -1.6489 O   0  0  0  0  0  0  0  0  0  0  0  0
    2.3034    0.1138   -0.7085 N   0  0  0  0  0  0  0  0  0  0  0  0
    2.7364    0.5436    0.1024 H   0  0  0  0  0  0  0  0  0  0  0  0
    3.1483   -0.2767   -1.8313 C   0  0  0  0  0  0  0  0  0  0  0  0
    2.8191    0.2200   -2.7502 H   0  0  0  0  0  0  0  0  0  0  0  0
    4.1877    0.0062   -1.6392 H   0  0  0  0  0  0  0  0  0  0  0  0
    3.1070   -1.3607   -1.9823 H   0  0  0  0  0  0  0  0  0  0  0  0
  1  2  1  0  0  0  0
  2  3  1  0  0  0  0
  2  4  1  0  0  0  0
  2  5  1  0  0  0  0
  5  6  2  0  0  0  0
  5  7  1  0  0  0  0
  7  8  1  0  0  0  0
  7  9  1  0  0  0  0
  9 10  1  0  0  0  0
  9 11  1  0  0  0  0
  9 19  1  0  0  0  0
 11 12  1  0  0  0  0
 11 13  1  0  0  0  0
 11 14  1  0  0  0  0
 14 15  2  0  0  0  0
 14 16  1  0  0  0  0
 16 17  1  0  0  0  0
 16 18  1  0  0  0  0
 19 20  2  0  0  0  0
 19 21  1  0  0  0  0
 21 22  1  0  0  0  0
 21 23  1  0  0  0  0
 23 24  1  0  0  0  0
 23 25  1  0  0  0  0
 23 26  1  0  0  0  0
M  END
$$$$

  -OEChem-01062216063D

 26 25  0     1  0  0  0  0  0999 V2000
   -2.8922   -3.2767    0.8173 H   0  0  0  0  0  0  0  0  0  0  0  0
   -2.8437   -2.2300    0.5039 C   0  0  0  0  0  0  0  0  0  0  0  0
   -3.6407   -1.6741    1.0034 H   0  0  0  0  0  0  0  0  0  0  0  0
   -2.9960   -2.1802   -0.5773 H   0  0  0  0  0  0  0  0  0  0  0  0
   -1.4941   -1.6366    0.8620 C   0  0  0  0  0  0  0  0  0  0  0  0
   -0.6730   -2.3320    1.4383 O   0  0  0  0  0  0  0  0  0  0  0  0
   -1.2315   -0.3241    0.5141 N   0  0  0  0  0  0  0  0  0  0  0  0
   -1.9358    0.0987   -0.0854 H   0  0  0  0  0  0  0  0  0  0  0  0
    0.0791    0.3614    0.5419 C   0  0  1  0  0  0  0  0  0  0  0  0
   -0.1011    1.4241    0.3456 H   0  0  0  0  0  0  0  0  0  0  0  0
    0.7976    0.2714    1.9139 C   0  0  0  0  0  0  0  0  0  0  0  0
    0.9177   -0.7575    2.2519 H   0  0  0  0  0  0  0  0  0  0  0  0
    1.8012    0.6923    1.8286 H   0  0  0  0  0  0  0  0  0  0  0  0
    0.0904    1.0999    2.9749 C   0  0  0  0  0  0  0  0  0  0  0  0
   -0.3480    2.2129    2.7498 O   0  0  0  0  0  0  0  0  0  0  0  0
   -0.1613    0.5931    4.2168 N   0  0  0  0  0  0  0  0  0  0  0  0
   -0.8316    1.1150    4.7736 H   0  0  0  0  0  0  0  0  0  0  0  0
   -0.0710   -0.4102    4.3468 H   0  0  0  0  0  0  0  0  0  0  0  0
    0.9480   -0.1115   -0.6514 C   0  0  0  0  0  0  0  0  0  0  0  0
    0.4083   -0.3706   -1.7211 O   0  0  0  0  0  0  0  0  0  0  0  0
    2.3303   -0.1567   -0.5860 N   0  0  0  0  0  0  0  0  0  0  0  0
    2.7623    0.0048    0.3177 H   0  0  0  0  0  0  0  0  0  0  0  0
    3.1683   -0.6057   -1.6917 C   0  0  0  0  0  0  0  0  0  0  0  0
    3.0146    0.0283   -2.5714 H   0  0  0  0  0  0  0  0  0  0  0  0
    4.2246   -0.5545   -1.4107 H   0  0  0  0  0  0  0  0  0  0  0  0
    2.9296   -1.6411   -1.9570 H   0  0  0  0  0  0  0  0  0  0  0  0
  1  2  1  0  0  0  0
  2  3  1  0  0  0  0
  2  4  1  0  0  0  0
  2  5  1  0  0  0  0
  5  6  2  0  0  0  0
  5  7  1  0  0  0  0
  7  8  1  0  0  0  0
  7  9  1  0  0  0  0
  9 10  1  0  0  0  0
  9 11  1  0  0  0  0
  9 19  1  0  0  0  0
 11 12  1  0  0  0  0
 11 13  1  0  0  0  0
 11 14  1  0  0  0  0
 14 15  2  0  0  0  0
 14 16  1  0  0  0  0
 16 17  1  0  0  0  0
 16 18  1  0  0  0  0
 19 20  2  0  0  0  0
 19 21  1  0  0  0  0
 21 22  1  0  0  0  0
 21 23  1  0  0  0  0
 23 24  1  0  0  0  0
 23 25  1  0  0  0  0
 23 26  1  0  0  0  0
M  END
$$$$

  -OEChem-01062216063D

 26 25  0     1  0  0  0  0  0999 V2000
   -2.8829   -3.2729    0.8389 H   0  0  0  0  0  0  0  0  0  0  0  0
   -2.8404   -2.2252    0.5280 C   0  0  0  0  0  0  0  0  0  0  0  0
   -3.6123   -1.6669    1.0630 H   0  0  0  0  0  0  0  0  0  0  0  0
   -3.0375   -2.1689   -0.5456 H   0  0  0  0  0  0  0  0  0  0  0  0
   -1.4734   -1.6419    0.8331 C   0  0  0  0  0  0  0  0  0  0  0  0
   -0.6270   -2.3472    1.3590 O   0  0  0  0  0  0  0  0  0  0  0  0
   -1.2165   -0.3270    0.4925 N   0  0  0  0  0  0  0  0  0  0  0  0
   -1.9372    0.1179   -0.0706 H   0  0  0  0  0  0  0  0  0  0  0  0
    0.0883    0.3648    0.5381 C   0  0  1  0  0  0  0  0  0  0  0  0
   -0.0934    1.4268    0.3394 H   0  0  0  0  0  0  0  0  0  0  0  0
    0.7918    0.2802    1.9175 C   0  0  0  0  0  0  0  0  0  0  0  0
    0.9095   -0.7480    2.2589 H   0  0  0  0  0  0  0  0  0  0  0  0
    1.7953    0.7049    1.8375 H   0  0  0  0  0  0  0  0  0  0  0  0
    0.0683    1.1052    2.9710 C   0  0  0  0  0  0  0  0  0  0  0  0
   -0.3750    2.2153    2.7423 O   0  0  0  0  0  0  0  0  0  0  0  0
   -0.1896    0.5993    4.2122 N   0  0  0  0  0  0  0  0  0  0  0  0
   -0.8609    1.1212    4.7678 H   0  0  0  0  0  0  0  0  0  0  0  0
   -0.0877   -0.4015    4.3510 H   0  0  0  0  0  0  0  0  0  0  0  0
    0.9661   -0.1041   -0.6472 C   0  0  0  0  0  0  0  0  0  0  0  0
    0.4777   -0.1350   -1.7705 O   0  0  0  0  0  0  0  0  0  0  0  0
    2.3005   -0.4380   -0.4924 N   0  0  0  0  0  0  0  0  0  0  0  0
    2.6447   -0.5310    0.4578 H   0  0  0  0  0  0  0  0  0  0  0  0
    3.1253   -0.9412   -1.5842 C   0  0  0  0  0  0  0  0  0  0  0  0
    3.1645   -0.2139   -2.4019 H   0  0  0  0  0  0  0  0  0  0  0  0
    4.1464   -1.1211   -1.2347 H   0  0  0  0  0  0  0  0  0  0  0  0
    2.7184   -1.8824   -1.9688 H   0  0  0  0  0  0  0  0  0  0  0  0
  1  2  1  0  0  0  0
  2  3  1  0  0  0  0
  2  4  1  0  0  0  0
  2  5  1  0  0  0  0
  5  6  2  0  0  0  0
  5  7  1  0  0  0  0
  7  8  1  0  0  0  0
  7  9  1  0  0  0  0
  9 10  1  0  0  0  0
  9 11  1  0  0  0  0
  9 19  1  0  0  0  0
 11 12  1  0  0  0  0
 11 13  1  0  0  0  0
 11 14  1  0  0  0  0
 14 15  2  0  0  0  0
 14 16  1  0  0  0  0
 16 17  1  0  0  0  0
 16 18  1  0  0  0  0
 19 20  2  0  0  0  0
 19 21  1  0  0  0  0
 21 22  1  0  0  0  0
 21 23  1  0  0  0  0
 23 24  1  0  0  0  0
 23 25  1  0  0  0  0
 23 26  1  0  0  0  0
M  END
$$$$

  -OEChem-01062216063D

 26 25  0     1  0  0  0  0  0999 V2000
   -2.8798   -3.2679    0.8651 H   0  0  0  0  0  0  0  0  0  0  0  0
   -2.8419   -2.2203    0.5537 C   0  0  0  0  0  0  0  0  0  0  0  0
   -3.5900   -1.6578    1.1176 H   0  0  0  0  0  0  0  0  0  0  0  0
   -3.0782   -2.1616   -0.5117 H   0  0  0  0  0  0  0  0  0  0  0  0
   -1.4605   -1.6468    0.8085 C   0  0  0  0  0  0  0  0  0  0  0  0
   -0.5929   -2.3609    1.2864 O   0  0  0  0  0  0  0  0  0  0  0  0
   -1.2058   -0.3315    0.4689 N   0  0  0  0  0  0  0  0  0  0  0  0
   -1.9490    0.1420   -0.0394 H   0  0  0  0  0  0  0  0  0  0  0  0
    0.0960    0.3622    0.5281 C   0  0  1  0  0  0  0  0  0  0  0  0
   -0.0858    1.4239    0.3260 H   0  0  0  0  0  0  0  0  0  0  0  0
    0.7882    0.2819    1.9124 C   0  0  0  0  0  0  0  0  0  0  0  0
    0.8985   -0.7459    2.2582 H   0  0  0  0  0  0  0  0  0  0  0  0
    1.7944    0.7017    1.8339 H   0  0  0  0  0  0  0  0  0  0  0  0
    0.0551    1.1069    2.9596 C   0  0  0  0  0  0  0  0  0  0  0  0
   -0.3893    2.2155    2.7269 O   0  0  0  0  0  0  0  0  0  0  0  0
   -0.2050    0.6060    4.2027 N   0  0  0  0  0  0  0  0  0  0  0  0
   -0.8743    1.1306    4.7585 H   0  0  0  0  0  0  0  0  0  0  0  0
   -0.0906   -0.3914    4.3540 H   0  0  0  0  0  0  0  0  0  0  0  0
    0.9867   -0.1052   -0.6449 C   0  0  0  0  0  0  0  0  0  0  0  0
    0.6033    0.0867   -1.7919 O   0  0  0  0  0  0  0  0  0  0  0  0
    2.2092   -0.7194   -0.4368 N   0  0  0  0  0  0  0  0  0  0  0  0
    2.3997   -1.0354    0.5094 H   0  0  0  0  0  0  0  0  0  0  0  0
    3.0122   -1.2664   -1.5238 C   0  0  0  0  0  0  0  0  0  0  0  0
    3.2633   -0.4835   -2.2473 H   0  0  0  0  0  0  0  0  0  0  0  0
    3.9447   -1.6835   -1.1321 H   0  0  0  0  0  0  0  0  0  0  0  0
    2.4651   -2.0619   -2.0406 H   0  0  0  0  0  0  0  0  0  0  0  0
  1  2  1  0  0  0  0
  2  3  1  0  0  0  0
  2  4  1  0  0  0  0
  2  5  1  0  0  0  0
  5  6  2  0  0  0  0
  5  7  1  0  0  0  0
  7  8  1  0  0  0  0
  7  9  1  0  0  0  0
  9 10  1  0  0  0  0
  9 11  1  0  0  0  0
  9 19  1  0  0  0  0
 11 12  1  0  0  0  0
 11 13  1  0  0  0  0
 11 14  1  0  0  0  0
 14 15  2  0  0  0  0
 14 16  1  0  0  0  0
 16 17  1  0  0  0  0
 16 18  1  0  0  0  0
 19 20  2  0  0  0  0
 19 21  1  0  0  0  0
 21 22  1  0  0  0  0
 21 23  1  0  0  0  0
 23 24  1  0  0  0  0
 23 25  1  0  0  0  0
 23 26  1  0  0  0  0
M  END
$$$$

  -OEChem-01062216063D

 26 25  0     1  0  0  0  0  0999 V2000
   -2.8863   -3.2573    0.9131 H   0  0  0  0  0  0  0  0  0  0  0  0
   -2.8529   -2.2105    0.5979 C   0  0  0  0  0  0  0  0  0  0  0  0
   -3.5651   -1.6392    1.1982 H   0  0  0  0  0  0  0  0  0  0  0  0
   -3.1432   -2.1510   -0.4541 H   0  0  0  0  0  0  0  0  0  0  0  0
   -1.4544   -1.6513    0.7811 C   0  0  0  0  0  0  0  0  0  0  0  0
   -0.5648   -2.3760    1.2010 O   0  0  0  0  0  0  0  0  0  0  0  0
   -1.2002   -0.3374    0.4361 N   0  0  0  0  0  0  0  0  0  0  0  0
   -1.9687    0.1688    0.0025 H   0  0  0  0  0  0  0  0  0  0  0  0
    0.1006    0.3553    0.5071 C   0  0  1  0  0  0  0  0  0  0  0  0
   -0.0777    1.4172    0.3014 H   0  0  0  0  0  0  0  0  0  0  0  0
    0.7848    0.2757    1.8944 C   0  0  0  0  0  0  0  0  0  0  0  0
    0.8882   -0.7519    2.2422 H   0  0  0  0  0  0  0  0  0  0  0  0
    1.7941    0.6893    1.8165 H   0  0  0  0  0  0  0  0  0  0  0  0
    0.0467    1.1005    2.9379 C   0  0  0  0  0  0  0  0  0  0  0  0
   -0.3972    2.2090    2.7040 O   0  0  0  0  0  0  0  0  0  0  0  0
   -0.2151    0.6015    4.1816 N   0  0  0  0  0  0  0  0  0  0  0  0
   -0.8772    1.1295    4.7424 H   0  0  0  0  0  0  0  0  0  0  0  0
   -0.0868   -0.3922    4.3440 H   0  0  0  0  0  0  0  0  0  0  0  0
    1.0047   -0.1180   -0.6501 C   0  0  0  0  0  0  0  0  0  0  0  0
    0.7886    0.2906   -1.7834 O   0  0  0  0  0  0  0  0  0  0  0  0
    2.0549   -0.9900   -0.4269 N   0  0  0  0  0  0  0  0  0  0  0  0
    2.0287   -1.4902    0.4583 H   0  0  0  0  0  0  0  0  0  0  0  0
    2.8495   -1.5538   -1.5109 C   0  0  0  0  0  0  0  0  0  0  0  0
    3.3195   -0.7568   -2.0969 H   0  0  0  0  0  0  0  0  0  0  0  0
    3.6394   -2.1940   -1.1065 H   0  0  0  0  0  0  0  0  0  0  0  0
    2.2196   -2.1548   -2.1750 H   0  0  0  0  0  0  0  0  0  0  0  0
  1  2  1  0  0  0  0
  2  3  1  0  0  0  0
  2  4  1  0  0  0  0
  2  5  1  0  0  0  0
  5  6  2  0  0  0  0
  5  7  1  0  0  0  0
  7  8  1  0  0  0  0
  7  9  1  0  0  0  0
  9 10  1  0  0  0  0
  9 11  1  0  0  0  0
  9 19  1  0  0  0  0
 11 12  1  0  0  0  0
 11 13  1  0  0  0  0
 11 14  1  0  0  0  0
 14 15  2  0  0  0  0
 14 16  1  0  0  0  0
 16 17  1  0  0  0  0
 16 18  1  0  0  0  0
 19 20  2  0  0  0  0
 19 21  1  0  0  0  0
 21 22  1  0  0  0  0
 21 23  1  0  0  0  0
 23 24  1  0  0  0  0
 23 25  1  0  0  0  0
 23 26  1  0  0  0  0
M  END
$$$$

  -OEChem-01062216063D

 26 25  0     1  0  0  0  0  0999 V2000
   -2.9073   -3.2370    0.9801 H   0  0  0  0  0  0  0  0  0  0  0  0
   -2.8740   -2.1940    0.6529 C   0  0  0  0  0  0  0  0  0  0  0  0
   -3.5422   -1.6052    1.2861 H   0  0  0  0  0  0  0  0  0  0  0  0
   -3.2217   -2.1390   -0.3817 H   0  0  0  0  0  0  0  0  0  0  0  0
   -1.4583   -1.6578    0.7524 C   0  0  0  0  0  0  0  0  0  0  0  0
   -0.5528   -2.3983    1.1079 O   0  0  0  0  0  0  0  0  0  0  0  0
   -1.2019   -0.3466    0.3994 N   0  0  0  0  0  0  0  0  0  0  0  0
   -1.9929    0.1924    0.0547 H   0  0  0  0  0  0  0  0  0  0  0  0
    0.0998    0.3432    0.4787 C   0  0  1  0  0  0  0  0  0  0  0  0
   -0.0745    1.4056    0.2713 H   0  0  0  0  0  0  0  0  0  0  0  0
    0.7764    0.2591    1.8681 C   0  0  0  0  0  0  0  0  0  0  0  0
    0.8730   -0.7704    2.2133 H   0  0  0  0  0  0  0  0  0  0  0  0
    1.7888    0.6657    1.7939 H   0  0  0  0  0  0  0  0  0  0  0  0
    0.0355    1.0829    2.9105 C   0  0  0  0  0  0  0  0  0  0  0  0
   -0.4053    2.1928    2.6778 O   0  0  0  0  0  0  0  0  0  0  0  0
   -0.2232    0.5879    4.1568 N   0  0  0  0  0  0  0  0  0  0  0  0
   -0.8690    1.1235    4.7296 H   0  0  0  0  0  0  0  0  0  0  0  0
   -0.0726   -0.3995    4.3368 H   0  0  0  0  0  0  0  0  0  0  0  0
    1.0194   -0.1356   -0.6621 C   0  0  0  0  0  0  0  0  0  0  0  0
    1.0245    0.4616   -1.7300 O   0  0  0  0  0  0  0  0  0  0  0  0
    1.8513   -1.2239   -0.4764 N   0  0  0  0  0  0  0  0  0  0  0  0
    1.5937   -1.8325    0.3003 H   0  0  0  0  0  0  0  0  0  0  0  0
    2.6511   -1.7895   -1.5552 C   0  0  0  0  0  0  0  0  0  0  0  0
    3.3268   -1.0333   -1.9687 H   0  0  0  0  0  0  0  0  0  0  0  0
    3.2551   -2.6217   -1.1815 H   0  0  0  0  0  0  0  0  0  0  0  0
    2.0043   -2.1607   -2.3570 H   0  0  0  0  0  0  0  0  0  0  0  0
  1  2  1  0  0  0  0
  2  3  1  0  0  0  0
  2  4  1  0  0  0  0
  2  5  1  0  0  0  0
  5  6  2  0  0  0  0
  5  7  1  0  0  0  0
  7  8  1  0  0  0  0
  7  9  1  0  0  0  0
  9 10  1  0  0  0  0
  9 11  1  0  0  0  0
  9 19  1  0  0  0  0
 11 12  1  0  0  0  0
 11 13  1  0  0  0  0
 11 14  1  0  0  0  0
 14 15  2  0  0  0  0
 14 16  1  0  0  0  0
 16 17  1  0  0  0  0
 16 18  1  0  0  0  0
 19 20  2  0  0  0  0
 19 21  1  0  0  0  0
 21 22  1  0  0  0  0
 21 23  1  0  0  0  0
 23 24  1  0  0  0  0
 23 25  1  0  0  0  0
 23 26  1  0  0  0  0
M  END
$$$$

  -OEChem-01062216063D

 26 25  0     1  0  0  0  0  0999 V2000
   -2.9666   -3.2051    1.0489 H   0  0  0  0  0  0  0  0  0  0  0  0
   -2.9209   -2.1697    0.6995 C   0  0  0  0  0  0  0  0  0  0  0  0
   -3.5551   -1.5538    1.3416 H   0  0  0  0  0  0  0  0  0  0  0  0
   -3.3007   -2.1269   -0.3243 H   0  0  0  0  0  0  0  0  0  0  0  0
   -1.4912   -1.6639    0.7437 C   0  0  0  0  0  0  0  0  0  0  0  0
   -0.5905   -2.4233    1.0702 O   0  0  0  0  0  0  0  0  0  0  0  0
   -1.2200   -0.3592    0.3762 N   0  0  0  0  0  0  0  0  0  0  0  0
   -2.0194    0.1998    0.0871 H   0  0  0  0  0  0  0  0  0  0  0  0
    0.0850    0.3297    0.4478 C   0  0  1  0  0  0  0  0  0  0  0  0
   -0.0877    1.3926    0.2406 H   0  0  0  0  0  0  0  0  0  0  0  0
    0.7663    0.2375    1.8332 C   0  0  0  0  0  0  0  0  0  0  0  0
    0.8608   -0.7953    2.1703 H   0  0  0  0  0  0  0  0  0  0  0  0
    1.7802    0.6404    1.7566 H   0  0  0  0  0  0  0  0  0  0  0  0
    0.0326    1.0573    2.8838 C   0  0  0  0  0  0  0  0  0  0  0  0
   -0.4070    2.1695    2.6595 O   0  0  0  0  0  0  0  0  0  0  0  0
   -0.2087    0.5607    4.1330 N   0  0  0  0  0  0  0  0  0  0  0  0
   -0.8350    1.0993    4.7241 H   0  0  0  0  0  0  0  0  0  0  0  0
   -0.0367   -0.4220    4.3200 H   0  0  0  0  0  0  0  0  0  0  0  0
    1.0212   -0.1523   -0.6782 C   0  0  0  0  0  0  0  0  0  0  0  0
    1.2537    0.5737   -1.6348 O   0  0  0  0  0  0  0  0  0  0  0  0
    1.6200   -1.3947   -0.5933 N   0  0  0  0  0  0  0  0  0  0  0  0
    1.2148   -2.0275    0.0999 H   0  0  0  0  0  0  0  0  0  0  0  0
    2.4364   -1.9582   -1.6599 C   0  0  0  0  0  0  0  0  0  0  0  0
    3.2745   -1.2930   -1.8927 H   0  0  0  0  0  0  0  0  0  0  0  0
    2.8418   -2.9268   -1.3522 H   0  0  0  0  0  0  0  0  0  0  0  0
    1.8381   -2.1020   -2.5654 H   0  0  0  0  0  0  0  0  0  0  0  0
  1  2  1  0  0  0  0
  2  3  1  0  0  0  0
  2  4  1  0  0  0  0
  2  5  1  0  0  0  0
  5  6  2  0  0  0  0
  5  7  1  0  0  0  0
  7  8  1  0  0  0  0
  7  9  1  0  0  0  0
  9 10  1  0  0  0  0
  9 11  1  0  0  0  0
  9 19  1  0  0  0  0
 11 12  1  0  0  0  0
 11 13  1  0  0  0  0
 11 14  1  0  0  0  0
 14 15  2  0  0  0  0
 14 16  1  0  0  0  0
 16 17  1  0  0  0  0
 16 18  1  0  0  0  0
 19 20  2  0  0  0  0
 19 21  1  0  0  0  0
 21 22  1  0  0  0  0
 21 23  1  0  0  0  0
 23 24  1  0  0  0  0
 23 25  1  0  0  0  0
 23 26  1  0  0  0  0
M  END
$$$$

  -OEChem-01062216063D

 26 25  0     1  0  0  0  0  0999 V2000
   -3.0399   -3.1774    1.0954 H   0  0  0  0  0  0  0  0  0  0  0  0
   -2.9772   -2.1460    0.7368 C   0  0  0  0  0  0  0  0  0  0  0  0
   -3.5922   -1.5121    1.3805 H   0  0  0  0  0  0  0  0  0  0  0  0
   -3.3668   -2.1041   -0.2834 H   0  0  0  0  0  0  0  0  0  0  0  0
   -1.5374   -1.6685    0.7606 C   0  0  0  0  0  0  0  0  0  0  0  0
   -0.6493   -2.4460    1.0764 O   0  0  0  0  0  0  0  0  0  0  0  0
   -1.2468   -0.3725    0.3768 N   0  0  0  0  0  0  0  0  0  0  0  0
   -2.0466    0.1987    0.1138 H   0  0  0  0  0  0  0  0  0  0  0  0
    0.0640    0.3117    0.4261 C   0  0  1  0  0  0  0  0  0  0  0  0
   -0.1080    1.3746    0.2176 H   0  0  0  0  0  0  0  0  0  0  0  0
    0.7588    0.2153    1.8029 C   0  0  0  0  0  0  0  0  0  0  0  0
    0.8506   -0.8190    2.1356 H   0  0  0  0  0  0  0  0  0  0  0  0
    1.7743    0.6123    1.7161 H   0  0  0  0  0  0  0  0  0  0  0  0
    0.0414    1.0392    2.8612 C   0  0  0  0  0  0  0  0  0  0  0  0
   -0.3942    2.1541    2.6425 O   0  0  0  0  0  0  0  0  0  0  0  0
   -0.1881    0.5436    4.1129 N   0  0  0  0  0  0  0  0  0  0  0  0
   -0.7982    1.0878    4.7156 H   0  0  0  0  0  0  0  0  0  0  0  0
   -0.0115   -0.4379    4.3017 H   0  0  0  0  0  0  0  0  0  0  0  0
    1.0080   -0.1720   -0.6938 C   0  0  0  0  0  0  0  0  0  0  0  0
    1.4517    0.6271   -1.5064 O   0  0  0  0  0  0  0  0  0  0  0  0
    1.3747   -1.5013   -0.7731 N   0  0  0  0  0  0  0  0  0  0  0  0
    0.9034   -2.1394   -0.1271 H   0  0  0  0  0  0  0  0  0  0  0  0
    2.2124   -2.0483   -1.8315 C   0  0  0  0  0  0  0  0  0  0  0  0
    3.1759   -1.5290   -1.8650 H   0  0  0  0  0  0  0  0  0  0  0  0
    2.4002   -3.1112   -1.6523 H   0  0  0  0  0  0  0  0  0  0  0  0
    1.7198   -1.9411   -2.8034 H   0  0  0  0  0  0  0  0  0  0  0  0
  1  2  1  0  0  0  0
  2  3  1  0  0  0  0
  2  4  1  0  0  0  0
  2  5  1  0  0  0  0
  5  6  2  0  0  0  0
  5  7  1  0  0  0  0
  7  8  1  0  0  0  0
  7  9  1  0  0  0  0
  9 10  1  0  0  0  0
  9 11  1  0  0  0  0
  9 19  1  0  0  0  0
 11 12  1  0  0  0  0
 11 13  1  0  0  0  0
 11 14  1  0  0  0  0
 14 15  2  0  0  0  0
 14 16  1  0  0  0  0
 16 17  1  0  0  0  0
 16 18  1  0  0  0  0
 19 20  2  0  0  0  0
 19 21  1  0  0  0  0
 21 22  1  0  0  0  0
 21 23  1  0  0  0  0
 23 24  1  0  0  0  0
 23 25  1  0  0  0  0
 23 26  1  0  0  0  0
M  END
$$$$

  -OEChem-01062216063D

 26 25  0     1  0  0  0  0  0999 V2000
   -3.1033   -3.1481    1.1709 H   0  0  0  0  0  0  0  0  0  0  0  0
   -3.0379   -2.1145    0.8189 C   0  0  0  0  0  0  0  0  0  0  0  0
   -3.6005   -1.4746    1.5032 H   0  0  0  0  0  0  0  0  0  0  0  0
   -3.4845   -2.0530   -0.1766 H   0  0  0  0  0  0  0  0  0  0  0  0
   -1.5889   -1.6690    0.7644 C   0  0  0  0  0  0  0  0  0  0  0  0
   -0.7018   -2.4677    1.0233 O   0  0  0  0  0  0  0  0  0  0  0  0
   -1.2924   -0.3777    0.3702 N   0  0  0  0  0  0  0  0  0  0  0  0
   -2.0970    0.2105    0.1654 H   0  0  0  0  0  0  0  0  0  0  0  0
    0.0252    0.2982    0.3868 C   0  0  1  0  0  0  0  0  0  0  0  0
   -0.1455    1.3624    0.1846 H   0  0  0  0  0  0  0  0  0  0  0  0
    0.7431    0.1886    1.7498 C   0  0  0  0  0  0  0  0  0  0  0  0
    0.8305   -0.8492    2.0737 H   0  0  0  0  0  0  0  0  0  0  0  0
    1.7610    0.5763    1.6482 H   0  0  0  0  0  0  0  0  0  0  0  0
    0.0519    1.0139    2.8241 C   0  0  0  0  0  0  0  0  0  0  0  0
   -0.3775    2.1338    2.6186 O   0  0  0  0  0  0  0  0  0  0  0  0
   -0.1679    0.5102    4.0744 N   0  0  0  0  0  0  0  0  0  0  0  0
   -0.7537    1.0595    4.6962 H   0  0  0  0  0  0  0  0  0  0  0  0
    0.0150   -0.4707    4.2602 H   0  0  0  0  0  0  0  0  0  0  0  0
    0.9608   -0.1796   -0.7447 C   0  0  0  0  0  0  0  0  0  0  0  0
    1.6165    0.6392   -1.3736 O   0  0  0  0  0  0  0  0  0  0  0  0
    1.0978   -1.5236   -1.0327 N   0  0  0  0  0  0  0  0  0  0  0  0
    0.6006   -2.1714   -0.4170 H   0  0  0  0  0  0  0  0  0  0  0  0
    2.0287   -2.0508   -2.0209 C   0  0  0  0  0  0  0  0  0  0  0  0
    3.0578   -1.7849   -1.7576 H   0  0  0  0  0  0  0  0  0  0  0  0
    1.9530   -3.1415   -2.0658 H   0  0  0  0  0  0  0  0  0  0  0  0
    1.8024   -1.6474   -3.0134 H   0  0  0  0  0  0  0  0  0  0  0  0
  1  2  1  0  0  0  0
  2  3  1  0  0  0  0
  2  4  1  0  0  0  0
  2  5  1  0  0  0  0
  5  6  2  0  0  0  0
  5  7  1  0  0  0  0
  7  8  1  0  0  0  0
  7  9  1  0  0  0  0
  9 10  1  0  0  0  0
  9 11  1  0  0  0  0
  9 19  1  0  0  0  0
 11 12  1  0  0  0  0
 11 13  1  0  0  0  0
 11 14  1  0  0  0  0
 14 15  2  0  0  0  0
 14 16  1  0  0  0  0
 16 17  1  0  0  0  0
 16 18  1  0  0  0  0
 19 20  2  0  0  0  0
 19 21  1  0  0  0  0
 21 22  1  0  0  0  0
 21 23  1  0  0  0  0
 23 24  1  0  0  0  0
 23 25  1  0  0  0  0
 23 26  1  0  0  0  0
M  END
$$$$

  -OEChem-01062216063D

 26 25  0     1  0  0  0  0  0999 V2000
   -3.1456   -3.1330    1.2058 H   0  0  0  0  0  0  0  0  0  0  0  0
   -3.0841   -2.0962    0.8631 C   0  0  0  0  0  0  0  0  0  0  0  0
   -3.5826   -1.4549    1.5943 H   0  0  0  0  0  0  0  0  0  0  0  0
   -3.6000   -2.0112   -0.0964 H   0  0  0  0  0  0  0  0  0  0  0  0
   -1.6334   -1.6791    0.7115 C   0  0  0  0  0  0  0  0  0  0  0  0
   -0.7466   -2.5031    0.8709 O   0  0  0  0  0  0  0  0  0  0  0  0
   -1.3340   -0.3859    0.3266 N   0  0  0  0  0  0  0  0  0  0  0  0
   -2.1383    0.2275    0.2155 H   0  0  0  0  0  0  0  0  0  0  0  0
   -0.0108    0.2794    0.3564 C   0  0  1  0  0  0  0  0  0  0  0  0
   -0.1728    1.3462    0.1622 H   0  0  0  0  0  0  0  0  0  0  0  0
    0.6805    0.1481    1.7314 C   0  0  0  0  0  0  0  0  0  0  0  0
    0.7453   -0.8950    2.0449 H   0  0  0  0  0  0  0  0  0  0  0  0
    1.7052    0.5228    1.6534 H   0  0  0  0  0  0  0  0  0  0  0  0
   -0.0218    0.9717    2.8001 C   0  0  0  0  0  0  0  0  0  0  0  0
   -0.4348    2.0983    2.5976 O   0  0  0  0  0  0  0  0  0  0  0  0
   -0.2495    0.4700    4.0498 N   0  0  0  0  0  0  0  0  0  0  0  0
   -0.5549    1.1413    4.7485 H   0  0  0  0  0  0  0  0  0  0  0  0
    0.2395   -0.3732    4.3324 H   0  0  0  0  0  0  0  0  0  0  0  0
    0.9476   -0.1817   -0.7652 C   0  0  0  0  0  0  0  0  0  0  0  0
    1.7887    0.5982   -1.1908 O   0  0  0  0  0  0  0  0  0  0  0  0
    0.8855   -1.4596   -1.2873 N   0  0  0  0  0  0  0  0  0  0  0  0
    0.3179   -2.1228   -0.7558 H   0  0  0  0  0  0  0  0  0  0  0  0
    1.8466   -1.9768   -2.2525 C   0  0  0  0  0  0  0  0  0  0  0  0
    2.8540   -1.9849   -1.8234 H   0  0  0  0  0  0  0  0  0  0  0  0
    1.5814   -2.9992   -2.5380 H   0  0  0  0  0  0  0  0  0  0  0  0
    1.8533   -1.3581   -3.1561 H   0  0  0  0  0  0  0  0  0  0  0  0
  1  2  1  0  0  0  0
  2  3  1  0  0  0  0
  2  4  1  0  0  0  0
  2  5  1  0  0  0  0
  5  6  2  0  0  0  0
  5  7  1  0  0  0  0
  7  8  1  0  0  0  0
  7  9  1  0  0  0  0
  9 10  1  0  0  0  0
  9 11  1  0  0  0  0
  9 19  1  0  0  0  0
 11 12  1  0  0  0  0
 11 13  1  0  0  0  0
 11 14  1  0  0  0  0
 14 15  2  0  0  0  0
 14 16  1  0  0  0  0
 16 17  1  0  0  0  0
 16 18  1  0  0  0  0
 19 20  2  0  0  0  0
 19 21  1  0  0  0  0
 21 22  1  0  0  0  0
 21 23  1  0  0  0  0
 23 24  1  0  0  0  0
 23 25  1  0  0  0  0
 23 26  1  0  0  0  0
M  END
$$$$

  -OEChem-01062216063D

 26 25  0     1  0  0  0  0  0999 V2000
   -3.1187   -3.1249    1.2450 H   0  0  0  0  0  0  0  0  0  0  0  0
   -3.0708   -2.0845    0.9112 C   0  0  0  0  0  0  0  0  0  0  0  0
   -3.5300   -1.4501    1.6736 H   0  0  0  0  0  0  0  0  0  0  0  0
   -3.6325   -1.9871   -0.0212 H   0  0  0  0  0  0  0  0  0  0  0  0
   -1.6277   -1.6711    0.6933 C   0  0  0  0  0  0  0  0  0  0  0  0
   -0.7385   -2.5026    0.7760 O   0  0  0  0  0  0  0  0  0  0  0  0
   -1.3381   -0.3757    0.3109 N   0  0  0  0  0  0  0  0  0  0  0  0
   -2.1427    0.2451    0.2599 H   0  0  0  0  0  0  0  0  0  0  0  0
   -0.0135    0.2880    0.3431 C   0  0  1  0  0  0  0  0  0  0  0  0
   -0.1709    1.3562    0.1530 H   0  0  0  0  0  0  0  0  0  0  0  0
    0.6701    0.1437    1.7214 C   0  0  0  0  0  0  0  0  0  0  0  0
    0.7286   -0.9027    2.0258 H   0  0  0  0  0  0  0  0  0  0  0  0
    1.6971    0.5150    1.6551 H   0  0  0  0  0  0  0  0  0  0  0  0
   -0.0362    0.9615    2.7915 C   0  0  0  0  0  0  0  0  0  0  0  0
   -0.4447    2.0908    2.5951 O   0  0  0  0  0  0  0  0  0  0  0  0
   -0.2755    0.4496    4.0347 N   0  0  0  0  0  0  0  0  0  0  0  0
   -0.5785    1.1183    4.7370 H   0  0  0  0  0  0  0  0  0  0  0  0
    0.2152   -0.3937    4.3143 H   0  0  0  0  0  0  0  0  0  0  0  0
    0.9466   -0.1694   -0.7798 C   0  0  0  0  0  0  0  0  0  0  0  0
    1.9265    0.5141   -1.0451 O   0  0  0  0  0  0  0  0  0  0  0  0
    0.7012   -1.3139   -1.5146 N   0  0  0  0  0  0  0  0  0  0  0  0
    0.0480   -1.9651   -1.0782 H   0  0  0  0  0  0  0  0  0  0  0  0
    1.6404   -1.8371   -2.4983 C   0  0  0  0  0  0  0  0  0  0  0  0
    2.5873   -2.1064   -2.0189 H   0  0  0  0  0  0  0  0  0  0  0  0
    1.2262   -2.7295   -2.9771 H   0  0  0  0  0  0  0  0  0  0  0  0
    1.8382   -1.0909   -3.2749 H   0  0  0  0  0  0  0  0  0  0  0  0
  1  2  1  0  0  0  0
  2  3  1  0  0  0  0
  2  4  1  0  0  0  0
  2  5  1  0  0  0  0
  5  6  2  0  0  0  0
  5  7  1  0  0  0  0
  7  8  1  0  0  0  0
  7  9  1  0  0  0  0
  9 10  1  0  0  0  0
  9 11  1  0  0  0  0
  9 19  1  0  0  0  0
 11 12  1  0  0  0  0
 11 13  1  0  0  0  0
 11 14  1  0  0  0  0
 14 15  2  0  0  0  0
 14 16  1  0  0  0  0
 16 17  1  0  0  0  0
 16 18  1  0  0  0  0
 19 20  2  0  0  0  0
 19 21  1  0  0  0  0
 21 22  1  0  0  0  0
 21 23  1  0  0  0  0
 23 24  1  0  0  0  0
 23 25  1  0  0  0  0
 23 26  1  0  0  0  0
M  END
$$$$

  -OEChem-01062216063D

 26 25  0     1  0  0  0  0  0999 V2000
   -3.0816   -3.1290    1.2663 H   0  0  0  0  0  0  0  0  0  0  0  0
   -3.0442   -2.0876    0.9341 C   0  0  0  0  0  0  0  0  0  0  0  0
   -3.4847   -1.4565    1.7099 H   0  0  0  0  0  0  0  0  0  0  0  0
   -3.6299   -1.9887    0.0169 H   0  0  0  0  0  0  0  0  0  0  0  0
   -1.6081   -1.6707    0.6802 C   0  0  0  0  0  0  0  0  0  0  0  0
   -0.7168   -2.5011    0.7275 O   0  0  0  0  0  0  0  0  0  0  0  0
   -1.3292   -0.3707    0.3058 N   0  0  0  0  0  0  0  0  0  0  0  0
   -2.1337    0.2525    0.2984 H   0  0  0  0  0  0  0  0  0  0  0  0
   -0.0033    0.2902    0.3433 C   0  0  1  0  0  0  0  0  0  0  0  0
   -0.1574    1.3588    0.1564 H   0  0  0  0  0  0  0  0  0  0  0  0
    0.6687    0.1405    1.7289 C   0  0  0  0  0  0  0  0  0  0  0  0
    0.7208   -0.9069    2.0317 H   0  0  0  0  0  0  0  0  0  0  0  0
    1.6975    0.5080    1.6768 H   0  0  0  0  0  0  0  0  0  0  0  0
   -0.0452    0.9594    2.7929 C   0  0  0  0  0  0  0  0  0  0  0  0
   -0.4480    2.0905    2.5935 O   0  0  0  0  0  0  0  0  0  0  0  0
   -0.3036    0.4446    4.0311 N   0  0  0  0  0  0  0  0  0  0  0  0
   -0.6096    1.1136    4.7318 H   0  0  0  0  0  0  0  0  0  0  0  0
    0.1830   -0.4002    4.3141 H   0  0  0  0  0  0  0  0  0  0  0  0
    0.9534   -0.1625   -0.7862 C   0  0  0  0  0  0  0  0  0  0  0  0
    2.0461    0.3767   -0.9048 O   0  0  0  0  0  0  0  0  0  0  0  0
    0.5635   -1.1032   -1.7212 N   0  0  0  0  0  0  0  0  0  0  0  0
   -0.2195   -1.6859   -1.4343 H   0  0  0  0  0  0  0  0  0  0  0  0
    1.4674   -1.6205   -2.7409 C   0  0  0  0  0  0  0  0  0  0  0  0
    2.3141   -2.1363   -2.2760 H   0  0  0  0  0  0  0  0  0  0  0  0
    0.9409   -2.3288   -3.3876 H   0  0  0  0  0  0  0  0  0  0  0  0
    1.8501   -0.8054   -3.3641 H   0  0  0  0  0  0  0  0  0  0  0  0
  1  2  1  0  0  0  0
  2  3  1  0  0  0  0
  2  4  1  0  0  0  0
  2  5  1  0  0  0  0
  5  6  2  0  0  0  0
  5  7  1  0  0  0  0
  7  8  1  0  0  0  0
  7  9  1  0  0  0  0
  9 10  1  0  0  0  0
  9 11  1  0  0  0  0
  9 19  1  0  0  0  0
 11 12  1  0  0  0  0
 11 13  1  0  0  0  0
 11 14  1  0  0  0  0
 14 15  2  0  0  0  0
 14 16  1  0  0  0  0
 16 17  1  0  0  0  0
 16 18  1  0  0  0  0
 19 20  2  0  0  0  0
 19 21  1  0  0  0  0
 21 22  1  0  0  0  0
 21 23  1  0  0  0  0
 23 24  1  0  0  0  0
 23 25  1  0  0  0  0
 23 26  1  0  0  0  0
M  END
$$$$

  -OEChem-01062216063D

 26 25  0     1  0  0  0  0  0999 V2000
   -3.0410   -3.1590    1.2211 H   0  0  0  0  0  0  0  0  0  0  0  0
   -3.0087   -2.1104    0.9115 C   0  0  0  0  0  0  0  0  0  0  0  0
   -3.4560   -1.4987    1.6989 H   0  0  0  0  0  0  0  0  0  0  0  0
   -3.5921   -1.9956   -0.0052 H   0  0  0  0  0  0  0  0  0  0  0  0
   -1.5740   -1.6791    0.6724 C   0  0  0  0  0  0  0  0  0  0  0  0
   -0.6754   -2.4992    0.7435 O   0  0  0  0  0  0  0  0  0  0  0  0
   -1.3065   -0.3729    0.3084 N   0  0  0  0  0  0  0  0  0  0  0  0
   -2.1139    0.2465    0.3175 H   0  0  0  0  0  0  0  0  0  0  0  0
    0.0176    0.2903    0.3550 C   0  0  1  0  0  0  0  0  0  0  0  0
   -0.1365    1.3584    0.1669 H   0  0  0  0  0  0  0  0  0  0  0  0
    0.6779    0.1453    1.7484 C   0  0  0  0  0  0  0  0  0  0  0  0
    0.7302   -0.9009    2.0545 H   0  0  0  0  0  0  0  0  0  0  0  0
    1.7061    0.5158    1.7094 H   0  0  0  0  0  0  0  0  0  0  0  0
   -0.0488    0.9666    2.8013 C   0  0  0  0  0  0  0  0  0  0  0  0
   -0.4516    2.0962    2.5922 O   0  0  0  0  0  0  0  0  0  0  0  0
   -0.3218    0.4565    4.0383 N   0  0  0  0  0  0  0  0  0  0  0  0
   -0.6345    1.1289    4.7327 H   0  0  0  0  0  0  0  0  0  0  0  0
    0.1644   -0.3854    4.3304 H   0  0  0  0  0  0  0  0  0  0  0  0
    0.9649   -0.1611   -0.7840 C   0  0  0  0  0  0  0  0  0  0  0  0
    2.1419    0.1762   -0.7778 O   0  0  0  0  0  0  0  0  0  0  0  0
    0.4732   -0.8443   -1.8812 N   0  0  0  0  0  0  0  0  0  0  0  0
   -0.4479   -1.2548   -1.7619 H   0  0  0  0  0  0  0  0  0  0  0  0
    1.3286   -1.3514   -2.9469 C   0  0  0  0  0  0  0  0  0  0  0  0
    2.0290   -2.0951   -2.5531 H   0  0  0  0  0  0  0  0  0  0  0  0
    0.7227   -1.8217   -3.7271 H   0  0  0  0  0  0  0  0  0  0  0  0
    1.9000   -0.5350   -3.4011 H   0  0  0  0  0  0  0  0  0  0  0  0
  1  2  1  0  0  0  0
  2  3  1  0  0  0  0
  2  4  1  0  0  0  0
  2  5  1  0  0  0  0
  5  6  2  0  0  0  0
  5  7  1  0  0  0  0
  7  8  1  0  0  0  0
  7  9  1  0  0  0  0
  9 10  1  0  0  0  0
  9 11  1  0  0  0  0
  9 19  1  0  0  0  0
 11 12  1  0  0  0  0
 11 13  1  0  0  0  0
 11 14  1  0  0  0  0
 14 15  2  0  0  0  0
 14 16  1  0  0  0  0
 16 17  1  0  0  0  0
 16 18  1  0  0  0  0
 19 20  2  0  0  0  0
 19 21  1  0  0  0  0
 21 22  1  0  0  0  0
 21 23  1  0  0  0  0
 23 24  1  0  0  0  0
 23 25  1  0  0  0  0
 23 26  1  0  0  0  0
M  END
$$$$

  -OEChem-01062216063D

 26 25  0     1  0  0  0  0  0999 V2000
   -3.0101   -3.1805    1.1742 H   0  0  0  0  0  0  0  0  0  0  0  0
   -2.9808   -2.1316    0.8654 C   0  0  0  0  0  0  0  0  0  0  0  0
   -3.4568   -1.5247    1.6396 H   0  0  0  0  0  0  0  0  0  0  0  0
   -3.5389   -2.0243   -0.0677 H   0  0  0  0  0  0  0  0  0  0  0  0
   -1.5444   -1.6856    0.6660 C   0  0  0  0  0  0  0  0  0  0  0  0
   -0.6416   -2.4966    0.7743 O   0  0  0  0  0  0  0  0  0  0  0  0
   -1.2825   -0.3752    0.3104 N   0  0  0  0  0  0  0  0  0  0  0  0
   -2.0936    0.2390    0.3145 H   0  0  0  0  0  0  0  0  0  0  0  0
    0.0389    0.2912    0.3684 C   0  0  1  0  0  0  0  0  0  0  0  0
   -0.1139    1.3593    0.1787 H   0  0  0  0  0  0  0  0  0  0  0  0
    0.6911    0.1534    1.7669 C   0  0  0  0  0  0  0  0  0  0  0  0
    0.7470   -0.8914    2.0771 H   0  0  0  0  0  0  0  0  0  0  0  0
    1.7172    0.5297    1.7343 H   0  0  0  0  0  0  0  0  0  0  0  0
   -0.0457    0.9758    2.8118 C   0  0  0  0  0  0  0  0  0  0  0  0
   -0.4508    2.1033    2.5944 O   0  0  0  0  0  0  0  0  0  0  0  0
   -0.3272    0.4684    4.0480 N   0  0  0  0  0  0  0  0  0  0  0  0
   -0.6494    1.1395    4.7392 H   0  0  0  0  0  0  0  0  0  0  0  0
    0.1529   -0.3758    4.3439 H   0  0  0  0  0  0  0  0  0  0  0  0
    0.9762   -0.1657   -0.7770 C   0  0  0  0  0  0  0  0  0  0  0  0
    2.1926   -0.0669   -0.6757 O   0  0  0  0  0  0  0  0  0  0  0  0
    0.4411   -0.5582   -1.9906 N   0  0  0  0  0  0  0  0  0  0  0  0
   -0.5560   -0.7476   -1.9971 H   0  0  0  0  0  0  0  0  0  0  0  0
    1.2546   -1.0439   -3.0986 C   0  0  0  0  0  0  0  0  0  0  0  0
    1.7929   -1.9524   -2.8083 H   0  0  0  0  0  0  0  0  0  0  0  0
    0.6212   -1.2751   -3.9603 H   0  0  0  0  0  0  0  0  0  0  0  0
    1.9827   -0.2840   -3.4016 H   0  0  0  0  0  0  0  0  0  0  0  0
  1  2  1  0  0  0  0
  2  3  1  0  0  0  0
  2  4  1  0  0  0  0
  2  5  1  0  0  0  0
  5  6  2  0  0  0  0
  5  7  1  0  0  0  0
  7  8  1  0  0  0  0
  7  9  1  0  0  0  0
  9 10  1  0  0  0  0
  9 11  1  0  0  0  0
  9 19  1  0  0  0  0
 11 12  1  0  0  0  0
 11 13  1  0  0  0  0
 11 14  1  0  0  0  0
 14 15  2  0  0  0  0
 14 16  1  0  0  0  0
 16 17  1  0  0  0  0
 16 18  1  0  0  0  0
 19 20  2  0  0  0  0
 19 21  1  0  0  0  0
 21 22  1  0  0  0  0
 21 23  1  0  0  0  0
 23 24  1  0  0  0  0
 23 25  1  0  0  0  0
 23 26  1  0  0  0  0
M  END
$$$$

  -OEChem-01062216063D

 26 25  0     1  0  0  0  0  0999 V2000
   -3.0082   -3.1906    1.1462 H   0  0  0  0  0  0  0  0  0  0  0  0
   -2.9731   -2.1414    0.8389 C   0  0  0  0  0  0  0  0  0  0  0  0
   -3.4635   -1.5353    1.6046 H   0  0  0  0  0  0  0  0  0  0  0  0
   -3.5135   -2.0335   -0.1046 H   0  0  0  0  0  0  0  0  0  0  0  0
   -1.5336   -1.6943    0.6662 C   0  0  0  0  0  0  0  0  0  0  0  0
   -0.6331   -2.5020    0.8102 O   0  0  0  0  0  0  0  0  0  0  0  0
   -1.2703   -0.3840    0.3102 N   0  0  0  0  0  0  0  0  0  0  0  0
   -2.0840    0.2263    0.3009 H   0  0  0  0  0  0  0  0  0  0  0  0
    0.0485    0.2852    0.3722 C   0  0  1  0  0  0  0  0  0  0  0  0
   -0.1041    1.3525    0.1790 H   0  0  0  0  0  0  0  0  0  0  0  0
    0.6979    0.1557    1.7728 C   0  0  0  0  0  0  0  0  0  0  0  0
    0.7583   -0.8875    2.0873 H   0  0  0  0  0  0  0  0  0  0  0  0
    1.7228    0.5360    1.7386 H   0  0  0  0  0  0  0  0  0  0  0  0
   -0.0425    0.9799    2.8128 C   0  0  0  0  0  0  0  0  0  0  0  0
   -0.4498    2.1055    2.5888 O   0  0  0  0  0  0  0  0  0  0  0  0
   -0.3240    0.4773    4.0508 N   0  0  0  0  0  0  0  0  0  0  0  0
   -0.6495    1.1494    4.7393 H   0  0  0  0  0  0  0  0  0  0  0  0
    0.1561   -0.3660    4.3498 H   0  0  0  0  0  0  0  0  0  0  0  0
    0.9808   -0.1801   -0.7734 C   0  0  0  0  0  0  0  0  0  0  0  0
    2.1852   -0.3217   -0.6027 O   0  0  0  0  0  0  0  0  0  0  0  0
    0.4796   -0.2749   -2.0593 N   0  0  0  0  0  0  0  0  0  0  0  0
   -0.5303   -0.2478   -2.1548 H   0  0  0  0  0  0  0  0  0  0  0  0
    1.2826   -0.7057   -3.1974 C   0  0  0  0  0  0  0  0  0  0  0  0
    1.6448   -1.7279   -3.0449 H   0  0  0  0  0  0  0  0  0  0  0  0
    0.6847   -0.6815   -4.1133 H   0  0  0  0  0  0  0  0  0  0  0  0
    2.1440   -0.0429   -3.3318 H   0  0  0  0  0  0  0  0  0  0  0  0
  1  2  1  0  0  0  0
  2  3  1  0  0  0  0
  2  4  1  0  0  0  0
  2  5  1  0  0  0  0
  5  6  2  0  0  0  0
  5  7  1  0  0  0  0
  7  8  1  0  0  0  0
  7  9  1  0  0  0  0
  9 10  1  0  0  0  0
  9 11  1  0  0  0  0
  9 19  1  0  0  0  0
 11 12  1  0  0  0  0
 11 13  1  0  0  0  0
 11 14  1  0  0  0  0
 14 15  2  0  0  0  0
 14 16  1  0  0  0  0
 16 17  1  0  0  0  0
 16 18  1  0  0  0  0
 19 20  2  0  0  0  0
 19 21  1  0  0  0  0
 21 22  1  0  0  0  0
 21 23  1  0  0  0  0
 23 24  1  0  0  0  0
 23 25  1  0  0  0  0
 23 26  1  0  0  0  0
M  END
$$$$

  -OEChem-01062216063D

 26 25  0     1  0  0  0  0  0999 V2000
   -3.0231   -3.1902    1.1373 H   0  0  0  0  0  0  0  0  0  0  0  0
   -2.9804   -2.1520    0.7960 C   0  0  0  0  0  0  0  0  0  0  0  0
   -3.5092   -1.5239    1.5169 H   0  0  0  0  0  0  0  0  0  0  0  0
   -3.4769   -2.0802   -0.1746 H   0  0  0  0  0  0  0  0  0  0  0  0
   -1.5370   -1.7008    0.6743 C   0  0  0  0  0  0  0  0  0  0  0  0
   -0.6417   -2.5040    0.8651 O   0  0  0  0  0  0  0  0  0  0  0  0
   -1.2692   -0.3916    0.3173 N   0  0  0  0  0  0  0  0  0  0  0  0
   -2.0859    0.2121    0.2664 H   0  0  0  0  0  0  0  0  0  0  0  0
    0.0461    0.2829    0.3765 C   0  0  1  0  0  0  0  0  0  0  0  0
   -0.1106    1.3499    0.1853 H   0  0  0  0  0  0  0  0  0  0  0  0
    0.7043    0.1599    1.7730 C   0  0  0  0  0  0  0  0  0  0  0  0
    0.7727   -0.8822    2.0894 H   0  0  0  0  0  0  0  0  0  0  0  0
    1.7272    0.5444    1.7278 H   0  0  0  0  0  0  0  0  0  0  0  0
   -0.0323    0.9813    2.8176 C   0  0  0  0  0  0  0  0  0  0  0  0
   -0.4462    2.1047    2.5933 O   0  0  0  0  0  0  0  0  0  0  0  0
   -0.2891    0.4843    4.0633 N   0  0  0  0  0  0  0  0  0  0  0  0
   -0.6090    1.1562    4.7546 H   0  0  0  0  0  0  0  0  0  0  0  0
    0.1954   -0.3584    4.3568 H   0  0  0  0  0  0  0  0  0  0  0  0
    0.9743   -0.1853   -0.7707 C   0  0  0  0  0  0  0  0  0  0  0  0
    2.1188   -0.5669   -0.5604 O   0  0  0  0  0  0  0  0  0  0  0  0
    0.5747    0.0089   -2.0811 N   0  0  0  0  0  0  0  0  0  0  0  0
   -0.3955    0.2646   -2.2330 H   0  0  0  0  0  0  0  0  0  0  0  0
    1.3884   -0.3778   -3.2276 C   0  0  0  0  0  0  0  0  0  0  0  0
    1.5803   -1.4560   -3.2136 H   0  0  0  0  0  0  0  0  0  0  0  0
    0.8721   -0.1289   -4.1596 H   0  0  0  0  0  0  0  0  0  0  0  0
    2.3473    0.1511   -3.2130 H   0  0  0  0  0  0  0  0  0  0  0  0
  1  2  1  0  0  0  0
  2  3  1  0  0  0  0
  2  4  1  0  0  0  0
  2  5  1  0  0  0  0
  5  6  2  0  0  0  0
  5  7  1  0  0  0  0
  7  8  1  0  0  0  0
  7  9  1  0  0  0  0
  9 10  1  0  0  0  0
  9 11  1  0  0  0  0
  9 19  1  0  0  0  0
 11 12  1  0  0  0  0
 11 13  1  0  0  0  0
 11 14  1  0  0  0  0
 14 15  2  0  0  0  0
 14 16  1  0  0  0  0
 16 17  1  0  0  0  0
 16 18  1  0  0  0  0
 19 20  2  0  0  0  0
 19 21  1  0  0  0  0
 21 22  1  0  0  0  0
 21 23  1  0  0  0  0
 23 24  1  0  0  0  0
 23 25  1  0  0  0  0
 23 26  1  0  0  0  0
M  END
$$$$

  -OEChem-01062216063D

 26 25  0     1  0  0  0  0  0999 V2000
   -3.0332   -3.1948    1.1028 H   0  0  0  0  0  0  0  0  0  0  0  0
   -2.9754   -2.1582    0.7582 C   0  0  0  0  0  0  0  0  0  0  0  0
   -3.5700   -1.5319    1.4275 H   0  0  0  0  0  0  0  0  0  0  0  0
   -3.3910   -2.1007   -0.2507 H   0  0  0  0  0  0  0  0  0  0  0  0
   -1.5322   -1.6891    0.7519 C   0  0  0  0  0  0  0  0  0  0  0  0
   -0.6554   -2.4704    1.0726 O   0  0  0  0  0  0  0  0  0  0  0  0
   -1.2539   -0.3869    0.3755 N   0  0  0  0  0  0  0  0  0  0  0  0
   -2.0692    0.1937    0.1988 H   0  0  0  0  0  0  0  0  0  0  0  0
    0.0595    0.2944    0.3945 C   0  0  1  0  0  0  0  0  0  0  0  0
   -0.1086    1.3591    0.2015 H   0  0  0  0  0  0  0  0  0  0  0  0
    0.7691    0.1918    1.7663 C   0  0  0  0  0  0  0  0  0  0  0  0
    0.8626   -0.8450    2.0924 H   0  0  0  0  0  0  0  0  0  0  0  0
    1.7861    0.5832    1.6745 H   0  0  0  0  0  0  0  0  0  0  0  0
    0.0669    1.0177    2.8302 C   0  0  0  0  0  0  0  0  0  0  0  0
   -0.3635    2.1361    2.6100 O   0  0  0  0  0  0  0  0  0  0  0  0
   -0.1598    0.5180    4.0807 N   0  0  0  0  0  0  0  0  0  0  0  0
   -0.7656    1.0576    4.6913 H   0  0  0  0  0  0  0  0  0  0  0  0
    0.0197   -0.4654    4.2609 H   0  0  0  0  0  0  0  0  0  0  0  0
    0.9609   -0.1867   -0.7684 C   0  0  0  0  0  0  0  0  0  0  0  0
    1.9902   -0.8188   -0.5708 O   0  0  0  0  0  0  0  0  0  0  0  0
    0.6979    0.2535   -2.0541 N   0  0  0  0  0  0  0  0  0  0  0  0
   -0.1583    0.7763   -2.2061 H   0  0  0  0  0  0  0  0  0  0  0  0
    1.5283   -0.0901   -3.2026 C   0  0  0  0  0  0  0  0  0  0  0  0
    1.5560   -1.1757   -3.3441 H   0  0  0  0  0  0  0  0  0  0  0  0
    1.1262    0.3671   -4.1117 H   0  0  0  0  0  0  0  0  0  0  0  0
    2.5516    0.2724   -3.0580 H   0  0  0  0  0  0  0  0  0  0  0  0
  1  2  1  0  0  0  0
  2  3  1  0  0  0  0
  2  4  1  0  0  0  0
  2  5  1  0  0  0  0
  5  6  2  0  0  0  0
  5  7  1  0  0  0  0
  7  8  1  0  0  0  0
  7  9  1  0  0  0  0
  9 10  1  0  0  0  0
  9 11  1  0  0  0  0
  9 19  1  0  0  0  0
 11 12  1  0  0  0  0
 11 13  1  0  0  0  0
 11 14  1  0  0  0  0
 14 15  2  0  0  0  0
 14 16  1  0  0  0  0
 16 17  1  0  0  0  0
 16 18  1  0  0  0  0
 19 20  2  0  0  0  0
 19 21  1  0  0  0  0
 21 22  1  0  0  0  0
 21 23  1  0  0  0  0
 23 24  1  0  0  0  0
 23 25  1  0  0  0  0
 23 26  1  0  0  0  0
M  END
$$$$

  -OEChem-01062216063D

 26 25  0     1  0  0  0  0  0999 V2000
   -3.0504   -3.2104    1.0392 H   0  0  0  0  0  0  0  0  0  0  0  0
   -2.9823   -2.1731    0.6986 C   0  0  0  0  0  0  0  0  0  0  0  0
   -3.6353   -1.5557    1.3202 H   0  0  0  0  0  0  0  0  0  0  0  0
   -3.3209   -2.1224   -0.3390 H   0  0  0  0  0  0  0  0  0  0  0  0
   -1.5501   -1.6818    0.8013 C   0  0  0  0  0  0  0  0  0  0  0  0
   -0.7022   -2.4344    1.2445 O   0  0  0  0  0  0  0  0  0  0  0  0
   -1.2649   -0.3835    0.4138 N   0  0  0  0  0  0  0  0  0  0  0  0
   -2.0673    0.1588    0.1064 H   0  0  0  0  0  0  0  0  0  0  0  0
    0.0466    0.3026    0.4082 C   0  0  1  0  0  0  0  0  0  0  0  0
   -0.1334    1.3660    0.2208 H   0  0  0  0  0  0  0  0  0  0  0  0
    0.7925    0.2061    1.7598 C   0  0  0  0  0  0  0  0  0  0  0  0
    0.9041   -0.8289    2.0854 H   0  0  0  0  0  0  0  0  0  0  0  0
    1.8041    0.6026    1.6373 H   0  0  0  0  0  0  0  0  0  0  0  0
    0.1144    1.0293    2.8410 C   0  0  0  0  0  0  0  0  0  0  0  0
   -0.3272    2.1453    2.6297 O   0  0  0  0  0  0  0  0  0  0  0  0
   -0.0966    0.5213    4.0904 N   0  0  0  0  0  0  0  0  0  0  0  0
   -0.7273    1.0440    4.6901 H   0  0  0  0  0  0  0  0  0  0  0  0
    0.0449   -0.4740    4.2370 H   0  0  0  0  0  0  0  0  0  0  0  0
    0.9381   -0.1782   -0.7615 C   0  0  0  0  0  0  0  0  0  0  0  0
    1.7929   -1.0402   -0.6107 O   0  0  0  0  0  0  0  0  0  0  0  0
    0.8726    0.4761   -1.9799 N   0  0  0  0  0  0  0  0  0  0  0  0
    0.1909    1.2211   -2.0817 H   0  0  0  0  0  0  0  0  0  0  0  0
    1.7365    0.1524   -3.1098 C   0  0  0  0  0  0  0  0  0  0  0  0
    1.5982   -0.8913   -3.4111 H   0  0  0  0  0  0  0  0  0  0  0  0
    1.4989    0.7929   -3.9644 H   0  0  0  0  0  0  0  0  0  0  0  0
    2.7879    0.3058   -2.8447 H   0  0  0  0  0  0  0  0  0  0  0  0
  1  2  1  0  0  0  0
  2  3  1  0  0  0  0
  2  4  1  0  0  0  0
  2  5  1  0  0  0  0
  5  6  2  0  0  0  0
  5  7  1  0  0  0  0
  7  8  1  0  0  0  0
  7  9  1  0  0  0  0
  9 10  1  0  0  0  0
  9 11  1  0  0  0  0
  9 19  1  0  0  0  0
 11 12  1  0  0  0  0
 11 13  1  0  0  0  0
 11 14  1  0  0  0  0
 14 15  2  0  0  0  0
 14 16  1  0  0  0  0
 16 17  1  0  0  0  0
 16 18  1  0  0  0  0
 19 20  2  0  0  0  0
 19 21  1  0  0  0  0
 21 22  1  0  0  0  0
 21 23  1  0  0  0  0
 23 24  1  0  0  0  0
 23 25  1  0  0  0  0
 23 26  1  0  0  0  0
M  END
$$$$

  -OEChem-01062216063D

 26 25  0     1  0  0  0  0  0999 V2000
   -3.0312   -3.2346    0.9306 H   0  0  0  0  0  0  0  0  0  0  0  0
   -2.9586   -2.1994    0.5850 C   0  0  0  0  0  0  0  0  0  0  0  0
   -3.7062   -1.6002    1.1100 H   0  0  0  0  0  0  0  0  0  0  0  0
   -3.1665   -2.1739   -0.4873 H   0  0  0  0  0  0  0  0  0  0  0  0
   -1.5691   -1.6522    0.8571 C   0  0  0  0  0  0  0  0  0  0  0  0
   -0.7776   -2.3496    1.4658 O   0  0  0  0  0  0  0  0  0  0  0  0
   -1.2815   -0.3555    0.4629 N   0  0  0  0  0  0  0  0  0  0  0  0
   -2.0462    0.1203   -0.0070 H   0  0  0  0  0  0  0  0  0  0  0  0
    0.0325    0.3279    0.4413 C   0  0  1  0  0  0  0  0  0  0  0  0
   -0.1552    1.3910    0.2612 H   0  0  0  0  0  0  0  0  0  0  0  0
    0.8169    0.2287    1.7693 C   0  0  0  0  0  0  0  0  0  0  0  0
    0.9470   -0.8057    2.0880 H   0  0  0  0  0  0  0  0  0  0  0  0
    1.8223    0.6307    1.6178 H   0  0  0  0  0  0  0  0  0  0  0  0
    0.1690    1.0475    2.8723 C   0  0  0  0  0  0  0  0  0  0  0  0
   -0.2792    2.1637    2.6754 O   0  0  0  0  0  0  0  0  0  0  0  0
   -0.0219    0.5281    4.1200 N   0  0  0  0  0  0  0  0  0  0  0  0
   -0.6585    1.0414    4.7215 H   0  0  0  0  0  0  0  0  0  0  0  0
    0.0877   -0.4755    4.2362 H   0  0  0  0  0  0  0  0  0  0  0  0
    0.9115   -0.1547   -0.7354 C   0  0  0  0  0  0  0  0  0  0  0  0
    1.4986   -1.2264   -0.7022 O   0  0  0  0  0  0  0  0  0  0  0  0
    1.0829    0.6593   -1.8421 N   0  0  0  0  0  0  0  0  0  0  0  0
    0.6373    1.5716   -1.8340 H   0  0  0  0  0  0  0  0  0  0  0  0
    1.9396    0.3058   -2.9686 C   0  0  0  0  0  0  0  0  0  0  0  0
    1.6170   -0.6416   -3.4133 H   0  0  0  0  0  0  0  0  0  0  0  0
    1.8921    1.0812   -3.7392 H   0  0  0  0  0  0  0  0  0  0  0  0
    2.9800    0.2052   -2.6417 H   0  0  0  0  0  0  0  0  0  0  0  0
  1  2  1  0  0  0  0
  2  3  1  0  0  0  0
  2  4  1  0  0  0  0
  2  5  1  0  0  0  0
  5  6  2  0  0  0  0
  5  7  1  0  0  0  0
  7  8  1  0  0  0  0
  7  9  1  0  0  0  0
  9 10  1  0  0  0  0
  9 11  1  0  0  0  0
  9 19  1  0  0  0  0
 11 12  1  0  0  0  0
 11 13  1  0  0  0  0
 11 14  1  0  0  0  0
 14 15  2  0  0  0  0
 14 16  1  0  0  0  0
 16 17  1  0  0  0  0
 16 18  1  0  0  0  0
 19 20  2  0  0  0  0
 19 21  1  0  0  0  0
 21 22  1  0  0  0  0
 21 23  1  0  0  0  0
 23 24  1  0  0  0  0
 23 25  1  0  0  0  0
 23 26  1  0  0  0  0
M  END
$$$$

  -OEChem-01062216063D

 26 25  0     1  0  0  0  0  0999 V2000
   -2.9831   -3.2386    0.8861 H   0  0  0  0  0  0  0  0  0  0  0  0
   -2.8956   -2.2216    0.4932 C   0  0  0  0  0  0  0  0  0  0  0  0
   -3.7242   -1.6227    0.8783 H   0  0  0  0  0  0  0  0  0  0  0  0
   -2.9573   -2.2619   -0.5970 H   0  0  0  0  0  0  0  0  0  0  0  0
   -1.5722   -1.6094    0.9138 C   0  0  0  0  0  0  0  0  0  0  0  0
   -0.8513   -2.2402    1.6682 O   0  0  0  0  0  0  0  0  0  0  0  0
   -1.2884   -0.3140    0.5108 N   0  0  0  0  0  0  0  0  0  0  0  0
   -2.0018    0.0914   -0.0879 H   0  0  0  0  0  0  0  0  0  0  0  0
    0.0327    0.3571    0.4807 C   0  0  1  0  0  0  0  0  0  0  0  0
   -0.1526    1.4212    0.3027 H   0  0  0  0  0  0  0  0  0  0  0  0
    0.8413    0.2468    1.7920 C   0  0  0  0  0  0  0  0  0  0  0  0
    0.9803   -0.7887    2.1030 H   0  0  0  0  0  0  0  0  0  0  0  0
    1.8439    0.6489    1.6246 H   0  0  0  0  0  0  0  0  0  0  0  0
    0.2184    1.0652    2.9095 C   0  0  0  0  0  0  0  0  0  0  0  0
   -0.2254    2.1850    2.7234 O   0  0  0  0  0  0  0  0  0  0  0  0
   -0.0014    0.5216    4.1417 N   0  0  0  0  0  0  0  0  0  0  0  0
   -0.6527    1.0300    4.7315 H   0  0  0  0  0  0  0  0  0  0  0  0
    0.0580   -0.4906    4.2181 H   0  0  0  0  0  0  0  0  0  0  0  0
    0.9010   -0.1359   -0.6986 C   0  0  0  0  0  0  0  0  0  0  0  0
    1.1595   -1.3209   -0.8517 O   0  0  0  0  0  0  0  0  0  0  0  0
    1.3345    0.7665   -1.6542 N   0  0  0  0  0  0  0  0  0  0  0  0
    1.1390    1.7513   -1.4994 H   0  0  0  0  0  0  0  0  0  0  0  0
    2.1390    0.3837   -2.8091 C   0  0  0  0  0  0  0  0  0  0  0  0
    1.6076   -0.3541   -3.4195 H   0  0  0  0  0  0  0  0  0  0  0  0
    2.3481    1.2589   -3.4317 H   0  0  0  0  0  0  0  0  0  0  0  0
    3.0924   -0.0477   -2.4864 H   0  0  0  0  0  0  0  0  0  0  0  0
  1  2  1  0  0  0  0
  2  3  1  0  0  0  0
  2  4  1  0  0  0  0
  2  5  1  0  0  0  0
  5  6  2  0  0  0  0
  5  7  1  0  0  0  0
  7  8  1  0  0  0  0
  7  9  1  0  0  0  0
  9 10  1  0  0  0  0
  9 11  1  0  0  0  0
  9 19  1  0  0  0  0
 11 12  1  0  0  0  0
 11 13  1  0  0  0  0
 11 14  1  0  0  0  0
 14 15  2  0  0  0  0
 14 16  1  0  0  0  0
 16 17  1  0  0  0  0
 16 18  1  0  0  0  0
 19 20  2  0  0  0  0
 19 21  1  0  0  0  0
 21 22  1  0  0  0  0
 21 23  1  0  0  0  0
 23 24  1  0  0  0  0
 23 25  1  0  0  0  0
 23 26  1  0  0  0  0
M  END
$$$$

  -OEChem-01062216063D

 26 25  0     1  0  0  0  0  0999 V2000
   -2.9640   -3.2509    0.8526 H   0  0  0  0  0  0  0  0  0  0  0  0
   -2.8816   -2.2294    0.4710 C   0  0  0  0  0  0  0  0  0  0  0  0
   -3.7262   -1.6447    0.8429 H   0  0  0  0  0  0  0  0  0  0  0  0
   -2.9180   -2.2604   -0.6206 H   0  0  0  0  0  0  0  0  0  0  0  0
   -1.5760   -1.6038    0.9255 C   0  0  0  0  0  0  0  0  0  0  0  0
   -0.8690   -2.2243    1.7025 O   0  0  0  0  0  0  0  0  0  0  0  0
   -1.2898   -0.3091    0.5223 N   0  0  0  0  0  0  0  0  0  0  0  0
   -1.9820    0.0764   -0.1132 H   0  0  0  0  0  0  0  0  0  0  0  0
    0.0362    0.3525    0.4944 C   0  0  1  0  0  0  0  0  0  0  0  0
   -0.1468    1.4162    0.3102 H   0  0  0  0  0  0  0  0  0  0  0  0
    0.8411    0.2436    1.8084 C   0  0  0  0  0  0  0  0  0  0  0  0
    0.9736   -0.7907    2.1250 H   0  0  0  0  0  0  0  0  0  0  0  0
    1.8463    0.6399    1.6430 H   0  0  0  0  0  0  0  0  0  0  0  0
    0.2203    1.0720    2.9202 C   0  0  0  0  0  0  0  0  0  0  0  0
   -0.2155    2.1935    2.7267 O   0  0  0  0  0  0  0  0  0  0  0  0
    0.0000    0.5399    4.1571 N   0  0  0  0  0  0  0  0  0  0  0  0
   -0.6501    1.0563    4.7412 H   0  0  0  0  0  0  0  0  0  0  0  0
    0.0505   -0.4721    4.2404 H   0  0  0  0  0  0  0  0  0  0  0  0
    0.9098   -0.1409   -0.6822 C   0  0  0  0  0  0  0  0  0  0  0  0
    0.9022   -1.3109   -1.0395 O   0  0  0  0  0  0  0  0  0  0  0  0
    1.6059    0.7787   -1.4474 N   0  0  0  0  0  0  0  0  0  0  0  0
    1.6008    1.7485   -1.1444 H   0  0  0  0  0  0  0  0  0  0  0  0
    2.3965    0.4126   -2.6170 C   0  0  0  0  0  0  0  0  0  0  0  0
    1.7670   -0.0758   -3.3684 H   0  0  0  0  0  0  0  0  0  0  0  0
    2.8405    1.3055   -3.0673 H   0  0  0  0  0  0  0  0  0  0  0  0
    3.2037   -0.2716   -2.3352 H   0  0  0  0  0  0  0  0  0  0  0  0
  1  2  1  0  0  0  0
  2  3  1  0  0  0  0
  2  4  1  0  0  0  0
  2  5  1  0  0  0  0
  5  6  2  0  0  0  0
  5  7  1  0  0  0  0
  7  8  1  0  0  0  0
  7  9  1  0  0  0  0
  9 10  1  0  0  0  0
  9 11  1  0  0  0  0
  9 19  1  0  0  0  0
 11 12  1  0  0  0  0
 11 13  1  0  0  0  0
 11 14  1  0  0  0  0
 14 15  2  0  0  0  0
 14 16  1  0  0  0  0
 16 17  1  0  0  0  0
 16 18  1  0  0  0  0
 19 20  2  0  0  0  0
 19 21  1  0  0  0  0
 21 22  1  0  0  0  0
 21 23  1  0  0  0  0
 23 24  1  0  0  0  0
 23 25  1  0  0  0  0
 23 26  1  0  0  0  0
M  END
$$$$

  -OEChem-01062216063D

 26 25  0     1  0  0  0  0  0999 V2000
   -2.9786   -3.2459    0.8840 H   0  0  0  0  0  0  0  0  0  0  0  0
   -2.8863   -2.2334    0.4813 C   0  0  0  0  0  0  0  0  0  0  0  0
   -3.7275   -1.6342    0.8378 H   0  0  0  0  0  0  0  0  0  0  0  0
   -2.9192   -2.2867   -0.6097 H   0  0  0  0  0  0  0  0  0  0  0  0
   -1.5764   -1.6094    0.9262 C   0  0  0  0  0  0  0  0  0  0  0  0
   -0.8542   -2.2375    1.6834 O   0  0  0  0  0  0  0  0  0  0  0  0
   -1.2922   -0.3143    0.5237 N   0  0  0  0  0  0  0  0  0  0  0  0
   -1.9790    0.0656   -0.1212 H   0  0  0  0  0  0  0  0  0  0  0  0
    0.0350    0.3450    0.4962 C   0  0  1  0  0  0  0  0  0  0  0  0
   -0.1469    1.4078    0.3063 H   0  0  0  0  0  0  0  0  0  0  0  0
    0.8360    0.2398    1.8143 C   0  0  0  0  0  0  0  0  0  0  0  0
    0.9669   -0.7930    2.1361 H   0  0  0  0  0  0  0  0  0  0  0  0
    1.8422    0.6349    1.6526 H   0  0  0  0  0  0  0  0  0  0  0  0
    0.2153    1.0733    2.9225 C   0  0  0  0  0  0  0  0  0  0  0  0
   -0.2171    2.1951    2.7253 O   0  0  0  0  0  0  0  0  0  0  0  0
   -0.0034    0.5468    4.1622 N   0  0  0  0  0  0  0  0  0  0  0  0
   -0.6508    1.0676    4.7457 H   0  0  0  0  0  0  0  0  0  0  0  0
    0.0454   -0.4647    4.2507 H   0  0  0  0  0  0  0  0  0  0  0  0
    0.9125   -0.1454   -0.6796 C   0  0  0  0  0  0  0  0  0  0  0  0
    0.7030   -1.2170   -1.2335 O   0  0  0  0  0  0  0  0  0  0  0  0
    1.8428    0.7139   -1.2382 N   0  0  0  0  0  0  0  0  0  0  0  0
    1.9830    1.6159   -0.7916 H   0  0  0  0  0  0  0  0  0  0  0  0
    2.6592    0.3680   -2.3964 C   0  0  0  0  0  0  0  0  0  0  0  0
    2.0259    0.1822   -3.2702 H   0  0  0  0  0  0  0  0  0  0  0  0
    3.3450    1.1868   -2.6344 H   0  0  0  0  0  0  0  0  0  0  0  0
    3.2515   -0.5305   -2.1934 H   0  0  0  0  0  0  0  0  0  0  0  0
  1  2  1  0  0  0  0
  2  3  1  0  0  0  0
  2  4  1  0  0  0  0
  2  5  1  0  0  0  0
  5  6  2  0  0  0  0
  5  7  1  0  0  0  0
  7  8  1  0  0  0  0
  7  9  1  0  0  0  0
  9 10  1  0  0  0  0
  9 11  1  0  0  0  0
  9 19  1  0  0  0  0
 11 12  1  0  0  0  0
 11 13  1  0  0  0  0
 11 14  1  0  0  0  0
 14 15  2  0  0  0  0
 14 16  1  0  0  0  0
 16 17  1  0  0  0  0
 16 18  1  0  0  0  0
 19 20  2  0  0  0  0
 19 21  1  0  0  0  0
 21 22  1  0  0  0  0
 21 23  1  0  0  0  0
 23 24  1  0  0  0  0
 23 25  1  0  0  0  0
 23 26  1  0  0  0  0
M  END
$$$$

  -OEChem-01062216063D

 26 25  0     1  0  0  0  0  0999 V2000
   -2.9630   -3.2576    0.8527 H   0  0  0  0  0  0  0  0  0  0  0  0
   -2.8863   -2.2298    0.4870 C   0  0  0  0  0  0  0  0  0  0  0  0
   -3.7193   -1.6488    0.8894 H   0  0  0  0  0  0  0  0  0  0  0  0
   -2.9498   -2.2413   -0.6040 H   0  0  0  0  0  0  0  0  0  0  0  0
   -1.5673   -1.6164    0.9187 C   0  0  0  0  0  0  0  0  0  0  0  0
   -0.8254   -2.2643    1.6393 O   0  0  0  0  0  0  0  0  0  0  0  0
   -1.2821   -0.3196    0.5246 N   0  0  0  0  0  0  0  0  0  0  0  0
   -1.9672    0.0642   -0.1201 H   0  0  0  0  0  0  0  0  0  0  0  0
    0.0448    0.3405    0.5040 C   0  0  1  0  0  0  0  0  0  0  0  0
   -0.1330    1.4035    0.3101 H   0  0  0  0  0  0  0  0  0  0  0  0
    0.8281    0.2367    1.8353 C   0  0  0  0  0  0  0  0  0  0  0  0
    0.9518   -0.7947    2.1629 H   0  0  0  0  0  0  0  0  0  0  0  0
    1.8373    0.6292    1.6915 H   0  0  0  0  0  0  0  0  0  0  0  0
    0.1925    1.0740    2.9323 C   0  0  0  0  0  0  0  0  0  0  0  0
   -0.2353    2.1956    2.7257 O   0  0  0  0  0  0  0  0  0  0  0  0
   -0.0309    0.5576    4.1757 N   0  0  0  0  0  0  0  0  0  0  0  0
   -0.6780    1.0838    4.7548 H   0  0  0  0  0  0  0  0  0  0  0  0
    0.0237   -0.4521    4.2776 H   0  0  0  0  0  0  0  0  0  0  0  0
    0.9215   -0.1484   -0.6748 C   0  0  0  0  0  0  0  0  0  0  0  0
    0.5586   -1.0648   -1.4024 O   0  0  0  0  0  0  0  0  0  0  0  0
    2.0504    0.5675   -1.0342 N   0  0  0  0  0  0  0  0  0  0  0  0
    2.3071    1.3658   -0.4608 H   0  0  0  0  0  0  0  0  0  0  0  0
    2.8815    0.2304   -2.1844 C   0  0  0  0  0  0  0  0  0  0  0  0
    2.3019    0.3033   -3.1106 H   0  0  0  0  0  0  0  0  0  0  0  0
    3.7303    0.9176   -2.2526 H   0  0  0  0  0  0  0  0  0  0  0  0
    3.2693   -0.7895   -2.0912 H   0  0  0  0  0  0  0  0  0  0  0  0
  1  2  1  0  0  0  0
  2  3  1  0  0  0  0
  2  4  1  0  0  0  0
  2  5  1  0  0  0  0
  5  6  2  0  0  0  0
  5  7  1  0  0  0  0
  7  8  1  0  0  0  0
  7  9  1  0  0  0  0
  9 10  1  0  0  0  0
  9 11  1  0  0  0  0
  9 19  1  0  0  0  0
 11 12  1  0  0  0  0
 11 13  1  0  0  0  0
 11 14  1  0  0  0  0
 14 15  2  0  0  0  0
 14 16  1  0  0  0  0
 16 17  1  0  0  0  0
 16 18  1  0  0  0  0
 19 20  2  0  0  0  0
 19 21  1  0  0  0  0
 21 22  1  0  0  0  0
 21 23  1  0  0  0  0
 23 24  1  0  0  0  0
 23 25  1  0  0  0  0
 23 26  1  0  0  0  0
M  END
$$$$

  -OEChem-01062216063D

 26 25  0     1  0  0  0  0  0999 V2000
   -2.9661   -3.2160    0.8240 H   0  0  0  0  0  0  0  0  0  0  0  0
   -2.8574   -2.1911    0.4582 C   0  0  0  0  0  0  0  0  0  0  0  0
   -3.7030   -1.5979    0.8141 H   0  0  0  0  0  0  0  0  0  0  0  0
   -2.8647   -2.2067   -0.6348 H   0  0  0  0  0  0  0  0  0  0  0  0
   -1.5563   -1.5900    0.9558 C   0  0  0  0  0  0  0  0  0  0  0  0
   -0.8689   -2.2425    1.7270 O   0  0  0  0  0  0  0  0  0  0  0  0
   -1.2422   -0.2980    0.5669 N   0  0  0  0  0  0  0  0  0  0  0  0
   -1.8964    0.0655   -0.1219 H   0  0  0  0  0  0  0  0  0  0  0  0
    0.0832    0.3710    0.5422 C   0  0  1  0  0  0  0  0  0  0  0  0
   -0.0899    1.4491    0.6279 H   0  0  0  0  0  0  0  0  0  0  0  0
    1.0412   -0.0452    1.6852 C   0  0  0  0  0  0  0  0  0  0  0  0
    1.2110   -1.1219    1.7098 H   0  0  0  0  0  0  0  0  0  0  0  0
    2.0222    0.4046    1.5203 H   0  0  0  0  0  0  0  0  0  0  0  0
    0.5700    0.4766    3.0326 C   0  0  0  0  0  0  0  0  0  0  0  0
    0.1318    1.6042    3.1739 O   0  0  0  0  0  0  0  0  0  0  0  0
    0.3821   -0.3756    4.0801 N   0  0  0  0  0  0  0  0  0  0  0  0
   -0.2277   -0.0139    4.8064 H   0  0  0  0  0  0  0  0  0  0  0  0
    0.3136   -1.3618    3.8362 H   0  0  0  0  0  0  0  0  0  0  0  0
    0.7683    0.1529   -0.8306 C   0  0  0  0  0  0  0  0  0  0  0  0
    0.1705   -0.4081   -1.7423 O   0  0  0  0  0  0  0  0  0  0  0  0
    2.0189    0.6850   -1.0937 N   0  0  0  0  0  0  0  0  0  0  0  0
    2.4764    1.2072   -0.3523 H   0  0  0  0  0  0  0  0  0  0  0  0
    2.6859    0.5678   -2.3851 C   0  0  0  0  0  0  0  0  0  0  0  0
    2.0971    1.0588   -3.1670 H   0  0  0  0  0  0  0  0  0  0  0  0
    3.6718    1.0407   -2.3460 H   0  0  0  0  0  0  0  0  0  0  0  0
    2.8190   -0.4857   -2.6531 H   0  0  0  0  0  0  0  0  0  0  0  0
  1  2  1  0  0  0  0
  2  3  1  0  0  0  0
  2  4  1  0  0  0  0
  2  5  1  0  0  0  0
  5  6  2  0  0  0  0
  5  7  1  0  0  0  0
  7  8  1  0  0  0  0
  7  9  1  0  0  0  0
  9 10  1  0  0  0  0
  9 11  1  0  0  0  0
  9 19  1  0  0  0  0
 11 12  1  0  0  0  0
 11 13  1  0  0  0  0
 11 14  1  0  0  0  0
 14 15  2  0  0  0  0
 14 16  1  0  0  0  0
 16 17  1  0  0  0  0
 16 18  1  0  0  0  0
 19 20  2  0  0  0  0
 19 21  1  0  0  0  0
 21 22  1  0  0  0  0
 21 23  1  0  0  0  0
 23 24  1  0  0  0  0
 23 25  1  0  0  0  0
 23 26  1  0  0  0  0
M  END
$$$$

  -OEChem-01062216063D

 26 25  0     1  0  0  0  0  0999 V2000
   -2.9437   -3.2327    0.7725 H   0  0  0  0  0  0  0  0  0  0  0  0
   -2.8556   -2.1879    0.4615 C   0  0  0  0  0  0  0  0  0  0  0  0
   -3.6848   -1.6204    0.8908 H   0  0  0  0  0  0  0  0  0  0  0  0
   -2.9160   -2.1410   -0.6289 H   0  0  0  0  0  0  0  0  0  0  0  0
   -1.5339   -1.6085    0.9308 C   0  0  0  0  0  0  0  0  0  0  0  0
   -0.8239   -2.2860    1.6581 O   0  0  0  0  0  0  0  0  0  0  0  0
   -1.2190   -0.3126    0.5579 N   0  0  0  0  0  0  0  0  0  0  0  0
   -1.8781    0.0684   -0.1173 H   0  0  0  0  0  0  0  0  0  0  0  0
    0.1001    0.3685    0.5536 C   0  0  1  0  0  0  0  0  0  0  0  0
   -0.0806    1.4458    0.6341 H   0  0  0  0  0  0  0  0  0  0  0  0
    1.0371   -0.0354    1.7197 C   0  0  0  0  0  0  0  0  0  0  0  0
    1.2191   -1.1096    1.7536 H   0  0  0  0  0  0  0  0  0  0  0  0
    2.0148    0.4290    1.5793 H   0  0  0  0  0  0  0  0  0  0  0  0
    0.5315    0.4893    3.0538 C   0  0  0  0  0  0  0  0  0  0  0  0
    0.0807    1.6132    3.1826 O   0  0  0  0  0  0  0  0  0  0  0  0
    0.3388   -0.3591    4.1039 N   0  0  0  0  0  0  0  0  0  0  0  0
   -0.2873   -0.0034    4.8194 H   0  0  0  0  0  0  0  0  0  0  0  0
    0.3009   -1.3494    3.8718 H   0  0  0  0  0  0  0  0  0  0  0  0
    0.7867    0.1556   -0.8210 C   0  0  0  0  0  0  0  0  0  0  0  0
    0.1148   -0.1695   -1.7939 O   0  0  0  0  0  0  0  0  0  0  0  0
    2.1343    0.4089   -1.0147 N   0  0  0  0  0  0  0  0  0  0  0  0
    2.6793    0.7134   -0.2142 H   0  0  0  0  0  0  0  0  0  0  0  0
    2.8030    0.2558   -2.3018 C   0  0  0  0  0  0  0  0  0  0  0  0
    2.3541    0.9191   -3.0487 H   0  0  0  0  0  0  0  0  0  0  0  0
    3.8639    0.5073   -2.2098 H   0  0  0  0  0  0  0  0  0  0  0  0
    2.7223   -0.7779   -2.6545 H   0  0  0  0  0  0  0  0  0  0  0  0
  1  2  1  0  0  0  0
  2  3  1  0  0  0  0
  2  4  1  0  0  0  0
  2  5  1  0  0  0  0
  5  6  2  0  0  0  0
  5  7  1  0  0  0  0
  7  8  1  0  0  0  0
  7  9  1  0  0  0  0
  9 10  1  0  0  0  0
  9 11  1  0  0  0  0
  9 19  1  0  0  0  0
 11 12  1  0  0  0  0
 11 13  1  0  0  0  0
 11 14  1  0  0  0  0
 14 15  2  0  0  0  0
 14 16  1  0  0  0  0
 16 17  1  0  0  0  0
 16 18  1  0  0  0  0
 19 20  2  0  0  0  0
 19 21  1  0  0  0  0
 21 22  1  0  0  0  0
 21 23  1  0  0  0  0
 23 24  1  0  0  0  0
 23 25  1  0  0  0  0
 23 26  1  0  0  0  0
M  END
$$$$

  -OEChem-01062216063D

 26 25  0     1  0  0  0  0  0999 V2000
   -2.9416   -3.2382    0.7603 H   0  0  0  0  0  0  0  0  0  0  0  0
   -2.8546   -2.1904    0.4593 C   0  0  0  0  0  0  0  0  0  0  0  0
   -3.6685   -1.6228    0.9168 H   0  0  0  0  0  0  0  0  0  0  0  0
   -2.9435   -2.1297   -0.6284 H   0  0  0  0  0  0  0  0  0  0  0  0
   -1.5171   -1.6250    0.9000 C   0  0  0  0  0  0  0  0  0  0  0  0
   -0.7810   -2.3231    1.5796 O   0  0  0  0  0  0  0  0  0  0  0  0
   -1.2049   -0.3248    0.5419 N   0  0  0  0  0  0  0  0  0  0  0  0
   -1.8755    0.0803   -0.1079 H   0  0  0  0  0  0  0  0  0  0  0  0
    0.1083    0.3645    0.5590 C   0  0  1  0  0  0  0  0  0  0  0  0
   -0.0813    1.4410    0.6338 H   0  0  0  0  0  0  0  0  0  0  0  0
    1.0304   -0.0233    1.7427 C   0  0  0  0  0  0  0  0  0  0  0  0
    1.2240   -1.0949    1.7886 H   0  0  0  0  0  0  0  0  0  0  0  0
    2.0027    0.4559    1.6130 H   0  0  0  0  0  0  0  0  0  0  0  0
    0.5004    0.5043    3.0661 C   0  0  0  0  0  0  0  0  0  0  0  0
    0.0370    1.6239    3.1844 O   0  0  0  0  0  0  0  0  0  0  0  0
    0.3220   -0.3344    4.1266 N   0  0  0  0  0  0  0  0  0  0  0  0
   -0.3056    0.0195    4.8419 H   0  0  0  0  0  0  0  0  0  0  0  0
    0.3119   -1.3293    3.9143 H   0  0  0  0  0  0  0  0  0  0  0  0
    0.7988    0.1574   -0.8139 C   0  0  0  0  0  0  0  0  0  0  0  0
    0.1083    0.0769   -1.8237 O   0  0  0  0  0  0  0  0  0  0  0  0
    2.1755    0.1135   -0.9574 N   0  0  0  0  0  0  0  0  0  0  0  0
    2.7395    0.1535   -0.1146 H   0  0  0  0  0  0  0  0  0  0  0  0
    2.8430   -0.0860   -2.2388 C   0  0  0  0  0  0  0  0  0  0  0  0
    2.5839    0.7180   -2.9358 H   0  0  0  0  0  0  0  0  0  0  0  0
    3.9288   -0.0882   -2.1040 H   0  0  0  0  0  0  0  0  0  0  0  0
    2.5471   -1.0438   -2.6794 H   0  0  0  0  0  0  0  0  0  0  0  0
  1  2  1  0  0  0  0
  2  3  1  0  0  0  0
  2  4  1  0  0  0  0
  2  5  1  0  0  0  0
  5  6  2  0  0  0  0
  5  7  1  0  0  0  0
  7  8  1  0  0  0  0
  7  9  1  0  0  0  0
  9 10  1  0  0  0  0
  9 11  1  0  0  0  0
  9 19  1  0  0  0  0
 11 12  1  0  0  0  0
 11 13  1  0  0  0  0
 11 14  1  0  0  0  0
 14 15  2  0  0  0  0
 14 16  1  0  0  0  0
 16 17  1  0  0  0  0
 16 18  1  0  0  0  0
 19 20  2  0  0  0  0
 19 21  1  0  0  0  0
 21 22  1  0  0  0  0
 21 23  1  0  0  0  0
 23 24  1  0  0  0  0
 23 25  1  0  0  0  0
 23 26  1  0  0  0  0
M  END
$$$$

  -OEChem-01062216063D

 26 25  0     1  0  0  0  0  0999 V2000
   -2.9590   -3.2365    0.7766 H   0  0  0  0  0  0  0  0  0  0  0  0
   -2.8707   -2.1871    0.4817 C   0  0  0  0  0  0  0  0  0  0  0  0
   -3.6489   -1.6118    0.9892 H   0  0  0  0  0  0  0  0  0  0  0  0
   -3.0179   -2.1130   -0.5987 H   0  0  0  0  0  0  0  0  0  0  0  0
   -1.5022   -1.6481    0.8549 C   0  0  0  0  0  0  0  0  0  0  0  0
   -0.7278   -2.3753    1.4563 O   0  0  0  0  0  0  0  0  0  0  0  0
   -1.1924   -0.3443    0.5109 N   0  0  0  0  0  0  0  0  0  0  0  0
   -1.8877    0.0982   -0.0865 H   0  0  0  0  0  0  0  0  0  0  0  0
    0.1154    0.3503    0.5498 C   0  0  1  0  0  0  0  0  0  0  0  0
   -0.0829    1.4259    0.6186 H   0  0  0  0  0  0  0  0  0  0  0  0
    1.0236   -0.0190    1.7496 C   0  0  0  0  0  0  0  0  0  0  0  0
    1.2224   -1.0887    1.8116 H   0  0  0  0  0  0  0  0  0  0  0  0
    1.9935    0.4673    1.6226 H   0  0  0  0  0  0  0  0  0  0  0  0
    0.4709    0.5157    3.0613 C   0  0  0  0  0  0  0  0  0  0  0  0
   -0.0040    1.6317    3.1647 O   0  0  0  0  0  0  0  0  0  0  0  0
    0.3108   -0.3062    4.1382 N   0  0  0  0  0  0  0  0  0  0  0  0
   -0.3167    0.0484    4.8535 H   0  0  0  0  0  0  0  0  0  0  0  0
    0.3376   -1.3063    3.9566 H   0  0  0  0  0  0  0  0  0  0  0  0
    0.8183    0.1531   -0.8150 C   0  0  0  0  0  0  0  0  0  0  0  0
    0.1691    0.3154   -1.8414 O   0  0  0  0  0  0  0  0  0  0  0  0
    2.1561   -0.1867   -0.9246 N   0  0  0  0  0  0  0  0  0  0  0  0
    2.6546   -0.4054   -0.0679 H   0  0  0  0  0  0  0  0  0  0  0  0
    2.8184   -0.4270   -2.2014 C   0  0  0  0  0  0  0  0  0  0  0  0
    2.7593    0.4630   -2.8368 H   0  0  0  0  0  0  0  0  0  0  0  0
    3.8740   -0.6662   -2.0408 H   0  0  0  0  0  0  0  0  0  0  0  0
    2.3484   -1.2660   -2.7253 H   0  0  0  0  0  0  0  0  0  0  0  0
  1  2  1  0  0  0  0
  2  3  1  0  0  0  0
  2  4  1  0  0  0  0
  2  5  1  0  0  0  0
  5  6  2  0  0  0  0
  5  7  1  0  0  0  0
  7  8  1  0  0  0  0
  7  9  1  0  0  0  0
  9 10  1  0  0  0  0
  9 11  1  0  0  0  0
  9 19  1  0  0  0  0
 11 12  1  0  0  0  0
 11 13  1  0  0  0  0
 11 14  1  0  0  0  0
 14 15  2  0  0  0  0
 14 16  1  0  0  0  0
 16 17  1  0  0  0  0
 16 18  1  0  0  0  0
 19 20  2  0  0  0  0
 19 21  1  0  0  0  0
 21 22  1  0  0  0  0
 21 23  1  0  0  0  0
 23 24  1  0  0  0  0
 23 25  1  0  0  0  0
 23 26  1  0  0  0  0
M  END
$$$$

  -OEChem-01062216063D

 26 25  0     1  0  0  0  0  0999 V2000
   -2.9771   -3.2309    0.8135 H   0  0  0  0  0  0  0  0  0  0  0  0
   -2.8902   -2.1816    0.5177 C   0  0  0  0  0  0  0  0  0  0  0  0
   -3.6271   -1.5966    1.0734 H   0  0  0  0  0  0  0  0  0  0  0  0
   -3.1013   -2.1000   -0.5515 H   0  0  0  0  0  0  0  0  0  0  0  0
   -1.4935   -1.6666    0.8108 C   0  0  0  0  0  0  0  0  0  0  0  0
   -0.6831   -2.4186    1.3279 O   0  0  0  0  0  0  0  0  0  0  0  0
   -1.1857   -0.3610    0.4738 N   0  0  0  0  0  0  0  0  0  0  0  0
   -1.9129    0.1222   -0.0493 H   0  0  0  0  0  0  0  0  0  0  0  0
    0.1181    0.3366    0.5295 C   0  0  1  0  0  0  0  0  0  0  0  0
   -0.0864    1.4116    0.5938 H   0  0  0  0  0  0  0  0  0  0  0  0
    1.0140   -0.0202    1.7424 C   0  0  0  0  0  0  0  0  0  0  0  0
    1.2098   -1.0890    1.8195 H   0  0  0  0  0  0  0  0  0  0  0  0
    1.9857    0.4642    1.6146 H   0  0  0  0  0  0  0  0  0  0  0  0
    0.4457    0.5197    3.0455 C   0  0  0  0  0  0  0  0  0  0  0  0
   -0.0359    1.6337    3.1387 O   0  0  0  0  0  0  0  0  0  0  0  0
    0.3063   -0.2871    4.1372 N   0  0  0  0  0  0  0  0  0  0  0  0
   -0.3142    0.0692    4.8578 H   0  0  0  0  0  0  0  0  0  0  0  0
    0.3675   -1.2899    3.9838 H   0  0  0  0  0  0  0  0  0  0  0  0
    0.8388    0.1469   -0.8238 C   0  0  0  0  0  0  0  0  0  0  0  0
    0.2867    0.5358   -1.8453 O   0  0  0  0  0  0  0  0  0  0  0  0
    2.0723   -0.4734   -0.9226 N   0  0  0  0  0  0  0  0  0  0  0  0
    2.4358   -0.9143   -0.0830 H   0  0  0  0  0  0  0  0  0  0  0  0
    2.7261   -0.7494   -2.1963 C   0  0  0  0  0  0  0  0  0  0  0  0
    2.8863    0.1796   -2.7537 H   0  0  0  0  0  0  0  0  0  0  0  0
    3.6988   -1.2212   -2.0274 H   0  0  0  0  0  0  0  0  0  0  0  0
    2.1136   -1.4240   -2.8037 H   0  0  0  0  0  0  0  0  0  0  0  0
  1  2  1  0  0  0  0
  2  3  1  0  0  0  0
  2  4  1  0  0  0  0
  2  5  1  0  0  0  0
  5  6  2  0  0  0  0
  5  7  1  0  0  0  0
  7  8  1  0  0  0  0
  7  9  1  0  0  0  0
  9 10  1  0  0  0  0
  9 11  1  0  0  0  0
  9 19  1  0  0  0  0
 11 12  1  0  0  0  0
 11 13  1  0  0  0  0
 11 14  1  0  0  0  0
 14 15  2  0  0  0  0
 14 16  1  0  0  0  0
 16 17  1  0  0  0  0
 16 18  1  0  0  0  0
 19 20  2  0  0  0  0
 19 21  1  0  0  0  0
 21 22  1  0  0  0  0
 21 23  1  0  0  0  0
 23 24  1  0  0  0  0
 23 25  1  0  0  0  0
 23 26  1  0  0  0  0
M  END
$$$$

  -OEChem-01062216063D

 26 25  0     1  0  0  0  0  0999 V2000
   -2.9935   -3.2227    0.8738 H   0  0  0  0  0  0  0  0  0  0  0  0
   -2.9110   -2.1741    0.5742 C   0  0  0  0  0  0  0  0  0  0  0  0
   -3.5957   -1.5793    1.1837 H   0  0  0  0  0  0  0  0  0  0  0  0
   -3.1985   -2.0854   -0.4764 H   0  0  0  0  0  0  0  0  0  0  0  0
   -1.4880   -1.6827    0.7642 C   0  0  0  0  0  0  0  0  0  0  0  0
   -0.6419   -2.4584    1.1794 O   0  0  0  0  0  0  0  0  0  0  0  0
   -1.1841   -0.3760    0.4298 N   0  0  0  0  0  0  0  0  0  0  0  0
   -1.9461    0.1499    0.0077 H   0  0  0  0  0  0  0  0  0  0  0  0
    0.1175    0.3222    0.5008 C   0  0  1  0  0  0  0  0  0  0  0  0
   -0.0909    1.3969    0.5617 H   0  0  0  0  0  0  0  0  0  0  0  0
    1.0025   -0.0272    1.7234 C   0  0  0  0  0  0  0  0  0  0  0  0
    1.1940   -1.0959    1.8110 H   0  0  0  0  0  0  0  0  0  0  0  0
    1.9772    0.4518    1.5967 H   0  0  0  0  0  0  0  0  0  0  0  0
    0.4201    0.5165    3.0187 C   0  0  0  0  0  0  0  0  0  0  0  0
   -0.0660    1.6290    3.1035 O   0  0  0  0  0  0  0  0  0  0  0  0
    0.2977   -0.2765    4.1228 N   0  0  0  0  0  0  0  0  0  0  0  0
   -0.3165    0.0804    4.8486 H   0  0  0  0  0  0  0  0  0  0  0  0
    0.3962   -1.2797    3.9964 H   0  0  0  0  0  0  0  0  0  0  0  0
    0.8600    0.1376   -0.8384 C   0  0  0  0  0  0  0  0  0  0  0  0
    0.4713    0.7487   -1.8250 O   0  0  0  0  0  0  0  0  0  0  0  0
    1.9278   -0.7343   -0.9561 N   0  0  0  0  0  0  0  0  0  0  0  0
    2.0897   -1.3603   -0.1719 H   0  0  0  0  0  0  0  0  0  0  0  0
    2.5756   -1.0299   -2.2281 C   0  0  0  0  0  0  0  0  0  0  0  0
    2.9668   -0.1130   -2.6815 H   0  0  0  0  0  0  0  0  0  0  0  0
    3.4102   -1.7206   -2.0749 H   0  0  0  0  0  0  0  0  0  0  0  0
    1.8652   -1.4912   -2.9221 H   0  0  0  0  0  0  0  0  0  0  0  0
  1  2  1  0  0  0  0
  2  3  1  0  0  0  0
  2  4  1  0  0  0  0
  2  5  1  0  0  0  0
  5  6  2  0  0  0  0
  5  7  1  0  0  0  0
  7  8  1  0  0  0  0
  7  9  1  0  0  0  0
  9 10  1  0  0  0  0
  9 11  1  0  0  0  0
  9 19  1  0  0  0  0
 11 12  1  0  0  0  0
 11 13  1  0  0  0  0
 11 14  1  0  0  0  0
 14 15  2  0  0  0  0
 14 16  1  0  0  0  0
 16 17  1  0  0  0  0
 16 18  1  0  0  0  0
 19 20  2  0  0  0  0
 19 21  1  0  0  0  0
 21 22  1  0  0  0  0
 21 23  1  0  0  0  0
 23 24  1  0  0  0  0
 23 25  1  0  0  0  0
 23 26  1  0  0  0  0
M  END
$$$$

  -OEChem-01062216063D

 26 25  0     1  0  0  0  0  0999 V2000
   -2.9888   -3.2094    0.9573 H   0  0  0  0  0  0  0  0  0  0  0  0
   -2.9199   -2.1646    0.6415 C   0  0  0  0  0  0  0  0  0  0  0  0
   -3.5436   -1.5565    1.3015 H   0  0  0  0  0  0  0  0  0  0  0  0
   -3.2942   -2.0808   -0.3818 H   0  0  0  0  0  0  0  0  0  0  0  0
   -1.4803   -1.6904    0.7058 C   0  0  0  0  0  0  0  0  0  0  0  0
   -0.5993   -2.4857    0.9934 O   0  0  0  0  0  0  0  0  0  0  0  0
   -1.1879   -0.3814    0.3736 N   0  0  0  0  0  0  0  0  0  0  0  0
   -1.9804    0.1842    0.0781 H   0  0  0  0  0  0  0  0  0  0  0  0
    0.1128    0.3133    0.4676 C   0  0  1  0  0  0  0  0  0  0  0  0
   -0.0955    1.3883    0.5275 H   0  0  0  0  0  0  0  0  0  0  0  0
    0.9843   -0.0367    1.6992 C   0  0  0  0  0  0  0  0  0  0  0  0
    1.1714   -1.1060    1.7898 H   0  0  0  0  0  0  0  0  0  0  0  0
    1.9617    0.4389    1.5792 H   0  0  0  0  0  0  0  0  0  0  0  0
    0.3876    0.5045    2.9893 C   0  0  0  0  0  0  0  0  0  0  0  0
   -0.1009    1.6160    3.0711 O   0  0  0  0  0  0  0  0  0  0  0  0
    0.2828   -0.2779    4.1031 N   0  0  0  0  0  0  0  0  0  0  0  0
   -0.3156    0.0814    4.8410 H   0  0  0  0  0  0  0  0  0  0  0  0
    0.4231   -1.2788    4.0038 H   0  0  0  0  0  0  0  0  0  0  0  0
    0.8755    0.1272   -0.8569 C   0  0  0  0  0  0  0  0  0  0  0  0
    0.7186    0.9285   -1.7679 O   0  0  0  0  0  0  0  0  0  0  0  0
    1.7196   -0.9547   -1.0275 N   0  0  0  0  0  0  0  0  0  0  0  0
    1.6341   -1.6970   -0.3355 H   0  0  0  0  0  0  0  0  0  0  0  0
    2.3695   -1.2583   -2.2962 C   0  0  0  0  0  0  0  0  0  0  0  0
    2.9861   -0.4143   -2.6234 H   0  0  0  0  0  0  0  0  0  0  0  0
    3.0164   -2.1343   -2.1890 H   0  0  0  0  0  0  0  0  0  0  0  0
    1.6225   -1.4693   -3.0686 H   0  0  0  0  0  0  0  0  0  0  0  0
  1  2  1  0  0  0  0
  2  3  1  0  0  0  0
  2  4  1  0  0  0  0
  2  5  1  0  0  0  0
  5  6  2  0  0  0  0
  5  7  1  0  0  0  0
  7  8  1  0  0  0  0
  7  9  1  0  0  0  0
  9 10  1  0  0  0  0
  9 11  1  0  0  0  0
  9 19  1  0  0  0  0
 11 12  1  0  0  0  0
 11 13  1  0  0  0  0
 11 14  1  0  0  0  0
 14 15  2  0  0  0  0
 14 16  1  0  0  0  0
 16 17  1  0  0  0  0
 16 18  1  0  0  0  0
 19 20  2  0  0  0  0
 19 21  1  0  0  0  0
 21 22  1  0  0  0  0
 21 23  1  0  0  0  0
 23 24  1  0  0  0  0
 23 25  1  0  0  0  0
 23 26  1  0  0  0  0
M  END
$$$$

  -OEChem-01062216063D

 26 25  0     1  0  0  0  0  0999 V2000
   -2.9853   -3.1950    1.0310 H   0  0  0  0  0  0  0  0  0  0  0  0
   -2.9300   -2.1525    0.7047 C   0  0  0  0  0  0  0  0  0  0  0  0
   -3.5018   -1.5357    1.4024 H   0  0  0  0  0  0  0  0  0  0  0  0
   -3.3738   -2.0712   -0.2908 H   0  0  0  0  0  0  0  0  0  0  0  0
   -1.4856   -1.6902    0.6670 C   0  0  0  0  0  0  0  0  0  0  0  0
   -0.5886   -2.4980    0.8545 O   0  0  0  0  0  0  0  0  0  0  0  0
   -1.2011   -0.3812    0.3291 N   0  0  0  0  0  0  0  0  0  0  0  0
   -2.0098    0.2069    0.1406 H   0  0  0  0  0  0  0  0  0  0  0  0
    0.1002    0.3121    0.4354 C   0  0  1  0  0  0  0  0  0  0  0  0
   -0.1053    1.3878    0.4946 H   0  0  0  0  0  0  0  0  0  0  0  0
    0.9655   -0.0457    1.6679 C   0  0  0  0  0  0  0  0  0  0  0  0
    1.1478   -1.1165    1.7517 H   0  0  0  0  0  0  0  0  0  0  0  0
    1.9453    0.4269    1.5543 H   0  0  0  0  0  0  0  0  0  0  0  0
    0.3634    0.4869    2.9586 C   0  0  0  0  0  0  0  0  0  0  0  0
   -0.1259    1.5976    3.0460 O   0  0  0  0  0  0  0  0  0  0  0  0
    0.2726   -0.2965    4.0732 N   0  0  0  0  0  0  0  0  0  0  0  0
   -0.3075    0.0601    4.8269 H   0  0  0  0  0  0  0  0  0  0  0  0
    0.4466   -1.2931    3.9862 H   0  0  0  0  0  0  0  0  0  0  0  0
    0.8795    0.1202   -0.8767 C   0  0  0  0  0  0  0  0  0  0  0  0
    0.9829    1.0384   -1.6779 O   0  0  0  0  0  0  0  0  0  0  0  0
    1.4649   -1.1038   -1.1399 N   0  0  0  0  0  0  0  0  0  0  0  0
    1.1831   -1.8705   -0.5277 H   0  0  0  0  0  0  0  0  0  0  0  0
    2.1233   -1.4168   -2.4010 C   0  0  0  0  0  0  0  0  0  0  0  0
    2.9376   -0.7105   -2.5941 H   0  0  0  0  0  0  0  0  0  0  0  0
    2.5449   -2.4260   -2.3652 H   0  0  0  0  0  0  0  0  0  0  0  0
    1.4088   -1.3663   -3.2291 H   0  0  0  0  0  0  0  0  0  0  0  0
  1  2  1  0  0  0  0
  2  3  1  0  0  0  0
  2  4  1  0  0  0  0
  2  5  1  0  0  0  0
  5  6  2  0  0  0  0
  5  7  1  0  0  0  0
  7  8  1  0  0  0  0
  7  9  1  0  0  0  0
  9 10  1  0  0  0  0
  9 11  1  0  0  0  0
  9 19  1  0  0  0  0
 11 12  1  0  0  0  0
 11 13  1  0  0  0  0
 11 14  1  0  0  0  0
 14 15  2  0  0  0  0
 14 16  1  0  0  0  0
 16 17  1  0  0  0  0
 16 18  1  0  0  0  0
 19 20  2  0  0  0  0
 19 21  1  0  0  0  0
 21 22  1  0  0  0  0
 21 23  1  0  0  0  0
 23 24  1  0  0  0  0
 23 25  1  0  0  0  0
 23 26  1  0  0  0  0
M  END
$$$$

  -OEChem-01062216063D

 26 25  0     1  0  0  0  0  0999 V2000
   -3.0138   -3.1791    1.0974 H   0  0  0  0  0  0  0  0  0  0  0  0
   -2.9619   -2.1343    0.7780 C   0  0  0  0  0  0  0  0  0  0  0  0
   -3.4861   -1.5168    1.5117 H   0  0  0  0  0  0  0  0  0  0  0  0
   -3.4578   -2.0366   -0.1909 H   0  0  0  0  0  0  0  0  0  0  0  0
   -1.5152   -1.6919    0.6656 C   0  0  0  0  0  0  0  0  0  0  0  0
   -0.6206   -2.5140    0.7906 O   0  0  0  0  0  0  0  0  0  0  0  0
   -1.2290   -0.3873    0.3131 N   0  0  0  0  0  0  0  0  0  0  0  0
   -2.0414    0.2115    0.1844 H   0  0  0  0  0  0  0  0  0  0  0  0
    0.0756    0.3053    0.4052 C   0  0  1  0  0  0  0  0  0  0  0  0
   -0.1266    1.3816    0.4646 H   0  0  0  0  0  0  0  0  0  0  0  0
    0.9473   -0.0602    1.6293 C   0  0  0  0  0  0  0  0  0  0  0  0
    1.1240   -1.1329    1.7044 H   0  0  0  0  0  0  0  0  0  0  0  0
    1.9288    0.4079    1.5104 H   0  0  0  0  0  0  0  0  0  0  0  0
    0.3566    0.4702    2.9265 C   0  0  0  0  0  0  0  0  0  0  0  0
   -0.1278    1.5824    3.0219 O   0  0  0  0  0  0  0  0  0  0  0  0
    0.2698   -0.3174    4.0385 N   0  0  0  0  0  0  0  0  0  0  0  0
   -0.2953    0.0395    4.8033 H   0  0  0  0  0  0  0  0  0  0  0  0
    0.4522   -1.3125    3.9523 H   0  0  0  0  0  0  0  0  0  0  0  0
    0.8621    0.1085   -0.9027 C   0  0  0  0  0  0  0  0  0  0  0  0
    1.2127    1.0718   -1.5694 O   0  0  0  0  0  0  0  0  0  0  0  0
    1.1842   -1.1725   -1.3087 N   0  0  0  0  0  0  0  0  0  0  0  0
    0.8033   -1.9359   -0.7463 H   0  0  0  0  0  0  0  0  0  0  0  0
    1.8835   -1.4771   -2.5494 C   0  0  0  0  0  0  0  0  0  0  0  0
    2.8547   -0.9722   -2.5755 H   0  0  0  0  0  0  0  0  0  0  0  0
    2.0534   -2.5549   -2.6323 H   0  0  0  0  0  0  0  0  0  0  0  0
    1.2929   -1.1509   -3.4118 H   0  0  0  0  0  0  0  0  0  0  0  0
  1  2  1  0  0  0  0
  2  3  1  0  0  0  0
  2  4  1  0  0  0  0
  2  5  1  0  0  0  0
  5  6  2  0  0  0  0
  5  7  1  0  0  0  0
  7  8  1  0  0  0  0
  7  9  1  0  0  0  0
  9 10  1  0  0  0  0
  9 11  1  0  0  0  0
  9 19  1  0  0  0  0
 11 12  1  0  0  0  0
 11 13  1  0  0  0  0
 11 14  1  0  0  0  0
 14 15  2  0  0  0  0
 14 16  1  0  0  0  0
 16 17  1  0  0  0  0
 16 18  1  0  0  0  0
 19 20  2  0  0  0  0
 19 21  1  0  0  0  0
 21 22  1  0  0  0  0
 21 23  1  0  0  0  0
 23 24  1  0  0  0  0
 23 25  1  0  0  0  0
 23 26  1  0  0  0  0
M  END
$$$$

  -OEChem-01062216063D

 26 25  0     1  0  0  0  0  0999 V2000
   -3.0479   -3.1653    1.1827 H   0  0  0  0  0  0  0  0  0  0  0  0
   -3.0013   -2.1184    0.8697 C   0  0  0  0  0  0  0  0  0  0  0  0
   -3.4684   -1.5008    1.6412 H   0  0  0  0  0  0  0  0  0  0  0  0
   -3.5573   -2.0046   -0.0643 H   0  0  0  0  0  0  0  0  0  0  0  0
   -1.5585   -1.6947    0.6691 C   0  0  0  0  0  0  0  0  0  0  0  0
   -0.6685   -2.5281    0.7308 O   0  0  0  0  0  0  0  0  0  0  0  0
   -1.2762   -0.3923    0.3060 N   0  0  0  0  0  0  0  0  0  0  0  0
   -2.0901    0.2142    0.2355 H   0  0  0  0  0  0  0  0  0  0  0  0
    0.0329    0.2983    0.3697 C   0  0  1  0  0  0  0  0  0  0  0  0
   -0.1661    1.3747    0.4349 H   0  0  0  0  0  0  0  0  0  0  0  0
    0.9215   -0.0767    1.5777 C   0  0  0  0  0  0  0  0  0  0  0  0
    1.0918   -1.1513    1.6444 H   0  0  0  0  0  0  0  0  0  0  0  0
    1.9042    0.3854    1.4455 H   0  0  0  0  0  0  0  0  0  0  0  0
    0.3551    0.4525    2.8857 C   0  0  0  0  0  0  0  0  0  0  0  0
   -0.1212    1.5672    2.9931 O   0  0  0  0  0  0  0  0  0  0  0  0
    0.2812   -0.3390    3.9960 N   0  0  0  0  0  0  0  0  0  0  0  0
   -0.2589    0.0204    4.7774 H   0  0  0  0  0  0  0  0  0  0  0  0
    0.4715   -1.3327    3.9103 H   0  0  0  0  0  0  0  0  0  0  0  0
    0.8141    0.1090   -0.9438 C   0  0  0  0  0  0  0  0  0  0  0  0
    1.4060    1.0512   -1.4508 O   0  0  0  0  0  0  0  0  0  0  0  0
    0.8788   -1.1420   -1.5272 N   0  0  0  0  0  0  0  0  0  0  0  0
    0.4485   -1.9072   -1.0046 H   0  0  0  0  0  0  0  0  0  0  0  0
    1.6722   -1.4418   -2.7112 C   0  0  0  0  0  0  0  0  0  0  0  0
    2.7324   -1.2446   -2.5217 H   0  0  0  0  0  0  0  0  0  0  0  0
    1.5586   -2.4950   -2.9847 H   0  0  0  0  0  0  0  0  0  0  0  0
    1.3444   -0.8279   -3.5566 H   0  0  0  0  0  0  0  0  0  0  0  0
  1  2  1  0  0  0  0
  2  3  1  0  0  0  0
  2  4  1  0  0  0  0
  2  5  1  0  0  0  0
  5  6  2  0  0  0  0
  5  7  1  0  0  0  0
  7  8  1  0  0  0  0
  7  9  1  0  0  0  0
  9 10  1  0  0  0  0
  9 11  1  0  0  0  0
  9 19  1  0  0  0  0
 11 12  1  0  0  0  0
 11 13  1  0  0  0  0
 11 14  1  0  0  0  0
 14 15  2  0  0  0  0
 14 16  1  0  0  0  0
 16 17  1  0  0  0  0
 16 18  1  0  0  0  0
 19 20  2  0  0  0  0
 19 21  1  0  0  0  0
 21 22  1  0  0  0  0
 21 23  1  0  0  0  0
 23 24  1  0  0  0  0
 23 25  1  0  0  0  0
 23 26  1  0  0  0  0
M  END
$$$$

  -OEChem-01062216063D

 26 25  0     1  0  0  0  0  0999 V2000
   -3.0756   -3.1537    1.2285 H   0  0  0  0  0  0  0  0  0  0  0  0
   -3.0345   -2.1079    0.9111 C   0  0  0  0  0  0  0  0  0  0  0  0
   -3.4451   -1.4835    1.7086 H   0  0  0  0  0  0  0  0  0  0  0  0
   -3.6448   -1.9874    0.0127 H   0  0  0  0  0  0  0  0  0  0  0  0
   -1.6013   -1.7039    0.6228 C   0  0  0  0  0  0  0  0  0  0  0  0
   -0.7265   -2.5539    0.5814 O   0  0  0  0  0  0  0  0  0  0  0  0
   -1.3170   -0.3996    0.2702 N   0  0  0  0  0  0  0  0  0  0  0  0
   -2.1231    0.2210    0.2834 H   0  0  0  0  0  0  0  0  0  0  0  0
    0.0008    0.2745    0.3460 C   0  0  1  0  0  0  0  0  0  0  0  0
   -0.1881    1.3522    0.4160 H   0  0  0  0  0  0  0  0  0  0  0  0
    0.8574   -0.1220    1.5707 C   0  0  0  0  0  0  0  0  0  0  0  0
    0.9962   -1.2014    1.6373 H   0  0  0  0  0  0  0  0  0  0  0  0
    1.8539    0.3161    1.4610 H   0  0  0  0  0  0  0  0  0  0  0  0
    0.2722    0.4166    2.8669 C   0  0  0  0  0  0  0  0  0  0  0  0
   -0.1843    1.5404    2.9652 O   0  0  0  0  0  0  0  0  0  0  0  0
    0.1879   -0.3609    3.9863 N   0  0  0  0  0  0  0  0  0  0  0  0
   -0.0520    0.1204    4.8481 H   0  0  0  0  0  0  0  0  0  0  0  0
    0.7032   -1.2349    4.0147 H   0  0  0  0  0  0  0  0  0  0  0  0
    0.8068    0.1031   -0.9572 C   0  0  0  0  0  0  0  0  0  0  0  0
    1.6094    0.9621   -1.2955 O   0  0  0  0  0  0  0  0  0  0  0  0
    0.6419   -1.0274   -1.7349 N   0  0  0  0  0  0  0  0  0  0  0  0
    0.1122   -1.7852   -1.3022 H   0  0  0  0  0  0  0  0  0  0  0  0
    1.4525   -1.3145   -2.9106 C   0  0  0  0  0  0  0  0  0  0  0  0
    2.5087   -1.4032   -2.6358 H   0  0  0  0  0  0  0  0  0  0  0  0
    1.1322   -2.2548   -3.3693 H   0  0  0  0  0  0  0  0  0  0  0  0
    1.3466   -0.5159   -3.6524 H   0  0  0  0  0  0  0  0  0  0  0  0
  1  2  1  0  0  0  0
  2  3  1  0  0  0  0
  2  4  1  0  0  0  0
  2  5  1  0  0  0  0
  5  6  2  0  0  0  0
  5  7  1  0  0  0  0
  7  8  1  0  0  0  0
  7  9  1  0  0  0  0
  9 10  1  0  0  0  0
  9 11  1  0  0  0  0
  9 19  1  0  0  0  0
 11 12  1  0  0  0  0
 11 13  1  0  0  0  0
 11 14  1  0  0  0  0
 14 15  2  0  0  0  0
 14 16  1  0  0  0  0
 16 17  1  0  0  0  0
 16 18  1  0  0  0  0
 19 20  2  0  0  0  0
 19 21  1  0  0  0  0
 21 22  1  0  0  0  0
 21 23  1  0  0  0  0
 23 24  1  0  0  0  0
 23 25  1  0  0  0  0
 23 26  1  0  0  0  0
M  END
$$$$

  -OEChem-01062216063D

 26 25  0     1  0  0  0  0  0999 V2000
   -3.0671   -3.1616    1.2499 H   0  0  0  0  0  0  0  0  0  0  0  0
   -3.0307   -2.1102    0.9506 C   0  0  0  0  0  0  0  0  0  0  0  0
   -3.4146   -1.4990    1.7712 H   0  0  0  0  0  0  0  0  0  0  0  0
   -3.6671   -1.9710    0.0732 H   0  0  0  0  0  0  0  0  0  0  0  0
   -1.6043   -1.7071    0.6281 C   0  0  0  0  0  0  0  0  0  0  0  0
   -0.7341   -2.5587    0.5625 O   0  0  0  0  0  0  0  0  0  0  0  0
   -1.3254   -0.4017    0.2741 N   0  0  0  0  0  0  0  0  0  0  0  0
   -2.1299    0.2198    0.3176 H   0  0  0  0  0  0  0  0  0  0  0  0
   -0.0061    0.2729    0.3386 C   0  0  1  0  0  0  0  0  0  0  0  0
   -0.1946    1.3500    0.4113 H   0  0  0  0  0  0  0  0  0  0  0  0
    0.8515   -0.1267    1.5627 C   0  0  0  0  0  0  0  0  0  0  0  0
    0.9872   -1.2066    1.6287 H   0  0  0  0  0  0  0  0  0  0  0  0
    1.8497    0.3076    1.4542 H   0  0  0  0  0  0  0  0  0  0  0  0
    0.2695    0.4150    2.8589 C   0  0  0  0  0  0  0  0  0  0  0  0
   -0.1831    1.5405    2.9579 O   0  0  0  0  0  0  0  0  0  0  0  0
    0.1746   -0.3651    3.9755 N   0  0  0  0  0  0  0  0  0  0  0  0
   -0.0623    0.1173    4.8376 H   0  0  0  0  0  0  0  0  0  0  0  0
    0.6891   -1.2398    4.0041 H   0  0  0  0  0  0  0  0  0  0  0  0
    0.7987    0.1105   -0.9689 C   0  0  0  0  0  0  0  0  0  0  0  0
    1.7563    0.8404   -1.1874 O   0  0  0  0  0  0  0  0  0  0  0  0
    0.4360   -0.8371   -1.9076 N   0  0  0  0  0  0  0  0  0  0  0  0
   -0.2132   -1.5482   -1.5755 H   0  0  0  0  0  0  0  0  0  0  0  0
    1.2279   -1.1169   -3.0984 C   0  0  0  0  0  0  0  0  0  0  0  0
    2.2230   -1.4796   -2.8203 H   0  0  0  0  0  0  0  0  0  0  0  0
    0.7362   -1.8812   -3.7076 H   0  0  0  0  0  0  0  0  0  0  0  0
    1.3394   -0.2125   -3.7057 H   0  0  0  0  0  0  0  0  0  0  0  0
  1  2  1  0  0  0  0
  2  3  1  0  0  0  0
  2  4  1  0  0  0  0
  2  5  1  0  0  0  0
  5  6  2  0  0  0  0
  5  7  1  0  0  0  0
  7  8  1  0  0  0  0
  7  9  1  0  0  0  0
  9 10  1  0  0  0  0
  9 11  1  0  0  0  0
  9 19  1  0  0  0  0
 11 12  1  0  0  0  0
 11 13  1  0  0  0  0
 11 14  1  0  0  0  0
 14 15  2  0  0  0  0
 14 16  1  0  0  0  0
 16 17  1  0  0  0  0
 16 18  1  0  0  0  0
 19 20  2  0  0  0  0
 19 21  1  0  0  0  0
 21 22  1  0  0  0  0
 21 23  1  0  0  0  0
 23 24  1  0  0  0  0
 23 25  1  0  0  0  0
 23 26  1  0  0  0  0
M  END
$$$$

  -OEChem-01062216063D

 26 25  0     1  0  0  0  0  0999 V2000
   -3.0616   -3.1876    1.1952 H   0  0  0  0  0  0  0  0  0  0  0  0
   -3.0156   -2.1226    0.9501 C   0  0  0  0  0  0  0  0  0  0  0  0
   -3.3837   -1.5502    1.8051 H   0  0  0  0  0  0  0  0  0  0  0  0
   -3.6585   -1.9317    0.0875 H   0  0  0  0  0  0  0  0  0  0  0  0
   -1.5877   -1.7190    0.6346 C   0  0  0  0  0  0  0  0  0  0  0  0
   -0.7154   -2.5692    0.5972 O   0  0  0  0  0  0  0  0  0  0  0  0
   -1.3129   -0.4109    0.2838 N   0  0  0  0  0  0  0  0  0  0  0  0
   -2.1186    0.2085    0.3339 H   0  0  0  0  0  0  0  0  0  0  0  0
    0.0061    0.2665    0.3418 C   0  0  1  0  0  0  0  0  0  0  0  0
   -0.1842    1.3433    0.4130 H   0  0  0  0  0  0  0  0  0  0  0  0
    0.8596   -0.1281    1.5727 C   0  0  0  0  0  0  0  0  0  0  0  0
    0.9960   -1.2073    1.6450 H   0  0  0  0  0  0  0  0  0  0  0  0
    1.8591    0.3043    1.4710 H   0  0  0  0  0  0  0  0  0  0  0  0
    0.2718    0.4224    2.8624 C   0  0  0  0  0  0  0  0  0  0  0  0
   -0.1797    1.5494    2.9517 O   0  0  0  0  0  0  0  0  0  0  0  0
    0.1584   -0.3549    3.9794 N   0  0  0  0  0  0  0  0  0  0  0  0
   -0.0859    0.1297    4.8380 H   0  0  0  0  0  0  0  0  0  0  0  0
    0.6655   -1.2337    4.0146 H   0  0  0  0  0  0  0  0  0  0  0  0
    0.8041    0.1124   -0.9732 C   0  0  0  0  0  0  0  0  0  0  0  0
    1.8860    0.6699   -1.1016 O   0  0  0  0  0  0  0  0  0  0  0  0
    0.2807   -0.5949   -2.0399 N   0  0  0  0  0  0  0  0  0  0  0  0
   -0.5180   -1.1847   -1.8224 H   0  0  0  0  0  0  0  0  0  0  0  0
    1.0256   -0.8518   -3.2662 C   0  0  0  0  0  0  0  0  0  0  0  0
    1.9151   -1.4540   -3.0546 H   0  0  0  0  0  0  0  0  0  0  0  0
    0.4002   -1.3943   -3.9815 H   0  0  0  0  0  0  0  0  0  0  0  0
    1.3391    0.0897   -3.7293 H   0  0  0  0  0  0  0  0  0  0  0  0
  1  2  1  0  0  0  0
  2  3  1  0  0  0  0
  2  4  1  0  0  0  0
  2  5  1  0  0  0  0
  5  6  2  0  0  0  0
  5  7  1  0  0  0  0
  7  8  1  0  0  0  0
  7  9  1  0  0  0  0
  9 10  1  0  0  0  0
  9 11  1  0  0  0  0
  9 19  1  0  0  0  0
 11 12  1  0  0  0  0
 11 13  1  0  0  0  0
 11 14  1  0  0  0  0
 14 15  2  0  0  0  0
 14 16  1  0  0  0  0
 16 17  1  0  0  0  0
 16 18  1  0  0  0  0
 19 20  2  0  0  0  0
 19 21  1  0  0  0  0
 21 22  1  0  0  0  0
 21 23  1  0  0  0  0
 23 24  1  0  0  0  0
 23 25  1  0  0  0  0
 23 26  1  0  0  0  0
M  END
$$$$

  -OEChem-01062216063D

 26 25  0     1  0  0  0  0  0999 V2000
   -3.0386   -3.1846    1.2045 H   0  0  0  0  0  0  0  0  0  0  0  0
   -2.9898   -2.1350    0.9005 C   0  0  0  0  0  0  0  0  0  0  0  0
   -3.4373   -1.5217    1.6865 H   0  0  0  0  0  0  0  0  0  0  0  0
   -3.5625   -2.0089   -0.0214 H   0  0  0  0  0  0  0  0  0  0  0  0
   -1.5473   -1.7210    0.6769 C   0  0  0  0  0  0  0  0  0  0  0  0
   -0.6680   -2.5607    0.7485 O   0  0  0  0  0  0  0  0  0  0  0  0
   -1.2715   -0.4128    0.3226 N   0  0  0  0  0  0  0  0  0  0  0  0
   -2.0854    0.1979    0.3226 H   0  0  0  0  0  0  0  0  0  0  0  0
    0.0413    0.2794    0.3619 C   0  0  1  0  0  0  0  0  0  0  0  0
   -0.1576    1.3546    0.4306 H   0  0  0  0  0  0  0  0  0  0  0  0
    0.9181   -0.0984    1.5835 C   0  0  0  0  0  0  0  0  0  0  0  0
    1.0769   -1.1741    1.6561 H   0  0  0  0  0  0  0  0  0  0  0  0
    1.9089    0.3503    1.4709 H   0  0  0  0  0  0  0  0  0  0  0  0
    0.3446    0.4489    2.8801 C   0  0  0  0  0  0  0  0  0  0  0  0
   -0.1201    1.5709    2.9722 O   0  0  0  0  0  0  0  0  0  0  0  0
    0.2599   -0.3292    3.9992 N   0  0  0  0  0  0  0  0  0  0  0  0
   -0.2584    0.0457    4.7879 H   0  0  0  0  0  0  0  0  0  0  0  0
    0.4774   -1.3193    3.9379 H   0  0  0  0  0  0  0  0  0  0  0  0
    0.8126    0.1212   -0.9709 C   0  0  0  0  0  0  0  0  0  0  0  0
    1.9811    0.4736   -1.0624 O   0  0  0  0  0  0  0  0  0  0  0  0
    0.1611   -0.3201   -2.1085 N   0  0  0  0  0  0  0  0  0  0  0  0
   -0.7543   -0.7338   -1.9623 H   0  0  0  0  0  0  0  0  0  0  0  0
    0.8401   -0.5486   -3.3783 C   0  0  0  0  0  0  0  0  0  0  0  0
    1.6041   -1.3254   -3.2696 H   0  0  0  0  0  0  0  0  0  0  0  0
    0.1217   -0.8710   -4.1380 H   0  0  0  0  0  0  0  0  0  0  0  0
    1.3204    0.3715   -3.7277 H   0  0  0  0  0  0  0  0  0  0  0  0
  1  2  1  0  0  0  0
  2  3  1  0  0  0  0
  2  4  1  0  0  0  0
  2  5  1  0  0  0  0
  5  6  2  0  0  0  0
  5  7  1  0  0  0  0
  7  8  1  0  0  0  0
  7  9  1  0  0  0  0
  9 10  1  0  0  0  0
  9 11  1  0  0  0  0
  9 19  1  0  0  0  0
 11 12  1  0  0  0  0
 11 13  1  0  0  0  0
 11 14  1  0  0  0  0
 14 15  2  0  0  0  0
 14 16  1  0  0  0  0
 16 17  1  0  0  0  0
 16 18  1  0  0  0  0
 19 20  2  0  0  0  0
 19 21  1  0  0  0  0
 21 22  1  0  0  0  0
 21 23  1  0  0  0  0
 23 24  1  0  0  0  0
 23 25  1  0  0  0  0
 23 26  1  0  0  0  0
M  END
$$$$

  -OEChem-01062216063D

 26 25  0     1  0  0  0  0  0999 V2000
   -3.0261   -3.1889    1.1838 H   0  0  0  0  0  0  0  0  0  0  0  0
   -2.9750   -2.1449    0.8611 C   0  0  0  0  0  0  0  0  0  0  0  0
   -3.4472   -1.5195    1.6227 H   0  0  0  0  0  0  0  0  0  0  0  0
   -3.5229   -2.0406   -0.0786 H   0  0  0  0  0  0  0  0  0  0  0  0
   -1.5291   -1.7264    0.6692 C   0  0  0  0  0  0  0  0  0  0  0  0
   -0.6503   -2.5623    0.7782 O   0  0  0  0  0  0  0  0  0  0  0  0
   -1.2520   -0.4158    0.3226 N   0  0  0  0  0  0  0  0  0  0  0  0
   -2.0673    0.1924    0.3200 H   0  0  0  0  0  0  0  0  0  0  0  0
    0.0603    0.2762    0.3685 C   0  0  1  0  0  0  0  0  0  0  0  0
   -0.1384    1.3512    0.4364 H   0  0  0  0  0  0  0  0  0  0  0  0
    0.9314   -0.0972    1.5965 C   0  0  0  0  0  0  0  0  0  0  0  0
    1.0934   -1.1721    1.6729 H   0  0  0  0  0  0  0  0  0  0  0  0
    1.9215    0.3543    1.4892 H   0  0  0  0  0  0  0  0  0  0  0  0
    0.3509    0.4537    2.8882 C   0  0  0  0  0  0  0  0  0  0  0  0
   -0.1149    1.5759    2.9732 O   0  0  0  0  0  0  0  0  0  0  0  0
    0.2588   -0.3223    4.0081 N   0  0  0  0  0  0  0  0  0  0  0  0
   -0.2731    0.0508    4.7883 H   0  0  0  0  0  0  0  0  0  0  0  0
    0.4671   -1.3142    3.9442 H   0  0  0  0  0  0  0  0  0  0  0  0
    0.8229    0.1167   -0.9702 C   0  0  0  0  0  0  0  0  0  0  0  0
    2.0418    0.2155   -1.0248 O   0  0  0  0  0  0  0  0  0  0  0  0
    0.1188   -0.0155   -2.1539 N   0  0  0  0  0  0  0  0  0  0  0  0
   -0.8734   -0.2094   -2.0675 H   0  0  0  0  0  0  0  0  0  0  0  0
    0.7628   -0.2081   -3.4479 C   0  0  0  0  0  0  0  0  0  0  0  0
    1.3482   -1.1336   -3.4499 H   0  0  0  0  0  0  0  0  0  0  0  0
    0.0103   -0.2712   -4.2396 H   0  0  0  0  0  0  0  0  0  0  0  0
    1.4296    0.6310   -3.6730 H   0  0  0  0  0  0  0  0  0  0  0  0
  1  2  1  0  0  0  0
  2  3  1  0  0  0  0
  2  4  1  0  0  0  0
  2  5  1  0  0  0  0
  5  6  2  0  0  0  0
  5  7  1  0  0  0  0
  7  8  1  0  0  0  0
  7  9  1  0  0  0  0
  9 10  1  0  0  0  0
  9 11  1  0  0  0  0
  9 19  1  0  0  0  0
 11 12  1  0  0  0  0
 11 13  1  0  0  0  0
 11 14  1  0  0  0  0
 14 15  2  0  0  0  0
 14 16  1  0  0  0  0
 16 17  1  0  0  0  0
 16 18  1  0  0  0  0
 19 20  2  0  0  0  0
 19 21  1  0  0  0  0
 21 22  1  0  0  0  0
 21 23  1  0  0  0  0
 23 24  1  0  0  0  0
 23 25  1  0  0  0  0
 23 26  1  0  0  0  0
M  END
$$$$

  -OEChem-01062216063D

 26 25  0     1  0  0  0  0  0999 V2000
   -3.0360   -3.1948    1.1367 H   0  0  0  0  0  0  0  0  0  0  0  0
   -2.9745   -2.1529    0.8094 C   0  0  0  0  0  0  0  0  0  0  0  0
   -3.4854   -1.5246    1.5432 H   0  0  0  0  0  0  0  0  0  0  0  0
   -3.4773   -2.0577   -0.1561 H   0  0  0  0  0  0  0  0  0  0  0  0
   -1.5229   -1.7290    0.6817 C   0  0  0  0  0  0  0  0  0  0  0  0
   -0.6489   -2.5585    0.8571 O   0  0  0  0  0  0  0  0  0  0  0  0
   -1.2397   -0.4197    0.3333 N   0  0  0  0  0  0  0  0  0  0  0  0
   -2.0577    0.1825    0.2882 H   0  0  0  0  0  0  0  0  0  0  0  0
    0.0707    0.2747    0.3777 C   0  0  1  0  0  0  0  0  0  0  0  0
   -0.1288    1.3496    0.4446 H   0  0  0  0  0  0  0  0  0  0  0  0
    0.9476   -0.0901    1.6035 C   0  0  0  0  0  0  0  0  0  0  0  0
    1.1173   -1.1637    1.6818 H   0  0  0  0  0  0  0  0  0  0  0  0
    1.9345    0.3668    1.4884 H   0  0  0  0  0  0  0  0  0  0  0  0
    0.3712    0.4622    2.8958 C   0  0  0  0  0  0  0  0  0  0  0  0
   -0.0985    1.5833    2.9781 O   0  0  0  0  0  0  0  0  0  0  0  0
    0.2837   -0.3128    4.0166 N   0  0  0  0  0  0  0  0  0  0  0  0
   -0.2659    0.0549    4.7870 H   0  0  0  0  0  0  0  0  0  0  0  0
    0.4700   -1.3085    3.9404 H   0  0  0  0  0  0  0  0  0  0  0  0
    0.8246    0.1066   -0.9649 C   0  0  0  0  0  0  0  0  0  0  0  0
    2.0362   -0.0633   -1.0076 O   0  0  0  0  0  0  0  0  0  0  0  0
    0.1433    0.2797   -2.1571 N   0  0  0  0  0  0  0  0  0  0  0  0
   -0.8682    0.3324   -2.1033 H   0  0  0  0  0  0  0  0  0  0  0  0
    0.7723    0.1354   -3.4649 C   0  0  0  0  0  0  0  0  0  0  0  0
    1.1587   -0.8812   -3.5942 H   0  0  0  0  0  0  0  0  0  0  0  0
    0.0459    0.3343   -4.2584 H   0  0  0  0  0  0  0  0  0  0  0  0
    1.6009    0.8433   -3.5724 H   0  0  0  0  0  0  0  0  0  0  0  0
  1  2  1  0  0  0  0
  2  3  1  0  0  0  0
  2  4  1  0  0  0  0
  2  5  1  0  0  0  0
  5  6  2  0  0  0  0
  5  7  1  0  0  0  0
  7  8  1  0  0  0  0
  7  9  1  0  0  0  0
  9 10  1  0  0  0  0
  9 11  1  0  0  0  0
  9 19  1  0  0  0  0
 11 12  1  0  0  0  0
 11 13  1  0  0  0  0
 11 14  1  0  0  0  0
 14 15  2  0  0  0  0
 14 16  1  0  0  0  0
 16 17  1  0  0  0  0
 16 18  1  0  0  0  0
 19 20  2  0  0  0  0
 19 21  1  0  0  0  0
 21 22  1  0  0  0  0
 21 23  1  0  0  0  0
 23 24  1  0  0  0  0
 23 25  1  0  0  0  0
 23 26  1  0  0  0  0
M  END
$$$$

  -OEChem-01062216063D

 26 25  0     1  0  0  0  0  0999 V2000
   -3.0606   -3.1972    1.0633 H   0  0  0  0  0  0  0  0  0  0  0  0
   -2.9788   -2.1601    0.7251 C   0  0  0  0  0  0  0  0  0  0  0  0
   -3.5655   -1.5260    1.3943 H   0  0  0  0  0  0  0  0  0  0  0  0
   -3.3861   -2.0883   -0.2863 H   0  0  0  0  0  0  0  0  0  0  0  0
   -1.5264   -1.7200    0.7309 C   0  0  0  0  0  0  0  0  0  0  0  0
   -0.6713   -2.5299    1.0396 O   0  0  0  0  0  0  0  0  0  0  0  0
   -1.2296   -0.4160    0.3722 N   0  0  0  0  0  0  0  0  0  0  0  0
   -2.0454    0.1664    0.2061 H   0  0  0  0  0  0  0  0  0  0  0  0
    0.0789    0.2824    0.4001 C   0  0  1  0  0  0  0  0  0  0  0  0
   -0.1202    1.3570    0.4681 H   0  0  0  0  0  0  0  0  0  0  0  0
    0.9801   -0.0756    1.6084 C   0  0  0  0  0  0  0  0  0  0  0  0
    1.1633   -1.1474    1.6832 H   0  0  0  0  0  0  0  0  0  0  0  0
    1.9599    0.3903    1.4696 H   0  0  0  0  0  0  0  0  0  0  0  0
    0.4235    0.4741    2.9098 C   0  0  0  0  0  0  0  0  0  0  0  0
   -0.0515    1.5928    2.9980 O   0  0  0  0  0  0  0  0  0  0  0  0
    0.3295   -0.3113    4.0222 N   0  0  0  0  0  0  0  0  0  0  0  0
   -0.2480    0.0462    4.7765 H   0  0  0  0  0  0  0  0  0  0  0  0
    0.4687   -1.3121    3.9142 H   0  0  0  0  0  0  0  0  0  0  0  0
    0.8129    0.0977   -0.9502 C   0  0  0  0  0  0  0  0  0  0  0  0
    1.9476   -0.3568   -1.0154 O   0  0  0  0  0  0  0  0  0  0  0  0
    0.2190    0.5524   -2.1150 N   0  0  0  0  0  0  0  0  0  0  0  0
   -0.7252    0.9170   -2.0492 H   0  0  0  0  0  0  0  0  0  0  0  0
    0.8443    0.4450   -3.4282 C   0  0  0  0  0  0  0  0  0  0  0  0
    1.0395   -0.6041   -3.6744 H   0  0  0  0  0  0  0  0  0  0  0  0
    0.1872    0.8643   -4.1961 H   0  0  0  0  0  0  0  0  0  0  0  0
    1.7919    0.9935   -3.4474 H   0  0  0  0  0  0  0  0  0  0  0  0
  1  2  1  0  0  0  0
  2  3  1  0  0  0  0
  2  4  1  0  0  0  0
  2  5  1  0  0  0  0
  5  6  2  0  0  0  0
  5  7  1  0  0  0  0
  7  8  1  0  0  0  0
  7  9  1  0  0  0  0
  9 10  1  0  0  0  0
  9 11  1  0  0  0  0
  9 19  1  0  0  0  0
 11 12  1  0  0  0  0
 11 13  1  0  0  0  0
 11 14  1  0  0  0  0
 14 15  2  0  0  0  0
 14 16  1  0  0  0  0
 16 17  1  0  0  0  0
 16 18  1  0  0  0  0
 19 20  2  0  0  0  0
 19 21  1  0  0  0  0
 21 22  1  0  0  0  0
 21 23  1  0  0  0  0
 23 24  1  0  0  0  0
 23 25  1  0  0  0  0
 23 26  1  0  0  0  0
M  END
$$$$

  -OEChem-01062216063D

 26 25  0     1  0  0  0  0  0999 V2000
   -3.0732   -3.2068    0.9835 H   0  0  0  0  0  0  0  0  0  0  0  0
   -2.9823   -2.1665    0.6575 C   0  0  0  0  0  0  0  0  0  0  0  0
   -3.6347   -1.5463    1.2769 H   0  0  0  0  0  0  0  0  0  0  0  0
   -3.3047   -2.0975   -0.3843 H   0  0  0  0  0  0  0  0  0  0  0  0
   -1.5441   -1.6991    0.7891 C   0  0  0  0  0  0  0  0  0  0  0  0
   -0.7227   -2.4719    1.2490 O   0  0  0  0  0  0  0  0  0  0  0  0
   -1.2378   -0.4009    0.4135 N   0  0  0  0  0  0  0  0  0  0  0  0
   -2.0357    0.1390    0.0921 H   0  0  0  0  0  0  0  0  0  0  0  0
    0.0701    0.2995    0.4196 C   0  0  1  0  0  0  0  0  0  0  0  0
   -0.1274    1.3741    0.4925 H   0  0  0  0  0  0  0  0  0  0  0  0
    1.0008   -0.0589    1.6030 C   0  0  0  0  0  0  0  0  0  0  0  0
    1.1930   -1.1298    1.6673 H   0  0  0  0  0  0  0  0  0  0  0  0
    1.9745    0.4107    1.4380 H   0  0  0  0  0  0  0  0  0  0  0  0
    0.4758    0.4818    2.9210 C   0  0  0  0  0  0  0  0  0  0  0  0
   -0.0005    1.5989    3.0257 O   0  0  0  0  0  0  0  0  0  0  0  0
    0.3839   -0.3218    4.0200 N   0  0  0  0  0  0  0  0  0  0  0  0
   -0.2047    0.0241    4.7709 H   0  0  0  0  0  0  0  0  0  0  0  0
    0.4815   -1.3233    3.8748 H   0  0  0  0  0  0  0  0  0  0  0  0
    0.7885    0.0986   -0.9355 C   0  0  0  0  0  0  0  0  0  0  0  0
    1.7759   -0.6158   -1.0464 O   0  0  0  0  0  0  0  0  0  0  0  0
    0.3517    0.7982   -2.0472 N   0  0  0  0  0  0  0  0  0  0  0  0
   -0.4412    1.4209   -1.9336 H   0  0  0  0  0  0  0  0  0  0  0  0
    1.0011    0.7147   -3.3504 C   0  0  0  0  0  0  0  0  0  0  0  0
    0.9983   -0.3182   -3.7142 H   0  0  0  0  0  0  0  0  0  0  0  0
    0.4727    1.3385   -4.0777 H   0  0  0  0  0  0  0  0  0  0  0  0
    2.0376    1.0621   -3.2850 H   0  0  0  0  0  0  0  0  0  0  0  0
  1  2  1  0  0  0  0
  2  3  1  0  0  0  0
  2  4  1  0  0  0  0
  2  5  1  0  0  0  0
  5  6  2  0  0  0  0
  5  7  1  0  0  0  0
  7  8  1  0  0  0  0
  7  9  1  0  0  0  0
  9 10  1  0  0  0  0
  9 11  1  0  0  0  0
  9 19  1  0  0  0  0
 11 12  1  0  0  0  0
 11 13  1  0  0  0  0
 11 14  1  0  0  0  0
 14 15  2  0  0  0  0
 14 16  1  0  0  0  0
 16 17  1  0  0  0  0
 16 18  1  0  0  0  0
 19 20  2  0  0  0  0
 19 21  1  0  0  0  0
 21 22  1  0  0  0  0
 21 23  1  0  0  0  0
 23 24  1  0  0  0  0
 23 25  1  0  0  0  0
 23 26  1  0  0  0  0
M  END
$$$$

  -OEChem-01062216063D

 26 25  0     1  0  0  0  0  0999 V2000
   -3.0397   -3.2064    0.8988 H   0  0  0  0  0  0  0  0  0  0  0  0
   -2.9403   -2.1755    0.5468 C   0  0  0  0  0  0  0  0  0  0  0  0
   -3.7054   -1.5637    1.0309 H   0  0  0  0  0  0  0  0  0  0  0  0
   -3.0981   -2.1590   -0.5343 H   0  0  0  0  0  0  0  0  0  0  0  0
   -1.5596   -1.6385    0.8775 C   0  0  0  0  0  0  0  0  0  0  0  0
   -0.8100   -2.3368    1.5386 O   0  0  0  0  0  0  0  0  0  0  0  0
   -1.2492   -0.3458    0.4839 N   0  0  0  0  0  0  0  0  0  0  0  0
   -1.9960    0.1144   -0.0281 H   0  0  0  0  0  0  0  0  0  0  0  0
    0.0656    0.3420    0.4641 C   0  0  1  0  0  0  0  0  0  0  0  0
   -0.1186    1.4177    0.5505 H   0  0  0  0  0  0  0  0  0  0  0  0
    1.0334   -0.0395    1.6075 C   0  0  0  0  0  0  0  0  0  0  0  0
    1.2222   -1.1128    1.6468 H   0  0  0  0  0  0  0  0  0  0  0  0
    2.0033    0.4265    1.4145 H   0  0  0  0  0  0  0  0  0  0  0  0
    0.5569    0.4848    2.9505 C   0  0  0  0  0  0  0  0  0  0  0  0
    0.0927    1.6039    3.0856 O   0  0  0  0  0  0  0  0  0  0  0  0
    0.4285   -0.3554    4.0174 N   0  0  0  0  0  0  0  0  0  0  0  0
   -0.1704   -0.0139    4.7621 H   0  0  0  0  0  0  0  0  0  0  0  0
    0.4390   -1.3512    3.8080 H   0  0  0  0  0  0  0  0  0  0  0  0
    0.7547    0.1199   -0.9009 C   0  0  0  0  0  0  0  0  0  0  0  0
    1.4901   -0.8369   -1.1012 O   0  0  0  0  0  0  0  0  0  0  0  0
    0.5332    1.0160   -1.9323 N   0  0  0  0  0  0  0  0  0  0  0  0
   -0.0324    1.8358   -1.7347 H   0  0  0  0  0  0  0  0  0  0  0  0
    1.1701    0.9010   -3.2393 C   0  0  0  0  0  0  0  0  0  0  0  0
    0.9197   -0.0582   -3.7048 H   0  0  0  0  0  0  0  0  0  0  0  0
    0.8280    1.7039   -3.8992 H   0  0  0  0  0  0  0  0  0  0  0  0
    2.2587    0.9720   -3.1426 H   0  0  0  0  0  0  0  0  0  0  0  0
  1  2  1  0  0  0  0
  2  3  1  0  0  0  0
  2  4  1  0  0  0  0
  2  5  1  0  0  0  0
  5  6  2  0  0  0  0
  5  7  1  0  0  0  0
  7  8  1  0  0  0  0
  7  9  1  0  0  0  0
  9 10  1  0  0  0  0
  9 11  1  0  0  0  0
  9 19  1  0  0  0  0
 11 12  1  0  0  0  0
 11 13  1  0  0  0  0
 11 14  1  0  0  0  0
 14 15  2  0  0  0  0
 14 16  1  0  0  0  0
 16 17  1  0  0  0  0
 16 18  1  0  0  0  0
 19 20  2  0  0  0  0
 19 21  1  0  0  0  0
 21 22  1  0  0  0  0
 21 23  1  0  0  0  0
 23 24  1  0  0  0  0
 23 25  1  0  0  0  0
 23 26  1  0  0  0  0
M  END
$$$$

  -OEChem-01062216063D

 26 25  0     1  0  0  0  0  0999 V2000
   -3.0038   -3.2061    0.8754 H   0  0  0  0  0  0  0  0  0  0  0  0
   -2.9011   -2.1841    0.4994 C   0  0  0  0  0  0  0  0  0  0  0  0
   -3.7167   -1.5778    0.9007 H   0  0  0  0  0  0  0  0  0  0  0  0
   -2.9712   -2.2048   -0.5908 H   0  0  0  0  0  0  0  0  0  0  0  0
   -1.5641   -1.6019    0.9202 C   0  0  0  0  0  0  0  0  0  0  0  0
   -0.8569   -2.2564    1.6693 O   0  0  0  0  0  0  0  0  0  0  0  0
   -1.2584   -0.3095    0.5208 N   0  0  0  0  0  0  0  0  0  0  0  0
   -1.9735    0.1076   -0.0676 H   0  0  0  0  0  0  0  0  0  0  0  0
    0.0622    0.3669    0.4906 C   0  0  1  0  0  0  0  0  0  0  0  0
   -0.1155    1.4428    0.5875 H   0  0  0  0  0  0  0  0  0  0  0  0
    1.0462   -0.0342    1.6110 C   0  0  0  0  0  0  0  0  0  0  0  0
    1.2263   -1.1101    1.6332 H   0  0  0  0  0  0  0  0  0  0  0  0
    2.0166    0.4263    1.4079 H   0  0  0  0  0  0  0  0  0  0  0  0
    0.5941    0.4798    2.9670 C   0  0  0  0  0  0  0  0  0  0  0  0
    0.1407    1.6013    3.1182 O   0  0  0  0  0  0  0  0  0  0  0  0
    0.4370   -0.3773    4.0158 N   0  0  0  0  0  0  0  0  0  0  0  0
   -0.1648   -0.0306    4.7555 H   0  0  0  0  0  0  0  0  0  0  0  0
    0.3933   -1.3651    3.7728 H   0  0  0  0  0  0  0  0  0  0  0  0
    0.7421    0.1421   -0.8770 C   0  0  0  0  0  0  0  0  0  0  0  0
    1.1890   -0.9529   -1.1891 O   0  0  0  0  0  0  0  0  0  0  0  0
    0.7889    1.1715   -1.8008 N   0  0  0  0  0  0  0  0  0  0  0  0
    0.4492    2.0842   -1.5116 H   0  0  0  0  0  0  0  0  0  0  0  0
    1.4099    1.0375   -3.1137 C   0  0  0  0  0  0  0  0  0  0  0  0
    0.9259    0.2398   -3.6873 H   0  0  0  0  0  0  0  0  0  0  0  0
    1.3141    1.9718   -3.6748 H   0  0  0  0  0  0  0  0  0  0  0  0
    2.4748    0.8026   -3.0119 H   0  0  0  0  0  0  0  0  0  0  0  0
  1  2  1  0  0  0  0
  2  3  1  0  0  0  0
  2  4  1  0  0  0  0
  2  5  1  0  0  0  0
  5  6  2  0  0  0  0
  5  7  1  0  0  0  0
  7  8  1  0  0  0  0
  7  9  1  0  0  0  0
  9 10  1  0  0  0  0
  9 11  1  0  0  0  0
  9 19  1  0  0  0  0
 11 12  1  0  0  0  0
 11 13  1  0  0  0  0
 11 14  1  0  0  0  0
 14 15  2  0  0  0  0
 14 16  1  0  0  0  0
 16 17  1  0  0  0  0
 16 18  1  0  0  0  0
 19 20  2  0  0  0  0
 19 21  1  0  0  0  0
 21 22  1  0  0  0  0
 21 23  1  0  0  0  0
 23 24  1  0  0  0  0
 23 25  1  0  0  0  0
 23 26  1  0  0  0  0
M  END
$$$$

  -OEChem-01062216063D

 26 25  0     1  0  0  0  0  0999 V2000
   -2.9846   -3.2043    0.8634 H   0  0  0  0  0  0  0  0  0  0  0  0
   -2.8773   -2.1889    0.4711 C   0  0  0  0  0  0  0  0  0  0  0  0
   -3.7198   -1.5860    0.8183 H   0  0  0  0  0  0  0  0  0  0  0  0
   -2.8922   -2.2326   -0.6207 H   0  0  0  0  0  0  0  0  0  0  0  0
   -1.5708   -1.5792    0.9443 C   0  0  0  0  0  0  0  0  0  0  0  0
   -0.8881   -2.2100    1.7367 O   0  0  0  0  0  0  0  0  0  0  0  0
   -1.2675   -0.2874    0.5417 N   0  0  0  0  0  0  0  0  0  0  0  0
   -1.9594    0.1015   -0.0922 H   0  0  0  0  0  0  0  0  0  0  0  0
    0.0575    0.3798    0.5080 C   0  0  1  0  0  0  0  0  0  0  0  0
   -0.1171    1.4559    0.6079 H   0  0  0  0  0  0  0  0  0  0  0  0
    1.0478   -0.0333    1.6174 C   0  0  0  0  0  0  0  0  0  0  0  0
    1.2214   -1.1104    1.6304 H   0  0  0  0  0  0  0  0  0  0  0  0
    2.0193    0.4235    1.4107 H   0  0  0  0  0  0  0  0  0  0  0  0
    0.6095    0.4752    2.9805 C   0  0  0  0  0  0  0  0  0  0  0  0
    0.1643    1.5988    3.1402 O   0  0  0  0  0  0  0  0  0  0  0  0
    0.4455   -0.3886    4.0226 N   0  0  0  0  0  0  0  0  0  0  0  0
   -0.1527   -0.0390    4.7639 H   0  0  0  0  0  0  0  0  0  0  0  0
    0.3761   -1.3719    3.7660 H   0  0  0  0  0  0  0  0  0  0  0  0
    0.7371    0.1535   -0.8593 C   0  0  0  0  0  0  0  0  0  0  0  0
    0.9024   -0.9760   -1.2995 O   0  0  0  0  0  0  0  0  0  0  0  0
    1.0716    1.2364   -1.6529 N   0  0  0  0  0  0  0  0  0  0  0  0
    0.9438    2.1665   -1.2645 H   0  0  0  0  0  0  0  0  0  0  0  0
    1.6897    1.1031   -2.9673 C   0  0  0  0  0  0  0  0  0  0  0  0
    1.0428    0.5293   -3.6394 H   0  0  0  0  0  0  0  0  0  0  0  0
    1.8564    2.0902   -3.4092 H   0  0  0  0  0  0  0  0  0  0  0  0
    2.6550    0.5923   -2.8866 H   0  0  0  0  0  0  0  0  0  0  0  0
  1  2  1  0  0  0  0
  2  3  1  0  0  0  0
  2  4  1  0  0  0  0
  2  5  1  0  0  0  0
  5  6  2  0  0  0  0
  5  7  1  0  0  0  0
  7  8  1  0  0  0  0
  7  9  1  0  0  0  0
  9 10  1  0  0  0  0
  9 11  1  0  0  0  0
  9 19  1  0  0  0  0
 11 12  1  0  0  0  0
 11 13  1  0  0  0  0
 11 14  1  0  0  0  0
 14 15  2  0  0  0  0
 14 16  1  0  0  0  0
 16 17  1  0  0  0  0
 16 18  1  0  0  0  0
 19 20  2  0  0  0  0
 19 21  1  0  0  0  0
 21 22  1  0  0  0  0
 21 23  1  0  0  0  0
 23 24  1  0  0  0  0
 23 25  1  0  0  0  0
 23 26  1  0  0  0  0
M  END
$$$$

  -OEChem-01062216063D

 26 25  0     1  0  0  0  0  0999 V2000
   -2.9862   -3.2047    0.8718 H   0  0  0  0  0  0  0  0  0  0  0  0
   -2.8719   -2.1953    0.4667 C   0  0  0  0  0  0  0  0  0  0  0  0
   -3.7218   -1.5882    0.7876 H   0  0  0  0  0  0  0  0  0  0  0  0
   -2.8647   -2.2550   -0.6245 H   0  0  0  0  0  0  0  0  0  0  0  0
   -1.5759   -1.5764    0.9570 C   0  0  0  0  0  0  0  0  0  0  0  0
   -0.9005   -2.1995    1.7624 O   0  0  0  0  0  0  0  0  0  0  0  0
   -1.2722   -0.2856    0.5523 N   0  0  0  0  0  0  0  0  0  0  0  0
   -1.9489    0.0855   -0.1085 H   0  0  0  0  0  0  0  0  0  0  0  0
    0.0564    0.3754    0.5141 C   0  0  1  0  0  0  0  0  0  0  0  0
   -0.1192    1.4520    0.6112 H   0  0  0  0  0  0  0  0  0  0  0  0
    1.0474   -0.0384    1.6225 C   0  0  0  0  0  0  0  0  0  0  0  0
    1.2157   -1.1162    1.6387 H   0  0  0  0  0  0  0  0  0  0  0  0
    2.0208    0.4128    1.4136 H   0  0  0  0  0  0  0  0  0  0  0  0
    0.6152    0.4765    2.9852 C   0  0  0  0  0  0  0  0  0  0  0  0
    0.1761    1.6026    3.1421 O   0  0  0  0  0  0  0  0  0  0  0  0
    0.4454   -0.3843    4.0286 N   0  0  0  0  0  0  0  0  0  0  0  0
   -0.1509   -0.0278    4.7682 H   0  0  0  0  0  0  0  0  0  0  0  0
    0.3618   -1.3662    3.7708 H   0  0  0  0  0  0  0  0  0  0  0  0
    0.7416    0.1528   -0.8515 C   0  0  0  0  0  0  0  0  0  0  0  0
    0.6522   -0.9203   -1.4335 O   0  0  0  0  0  0  0  0  0  0  0  0
    1.3574    1.2125   -1.4934 N   0  0  0  0  0  0  0  0  0  0  0  0
    1.4223    2.0955   -0.9947 H   0  0  0  0  0  0  0  0  0  0  0  0
    1.9854    1.0986   -2.8048 C   0  0  0  0  0  0  0  0  0  0  0  0
    1.2496    0.7986   -3.5583 H   0  0  0  0  0  0  0  0  0  0  0  0
    2.4130    2.0604   -3.1042 H   0  0  0  0  0  0  0  0  0  0  0  0
    2.7890    0.3550   -2.7819 H   0  0  0  0  0  0  0  0  0  0  0  0
  1  2  1  0  0  0  0
  2  3  1  0  0  0  0
  2  4  1  0  0  0  0
  2  5  1  0  0  0  0
  5  6  2  0  0  0  0
  5  7  1  0  0  0  0
  7  8  1  0  0  0  0
  7  9  1  0  0  0  0
  9 10  1  0  0  0  0
  9 11  1  0  0  0  0
  9 19  1  0  0  0  0
 11 12  1  0  0  0  0
 11 13  1  0  0  0  0
 11 14  1  0  0  0  0
 14 15  2  0  0  0  0
 14 16  1  0  0  0  0
 16 17  1  0  0  0  0
 16 18  1  0  0  0  0
 19 20  2  0  0  0  0
 19 21  1  0  0  0  0
 21 22  1  0  0  0  0
 21 23  1  0  0  0  0
 23 24  1  0  0  0  0
 23 25  1  0  0  0  0
 23 26  1  0  0  0  0
M  END
$$$$

  -OEChem-01062216063D

 26 25  0     1  0  0  0  0  0999 V2000
   -2.9892   -3.2069    0.8685 H   0  0  0  0  0  0  0  0  0  0  0  0
   -2.8727   -2.1961    0.4675 C   0  0  0  0  0  0  0  0  0  0  0  0
   -3.7223   -1.5892    0.7898 H   0  0  0  0  0  0  0  0  0  0  0  0
   -2.8637   -2.2514   -0.6241 H   0  0  0  0  0  0  0  0  0  0  0  0
   -1.5766   -1.5806    0.9611 C   0  0  0  0  0  0  0  0  0  0  0  0
   -0.8987   -2.2104    1.7592 O   0  0  0  0  0  0  0  0  0  0  0  0
   -1.2687   -0.2909    0.5572 N   0  0  0  0  0  0  0  0  0  0  0  0
   -1.9363    0.0737   -0.1167 H   0  0  0  0  0  0  0  0  0  0  0  0
    0.0612    0.3678    0.5177 C   0  0  1  0  0  0  0  0  0  0  0  0
   -0.1127    1.4452    0.6088 H   0  0  0  0  0  0  0  0  0  0  0  0
    1.0452   -0.0459    1.6337 C   0  0  0  0  0  0  0  0  0  0  0  0
    1.2102   -1.1240    1.6548 H   0  0  0  0  0  0  0  0  0  0  0  0
    2.0218    0.4008    1.4313 H   0  0  0  0  0  0  0  0  0  0  0  0
    0.6080    0.4766    2.9921 C   0  0  0  0  0  0  0  0  0  0  0  0
    0.1731    1.6051    3.1415 O   0  0  0  0  0  0  0  0  0  0  0  0
    0.4362   -0.3767    4.0416 N   0  0  0  0  0  0  0  0  0  0  0  0
   -0.1584   -0.0136    4.7796 H   0  0  0  0  0  0  0  0  0  0  0  0
    0.3530   -1.3609    3.7931 H   0  0  0  0  0  0  0  0  0  0  0  0
    0.7508    0.1479   -0.8475 C   0  0  0  0  0  0  0  0  0  0  0  0
    0.4451   -0.7957   -1.5660 O   0  0  0  0  0  0  0  0  0  0  0  0
    1.6234    1.1033   -1.3375 N   0  0  0  0  0  0  0  0  0  0  0  0
    1.8475    1.8926   -0.7376 H   0  0  0  0  0  0  0  0  0  0  0  0
    2.2655    1.0080   -2.6435 C   0  0  0  0  0  0  0  0  0  0  0  0
    1.5145    0.9915   -3.4405 H   0  0  0  0  0  0  0  0  0  0  0  0
    2.9221    1.8681   -2.8061 H   0  0  0  0  0  0  0  0  0  0  0  0
    2.8681    0.0959   -2.7084 H   0  0  0  0  0  0  0  0  0  0  0  0
  1  2  1  0  0  0  0
  2  3  1  0  0  0  0
  2  4  1  0  0  0  0
  2  5  1  0  0  0  0
  5  6  2  0  0  0  0
  5  7  1  0  0  0  0
  7  8  1  0  0  0  0
  7  9  1  0  0  0  0
  9 10  1  0  0  0  0
  9 11  1  0  0  0  0
  9 19  1  0  0  0  0
 11 12  1  0  0  0  0
 11 13  1  0  0  0  0
 11 14  1  0  0  0  0
 14 15  2  0  0  0  0
 14 16  1  0  0  0  0
 16 17  1  0  0  0  0
 16 18  1  0  0  0  0
 19 20  2  0  0  0  0
 19 21  1  0  0  0  0
 21 22  1  0  0  0  0
 21 23  1  0  0  0  0
 23 24  1  0  0  0  0
 23 25  1  0  0  0  0
 23 26  1  0  0  0  0
M  END
$$$$

  -OEChem-01062216063D

 26 25  0     1  0  0  0  0  0999 V2000
   -2.9795   -3.2123    0.8518 H   0  0  0  0  0  0  0  0  0  0  0  0
   -2.8695   -2.1942    0.4678 C   0  0  0  0  0  0  0  0  0  0  0  0
   -3.7181   -1.5954    0.8073 H   0  0  0  0  0  0  0  0  0  0  0  0
   -2.8695   -2.2299   -0.6246 H   0  0  0  0  0  0  0  0  0  0  0  0
   -1.5718   -1.5827    0.9622 C   0  0  0  0  0  0  0  0  0  0  0  0
   -0.8904   -2.2192    1.7520 O   0  0  0  0  0  0  0  0  0  0  0  0
   -1.2622   -0.2929    0.5612 N   0  0  0  0  0  0  0  0  0  0  0  0
   -1.9223    0.0657   -0.1239 H   0  0  0  0  0  0  0  0  0  0  0  0
    0.0654    0.3711    0.5253 C   0  0  1  0  0  0  0  0  0  0  0  0
   -0.1083    1.4489    0.6137 H   0  0  0  0  0  0  0  0  0  0  0  0
    1.0410   -0.0450    1.6501 C   0  0  0  0  0  0  0  0  0  0  0  0
    1.2086   -1.1224    1.6702 H   0  0  0  0  0  0  0  0  0  0  0  0
    2.0192    0.4036    1.4619 H   0  0  0  0  0  0  0  0  0  0  0  0
    0.5938    0.4743    3.0063 C   0  0  0  0  0  0  0  0  0  0  0  0
    0.1579    1.6020    3.1560 O   0  0  0  0  0  0  0  0  0  0  0  0
    0.4215   -0.3810    4.0539 N   0  0  0  0  0  0  0  0  0  0  0  0
   -0.1756   -0.0205    4.7912 H   0  0  0  0  0  0  0  0  0  0  0  0
    0.3429   -1.3653    3.8046 H   0  0  0  0  0  0  0  0  0  0  0  0
    0.7557    0.1512   -0.8418 C   0  0  0  0  0  0  0  0  0  0  0  0
    0.2879   -0.6243   -1.6673 O   0  0  0  0  0  0  0  0  0  0  0  0
    1.8435    0.9273   -1.2022 N   0  0  0  0  0  0  0  0  0  0  0  0
    2.1886    1.6022   -0.5254 H   0  0  0  0  0  0  0  0  0  0  0  0
    2.5101    0.8237   -2.4951 C   0  0  0  0  0  0  0  0  0  0  0  0
    1.8188    1.0796   -3.3050 H   0  0  0  0  0  0  0  0  0  0  0  0
    3.3614    1.5097   -2.5379 H   0  0  0  0  0  0  0  0  0  0  0  0
    2.8798   -0.1947   -2.6552 H   0  0  0  0  0  0  0  0  0  0  0  0
  1  2  1  0  0  0  0
  2  3  1  0  0  0  0
  2  4  1  0  0  0  0
  2  5  1  0  0  0  0
  5  6  2  0  0  0  0
  5  7  1  0  0  0  0
  7  8  1  0  0  0  0
  7  9  1  0  0  0  0
  9 10  1  0  0  0  0
  9 11  1  0  0  0  0
  9 19  1  0  0  0  0
 11 12  1  0  0  0  0
 11 13  1  0  0  0  0
 11 14  1  0  0  0  0
 14 15  2  0  0  0  0
 14 16  1  0  0  0  0
 16 17  1  0  0  0  0
 16 18  1  0  0  0  0
 19 20  2  0  0  0  0
 19 21  1  0  0  0  0
 21 22  1  0  0  0  0
 21 23  1  0  0  0  0
 23 24  1  0  0  0  0
 23 25  1  0  0  0  0
 23 26  1  0  0  0  0
M  END
$$$$

  -OEChem-01062216063D

 26 25  0     1  0  0  0  0  0999 V2000
   -3.0517   -3.1893    0.8045 H   0  0  0  0  0  0  0  0  0  0  0  0
   -2.9260   -2.1506    0.4863 C   0  0  0  0  0  0  0  0  0  0  0  0
   -3.7079   -1.5433    0.9489 H   0  0  0  0  0  0  0  0  0  0  0  0
   -3.0309   -2.1019   -0.6006 H   0  0  0  0  0  0  0  0  0  0  0  0
   -1.5588   -1.6352    0.8966 C   0  0  0  0  0  0  0  0  0  0  0  0
   -0.8318   -2.3695    1.5495 O   0  0  0  0  0  0  0  0  0  0  0  0
   -1.2153   -0.3442    0.5288 N   0  0  0  0  0  0  0  0  0  0  0  0
   -1.8899    0.0728   -0.1094 H   0  0  0  0  0  0  0  0  0  0  0  0
    0.1112    0.3239    0.5128 C   0  0  1  0  0  0  0  0  0  0  0  0
   -0.0407    1.3508    0.8624 H   0  0  0  0  0  0  0  0  0  0  0  0
    1.1924   -0.3155    1.4178 C   0  0  0  0  0  0  0  0  0  0  0  0
    1.3308   -1.3730    1.1843 H   0  0  0  0  0  0  0  0  0  0  0  0
    2.1566    0.1637    1.2380 H   0  0  0  0  0  0  0  0  0  0  0  0
    0.8915   -0.1098    2.8961 C   0  0  0  0  0  0  0  0  0  0  0  0
    0.4852    0.9536    3.3297 O   0  0  0  0  0  0  0  0  0  0  0  0
    0.8559   -1.1611    3.7629 N   0  0  0  0  0  0  0  0  0  0  0  0
    0.3585   -0.9624    4.6250 H   0  0  0  0  0  0  0  0  0  0  0  0
    0.7085   -2.0691    3.3250 H   0  0  0  0  0  0  0  0  0  0  0  0
    0.6244    0.4473   -0.9433 C   0  0  0  0  0  0  0  0  0  0  0  0
   -0.0872    0.1069   -1.8820 O   0  0  0  0  0  0  0  0  0  0  0  0
    1.8450    1.0379   -1.2220 N   0  0  0  0  0  0  0  0  0  0  0  0
    2.3958    1.3775   -0.4390 H   0  0  0  0  0  0  0  0  0  0  0  0
    2.3478    1.2421   -2.5756 C   0  0  0  0  0  0  0  0  0  0  0  0
    1.6671    1.8836   -3.1452 H   0  0  0  0  0  0  0  0  0  0  0  0
    3.3307    1.7218   -2.5453 H   0  0  0  0  0  0  0  0  0  0  0  0
    2.4470    0.2832   -3.0954 H   0  0  0  0  0  0  0  0  0  0  0  0
  1  2  1  0  0  0  0
  2  3  1  0  0  0  0
  2  4  1  0  0  0  0
  2  5  1  0  0  0  0
  5  6  2  0  0  0  0
  5  7  1  0  0  0  0
  7  8  1  0  0  0  0
  7  9  1  0  0  0  0
  9 10  1  0  0  0  0
  9 11  1  0  0  0  0
  9 19  1  0  0  0  0
 11 12  1  0  0  0  0
 11 13  1  0  0  0  0
 11 14  1  0  0  0  0
 14 15  2  0  0  0  0
 14 16  1  0  0  0  0
 16 17  1  0  0  0  0
 16 18  1  0  0  0  0
 19 20  2  0  0  0  0
 19 21  1  0  0  0  0
 21 22  1  0  0  0  0
 21 23  1  0  0  0  0
 23 24  1  0  0  0  0
 23 25  1  0  0  0  0
 23 26  1  0  0  0  0
M  END
$$$$

  -OEChem-01062216063D

 26 25  0     1  0  0  0  0  0999 V2000
   -3.0338   -3.1927    0.7731 H   0  0  0  0  0  0  0  0  0  0  0  0
   -2.9108   -2.1466    0.4789 C   0  0  0  0  0  0  0  0  0  0  0  0
   -3.6874   -1.5506    0.9643 H   0  0  0  0  0  0  0  0  0  0  0  0
   -3.0277   -2.0709   -0.6051 H   0  0  0  0  0  0  0  0  0  0  0  0
   -1.5392   -1.6415    0.8868 C   0  0  0  0  0  0  0  0  0  0  0  0
   -0.8108   -2.3862    1.5263 O   0  0  0  0  0  0  0  0  0  0  0  0
   -1.1911   -0.3487    0.5303 N   0  0  0  0  0  0  0  0  0  0  0  0
   -1.8656    0.0813   -0.1003 H   0  0  0  0  0  0  0  0  0  0  0  0
    0.1323    0.3249    0.5301 C   0  0  1  0  0  0  0  0  0  0  0  0
   -0.0224    1.3526    0.8763 H   0  0  0  0  0  0  0  0  0  0  0  0
    1.1997   -0.3143    1.4532 C   0  0  0  0  0  0  0  0  0  0  0  0
    1.3479   -1.3708    1.2218 H   0  0  0  0  0  0  0  0  0  0  0  0
    2.1640    0.1721    1.2963 H   0  0  0  0  0  0  0  0  0  0  0  0
    0.8729   -0.1084    2.9260 C   0  0  0  0  0  0  0  0  0  0  0  0
    0.4584    0.9534    3.3548 O   0  0  0  0  0  0  0  0  0  0  0  0
    0.8077   -1.1645    3.7852 N   0  0  0  0  0  0  0  0  0  0  0  0
    0.2899   -0.9672    4.6356 H   0  0  0  0  0  0  0  0  0  0  0  0
    0.6652   -2.0690    3.3383 H   0  0  0  0  0  0  0  0  0  0  0  0
    0.6411    0.4483   -0.9295 C   0  0  0  0  0  0  0  0  0  0  0  0
   -0.1507    0.3408   -1.8600 O   0  0  0  0  0  0  0  0  0  0  0  0
    1.9598    0.7508   -1.2242 N   0  0  0  0  0  0  0  0  0  0  0  0
    2.5994    0.8867   -0.4474 H   0  0  0  0  0  0  0  0  0  0  0  0
    2.4606    0.9194   -2.5836 C   0  0  0  0  0  0  0  0  0  0  0  0
    1.9207    1.7235   -3.0948 H   0  0  0  0  0  0  0  0  0  0  0  0
    3.5243    1.1751   -2.5658 H   0  0  0  0  0  0  0  0  0  0  0  0
    2.3369   -0.0070   -3.1545 H   0  0  0  0  0  0  0  0  0  0  0  0
  1  2  1  0  0  0  0
  2  3  1  0  0  0  0
  2  4  1  0  0  0  0
  2  5  1  0  0  0  0
  5  6  2  0  0  0  0
  5  7  1  0  0  0  0
  7  8  1  0  0  0  0
  7  9  1  0  0  0  0
  9 10  1  0  0  0  0
  9 11  1  0  0  0  0
  9 19  1  0  0  0  0
 11 12  1  0  0  0  0
 11 13  1  0  0  0  0
 11 14  1  0  0  0  0
 14 15  2  0  0  0  0
 14 16  1  0  0  0  0
 16 17  1  0  0  0  0
 16 18  1  0  0  0  0
 19 20  2  0  0  0  0
 19 21  1  0  0  0  0
 21 22  1  0  0  0  0
 21 23  1  0  0  0  0
 23 24  1  0  0  0  0
 23 25  1  0  0  0  0
 23 26  1  0  0  0  0
M  END
$$$$

  -OEChem-01062216063D

 26 25  0     1  0  0  0  0  0999 V2000
   -3.0259   -3.1932    0.7743 H   0  0  0  0  0  0  0  0  0  0  0  0
   -2.9034   -2.1461    0.4833 C   0  0  0  0  0  0  0  0  0  0  0  0
   -3.6646   -1.5483    0.9907 H   0  0  0  0  0  0  0  0  0  0  0  0
   -3.0454   -2.0636   -0.5972 H   0  0  0  0  0  0  0  0  0  0  0  0
   -1.5197   -1.6518    0.8628 C   0  0  0  0  0  0  0  0  0  0  0  0
   -0.7763   -2.4080    1.4705 O   0  0  0  0  0  0  0  0  0  0  0  0
   -1.1738   -0.3558    0.5172 N   0  0  0  0  0  0  0  0  0  0  0  0
   -1.8590    0.0953   -0.0868 H   0  0  0  0  0  0  0  0  0  0  0  0
    0.1438    0.3268    0.5375 C   0  0  1  0  0  0  0  0  0  0  0  0
   -0.0213    1.3543    0.8805 H   0  0  0  0  0  0  0  0  0  0  0  0
    1.2027   -0.3025    1.4766 C   0  0  0  0  0  0  0  0  0  0  0  0
    1.3709   -1.3563    1.2473 H   0  0  0  0  0  0  0  0  0  0  0  0
    2.1607    0.2023    1.3371 H   0  0  0  0  0  0  0  0  0  0  0  0
    0.8523   -0.0993    2.9440 C   0  0  0  0  0  0  0  0  0  0  0  0
    0.4218    0.9575    3.3688 O   0  0  0  0  0  0  0  0  0  0  0  0
    0.7757   -1.1596    3.7973 N   0  0  0  0  0  0  0  0  0  0  0  0
    0.2435   -0.9685    4.6403 H   0  0  0  0  0  0  0  0  0  0  0  0
    0.6502   -2.0644    3.3462 H   0  0  0  0  0  0  0  0  0  0  0  0
    0.6552    0.4513   -0.9206 C   0  0  0  0  0  0  0  0  0  0  0  0
   -0.1589    0.5787   -1.8287 O   0  0  0  0  0  0  0  0  0  0  0  0
    2.0023    0.4582   -1.2417 N   0  0  0  0  0  0  0  0  0  0  0  0
    2.6690    0.3347   -0.4864 H   0  0  0  0  0  0  0  0  0  0  0  0
    2.5025    0.5700   -2.6070 C   0  0  0  0  0  0  0  0  0  0  0  0
    2.1541    1.5001   -3.0686 H   0  0  0  0  0  0  0  0  0  0  0  0
    3.5968    0.5726   -2.6099 H   0  0  0  0  0  0  0  0  0  0  0  0
    2.1567   -0.2750   -3.2118 H   0  0  0  0  0  0  0  0  0  0  0  0
  1  2  1  0  0  0  0
  2  3  1  0  0  0  0
  2  4  1  0  0  0  0
  2  5  1  0  0  0  0
  5  6  2  0  0  0  0
  5  7  1  0  0  0  0
  7  8  1  0  0  0  0
  7  9  1  0  0  0  0
  9 10  1  0  0  0  0
  9 11  1  0  0  0  0
  9 19  1  0  0  0  0
 11 12  1  0  0  0  0
 11 13  1  0  0  0  0
 11 14  1  0  0  0  0
 14 15  2  0  0  0  0
 14 16  1  0  0  0  0
 16 17  1  0  0  0  0
 16 18  1  0  0  0  0
 19 20  2  0  0  0  0
 19 21  1  0  0  0  0
 21 22  1  0  0  0  0
 21 23  1  0  0  0  0
 23 24  1  0  0  0  0
 23 25  1  0  0  0  0
 23 26  1  0  0  0  0
M  END
$$$$

  -OEChem-01062216063D

 26 25  0     1  0  0  0  0  0999 V2000
   -3.0243   -3.1922    0.7874 H   0  0  0  0  0  0  0  0  0  0  0  0
   -2.9017   -2.1451    0.4963 C   0  0  0  0  0  0  0  0  0  0  0  0
   -3.6461   -1.5438    1.0239 H   0  0  0  0  0  0  0  0  0  0  0  0
   -3.0699   -2.0582   -0.5801 H   0  0  0  0  0  0  0  0  0  0  0  0
   -1.5059   -1.6609    0.8433 C   0  0  0  0  0  0  0  0  0  0  0  0
   -0.7493   -2.4254    1.4235 O   0  0  0  0  0  0  0  0  0  0  0  0
   -1.1609   -0.3639    0.5016 N   0  0  0  0  0  0  0  0  0  0  0  0
   -1.8609    0.1086   -0.0682 H   0  0  0  0  0  0  0  0  0  0  0  0
    0.1526    0.3238    0.5353 C   0  0  1  0  0  0  0  0  0  0  0  0
   -0.0201    1.3519    0.8731 H   0  0  0  0  0  0  0  0  0  0  0  0
    1.2078   -0.2943    1.4852 C   0  0  0  0  0  0  0  0  0  0  0  0
    1.3872   -1.3477    1.2635 H   0  0  0  0  0  0  0  0  0  0  0  0
    2.1609    0.2215    1.3472 H   0  0  0  0  0  0  0  0  0  0  0  0
    0.8425   -0.0889    2.9485 C   0  0  0  0  0  0  0  0  0  0  0  0
    0.3999    0.9651    3.3676 O   0  0  0  0  0  0  0  0  0  0  0  0
    0.7528   -1.1497    3.8000 N   0  0  0  0  0  0  0  0  0  0  0  0
    0.2077   -0.9595    4.6350 H   0  0  0  0  0  0  0  0  0  0  0  0
    0.6399   -2.0560    3.3489 H   0  0  0  0  0  0  0  0  0  0  0  0
    0.6703    0.4462   -0.9184 C   0  0  0  0  0  0  0  0  0  0  0  0
   -0.1130    0.7960   -1.7935 O   0  0  0  0  0  0  0  0  0  0  0  0
    1.9769    0.1589   -1.2760 N   0  0  0  0  0  0  0  0  0  0  0  0
    2.5952   -0.1958   -0.5533 H   0  0  0  0  0  0  0  0  0  0  0  0
    2.4656    0.2227   -2.6483 C   0  0  0  0  0  0  0  0  0  0  0  0
    2.3317    1.2299   -3.0570 H   0  0  0  0  0  0  0  0  0  0  0  0
    3.5312   -0.0236   -2.6824 H   0  0  0  0  0  0  0  0  0  0  0  0
    1.9251   -0.4891   -3.2810 H   0  0  0  0  0  0  0  0  0  0  0  0
  1  2  1  0  0  0  0
  2  3  1  0  0  0  0
  2  4  1  0  0  0  0
  2  5  1  0  0  0  0
  5  6  2  0  0  0  0
  5  7  1  0  0  0  0
  7  8  1  0  0  0  0
  7  9  1  0  0  0  0
  9 10  1  0  0  0  0
  9 11  1  0  0  0  0
  9 19  1  0  0  0  0
 11 12  1  0  0  0  0
 11 13  1  0  0  0  0
 11 14  1  0  0  0  0
 14 15  2  0  0  0  0
 14 16  1  0  0  0  0
 16 17  1  0  0  0  0
 16 18  1  0  0  0  0
 19 20  2  0  0  0  0
 19 21  1  0  0  0  0
 21 22  1  0  0  0  0
 21 23  1  0  0  0  0
 23 24  1  0  0  0  0
 23 25  1  0  0  0  0
 23 26  1  0  0  0  0
M  END
$$$$

  -OEChem-01062216063D

 26 25  0     1  0  0  0  0  0999 V2000
   -3.0321   -3.1895    0.8232 H   0  0  0  0  0  0  0  0  0  0  0  0
   -2.9110   -2.1444    0.5243 C   0  0  0  0  0  0  0  0  0  0  0  0
   -3.6312   -1.5353    1.0762 H   0  0  0  0  0  0  0  0  0  0  0  0
   -3.1172   -2.0595   -0.5456 H   0  0  0  0  0  0  0  0  0  0  0  0
   -1.4997   -1.6716    0.8198 C   0  0  0  0  0  0  0  0  0  0  0  0
   -0.7242   -2.4466    1.3593 O   0  0  0  0  0  0  0  0  0  0  0  0
   -1.1566   -0.3747    0.4765 N   0  0  0  0  0  0  0  0  0  0  0  0
   -1.8791    0.1242   -0.0396 H   0  0  0  0  0  0  0  0  0  0  0  0
    0.1532    0.3176    0.5200 C   0  0  1  0  0  0  0  0  0  0  0  0
   -0.0272    1.3464    0.8525 H   0  0  0  0  0  0  0  0  0  0  0  0
    1.2067   -0.2880    1.4785 C   0  0  0  0  0  0  0  0  0  0  0  0
    1.3950   -1.3414    1.2670 H   0  0  0  0  0  0  0  0  0  0  0  0
    2.1567    0.2338    1.3353 H   0  0  0  0  0  0  0  0  0  0  0  0
    0.8315   -0.0791    2.9386 C   0  0  0  0  0  0  0  0  0  0  0  0
    0.3784    0.9723    3.3522 O   0  0  0  0  0  0  0  0  0  0  0  0
    0.7457   -1.1380    3.7934 N   0  0  0  0  0  0  0  0  0  0  0  0
    0.1971   -0.9506    4.6268 H   0  0  0  0  0  0  0  0  0  0  0  0
    0.6523   -2.0497    3.3494 H   0  0  0  0  0  0  0  0  0  0  0  0
    0.6850    0.4371   -0.9261 C   0  0  0  0  0  0  0  0  0  0  0  0
   -0.0112    1.0011   -1.7606 O   0  0  0  0  0  0  0  0  0  0  0  0
    1.8858   -0.1237   -1.3274 N   0  0  0  0  0  0  0  0  0  0  0  0
    2.3922   -0.6810   -0.6461 H   0  0  0  0  0  0  0  0  0  0  0  0
    2.3605   -0.0972   -2.7059 C   0  0  0  0  0  0  0  0  0  0  0  0
    2.4572    0.9354   -3.0581 H   0  0  0  0  0  0  0  0  0  0  0  0
    3.3406   -0.5783   -2.7782 H   0  0  0  0  0  0  0  0  0  0  0  0
    1.6633   -0.6298   -3.3613 H   0  0  0  0  0  0  0  0  0  0  0  0
  1  2  1  0  0  0  0
  2  3  1  0  0  0  0
  2  4  1  0  0  0  0
  2  5  1  0  0  0  0
  5  6  2  0  0  0  0
  5  7  1  0  0  0  0
  7  8  1  0  0  0  0
  7  9  1  0  0  0  0
  9 10  1  0  0  0  0
  9 11  1  0  0  0  0
  9 19  1  0  0  0  0
 11 12  1  0  0  0  0
 11 13  1  0  0  0  0
 11 14  1  0  0  0  0
 14 15  2  0  0  0  0
 14 16  1  0  0  0  0
 16 17  1  0  0  0  0
 16 18  1  0  0  0  0
 19 20  2  0  0  0  0
 19 21  1  0  0  0  0
 21 22  1  0  0  0  0
 21 23  1  0  0  0  0
 23 24  1  0  0  0  0
 23 25  1  0  0  0  0
 23 26  1  0  0  0  0
M  END
$$$$

  -OEChem-01062216063D

 26 25  0     1  0  0  0  0  0999 V2000
   -3.0390   -3.1873    0.8579 H   0  0  0  0  0  0  0  0  0  0  0  0
   -2.9218   -2.1424    0.5565 C   0  0  0  0  0  0  0  0  0  0  0  0
   -3.6166   -1.5296    1.1361 H   0  0  0  0  0  0  0  0  0  0  0  0
   -3.1668   -2.0537   -0.5048 H   0  0  0  0  0  0  0  0  0  0  0  0
   -1.4967   -1.6807    0.7996 C   0  0  0  0  0  0  0  0  0  0  0  0
   -0.7017   -2.4666    1.2923 O   0  0  0  0  0  0  0  0  0  0  0  0
   -1.1571   -0.3842    0.4511 N   0  0  0  0  0  0  0  0  0  0  0  0
   -1.9023    0.1368   -0.0071 H   0  0  0  0  0  0  0  0  0  0  0  0
    0.1494    0.3128    0.5006 C   0  0  1  0  0  0  0  0  0  0  0  0
   -0.0363    1.3422    0.8288 H   0  0  0  0  0  0  0  0  0  0  0  0
    1.2047   -0.2824    1.4628 C   0  0  0  0  0  0  0  0  0  0  0  0
    1.4016   -1.3354    1.2587 H   0  0  0  0  0  0  0  0  0  0  0  0
    2.1513    0.2444    1.3131 H   0  0  0  0  0  0  0  0  0  0  0  0
    0.8247   -0.0725    2.9214 C   0  0  0  0  0  0  0  0  0  0  0  0
    0.3628    0.9760    3.3326 O   0  0  0  0  0  0  0  0  0  0  0  0
    0.7450   -1.1305    3.7780 N   0  0  0  0  0  0  0  0  0  0  0  0
    0.1950   -0.9478    4.6115 H   0  0  0  0  0  0  0  0  0  0  0  0
    0.6716   -2.0462    3.3398 H   0  0  0  0  0  0  0  0  0  0  0  0
    0.6944    0.4274   -0.9382 C   0  0  0  0  0  0  0  0  0  0  0  0
    0.1383    1.1866   -1.7203 O   0  0  0  0  0  0  0  0  0  0  0  0
    1.7272   -0.3723   -1.3955 N   0  0  0  0  0  0  0  0  0  0  0  0
    2.0726   -1.0902   -0.7653 H   0  0  0  0  0  0  0  0  0  0  0  0
    2.1851   -0.3722   -2.7796 C   0  0  0  0  0  0  0  0  0  0  0  0
    2.5198    0.6286   -3.0724 H   0  0  0  0  0  0  0  0  0  0  0  0
    3.0238   -1.0644   -2.9008 H   0  0  0  0  0  0  0  0  0  0  0  0
    1.3778   -0.6843   -3.4503 H   0  0  0  0  0  0  0  0  0  0  0  0
  1  2  1  0  0  0  0
  2  3  1  0  0  0  0
  2  4  1  0  0  0  0
  2  5  1  0  0  0  0
  5  6  2  0  0  0  0
  5  7  1  0  0  0  0
  7  8  1  0  0  0  0
  7  9  1  0  0  0  0
  9 10  1  0  0  0  0
  9 11  1  0  0  0  0
  9 19  1  0  0  0  0
 11 12  1  0  0  0  0
 11 13  1  0  0  0  0
 11 14  1  0  0  0  0
 14 15  2  0  0  0  0
 14 16  1  0  0  0  0
 16 17  1  0  0  0  0
 16 18  1  0  0  0  0
 19 20  2  0  0  0  0
 19 21  1  0  0  0  0
 21 22  1  0  0  0  0
 21 23  1  0  0  0  0
 23 24  1  0  0  0  0
 23 25  1  0  0  0  0
 23 26  1  0  0  0  0
M  END
$$$$

  -OEChem-01062216063D

 26 25  0     1  0  0  0  0  0999 V2000
   -3.0493   -3.1835    0.9206 H   0  0  0  0  0  0  0  0  0  0  0  0
   -2.9400   -2.1402    0.6110 C   0  0  0  0  0  0  0  0  0  0  0  0
   -3.5947   -1.5205    1.2290 H   0  0  0  0  0  0  0  0  0  0  0  0
   -3.2448   -2.0502   -0.4346 H   0  0  0  0  0  0  0  0  0  0  0  0
   -1.4993   -1.6914    0.7718 C   0  0  0  0  0  0  0  0  0  0  0  0
   -0.6792   -2.4899    1.1979 O   0  0  0  0  0  0  0  0  0  0  0  0
   -1.1675   -0.3952    0.4162 N   0  0  0  0  0  0  0  0  0  0  0  0
   -1.9378    0.1500    0.0346 H   0  0  0  0  0  0  0  0  0  0  0  0
    0.1352    0.3078    0.4722 C   0  0  1  0  0  0  0  0  0  0  0  0
   -0.0576    1.3371    0.7976 H   0  0  0  0  0  0  0  0  0  0  0  0
    1.1953   -0.2776    1.4348 C   0  0  0  0  0  0  0  0  0  0  0  0
    1.4037   -1.3285    1.2330 H   0  0  0  0  0  0  0  0  0  0  0  0
    2.1374    0.2564    1.2817 H   0  0  0  0  0  0  0  0  0  0  0  0
    0.8123   -0.0712    2.8926 C   0  0  0  0  0  0  0  0  0  0  0  0
    0.3399    0.9723    3.3047 O   0  0  0  0  0  0  0  0  0  0  0  0
    0.7487   -1.1294    3.7506 N   0  0  0  0  0  0  0  0  0  0  0  0
    0.2007   -0.9564    4.5875 H   0  0  0  0  0  0  0  0  0  0  0  0
    0.7045   -2.0499    3.3193 H   0  0  0  0  0  0  0  0  0  0  0  0
    0.6952    0.4162   -0.9589 C   0  0  0  0  0  0  0  0  0  0  0  0
    0.3505    1.3506   -1.6688 O   0  0  0  0  0  0  0  0  0  0  0  0
    1.5081   -0.5728   -1.4832 N   0  0  0  0  0  0  0  0  0  0  0  0
    1.6426   -1.4060   -0.9167 H   0  0  0  0  0  0  0  0  0  0  0  0
    1.9705   -0.5783   -2.8655 C   0  0  0  0  0  0  0  0  0  0  0  0
    2.5438    0.3296   -3.0813 H   0  0  0  0  0  0  0  0  0  0  0  0
    2.6162   -1.4433   -3.0449 H   0  0  0  0  0  0  0  0  0  0  0  0
    1.1207   -0.6306   -3.5542 H   0  0  0  0  0  0  0  0  0  0  0  0
  1  2  1  0  0  0  0
  2  3  1  0  0  0  0
  2  4  1  0  0  0  0
  2  5  1  0  0  0  0
  5  6  2  0  0  0  0
  5  7  1  0  0  0  0
  7  8  1  0  0  0  0
  7  9  1  0  0  0  0
  9 10  1  0  0  0  0
  9 11  1  0  0  0  0
  9 19  1  0  0  0  0
 11 12  1  0  0  0  0
 11 13  1  0  0  0  0
 11 14  1  0  0  0  0
 14 15  2  0  0  0  0
 14 16  1  0  0  0  0
 16 17  1  0  0  0  0
 16 18  1  0  0  0  0
 19 20  2  0  0  0  0
 19 21  1  0  0  0  0
 21 22  1  0  0  0  0
 21 23  1  0  0  0  0
 23 24  1  0  0  0  0
 23 25  1  0  0  0  0
 23 26  1  0  0  0  0
M  END
$$$$

  -OEChem-01062216063D

 26 25  0     1  0  0  0  0  0999 V2000
   -3.0598   -3.1734    0.9916 H   0  0  0  0  0  0  0  0  0  0  0  0
   -2.9611   -2.1330    0.6687 C   0  0  0  0  0  0  0  0  0  0  0  0
   -3.5702   -1.5036    1.3225 H   0  0  0  0  0  0  0  0  0  0  0  0
   -3.3298   -2.0465   -0.3564 H   0  0  0  0  0  0  0  0  0  0  0  0
   -1.5092   -1.6972    0.7362 C   0  0  0  0  0  0  0  0  0  0  0  0
   -0.6635   -2.5123    1.0691 O   0  0  0  0  0  0  0  0  0  0  0  0
   -1.1882   -0.4004    0.3752 N   0  0  0  0  0  0  0  0  0  0  0  0
   -1.9810    0.1667    0.0829 H   0  0  0  0  0  0  0  0  0  0  0  0
    0.1104    0.3103    0.4423 C   0  0  1  0  0  0  0  0  0  0  0  0
   -0.0888    1.3385    0.7675 H   0  0  0  0  0  0  0  0  0  0  0  0
    1.1746   -0.2710    1.4015 C   0  0  0  0  0  0  0  0  0  0  0  0
    1.3962   -1.3176    1.1916 H   0  0  0  0  0  0  0  0  0  0  0  0
    2.1107    0.2743    1.2520 H   0  0  0  0  0  0  0  0  0  0  0  0
    0.7876   -0.0789    2.8596 C   0  0  0  0  0  0  0  0  0  0  0  0
    0.3035    0.9558    3.2798 O   0  0  0  0  0  0  0  0  0  0  0  0
    0.7649   -1.1378    3.7194 N   0  0  0  0  0  0  0  0  0  0  0  0
    0.2286   -0.9837    4.5676 H   0  0  0  0  0  0  0  0  0  0  0  0
    0.7689   -2.0637    3.2986 H   0  0  0  0  0  0  0  0  0  0  0  0
    0.6866    0.4131   -0.9807 C   0  0  0  0  0  0  0  0  0  0  0  0
    0.6033    1.4630   -1.6015 O   0  0  0  0  0  0  0  0  0  0  0  0
    1.2419   -0.7008   -1.5833 N   0  0  0  0  0  0  0  0  0  0  0  0
    1.1751   -1.5792   -1.0738 H   0  0  0  0  0  0  0  0  0  0  0  0
    1.7191   -0.7138   -2.9601 C   0  0  0  0  0  0  0  0  0  0  0  0
    2.5046    0.0363   -3.1001 H   0  0  0  0  0  0  0  0  0  0  0  0
    2.1330   -1.6961   -3.2076 H   0  0  0  0  0  0  0  0  0  0  0  0
    0.8983   -0.4982   -3.6521 H   0  0  0  0  0  0  0  0  0  0  0  0
  1  2  1  0  0  0  0
  2  3  1  0  0  0  0
  2  4  1  0  0  0  0
  2  5  1  0  0  0  0
  5  6  2  0  0  0  0
  5  7  1  0  0  0  0
  7  8  1  0  0  0  0
  7  9  1  0  0  0  0
  9 10  1  0  0  0  0
  9 11  1  0  0  0  0
  9 19  1  0  0  0  0
 11 12  1  0  0  0  0
 11 13  1  0  0  0  0
 11 14  1  0  0  0  0
 14 15  2  0  0  0  0
 14 16  1  0  0  0  0
 16 17  1  0  0  0  0
 16 18  1  0  0  0  0
 19 20  2  0  0  0  0
 19 21  1  0  0  0  0
 21 22  1  0  0  0  0
 21 23  1  0  0  0  0
 23 24  1  0  0  0  0
 23 25  1  0  0  0  0
 23 26  1  0  0  0  0
M  END
$$$$

  -OEChem-01062216063D

 26 25  0     1  0  0  0  0  0999 V2000
   -3.0799   -3.1610    1.0717 H   0  0  0  0  0  0  0  0  0  0  0  0
   -2.9887   -2.1266    0.7282 C   0  0  0  0  0  0  0  0  0  0  0  0
   -3.5643   -1.4833    1.3984 H   0  0  0  0  0  0  0  0  0  0  0  0
   -3.4024   -2.0532   -0.2806 H   0  0  0  0  0  0  0  0  0  0  0  0
   -1.5324   -1.7004    0.7244 C   0  0  0  0  0  0  0  0  0  0  0  0
   -0.6741   -2.5249    0.9946 O   0  0  0  0  0  0  0  0  0  0  0  0
   -1.2194   -0.4044    0.3539 N   0  0  0  0  0  0  0  0  0  0  0  0
   -2.0250    0.1726    0.1225 H   0  0  0  0  0  0  0  0  0  0  0  0
    0.0774    0.3129    0.4167 C   0  0  1  0  0  0  0  0  0  0  0  0
   -0.1232    1.3405    0.7431 H   0  0  0  0  0  0  0  0  0  0  0  0
    1.1507   -0.2690    1.3639 C   0  0  0  0  0  0  0  0  0  0  0  0
    1.3762   -1.3124    1.1424 H   0  0  0  0  0  0  0  0  0  0  0  0
    2.0832    0.2824    1.2119 H   0  0  0  0  0  0  0  0  0  0  0  0
    0.7748   -0.0898    2.8264 C   0  0  0  0  0  0  0  0  0  0  0  0
    0.2884    0.9392    3.2582 O   0  0  0  0  0  0  0  0  0  0  0  0
    0.7865   -1.1504    3.6848 N   0  0  0  0  0  0  0  0  0  0  0  0
    0.2676   -1.0103    4.5460 H   0  0  0  0  0  0  0  0  0  0  0  0
    0.8175   -2.0773    3.2679 H   0  0  0  0  0  0  0  0  0  0  0  0
    0.6606    0.4122   -1.0030 C   0  0  0  0  0  0  0  0  0  0  0  0
    0.8606    1.5038   -1.5153 O   0  0  0  0  0  0  0  0  0  0  0  0
    0.9354   -0.7437   -1.7097 N   0  0  0  0  0  0  0  0  0  0  0  0
    0.7151   -1.6264   -1.2524 H   0  0  0  0  0  0  0  0  0  0  0  0
    1.4573   -0.7534   -3.0700 C   0  0  0  0  0  0  0  0  0  0  0  0
    2.4159   -0.2261   -3.1162 H   0  0  0  0  0  0  0  0  0  0  0  0
    1.6127   -1.7826   -3.4074 H   0  0  0  0  0  0  0  0  0  0  0  0
    0.7536   -0.2668   -3.7534 H   0  0  0  0  0  0  0  0  0  0  0  0
  1  2  1  0  0  0  0
  2  3  1  0  0  0  0
  2  4  1  0  0  0  0
  2  5  1  0  0  0  0
  5  6  2  0  0  0  0
  5  7  1  0  0  0  0
  7  8  1  0  0  0  0
  7  9  1  0  0  0  0
  9 10  1  0  0  0  0
  9 11  1  0  0  0  0
  9 19  1  0  0  0  0
 11 12  1  0  0  0  0
 11 13  1  0  0  0  0
 11 14  1  0  0  0  0
 14 15  2  0  0  0  0
 14 16  1  0  0  0  0
 16 17  1  0  0  0  0
 16 18  1  0  0  0  0
 19 20  2  0  0  0  0
 19 21  1  0  0  0  0
 21 22  1  0  0  0  0
 21 23  1  0  0  0  0
 23 24  1  0  0  0  0
 23 25  1  0  0  0  0
 23 26  1  0  0  0  0
M  END
$$$$

  -OEChem-01062216063D

 26 25  0     1  0  0  0  0  0999 V2000
   -3.0916   -3.1603    1.1431 H   0  0  0  0  0  0  0  0  0  0  0  0
   -3.0099   -2.1255    0.7985 C   0  0  0  0  0  0  0  0  0  0  0  0
   -3.5498   -1.4805    1.4964 H   0  0  0  0  0  0  0  0  0  0  0  0
   -3.4690   -2.0467   -0.1901 H   0  0  0  0  0  0  0  0  0  0  0  0
   -1.5529   -1.7082    0.7291 C   0  0  0  0  0  0  0  0  0  0  0  0
   -0.6885   -2.5417    0.9432 O   0  0  0  0  0  0  0  0  0  0  0  0
   -1.2493   -0.4122    0.3515 N   0  0  0  0  0  0  0  0  0  0  0  0
   -2.0638    0.1708    0.1729 H   0  0  0  0  0  0  0  0  0  0  0  0
    0.0468    0.3106    0.3952 C   0  0  1  0  0  0  0  0  0  0  0  0
   -0.1528    1.3371    0.7255 H   0  0  0  0  0  0  0  0  0  0  0  0
    1.1303   -0.2728    1.3285 C   0  0  0  0  0  0  0  0  0  0  0  0
    1.3537   -1.3154    1.1011 H   0  0  0  0  0  0  0  0  0  0  0  0
    2.0614    0.2785    1.1670 H   0  0  0  0  0  0  0  0  0  0  0  0
    0.7694   -0.0952    2.7949 C   0  0  0  0  0  0  0  0  0  0  0  0
    0.2873    0.9331    3.2335 O   0  0  0  0  0  0  0  0  0  0  0  0
    0.7870   -1.1570    3.6517 N   0  0  0  0  0  0  0  0  0  0  0  0
    0.2788   -1.0190    4.5197 H   0  0  0  0  0  0  0  0  0  0  0  0
    0.8226   -2.0841    3.2359 H   0  0  0  0  0  0  0  0  0  0  0  0
    0.6271    0.4184   -1.0265 C   0  0  0  0  0  0  0  0  0  0  0  0
    1.0962    1.4751   -1.4231 O   0  0  0  0  0  0  0  0  0  0  0  0
    0.6212   -0.6872   -1.8566 N   0  0  0  0  0  0  0  0  0  0  0  0
    0.2851   -1.5596   -1.4536 H   0  0  0  0  0  0  0  0  0  0  0  0
    1.1990   -0.6935   -3.1944 C   0  0  0  0  0  0  0  0  0  0  0  0
    2.2678   -0.4591   -3.1512 H   0  0  0  0  0  0  0  0  0  0  0  0
    1.0789   -1.6793   -3.6538 H   0  0  0  0  0  0  0  0  0  0  0  0
    0.7013    0.0468   -3.8296 H   0  0  0  0  0  0  0  0  0  0  0  0
  1  2  1  0  0  0  0
  2  3  1  0  0  0  0
  2  4  1  0  0  0  0
  2  5  1  0  0  0  0
  5  6  2  0  0  0  0
  5  7  1  0  0  0  0
  7  8  1  0  0  0  0
  7  9  1  0  0  0  0
  9 10  1  0  0  0  0
  9 11  1  0  0  0  0
  9 19  1  0  0  0  0
 11 12  1  0  0  0  0
 11 13  1  0  0  0  0
 11 14  1  0  0  0  0
 14 15  2  0  0  0  0
 14 16  1  0  0  0  0
 16 17  1  0  0  0  0
 16 18  1  0  0  0  0
 19 20  2  0  0  0  0
 19 21  1  0  0  0  0
 21 22  1  0  0  0  0
 21 23  1  0  0  0  0
 23 24  1  0  0  0  0
 23 25  1  0  0  0  0
 23 26  1  0  0  0  0
M  END
$$$$

  -OEChem-01062216063D

 26 25  0     1  0  0  0  0  0999 V2000
   -3.1056   -3.1638    1.1768 H   0  0  0  0  0  0  0  0  0  0  0  0
   -3.0262   -2.1287    0.8319 C   0  0  0  0  0  0  0  0  0  0  0  0
   -3.5577   -1.4838    1.5360 H   0  0  0  0  0  0  0  0  0  0  0  0
   -3.4967   -2.0485   -0.1511 H   0  0  0  0  0  0  0  0  0  0  0  0
   -1.5691   -1.7134    0.7471 C   0  0  0  0  0  0  0  0  0  0  0  0
   -0.7059   -2.5459    0.9678 O   0  0  0  0  0  0  0  0  0  0  0  0
   -1.2696   -0.4178    0.3621 N   0  0  0  0  0  0  0  0  0  0  0  0
   -2.0878    0.1637    0.1960 H   0  0  0  0  0  0  0  0  0  0  0  0
    0.0261    0.3110    0.3864 C   0  0  1  0  0  0  0  0  0  0  0  0
   -0.1727    1.3363    0.7200 H   0  0  0  0  0  0  0  0  0  0  0  0
    1.1180   -0.2741    1.3091 C   0  0  0  0  0  0  0  0  0  0  0  0
    1.3376   -1.3166    1.0769 H   0  0  0  0  0  0  0  0  0  0  0  0
    2.0487    0.2756    1.1404 H   0  0  0  0  0  0  0  0  0  0  0  0
    0.7736   -0.0974    2.7792 C   0  0  0  0  0  0  0  0  0  0  0  0
    0.2975    0.9310    3.2247 O   0  0  0  0  0  0  0  0  0  0  0  0
    0.8010   -1.1609    3.6335 N   0  0  0  0  0  0  0  0  0  0  0  0
    0.3033   -1.0248    4.5076 H   0  0  0  0  0  0  0  0  0  0  0  0
    0.8296   -2.0866    3.2137 H   0  0  0  0  0  0  0  0  0  0  0  0
    0.6072    0.4287   -1.0366 C   0  0  0  0  0  0  0  0  0  0  0  0
    1.3040    1.3875   -1.3357 O   0  0  0  0  0  0  0  0  0  0  0  0
    0.3455   -0.5461   -1.9818 N   0  0  0  0  0  0  0  0  0  0  0  0
   -0.1224   -1.3845   -1.6465 H   0  0  0  0  0  0  0  0  0  0  0  0
    0.9330   -0.5470   -3.3157 C   0  0  0  0  0  0  0  0  0  0  0  0
    2.0248   -0.6047   -3.2537 H   0  0  0  0  0  0  0  0  0  0  0  0
    0.5716   -1.4071   -3.8877 H   0  0  0  0  0  0  0  0  0  0  0  0
    0.6586    0.3655   -3.8552 H   0  0  0  0  0  0  0  0  0  0  0  0
  1  2  1  0  0  0  0
  2  3  1  0  0  0  0
  2  4  1  0  0  0  0
  2  5  1  0  0  0  0
  5  6  2  0  0  0  0
  5  7  1  0  0  0  0
  7  8  1  0  0  0  0
  7  9  1  0  0  0  0
  9 10  1  0  0  0  0
  9 11  1  0  0  0  0
  9 19  1  0  0  0  0
 11 12  1  0  0  0  0
 11 13  1  0  0  0  0
 11 14  1  0  0  0  0
 14 15  2  0  0  0  0
 14 16  1  0  0  0  0
 16 17  1  0  0  0  0
 16 18  1  0  0  0  0
 19 20  2  0  0  0  0
 19 21  1  0  0  0  0
 21 22  1  0  0  0  0
 21 23  1  0  0  0  0
 23 24  1  0  0  0  0
 23 25  1  0  0  0  0
 23 26  1  0  0  0  0
M  END
$$$$

  -OEChem-01062216063D

 26 25  0     1  0  0  0  0  0999 V2000
   -3.1041   -3.1694    1.1894 H   0  0  0  0  0  0  0  0  0  0  0  0
   -3.0237   -2.1355    0.8409 C   0  0  0  0  0  0  0  0  0  0  0  0
   -3.5555   -1.4876    1.5422 H   0  0  0  0  0  0  0  0  0  0  0  0
   -3.4933   -2.0588   -0.1427 H   0  0  0  0  0  0  0  0  0  0  0  0
   -1.5661   -1.7211    0.7567 C   0  0  0  0  0  0  0  0  0  0  0  0
   -0.7063   -2.5521    0.9928 O   0  0  0  0  0  0  0  0  0  0  0  0
   -1.2686   -0.4241    0.3721 N   0  0  0  0  0  0  0  0  0  0  0  0
   -2.0888    0.1583    0.2199 H   0  0  0  0  0  0  0  0  0  0  0  0
    0.0279    0.3062    0.3846 C   0  0  1  0  0  0  0  0  0  0  0  0
   -0.1700    1.3308    0.7200 H   0  0  0  0  0  0  0  0  0  0  0  0
    1.1193   -0.2812    1.3088 C   0  0  0  0  0  0  0  0  0  0  0  0
    1.3362   -1.3247    1.0783 H   0  0  0  0  0  0  0  0  0  0  0  0
    2.0529    0.2639    1.1414 H   0  0  0  0  0  0  0  0  0  0  0  0
    0.7770   -0.0969    2.7783 C   0  0  0  0  0  0  0  0  0  0  0  0
    0.3060    0.9359    3.2196 O   0  0  0  0  0  0  0  0  0  0  0  0
    0.7952   -1.1582    3.6359 N   0  0  0  0  0  0  0  0  0  0  0  0
    0.2983   -1.0158    4.5095 H   0  0  0  0  0  0  0  0  0  0  0  0
    0.8158   -2.0853    3.2184 H   0  0  0  0  0  0  0  0  0  0  0  0
    0.6064    0.4356   -1.0415 C   0  0  0  0  0  0  0  0  0  0  0  0
    1.4894    1.2497   -1.2720 O   0  0  0  0  0  0  0  0  0  0  0  0
    0.1167   -0.3389   -2.0775 N   0  0  0  0  0  0  0  0  0  0  0  0
   -0.5124   -1.0924   -1.8158 H   0  0  0  0  0  0  0  0  0  0  0  0
    0.6744   -0.3195   -3.4243 C   0  0  0  0  0  0  0  0  0  0  0  0
    1.7234   -0.6332   -3.4092 H   0  0  0  0  0  0  0  0  0  0  0  0
    0.1170   -1.0011   -4.0739 H   0  0  0  0  0  0  0  0  0  0  0  0
    0.6141    0.6879   -3.8494 H   0  0  0  0  0  0  0  0  0  0  0  0
  1  2  1  0  0  0  0
  2  3  1  0  0  0  0
  2  4  1  0  0  0  0
  2  5  1  0  0  0  0
  5  6  2  0  0  0  0
  5  7  1  0  0  0  0
  7  8  1  0  0  0  0
  7  9  1  0  0  0  0
  9 10  1  0  0  0  0
  9 11  1  0  0  0  0
  9 19  1  0  0  0  0
 11 12  1  0  0  0  0
 11 13  1  0  0  0  0
 11 14  1  0  0  0  0
 14 15  2  0  0  0  0
 14 16  1  0  0  0  0
 16 17  1  0  0  0  0
 16 18  1  0  0  0  0
 19 20  2  0  0  0  0
 19 21  1  0  0  0  0
 21 22  1  0  0  0  0
 21 23  1  0  0  0  0
 23 24  1  0  0  0  0
 23 25  1  0  0  0  0
 23 26  1  0  0  0  0
M  END
$$$$

  -OEChem-01062216063D

 26 25  0     1  0  0  0  0  0999 V2000
   -3.0975   -3.1703    1.1816 H   0  0  0  0  0  0  0  0  0  0  0  0
   -3.0119   -2.1392    0.8268 C   0  0  0  0  0  0  0  0  0  0  0  0
   -3.5511   -1.4863    1.5178 H   0  0  0  0  0  0  0  0  0  0  0  0
   -3.4699   -2.0698   -0.1629 H   0  0  0  0  0  0  0  0  0  0  0  0
   -1.5528   -1.7273    0.7555 C   0  0  0  0  0  0  0  0  0  0  0  0
   -0.6986   -2.5584    1.0102 O   0  0  0  0  0  0  0  0  0  0  0  0
   -1.2545   -0.4285    0.3750 N   0  0  0  0  0  0  0  0  0  0  0  0
   -2.0751    0.1568    0.2374 H   0  0  0  0  0  0  0  0  0  0  0  0
    0.0434    0.3009    0.3853 C   0  0  1  0  0  0  0  0  0  0  0  0
   -0.1534    1.3257    0.7203 H   0  0  0  0  0  0  0  0  0  0  0  0
    1.1280   -0.2891    1.3188 C   0  0  0  0  0  0  0  0  0  0  0  0
    1.3417   -1.3339    1.0925 H   0  0  0  0  0  0  0  0  0  0  0  0
    2.0665    0.2496    1.1593 H   0  0  0  0  0  0  0  0  0  0  0  0
    0.7774   -0.0962    2.7851 C   0  0  0  0  0  0  0  0  0  0  0  0
    0.3089    0.9413    3.2186 O   0  0  0  0  0  0  0  0  0  0  0  0
    0.7843   -1.1533    3.6480 N   0  0  0  0  0  0  0  0  0  0  0  0
    0.2824   -1.0050    4.5176 H   0  0  0  0  0  0  0  0  0  0  0  0
    0.8040   -2.0822    3.2344 H   0  0  0  0  0  0  0  0  0  0  0  0
    0.6169    0.4359   -1.0454 C   0  0  0  0  0  0  0  0  0  0  0  0
    1.6438    1.0706   -1.2429 O   0  0  0  0  0  0  0  0  0  0  0  0
   -0.0603   -0.0882   -2.1321 N   0  0  0  0  0  0  0  0  0  0  0  0
   -0.8313   -0.7141   -1.9219 H   0  0  0  0  0  0  0  0  0  0  0  0
    0.4497   -0.0300   -3.4968 C   0  0  0  0  0  0  0  0  0  0  0  0
    1.4041   -0.5617   -3.5725 H   0  0  0  0  0  0  0  0  0  0  0  0
   -0.2617   -0.4936   -4.1869 H   0  0  0  0  0  0  0  0  0  0  0  0
    0.6004    1.0100   -3.8053 H   0  0  0  0  0  0  0  0  0  0  0  0
  1  2  1  0  0  0  0
  2  3  1  0  0  0  0
  2  4  1  0  0  0  0
  2  5  1  0  0  0  0
  5  6  2  0  0  0  0
  5  7  1  0  0  0  0
  7  8  1  0  0  0  0
  7  9  1  0  0  0  0
  9 10  1  0  0  0  0
  9 11  1  0  0  0  0
  9 19  1  0  0  0  0
 11 12  1  0  0  0  0
 11 13  1  0  0  0  0
 11 14  1  0  0  0  0
 14 15  2  0  0  0  0
 14 16  1  0  0  0  0
 16 17  1  0  0  0  0
 16 18  1  0  0  0  0
 19 20  2  0  0  0  0
 19 21  1  0  0  0  0
 21 22  1  0  0  0  0
 21 23  1  0  0  0  0
 23 24  1  0  0  0  0
 23 25  1  0  0  0  0
 23 26  1  0  0  0  0
M  END
$$$$

  -OEChem-01062216063D

 26 25  0     1  0  0  0  0  0999 V2000
   -3.0862   -3.1742    1.1498 H   0  0  0  0  0  0  0  0  0  0  0  0
   -2.9975   -2.1425    0.7974 C   0  0  0  0  0  0  0  0  0  0  0  0
   -3.5473   -1.4910    1.4813 H   0  0  0  0  0  0  0  0  0  0  0  0
   -3.4416   -2.0732   -0.1986 H   0  0  0  0  0  0  0  0  0  0  0  0
   -1.5381   -1.7288    0.7462 C   0  0  0  0  0  0  0  0  0  0  0  0
   -0.6887   -2.5587    1.0200 O   0  0  0  0  0  0  0  0  0  0  0  0
   -1.2383   -0.4274    0.3738 N   0  0  0  0  0  0  0  0  0  0  0  0
   -2.0591    0.1609    0.2532 H   0  0  0  0  0  0  0  0  0  0  0  0
    0.0616    0.2991    0.3874 C   0  0  1  0  0  0  0  0  0  0  0  0
   -0.1335    1.3237    0.7229 H   0  0  0  0  0  0  0  0  0  0  0  0
    1.1384   -0.2936    1.3307 C   0  0  0  0  0  0  0  0  0  0  0  0
    1.3520   -1.3391    1.1068 H   0  0  0  0  0  0  0  0  0  0  0  0
    2.0806    0.2410    1.1818 H   0  0  0  0  0  0  0  0  0  0  0  0
    0.7784   -0.0947    2.7937 C   0  0  0  0  0  0  0  0  0  0  0  0
    0.3114    0.9466    3.2204 O   0  0  0  0  0  0  0  0  0  0  0  0
    0.7757   -1.1494    3.6592 N   0  0  0  0  0  0  0  0  0  0  0  0
    0.2685   -0.9977    4.5250 H   0  0  0  0  0  0  0  0  0  0  0  0
    0.7957   -2.0792    3.2473 H   0  0  0  0  0  0  0  0  0  0  0  0
    0.6270    0.4379   -1.0488 C   0  0  0  0  0  0  0  0  0  0  0  0
    1.7647    0.8450   -1.2418 O   0  0  0  0  0  0  0  0  0  0  0  0
   -0.1819    0.2051   -2.1475 N   0  0  0  0  0  0  0  0  0  0  0  0
   -1.0728   -0.2442   -1.9646 H   0  0  0  0  0  0  0  0  0  0  0  0
    0.2916    0.2943   -3.5240 C   0  0  0  0  0  0  0  0  0  0  0  0
    1.0967   -0.4268   -3.7000 H   0  0  0  0  0  0  0  0  0  0  0  0
   -0.5250    0.0792   -4.2198 H   0  0  0  0  0  0  0  0  0  0  0  0
    0.6677    1.3009   -3.7355 H   0  0  0  0  0  0  0  0  0  0  0  0
  1  2  1  0  0  0  0
  2  3  1  0  0  0  0
  2  4  1  0  0  0  0
  2  5  1  0  0  0  0
  5  6  2  0  0  0  0
  5  7  1  0  0  0  0
  7  8  1  0  0  0  0
  7  9  1  0  0  0  0
  9 10  1  0  0  0  0
  9 11  1  0  0  0  0
  9 19  1  0  0  0  0
 11 12  1  0  0  0  0
 11 13  1  0  0  0  0
 11 14  1  0  0  0  0
 14 15  2  0  0  0  0
 14 16  1  0  0  0  0
 16 17  1  0  0  0  0
 16 18  1  0  0  0  0
 19 20  2  0  0  0  0
 19 21  1  0  0  0  0
 21 22  1  0  0  0  0
 21 23  1  0  0  0  0
 23 24  1  0  0  0  0
 23 25  1  0  0  0  0
 23 26  1  0  0  0  0
M  END
$$$$

  -OEChem-01062216063D

 26 25  0     1  0  0  0  0  0999 V2000
   -3.0704   -3.1838    1.1082 H   0  0  0  0  0  0  0  0  0  0  0  0
   -2.9809   -2.1454    0.7755 C   0  0  0  0  0  0  0  0  0  0  0  0
   -3.5272   -1.5065    1.4738 H   0  0  0  0  0  0  0  0  0  0  0  0
   -3.4277   -2.0560   -0.2177 H   0  0  0  0  0  0  0  0  0  0  0  0
   -1.5209   -1.7331    0.7275 C   0  0  0  0  0  0  0  0  0  0  0  0
   -0.6744   -2.5633    1.0091 O   0  0  0  0  0  0  0  0  0  0  0  0
   -1.2207   -0.4289    0.3648 N   0  0  0  0  0  0  0  0  0  0  0  0
   -2.0424    0.1604    0.2607 H   0  0  0  0  0  0  0  0  0  0  0  0
    0.0802    0.2946    0.3863 C   0  0  1  0  0  0  0  0  0  0  0  0
   -0.1151    1.3191    0.7212 H   0  0  0  0  0  0  0  0  0  0  0  0
    1.1479   -0.2965    1.3417 C   0  0  0  0  0  0  0  0  0  0  0  0
    1.3627   -1.3428    1.1235 H   0  0  0  0  0  0  0  0  0  0  0  0
    2.0917    0.2374    1.2004 H   0  0  0  0  0  0  0  0  0  0  0  0
    0.7749   -0.0901    2.8000 C   0  0  0  0  0  0  0  0  0  0  0  0
    0.3063    0.9549    3.2163 O   0  0  0  0  0  0  0  0  0  0  0  0
    0.7580   -1.1418    3.6691 N   0  0  0  0  0  0  0  0  0  0  0  0
    0.2382   -0.9874    4.5269 H   0  0  0  0  0  0  0  0  0  0  0  0
    0.7853   -2.0731    3.2606 H   0  0  0  0  0  0  0  0  0  0  0  0
    0.6389    0.4372   -1.0535 C   0  0  0  0  0  0  0  0  0  0  0  0
    1.8363    0.5731   -1.2674 O   0  0  0  0  0  0  0  0  0  0  0  0
   -0.2286    0.5184   -2.1294 N   0  0  0  0  0  0  0  0  0  0  0  0
   -1.2021    0.3010   -1.9483 H   0  0  0  0  0  0  0  0  0  0  0  0
    0.2192    0.6379   -3.5123 C   0  0  0  0  0  0  0  0  0  0  0  0
    0.8174   -0.2338   -3.7978 H   0  0  0  0  0  0  0  0  0  0  0  0
   -0.6417    0.7037   -4.1845 H   0  0  0  0  0  0  0  0  0  0  0  0
    0.8268    1.5399   -3.6422 H   0  0  0  0  0  0  0  0  0  0  0  0
  1  2  1  0  0  0  0
  2  3  1  0  0  0  0
  2  4  1  0  0  0  0
  2  5  1  0  0  0  0
  5  6  2  0  0  0  0
  5  7  1  0  0  0  0
  7  8  1  0  0  0  0
  7  9  1  0  0  0  0
  9 10  1  0  0  0  0
  9 11  1  0  0  0  0
  9 19  1  0  0  0  0
 11 12  1  0  0  0  0
 11 13  1  0  0  0  0
 11 14  1  0  0  0  0
 14 15  2  0  0  0  0
 14 16  1  0  0  0  0
 16 17  1  0  0  0  0
 16 18  1  0  0  0  0
 19 20  2  0  0  0  0
 19 21  1  0  0  0  0
 21 22  1  0  0  0  0
 21 23  1  0  0  0  0
 23 24  1  0  0  0  0
 23 25  1  0  0  0  0
 23 26  1  0  0  0  0
M  END
$$$$

  -OEChem-01062216063D

 26 25  0     1  0  0  0  0  0999 V2000
   -3.0775   -3.1859    1.0410 H   0  0  0  0  0  0  0  0  0  0  0  0
   -2.9750   -2.1498    0.7051 C   0  0  0  0  0  0  0  0  0  0  0  0
   -3.5758   -1.5098    1.3559 H   0  0  0  0  0  0  0  0  0  0  0  0
   -3.3504   -2.0748   -0.3183 H   0  0  0  0  0  0  0  0  0  0  0  0
   -1.5194   -1.7229    0.7566 C   0  0  0  0  0  0  0  0  0  0  0  0
   -0.6924   -2.5339    1.1367 O   0  0  0  0  0  0  0  0  0  0  0  0
   -1.2078   -0.4223    0.3889 N   0  0  0  0  0  0  0  0  0  0  0  0
   -2.0232    0.1508    0.1942 H   0  0  0  0  0  0  0  0  0  0  0  0
    0.0973    0.2923    0.4006 C   0  0  1  0  0  0  0  0  0  0  0  0
   -0.0880    1.3189    0.7345 H   0  0  0  0  0  0  0  0  0  0  0  0
    1.1691   -0.2986    1.3504 C   0  0  0  0  0  0  0  0  0  0  0  0
    1.3747   -1.3477    1.1347 H   0  0  0  0  0  0  0  0  0  0  0  0
    2.1141    0.2297    1.1955 H   0  0  0  0  0  0  0  0  0  0  0  0
    0.8091   -0.0839    2.8107 C   0  0  0  0  0  0  0  0  0  0  0  0
    0.3489    0.9662    3.2247 O   0  0  0  0  0  0  0  0  0  0  0  0
    0.7774   -1.1349    3.6796 N   0  0  0  0  0  0  0  0  0  0  0  0
    0.2505   -0.9716    4.5312 H   0  0  0  0  0  0  0  0  0  0  0  0
    0.7706   -2.0627    3.2617 H   0  0  0  0  0  0  0  0  0  0  0  0
    0.6385    0.4212   -1.0470 C   0  0  0  0  0  0  0  0  0  0  0  0
    1.8188    0.2436   -1.3184 O   0  0  0  0  0  0  0  0  0  0  0  0
   -0.2121    0.8113   -2.0679 N   0  0  0  0  0  0  0  0  0  0  0  0
   -1.1918    0.9365   -1.8405 H   0  0  0  0  0  0  0  0  0  0  0  0
    0.2153    0.9689   -3.4535 C   0  0  0  0  0  0  0  0  0  0  0  0
    0.6084    0.0239   -3.8432 H   0  0  0  0  0  0  0  0  0  0  0  0
   -0.6290    1.2760   -4.0780 H   0  0  0  0  0  0  0  0  0  0  0  0
    0.9963    1.7329   -3.5288 H   0  0  0  0  0  0  0  0  0  0  0  0
  1  2  1  0  0  0  0
  2  3  1  0  0  0  0
  2  4  1  0  0  0  0
  2  5  1  0  0  0  0
  5  6  2  0  0  0  0
  5  7  1  0  0  0  0
  7  8  1  0  0  0  0
  7  9  1  0  0  0  0
  9 10  1  0  0  0  0
  9 11  1  0  0  0  0
  9 19  1  0  0  0  0
 11 12  1  0  0  0  0
 11 13  1  0  0  0  0
 11 14  1  0  0  0  0
 14 15  2  0  0  0  0
 14 16  1  0  0  0  0
 16 17  1  0  0  0  0
 16 18  1  0  0  0  0
 19 20  2  0  0  0  0
 19 21  1  0  0  0  0
 21 22  1  0  0  0  0
 21 23  1  0  0  0  0
 23 24  1  0  0  0  0
 23 25  1  0  0  0  0
 23 26  1  0  0  0  0
M  END
$$$$

  -OEChem-01062216063D

 26 25  0     1  0  0  0  0  0999 V2000
   -3.0806   -3.1971    0.9552 H   0  0  0  0  0  0  0  0  0  0  0  0
   -2.9724   -2.1570    0.6337 C   0  0  0  0  0  0  0  0  0  0  0  0
   -3.6368   -1.5330    1.2362 H   0  0  0  0  0  0  0  0  0  0  0  0
   -3.2654   -2.0835   -0.4163 H   0  0  0  0  0  0  0  0  0  0  0  0
   -1.5348   -1.7009    0.8052 C   0  0  0  0  0  0  0  0  0  0  0  0
   -0.7373   -2.4803    1.2995 O   0  0  0  0  0  0  0  0  0  0  0  0
   -1.2118   -0.4062    0.4256 N   0  0  0  0  0  0  0  0  0  0  0  0
   -2.0026    0.1260    0.0761 H   0  0  0  0  0  0  0  0  0  0  0  0
    0.1005    0.2932    0.4181 C   0  0  1  0  0  0  0  0  0  0  0  0
   -0.0689    1.3222    0.7523 H   0  0  0  0  0  0  0  0  0  0  0  0
    1.1840   -0.3006    1.3502 C   0  0  0  0  0  0  0  0  0  0  0  0
    1.3709   -1.3543    1.1363 H   0  0  0  0  0  0  0  0  0  0  0  0
    2.1303    0.2160    1.1670 H   0  0  0  0  0  0  0  0  0  0  0  0
    0.8551   -0.0780    2.8171 C   0  0  0  0  0  0  0  0  0  0  0  0
    0.4117    0.9788    3.2329 O   0  0  0  0  0  0  0  0  0  0  0  0
    0.8167   -1.1263    3.6885 N   0  0  0  0  0  0  0  0  0  0  0  0
    0.2984   -0.9465    4.5419 H   0  0  0  0  0  0  0  0  0  0  0  0
    0.7550   -2.0491    3.2625 H   0  0  0  0  0  0  0  0  0  0  0  0
    0.6191    0.4035   -1.0369 C   0  0  0  0  0  0  0  0  0  0  0  0
    1.6866   -0.0824   -1.3869 O   0  0  0  0  0  0  0  0  0  0  0  0
   -0.1337    1.0829   -1.9801 N   0  0  0  0  0  0  0  0  0  0  0  0
   -0.9781    1.5479   -1.6644 H   0  0  0  0  0  0  0  0  0  0  0  0
    0.2976    1.2721   -3.3608 C   0  0  0  0  0  0  0  0  0  0  0  0
    0.4663    0.3047   -3.8458 H   0  0  0  0  0  0  0  0  0  0  0  0
   -0.4674    1.8124   -3.9266 H   0  0  0  0  0  0  0  0  0  0  0  0
    1.2272    1.8500   -3.3958 H   0  0  0  0  0  0  0  0  0  0  0  0
  1  2  1  0  0  0  0
  2  3  1  0  0  0  0
  2  4  1  0  0  0  0
  2  5  1  0  0  0  0
  5  6  2  0  0  0  0
  5  7  1  0  0  0  0
  7  8  1  0  0  0  0
  7  9  1  0  0  0  0
  9 10  1  0  0  0  0
  9 11  1  0  0  0  0
  9 19  1  0  0  0  0
 11 12  1  0  0  0  0
 11 13  1  0  0  0  0
 11 14  1  0  0  0  0
 14 15  2  0  0  0  0
 14 16  1  0  0  0  0
 16 17  1  0  0  0  0
 16 18  1  0  0  0  0
 19 20  2  0  0  0  0
 19 21  1  0  0  0  0
 21 22  1  0  0  0  0
 21 23  1  0  0  0  0
 23 24  1  0  0  0  0
 23 25  1  0  0  0  0
 23 26  1  0  0  0  0
M  END
$$$$

  -OEChem-01062216063D

 26 25  0     1  0  0  0  0  0999 V2000
   -3.0814   -3.1929    0.9131 H   0  0  0  0  0  0  0  0  0  0  0  0
   -2.9707   -2.1534    0.5912 C   0  0  0  0  0  0  0  0  0  0  0  0
   -3.6720   -1.5346    1.1565 H   0  0  0  0  0  0  0  0  0  0  0  0
   -3.2122   -2.0898   -0.4726 H   0  0  0  0  0  0  0  0  0  0  0  0
   -1.5493   -1.6779    0.8311 C   0  0  0  0  0  0  0  0  0  0  0  0
   -0.7729   -2.4369    1.3879 O   0  0  0  0  0  0  0  0  0  0  0  0
   -1.2225   -0.3852    0.4482 N   0  0  0  0  0  0  0  0  0  0  0  0
   -1.9900    0.1160    0.0109 H   0  0  0  0  0  0  0  0  0  0  0  0
    0.0934    0.3042    0.4333 C   0  0  1  0  0  0  0  0  0  0  0  0
   -0.0668    1.3321    0.7747 H   0  0  0  0  0  0  0  0  0  0  0  0
    1.1863   -0.2973    1.3474 C   0  0  0  0  0  0  0  0  0  0  0  0
    1.3580   -1.3528    1.1282 H   0  0  0  0  0  0  0  0  0  0  0  0
    2.1335    0.2109    1.1476 H   0  0  0  0  0  0  0  0  0  0  0  0
    0.8786   -0.0810    2.8204 C   0  0  0  0  0  0  0  0  0  0  0  0
    0.4449    0.9765    3.2452 O   0  0  0  0  0  0  0  0  0  0  0  0
    0.8549   -1.1308    3.6905 N   0  0  0  0  0  0  0  0  0  0  0  0
    0.3479   -0.9505    4.5505 H   0  0  0  0  0  0  0  0  0  0  0  0
    0.7705   -2.0497    3.2594 H   0  0  0  0  0  0  0  0  0  0  0  0
    0.6010    0.4084   -1.0233 C   0  0  0  0  0  0  0  0  0  0  0  0
    1.4902   -0.3147   -1.4521 O   0  0  0  0  0  0  0  0  0  0  0  0
    0.0284    1.3345   -1.8786 N   0  0  0  0  0  0  0  0  0  0  0  0
   -0.6493    1.9817   -1.4883 H   0  0  0  0  0  0  0  0  0  0  0  0
    0.4726    1.5296   -3.2543 C   0  0  0  0  0  0  0  0  0  0  0  0
    0.3955    0.5942   -3.8189 H   0  0  0  0  0  0  0  0  0  0  0  0
   -0.1478    2.2825   -3.7500 H   0  0  0  0  0  0  0  0  0  0  0  0
    1.5136    1.8688   -3.2760 H   0  0  0  0  0  0  0  0  0  0  0  0
  1  2  1  0  0  0  0
  2  3  1  0  0  0  0
  2  4  1  0  0  0  0
  2  5  1  0  0  0  0
  5  6  2  0  0  0  0
  5  7  1  0  0  0  0
  7  8  1  0  0  0  0
  7  9  1  0  0  0  0
  9 10  1  0  0  0  0
  9 11  1  0  0  0  0
  9 19  1  0  0  0  0
 11 12  1  0  0  0  0
 11 13  1  0  0  0  0
 11 14  1  0  0  0  0
 14 15  2  0  0  0  0
 14 16  1  0  0  0  0
 16 17  1  0  0  0  0
 16 18  1  0  0  0  0
 19 20  2  0  0  0  0
 19 21  1  0  0  0  0
 21 22  1  0  0  0  0
 21 23  1  0  0  0  0
 23 24  1  0  0  0  0
 23 25  1  0  0  0  0
 23 26  1  0  0  0  0
M  END
$$$$

  -OEChem-01062216063D

 26 25  0     1  0  0  0  0  0999 V2000
   -3.0761   -3.1967    0.8894 H   0  0  0  0  0  0  0  0  0  0  0  0
   -2.9704   -2.1550    0.5726 C   0  0  0  0  0  0  0  0  0  0  0  0
   -3.6942   -1.5462    1.1200 H   0  0  0  0  0  0  0  0  0  0  0  0
   -3.1838   -2.0921   -0.4973 H   0  0  0  0  0  0  0  0  0  0  0  0
   -1.5621   -1.6620    0.8505 C   0  0  0  0  0  0  0  0  0  0  0  0
   -0.7970   -2.4057    1.4435 O   0  0  0  0  0  0  0  0  0  0  0  0
   -1.2376   -0.3691    0.4660 N   0  0  0  0  0  0  0  0  0  0  0  0
   -1.9917    0.1128   -0.0147 H   0  0  0  0  0  0  0  0  0  0  0  0
    0.0804    0.3147    0.4450 C   0  0  1  0  0  0  0  0  0  0  0  0
   -0.0767    1.3398    0.7961 H   0  0  0  0  0  0  0  0  0  0  0  0
    1.1838   -0.2929    1.3400 C   0  0  0  0  0  0  0  0  0  0  0  0
    1.3473   -1.3484    1.1127 H   0  0  0  0  0  0  0  0  0  0  0  0
    2.1298    0.2124    1.1285 H   0  0  0  0  0  0  0  0  0  0  0  0
    0.8942   -0.0857    2.8185 C   0  0  0  0  0  0  0  0  0  0  0  0
    0.4666    0.9703    3.2529 O   0  0  0  0  0  0  0  0  0  0  0  0
    0.8829   -1.1375    3.6859 N   0  0  0  0  0  0  0  0  0  0  0  0
    0.3834   -0.9578    4.5504 H   0  0  0  0  0  0  0  0  0  0  0  0
    0.7839   -2.0534    3.2511 H   0  0  0  0  0  0  0  0  0  0  0  0
    0.5864    0.4223   -1.0097 C   0  0  0  0  0  0  0  0  0  0  0  0
    1.2460   -0.4706   -1.5239 O   0  0  0  0  0  0  0  0  0  0  0  0
    0.2585    1.5323   -1.7686 N   0  0  0  0  0  0  0  0  0  0  0  0
   -0.2315    2.2926   -1.3064 H   0  0  0  0  0  0  0  0  0  0  0  0
    0.7255    1.7289   -3.1365 C   0  0  0  0  0  0  0  0  0  0  0  0
    0.4147    0.8933   -3.7727 H   0  0  0  0  0  0  0  0  0  0  0  0
    0.3059    2.6506   -3.5510 H   0  0  0  0  0  0  0  0  0  0  0  0
    1.8179    1.8025   -3.1612 H   0  0  0  0  0  0  0  0  0  0  0  0
  1  2  1  0  0  0  0
  2  3  1  0  0  0  0
  2  4  1  0  0  0  0
  2  5  1  0  0  0  0
  5  6  2  0  0  0  0
  5  7  1  0  0  0  0
  7  8  1  0  0  0  0
  7  9  1  0  0  0  0
  9 10  1  0  0  0  0
  9 11  1  0  0  0  0
  9 19  1  0  0  0  0
 11 12  1  0  0  0  0
 11 13  1  0  0  0  0
 11 14  1  0  0  0  0
 14 15  2  0  0  0  0
 14 16  1  0  0  0  0
 16 17  1  0  0  0  0
 16 18  1  0  0  0  0
 19 20  2  0  0  0  0
 19 21  1  0  0  0  0
 21 22  1  0  0  0  0
 21 23  1  0  0  0  0
 23 24  1  0  0  0  0
 23 25  1  0  0  0  0
 23 26  1  0  0  0  0
M  END
$$$$

  -OEChem-01062216063D

 26 25  0     1  0  0  0  0  0999 V2000
   -3.0705   -3.1938    0.8635 H   0  0  0  0  0  0  0  0  0  0  0  0
   -2.9631   -2.1544    0.5405 C   0  0  0  0  0  0  0  0  0  0  0  0
   -3.7143   -1.5476    1.0520 H   0  0  0  0  0  0  0  0  0  0  0  0
   -3.1340   -2.1043   -0.5376 H   0  0  0  0  0  0  0  0  0  0  0  0
   -1.5718   -1.6436    0.8679 C   0  0  0  0  0  0  0  0  0  0  0  0
   -0.8197   -2.3743    1.4939 O   0  0  0  0  0  0  0  0  0  0  0  0
   -1.2479   -0.3503    0.4854 N   0  0  0  0  0  0  0  0  0  0  0  0
   -1.9872    0.1145   -0.0340 H   0  0  0  0  0  0  0  0  0  0  0  0
    0.0726    0.3276    0.4630 C   0  0  1  0  0  0  0  0  0  0  0  0
   -0.0843    1.3496    0.8226 H   0  0  0  0  0  0  0  0  0  0  0  0
    1.1823   -0.2877    1.3429 C   0  0  0  0  0  0  0  0  0  0  0  0
    1.3372   -1.3427    1.1064 H   0  0  0  0  0  0  0  0  0  0  0  0
    2.1283    0.2153    1.1263 H   0  0  0  0  0  0  0  0  0  0  0  0
    0.9077   -0.0922    2.8263 C   0  0  0  0  0  0  0  0  0  0  0  0
    0.4862    0.9616    3.2717 O   0  0  0  0  0  0  0  0  0  0  0  0
    0.9102   -1.1486    3.6881 N   0  0  0  0  0  0  0  0  0  0  0  0
    0.4249   -0.9705    4.5610 H   0  0  0  0  0  0  0  0  0  0  0  0
    0.7899   -2.0592    3.2474 H   0  0  0  0  0  0  0  0  0  0  0  0
    0.5808    0.4402   -0.9892 C   0  0  0  0  0  0  0  0  0  0  0  0
    0.9692   -0.5473   -1.5976 O   0  0  0  0  0  0  0  0  0  0  0  0
    0.5385    1.6581   -1.6446 N   0  0  0  0  0  0  0  0  0  0  0  0
    0.2548    2.4742   -1.1102 H   0  0  0  0  0  0  0  0  0  0  0  0
    1.0077    1.8439   -3.0131 C   0  0  0  0  0  0  0  0  0  0  0  0
    0.4713    1.1774   -3.6968 H   0  0  0  0  0  0  0  0  0  0  0  0
    0.8369    2.8756   -3.3350 H   0  0  0  0  0  0  0  0  0  0  0  0
    2.0797    1.6314   -3.0829 H   0  0  0  0  0  0  0  0  0  0  0  0
  1  2  1  0  0  0  0
  2  3  1  0  0  0  0
  2  4  1  0  0  0  0
  2  5  1  0  0  0  0
  5  6  2  0  0  0  0
  5  7  1  0  0  0  0
  7  8  1  0  0  0  0
  7  9  1  0  0  0  0
  9 10  1  0  0  0  0
  9 11  1  0  0  0  0
  9 19  1  0  0  0  0
 11 12  1  0  0  0  0
 11 13  1  0  0  0  0
 11 14  1  0  0  0  0
 14 15  2  0  0  0  0
 14 16  1  0  0  0  0
 16 17  1  0  0  0  0
 16 18  1  0  0  0  0
 19 20  2  0  0  0  0
 19 21  1  0  0  0  0
 21 22  1  0  0  0  0
 21 23  1  0  0  0  0
 23 24  1  0  0  0  0
 23 25  1  0  0  0  0
 23 26  1  0  0  0  0
M  END
$$$$

  -OEChem-01062216063D

 26 25  0     1  0  0  0  0  0999 V2000
   -3.0702   -3.1886    0.8751 H   0  0  0  0  0  0  0  0  0  0  0  0
   -2.9547   -2.1581    0.5271 C   0  0  0  0  0  0  0  0  0  0  0  0
   -3.7198   -1.5389    1.0016 H   0  0  0  0  0  0  0  0  0  0  0  0
   -3.0964   -2.1370   -0.5563 H   0  0  0  0  0  0  0  0  0  0  0  0
   -1.5735   -1.6364    0.8778 C   0  0  0  0  0  0  0  0  0  0  0  0
   -0.8284   -2.3594    1.5217 O   0  0  0  0  0  0  0  0  0  0  0  0
   -1.2505   -0.3426    0.4966 N   0  0  0  0  0  0  0  0  0  0  0  0
   -1.9742    0.1041   -0.0593 H   0  0  0  0  0  0  0  0  0  0  0  0
    0.0723    0.3310    0.4734 C   0  0  1  0  0  0  0  0  0  0  0  0
   -0.0872    1.3519    0.8354 H   0  0  0  0  0  0  0  0  0  0  0  0
    1.1832   -0.2878    1.3480 C   0  0  0  0  0  0  0  0  0  0  0  0
    1.3324   -1.3429    1.1090 H   0  0  0  0  0  0  0  0  0  0  0  0
    2.1307    0.2119    1.1301 H   0  0  0  0  0  0  0  0  0  0  0  0
    0.9133   -0.0941    2.8327 C   0  0  0  0  0  0  0  0  0  0  0  0
    0.4953    0.9599    3.2807 O   0  0  0  0  0  0  0  0  0  0  0  0
    0.9144   -1.1522    3.6918 N   0  0  0  0  0  0  0  0  0  0  0  0
    0.4286   -0.9735    4.5643 H   0  0  0  0  0  0  0  0  0  0  0  0
    0.7826   -2.0594    3.2472 H   0  0  0  0  0  0  0  0  0  0  0  0
    0.5870    0.4497   -0.9756 C   0  0  0  0  0  0  0  0  0  0  0  0
    0.6880   -0.5416   -1.6856 O   0  0  0  0  0  0  0  0  0  0  0  0
    0.8453    1.6950   -1.5202 N   0  0  0  0  0  0  0  0  0  0  0  0
    0.7808    2.5030   -0.9074 H   0  0  0  0  0  0  0  0  0  0  0  0
    1.3128    1.8874   -2.8882 C   0  0  0  0  0  0  0  0  0  0  0  0
    0.5943    1.4702   -3.6017 H   0  0  0  0  0  0  0  0  0  0  0  0
    1.4298    2.9542   -3.1015 H   0  0  0  0  0  0  0  0  0  0  0  0
    2.2807    1.3966   -3.0353 H   0  0  0  0  0  0  0  0  0  0  0  0
  1  2  1  0  0  0  0
  2  3  1  0  0  0  0
  2  4  1  0  0  0  0
  2  5  1  0  0  0  0
  5  6  2  0  0  0  0
  5  7  1  0  0  0  0
  7  8  1  0  0  0  0
  7  9  1  0  0  0  0
  9 10  1  0  0  0  0
  9 11  1  0  0  0  0
  9 19  1  0  0  0  0
 11 12  1  0  0  0  0
 11 13  1  0  0  0  0
 11 14  1  0  0  0  0
 14 15  2  0  0  0  0
 14 16  1  0  0  0  0
 16 17  1  0  0  0  0
 16 18  1  0  0  0  0
 19 20  2  0  0  0  0
 19 21  1  0  0  0  0
 21 22  1  0  0  0  0
 21 23  1  0  0  0  0
 23 24  1  0  0  0  0
 23 25  1  0  0  0  0
 23 26  1  0  0  0  0
M  END
$$$$

  -OEChem-01062216063D

 26 25  0     1  0  0  0  0  0999 V2000
   -3.0685   -3.1885    0.8656 H   0  0  0  0  0  0  0  0  0  0  0  0
   -2.9489   -2.1605    0.5119 C   0  0  0  0  0  0  0  0  0  0  0  0
   -3.7289   -1.5408    0.9609 H   0  0  0  0  0  0  0  0  0  0  0  0
   -3.0626   -2.1489   -0.5751 H   0  0  0  0  0  0  0  0  0  0  0  0
   -1.5793   -1.6292    0.8926 C   0  0  0  0  0  0  0  0  0  0  0  0
   -0.8429   -2.3461    1.5539 O   0  0  0  0  0  0  0  0  0  0  0  0
   -1.2530   -0.3372    0.5094 N   0  0  0  0  0  0  0  0  0  0  0  0
   -1.9586    0.0905   -0.0838 H   0  0  0  0  0  0  0  0  0  0  0  0
    0.0739    0.3283    0.4807 C   0  0  1  0  0  0  0  0  0  0  0  0
   -0.0836    1.3504    0.8402 H   0  0  0  0  0  0  0  0  0  0  0  0
    1.1836   -0.2947    1.3537 C   0  0  0  0  0  0  0  0  0  0  0  0
    1.3257   -1.3512    1.1161 H   0  0  0  0  0  0  0  0  0  0  0  0
    2.1333    0.1992    1.1328 H   0  0  0  0  0  0  0  0  0  0  0  0
    0.9211   -0.0961    2.8395 C   0  0  0  0  0  0  0  0  0  0  0  0
    0.5119    0.9620    3.2852 O   0  0  0  0  0  0  0  0  0  0  0  0
    0.9174   -1.1511    3.7025 N   0  0  0  0  0  0  0  0  0  0  0  0
    0.4385   -0.9625    4.5768 H   0  0  0  0  0  0  0  0  0  0  0  0
    0.7685   -2.0579    3.2623 H   0  0  0  0  0  0  0  0  0  0  0  0
    0.5933    0.4492   -0.9670 C   0  0  0  0  0  0  0  0  0  0  0  0
    0.4220   -0.4569   -1.7719 O   0  0  0  0  0  0  0  0  0  0  0  0
    1.1499    1.6379   -1.4040 N   0  0  0  0  0  0  0  0  0  0  0  0
    1.2865    2.3771   -0.7200 H   0  0  0  0  0  0  0  0  0  0  0  0
    1.6211    1.8466   -2.7682 C   0  0  0  0  0  0  0  0  0  0  0  0
    0.8013    1.7130   -3.4819 H   0  0  0  0  0  0  0  0  0  0  0  0
    2.0146    2.8613   -2.8814 H   0  0  0  0  0  0  0  0  0  0  0  0
    2.4187    1.1367   -3.0108 H   0  0  0  0  0  0  0  0  0  0  0  0
  1  2  1  0  0  0  0
  2  3  1  0  0  0  0
  2  4  1  0  0  0  0
  2  5  1  0  0  0  0
  5  6  2  0  0  0  0
  5  7  1  0  0  0  0
  7  8  1  0  0  0  0
  7  9  1  0  0  0  0
  9 10  1  0  0  0  0
  9 11  1  0  0  0  0
  9 19  1  0  0  0  0
 11 12  1  0  0  0  0
 11 13  1  0  0  0  0
 11 14  1  0  0  0  0
 14 15  2  0  0  0  0
 14 16  1  0  0  0  0
 16 17  1  0  0  0  0
 16 18  1  0  0  0  0
 19 20  2  0  0  0  0
 19 21  1  0  0  0  0
 21 22  1  0  0  0  0
 21 23  1  0  0  0  0
 23 24  1  0  0  0  0
 23 25  1  0  0  0  0
 23 26  1  0  0  0  0
M  END
$$$$

  -OEChem-01062216063D

 26 25  0     1  0  0  0  0  0999 V2000
   -3.0690   -3.1885    0.8659 H   0  0  0  0  0  0  0  0  0  0  0  0
   -2.9460   -2.1614    0.5111 C   0  0  0  0  0  0  0  0  0  0  0  0
   -3.7277   -1.5403    0.9547 H   0  0  0  0  0  0  0  0  0  0  0  0
   -3.0536   -2.1512   -0.5765 H   0  0  0  0  0  0  0  0  0  0  0  0
   -1.5782   -1.6308    0.8987 C   0  0  0  0  0  0  0  0  0  0  0  0
   -0.8449   -2.3483    1.5630 O   0  0  0  0  0  0  0  0  0  0  0  0
   -1.2481   -0.3399    0.5155 N   0  0  0  0  0  0  0  0  0  0  0  0
   -1.9411    0.0764   -0.1013 H   0  0  0  0  0  0  0  0  0  0  0  0
    0.0803    0.3235    0.4840 C   0  0  1  0  0  0  0  0  0  0  0  0
   -0.0756    1.3478    0.8386 H   0  0  0  0  0  0  0  0  0  0  0  0
    1.1847   -0.3034    1.3628 C   0  0  0  0  0  0  0  0  0  0  0  0
    1.3219   -1.3613    1.1293 H   0  0  0  0  0  0  0  0  0  0  0  0
    2.1388    0.1836    1.1463 H   0  0  0  0  0  0  0  0  0  0  0  0
    0.9186   -0.0986    2.8474 C   0  0  0  0  0  0  0  0  0  0  0  0
    0.5141    0.9631    3.2881 O   0  0  0  0  0  0  0  0  0  0  0  0
    0.9070   -1.1504    3.7144 N   0  0  0  0  0  0  0  0  0  0  0  0
    0.4266   -0.9552    4.5866 H   0  0  0  0  0  0  0  0  0  0  0  0
    0.7526   -2.0579    3.2776 H   0  0  0  0  0  0  0  0  0  0  0  0
    0.6027    0.4464   -0.9640 C   0  0  0  0  0  0  0  0  0  0  0  0
    0.2025   -0.3064   -1.8431 O   0  0  0  0  0  0  0  0  0  0  0  0
    1.4298    1.5000   -1.3109 N   0  0  0  0  0  0  0  0  0  0  0  0
    1.7299    2.1302   -0.5720 H   0  0  0  0  0  0  0  0  0  0  0  0
    1.9160    1.7241   -2.6675 C   0  0  0  0  0  0  0  0  0  0  0  0
    1.0781    1.8828   -3.3545 H   0  0  0  0  0  0  0  0  0  0  0  0
    2.5592    2.6089   -2.6979 H   0  0  0  0  0  0  0  0  0  0  0  0
    2.4968    0.8626   -3.0135 H   0  0  0  0  0  0  0  0  0  0  0  0
  1  2  1  0  0  0  0
  2  3  1  0  0  0  0
  2  4  1  0  0  0  0
  2  5  1  0  0  0  0
  5  6  2  0  0  0  0
  5  7  1  0  0  0  0
  7  8  1  0  0  0  0
  7  9  1  0  0  0  0
  9 10  1  0  0  0  0
  9 11  1  0  0  0  0
  9 19  1  0  0  0  0
 11 12  1  0  0  0  0
 11 13  1  0  0  0  0
 11 14  1  0  0  0  0
 14 15  2  0  0  0  0
 14 16  1  0  0  0  0
 16 17  1  0  0  0  0
 16 18  1  0  0  0  0
 19 20  2  0  0  0  0
 19 21  1  0  0  0  0
 21 22  1  0  0  0  0
 21 23  1  0  0  0  0
 23 24  1  0  0  0  0
 23 25  1  0  0  0  0
 23 26  1  0  0  0  0
M  END
$$$$

  -OEChem-01062216063D

 26 25  0     1  0  0  0  0  0999 V2000
   -3.0647   -3.1863    0.8428 H   0  0  0  0  0  0  0  0  0  0  0  0
   -2.9351   -2.1580    0.4935 C   0  0  0  0  0  0  0  0  0  0  0  0
   -3.7229   -1.5369    0.9265 H   0  0  0  0  0  0  0  0  0  0  0  0
   -3.0257   -2.1439   -0.5956 H   0  0  0  0  0  0  0  0  0  0  0  0
   -1.5730   -1.6297    0.9040 C   0  0  0  0  0  0  0  0  0  0  0  0
   -0.8458   -2.3525    1.5695 O   0  0  0  0  0  0  0  0  0  0  0  0
   -1.2356   -0.3396    0.5258 N   0  0  0  0  0  0  0  0  0  0  0  0
   -1.9154    0.0706   -0.1103 H   0  0  0  0  0  0  0  0  0  0  0  0
    0.0936    0.3223    0.4980 C   0  0  1  0  0  0  0  0  0  0  0  0
   -0.0577    1.3486    0.8496 H   0  0  0  0  0  0  0  0  0  0  0  0
    1.1882   -0.3118    1.3871 C   0  0  0  0  0  0  0  0  0  0  0  0
    1.3213   -1.3703    1.1554 H   0  0  0  0  0  0  0  0  0  0  0  0
    2.1486    0.1669    1.1835 H   0  0  0  0  0  0  0  0  0  0  0  0
    0.9105   -0.1040    2.8694 C   0  0  0  0  0  0  0  0  0  0  0  0
    0.5090    0.9602    3.3062 O   0  0  0  0  0  0  0  0  0  0  0  0
    0.8905   -1.1534    3.7388 N   0  0  0  0  0  0  0  0  0  0  0  0
    0.4046   -0.9539    4.6070 H   0  0  0  0  0  0  0  0  0  0  0  0
    0.7358   -2.0616    3.3039 H   0  0  0  0  0  0  0  0  0  0  0  0
    0.6117    0.4446   -0.9538 C   0  0  0  0  0  0  0  0  0  0  0  0
    0.0262   -0.1088   -1.8772 O   0  0  0  0  0  0  0  0  0  0  0  0
    1.6665    1.2905   -1.2486 N   0  0  0  0  0  0  0  0  0  0  0  0
    2.1056    1.7868   -0.4781 H   0  0  0  0  0  0  0  0  0  0  0  0
    2.1580    1.5174   -2.6028 C   0  0  0  0  0  0  0  0  0  0  0  0
    1.3739    1.9599   -3.2262 H   0  0  0  0  0  0  0  0  0  0  0  0
    3.0127    2.2004   -2.5857 H   0  0  0  0  0  0  0  0  0  0  0  0
    2.4791    0.5740   -3.0570 H   0  0  0  0  0  0  0  0  0  0  0  0
  1  2  1  0  0  0  0
  2  3  1  0  0  0  0
  2  4  1  0  0  0  0
  2  5  1  0  0  0  0
  5  6  2  0  0  0  0
  5  7  1  0  0  0  0
  7  8  1  0  0  0  0
  7  9  1  0  0  0  0
  9 10  1  0  0  0  0
  9 11  1  0  0  0  0
  9 19  1  0  0  0  0
 11 12  1  0  0  0  0
 11 13  1  0  0  0  0
 11 14  1  0  0  0  0
 14 15  2  0  0  0  0
 14 16  1  0  0  0  0
 16 17  1  0  0  0  0
 16 18  1  0  0  0  0
 19 20  2  0  0  0  0
 19 21  1  0  0  0  0
 21 22  1  0  0  0  0
 21 23  1  0  0  0  0
 23 24  1  0  0  0  0
 23 25  1  0  0  0  0
 23 26  1  0  0  0  0
M  END
$$$$

  -OEChem-01062216063D

 26 25  0     1  0  0  0  0  0999 V2000
   -3.1594   -3.1474    0.8280 H   0  0  0  0  0  0  0  0  0  0  0  0
   -3.0094   -2.1048    0.5337 C   0  0  0  0  0  0  0  0  0  0  0  0
   -3.6984   -1.4757    1.1025 H   0  0  0  0  0  0  0  0  0  0  0  0
   -3.2312   -2.0056   -0.5320 H   0  0  0  0  0  0  0  0  0  0  0  0
   -1.5779   -1.6802    0.8060 C   0  0  0  0  0  0  0  0  0  0  0  0
   -0.8108   -2.4990    1.2897 O   0  0  0  0  0  0  0  0  0  0  0  0
   -1.2077   -0.3911    0.4592 N   0  0  0  0  0  0  0  0  0  0  0  0
   -1.9151    0.0963   -0.0881 H   0  0  0  0  0  0  0  0  0  0  0  0
    0.1203    0.2732    0.4512 C   0  0  1  0  0  0  0  0  0  0  0  0
    0.0133    1.1910    1.0396 H   0  0  0  0  0  0  0  0  0  0  0  0
    1.2915   -0.5232    1.0778 C   0  0  0  0  0  0  0  0  0  0  0  0
    1.3663   -1.5122    0.6194 H   0  0  0  0  0  0  0  0  0  0  0  0
    2.2390   -0.0157    0.8859 H   0  0  0  0  0  0  0  0  0  0  0  0
    1.1677   -0.6421    2.5929 C   0  0  0  0  0  0  0  0  0  0  0  0
    0.8221    0.3000    3.2835 O   0  0  0  0  0  0  0  0  0  0  0  0
    1.3300   -1.8322    3.2378 N   0  0  0  0  0  0  0  0  0  0  0  0
    0.9731   -1.8281    4.1878 H   0  0  0  0  0  0  0  0  0  0  0  0
    1.1390   -2.6513    2.6642 H   0  0  0  0  0  0  0  0  0  0  0  0
    0.4667    0.7512   -0.9799 C   0  0  0  0  0  0  0  0  0  0  0  0
   -0.3541    0.6406   -1.8840 O   0  0  0  0  0  0  0  0  0  0  0  0
    1.6584    1.4030   -1.2462 N   0  0  0  0  0  0  0  0  0  0  0  0
    2.2990    1.5517   -0.4720 H   0  0  0  0  0  0  0  0  0  0  0  0
    2.0038    1.9419   -2.5566 C   0  0  0  0  0  0  0  0  0  0  0  0
    1.2653    2.6862   -2.8728 H   0  0  0  0  0  0  0  0  0  0  0  0
    2.9854    2.4240   -2.5202 H   0  0  0  0  0  0  0  0  0  0  0  0
    2.0394    1.1411   -3.3027 H   0  0  0  0  0  0  0  0  0  0  0  0
  1  2  1  0  0  0  0
  2  3  1  0  0  0  0
  2  4  1  0  0  0  0
  2  5  1  0  0  0  0
  5  6  2  0  0  0  0
  5  7  1  0  0  0  0
  7  8  1  0  0  0  0
  7  9  1  0  0  0  0
  9 10  1  0  0  0  0
  9 11  1  0  0  0  0
  9 19  1  0  0  0  0
 11 12  1  0  0  0  0
 11 13  1  0  0  0  0
 11 14  1  0  0  0  0
 14 15  2  0  0  0  0
 14 16  1  0  0  0  0
 16 17  1  0  0  0  0
 16 18  1  0  0  0  0
 19 20  2  0  0  0  0
 19 21  1  0  0  0  0
 21 22  1  0  0  0  0
 21 23  1  0  0  0  0
 23 24  1  0  0  0  0
 23 25  1  0  0  0  0
 23 26  1  0  0  0  0
M  END
$$$$

  -OEChem-01062216063D

 26 25  0     1  0  0  0  0  0999 V2000
   -3.1506   -3.1426    0.8190 H   0  0  0  0  0  0  0  0  0  0  0  0
   -2.9961   -2.0992    0.5298 C   0  0  0  0  0  0  0  0  0  0  0  0
   -3.6737   -1.4692    1.1110 H   0  0  0  0  0  0  0  0  0  0  0  0
   -3.2303   -1.9909   -0.5322 H   0  0  0  0  0  0  0  0  0  0  0  0
   -1.5581   -1.6877    0.7879 C   0  0  0  0  0  0  0  0  0  0  0  0
   -0.7892   -2.5187    1.2477 O   0  0  0  0  0  0  0  0  0  0  0  0
   -1.1826   -0.3966    0.4548 N   0  0  0  0  0  0  0  0  0  0  0  0
   -1.8936    0.1104   -0.0707 H   0  0  0  0  0  0  0  0  0  0  0  0
    0.1431    0.2717    0.4653 C   0  0  1  0  0  0  0  0  0  0  0  0
    0.0320    1.1896    1.0529 H   0  0  0  0  0  0  0  0  0  0  0  0
    1.3032   -0.5289    1.1098 C   0  0  0  0  0  0  0  0  0  0  0  0
    1.3910   -1.5155    0.6485 H   0  0  0  0  0  0  0  0  0  0  0  0
    2.2527   -0.0171    0.9448 H   0  0  0  0  0  0  0  0  0  0  0  0
    1.1509   -0.6497    2.6223 C   0  0  0  0  0  0  0  0  0  0  0  0
    0.7946    0.2901    3.3103 O   0  0  0  0  0  0  0  0  0  0  0  0
    1.2832   -1.8450    3.2641 N   0  0  0  0  0  0  0  0  0  0  0  0
    0.9053   -1.8409    4.2060 H   0  0  0  0  0  0  0  0  0  0  0  0
    1.0957   -2.6592    2.6822 H   0  0  0  0  0  0  0  0  0  0  0  0
    0.4849    0.7525   -0.9678 C   0  0  0  0  0  0  0  0  0  0  0  0
   -0.4093    0.8621   -1.8002 O   0  0  0  0  0  0  0  0  0  0  0  0
    1.7666    1.1323   -1.3281 N   0  0  0  0  0  0  0  0  0  0  0  0
    2.4916    1.0828   -0.6191 H   0  0  0  0  0  0  0  0  0  0  0  0
    2.1143    1.6335   -2.6529 C   0  0  0  0  0  0  0  0  0  0  0  0
    1.5276    2.5266   -2.8924 H   0  0  0  0  0  0  0  0  0  0  0  0
    3.1754    1.8979   -2.6902 H   0  0  0  0  0  0  0  0  0  0  0  0
    1.9210    0.8701   -3.4138 H   0  0  0  0  0  0  0  0  0  0  0  0
  1  2  1  0  0  0  0
  2  3  1  0  0  0  0
  2  4  1  0  0  0  0
  2  5  1  0  0  0  0
  5  6  2  0  0  0  0
  5  7  1  0  0  0  0
  7  8  1  0  0  0  0
  7  9  1  0  0  0  0
  9 10  1  0  0  0  0
  9 11  1  0  0  0  0
  9 19  1  0  0  0  0
 11 12  1  0  0  0  0
 11 13  1  0  0  0  0
 11 14  1  0  0  0  0
 14 15  2  0  0  0  0
 14 16  1  0  0  0  0
 16 17  1  0  0  0  0
 16 18  1  0  0  0  0
 19 20  2  0  0  0  0
 19 21  1  0  0  0  0
 21 22  1  0  0  0  0
 21 23  1  0  0  0  0
 23 24  1  0  0  0  0
 23 25  1  0  0  0  0
 23 26  1  0  0  0  0
M  END
$$$$

  -OEChem-01062216063D

 26 25  0     1  0  0  0  0  0999 V2000
   -3.1403   -3.1403    0.8194 H   0  0  0  0  0  0  0  0  0  0  0  0
   -2.9834   -2.0971    0.5305 C   0  0  0  0  0  0  0  0  0  0  0  0
   -3.6476   -1.4646    1.1248 H   0  0  0  0  0  0  0  0  0  0  0  0
   -3.2339   -1.9836   -0.5272 H   0  0  0  0  0  0  0  0  0  0  0  0
   -1.5389   -1.6956    0.7661 C   0  0  0  0  0  0  0  0  0  0  0  0
   -0.7639   -2.5355    1.1992 O   0  0  0  0  0  0  0  0  0  0  0  0
   -1.1627   -0.4021    0.4437 N   0  0  0  0  0  0  0  0  0  0  0  0
   -1.8835    0.1277   -0.0447 H   0  0  0  0  0  0  0  0  0  0  0  0
    0.1601    0.2692    0.4738 C   0  0  1  0  0  0  0  0  0  0  0  0
    0.0402    1.1877    1.0588 H   0  0  0  0  0  0  0  0  0  0  0  0
    1.3135   -0.5265    1.1348 C   0  0  0  0  0  0  0  0  0  0  0  0
    1.4177   -1.5114    0.6737 H   0  0  0  0  0  0  0  0  0  0  0  0
    2.2602   -0.0027    0.9892 H   0  0  0  0  0  0  0  0  0  0  0  0
    1.1379   -0.6472    2.6448 C   0  0  0  0  0  0  0  0  0  0  0  0
    0.7673    0.2898    3.3286 O   0  0  0  0  0  0  0  0  0  0  0  0
    1.2421   -1.8466    3.2841 N   0  0  0  0  0  0  0  0  0  0  0  0
    0.8444   -1.8417    4.2180 H   0  0  0  0  0  0  0  0  0  0  0  0
    1.0588   -2.6568    2.6951 H   0  0  0  0  0  0  0  0  0  0  0  0
    0.5030    0.7510   -0.9582 C   0  0  0  0  0  0  0  0  0  0  0  0
   -0.4085    1.0814   -1.7088 O   0  0  0  0  0  0  0  0  0  0  0  0
    1.8042    0.8505   -1.4217 N   0  0  0  0  0  0  0  0  0  0  0  0
    2.5521    0.5644   -0.7980 H   0  0  0  0  0  0  0  0  0  0  0  0
    2.1454    1.3021   -2.7658 C   0  0  0  0  0  0  0  0  0  0  0  0
    1.7477    2.3064   -2.9460 H   0  0  0  0  0  0  0  0  0  0  0  0
    3.2321    1.3349   -2.8895 H   0  0  0  0  0  0  0  0  0  0  0  0
    1.7319    0.6193   -3.5154 H   0  0  0  0  0  0  0  0  0  0  0  0
  1  2  1  0  0  0  0
  2  3  1  0  0  0  0
  2  4  1  0  0  0  0
  2  5  1  0  0  0  0
  5  6  2  0  0  0  0
  5  7  1  0  0  0  0
  7  8  1  0  0  0  0
  7  9  1  0  0  0  0
  9 10  1  0  0  0  0
  9 11  1  0  0  0  0
  9 19  1  0  0  0  0
 11 12  1  0  0  0  0
 11 13  1  0  0  0  0
 11 14  1  0  0  0  0
 14 15  2  0  0  0  0
 14 16  1  0  0  0  0
 16 17  1  0  0  0  0
 16 18  1  0  0  0  0
 19 20  2  0  0  0  0
 19 21  1  0  0  0  0
 21 22  1  0  0  0  0
 21 23  1  0  0  0  0
 23 24  1  0  0  0  0
 23 25  1  0  0  0  0
 23 26  1  0  0  0  0
M  END
$$$$

  -OEChem-01062216063D

 26 25  0     1  0  0  0  0  0999 V2000
   -3.1311   -3.1399    0.8345 H   0  0  0  0  0  0  0  0  0  0  0  0
   -2.9767   -2.0974    0.5421 C   0  0  0  0  0  0  0  0  0  0  0  0
   -3.6243   -1.4621    1.1513 H   0  0  0  0  0  0  0  0  0  0  0  0
   -3.2511   -1.9826   -0.5095 H   0  0  0  0  0  0  0  0  0  0  0  0
   -1.5258   -1.7015    0.7447 C   0  0  0  0  0  0  0  0  0  0  0  0
   -0.7409   -2.5462    1.1495 O   0  0  0  0  0  0  0  0  0  0  0  0
   -1.1521   -0.4064    0.4260 N   0  0  0  0  0  0  0  0  0  0  0  0
   -1.8870    0.1438   -0.0165 H   0  0  0  0  0  0  0  0  0  0  0  0
    0.1672    0.2691    0.4726 C   0  0  1  0  0  0  0  0  0  0  0  0
    0.0380    1.1889    1.0541 H   0  0  0  0  0  0  0  0  0  0  0  0
    1.3189   -0.5174    1.1462 C   0  0  0  0  0  0  0  0  0  0  0  0
    1.4395   -1.5016    0.6880 H   0  0  0  0  0  0  0  0  0  0  0  0
    2.2598    0.0202    1.0076 H   0  0  0  0  0  0  0  0  0  0  0  0
    1.1282   -0.6393    2.6543 C   0  0  0  0  0  0  0  0  0  0  0  0
    0.7434    0.2935    3.3357 O   0  0  0  0  0  0  0  0  0  0  0  0
    1.2175   -1.8421    3.2896 N   0  0  0  0  0  0  0  0  0  0  0  0
    0.8083   -1.8399    4.2185 H   0  0  0  0  0  0  0  0  0  0  0  0
    1.0421   -2.6500    2.6953 H   0  0  0  0  0  0  0  0  0  0  0  0
    0.5178    0.7470   -0.9567 C   0  0  0  0  0  0  0  0  0  0  0  0
   -0.3567    1.2820   -1.6282 O   0  0  0  0  0  0  0  0  0  0  0  0
    1.7707    0.5712   -1.5196 N   0  0  0  0  0  0  0  0  0  0  0  0
    2.4650    0.0688   -0.9757 H   0  0  0  0  0  0  0  0  0  0  0  0
    2.1003    0.9691   -2.8835 C   0  0  0  0  0  0  0  0  0  0  0  0
    1.9282    2.0417   -3.0226 H   0  0  0  0  0  0  0  0  0  0  0  0
    3.1532    0.7593   -3.0948 H   0  0  0  0  0  0  0  0  0  0  0  0
    1.4857    0.4174   -3.6026 H   0  0  0  0  0  0  0  0  0  0  0  0
  1  2  1  0  0  0  0
  2  3  1  0  0  0  0
  2  4  1  0  0  0  0
  2  5  1  0  0  0  0
  5  6  2  0  0  0  0
  5  7  1  0  0  0  0
  7  8  1  0  0  0  0
  7  9  1  0  0  0  0
  9 10  1  0  0  0  0
  9 11  1  0  0  0  0
  9 19  1  0  0  0  0
 11 12  1  0  0  0  0
 11 13  1  0  0  0  0
 11 14  1  0  0  0  0
 14 15  2  0  0  0  0
 14 16  1  0  0  0  0
 16 17  1  0  0  0  0
 16 18  1  0  0  0  0
 19 20  2  0  0  0  0
 19 21  1  0  0  0  0
 21 22  1  0  0  0  0
 21 23  1  0  0  0  0
 23 24  1  0  0  0  0
 23 25  1  0  0  0  0
 23 26  1  0  0  0  0
M  END
$$$$

  -OEChem-01062216063D

 26 25  0     1  0  0  0  0  0999 V2000
   -3.1269   -3.1387    0.8753 H   0  0  0  0  0  0  0  0  0  0  0  0
   -2.9775   -2.0985    0.5725 C   0  0  0  0  0  0  0  0  0  0  0  0
   -3.6010   -1.4574    1.2005 H   0  0  0  0  0  0  0  0  0  0  0  0
   -3.2865   -1.9875   -0.4698 H   0  0  0  0  0  0  0  0  0  0  0  0
   -1.5186   -1.7092    0.7249 C   0  0  0  0  0  0  0  0  0  0  0  0
   -0.7218   -2.5580    1.0964 O   0  0  0  0  0  0  0  0  0  0  0  0
   -1.1506   -0.4137    0.4020 N   0  0  0  0  0  0  0  0  0  0  0  0
   -1.9035    0.1541    0.0162 H   0  0  0  0  0  0  0  0  0  0  0  0
    0.1643    0.2677    0.4589 C   0  0  1  0  0  0  0  0  0  0  0  0
    0.0259    1.1887    1.0365 H   0  0  0  0  0  0  0  0  0  0  0  0
    1.3182   -0.5074    1.1401 C   0  0  0  0  0  0  0  0  0  0  0  0
    1.4513   -1.4922    0.6869 H   0  0  0  0  0  0  0  0  0  0  0  0
    2.2535    0.0408    0.9991 H   0  0  0  0  0  0  0  0  0  0  0  0
    1.1199   -0.6295    2.6468 C   0  0  0  0  0  0  0  0  0  0  0  0
    0.7228    0.2991    3.3268 O   0  0  0  0  0  0  0  0  0  0  0  0
    1.2035   -1.8347    3.2786 N   0  0  0  0  0  0  0  0  0  0  0  0
    0.7879   -1.8368    4.2047 H   0  0  0  0  0  0  0  0  0  0  0  0
    1.0383   -2.6421    2.6806 H   0  0  0  0  0  0  0  0  0  0  0  0
    0.5280    0.7385   -0.9665 C   0  0  0  0  0  0  0  0  0  0  0  0
   -0.2576    1.4645   -1.5623 O   0  0  0  0  0  0  0  0  0  0  0  0
    1.6682    0.3068   -1.6224 N   0  0  0  0  0  0  0  0  0  0  0  0
    2.2523   -0.3737   -1.1466 H   0  0  0  0  0  0  0  0  0  0  0  0
    1.9865    0.6664   -2.9992 C   0  0  0  0  0  0  0  0  0  0  0  0
    2.0531    1.7543   -3.1059 H   0  0  0  0  0  0  0  0  0  0  0  0
    2.9481    0.2328   -3.2904 H   0  0  0  0  0  0  0  0  0  0  0  0
    1.2163    0.2916   -3.6814 H   0  0  0  0  0  0  0  0  0  0  0  0
  1  2  1  0  0  0  0
  2  3  1  0  0  0  0
  2  4  1  0  0  0  0
  2  5  1  0  0  0  0
  5  6  2  0  0  0  0
  5  7  1  0  0  0  0
  7  8  1  0  0  0  0
  7  9  1  0  0  0  0
  9 10  1  0  0  0  0
  9 11  1  0  0  0  0
  9 19  1  0  0  0  0
 11 12  1  0  0  0  0
 11 13  1  0  0  0  0
 11 14  1  0  0  0  0
 14 15  2  0  0  0  0
 14 16  1  0  0  0  0
 16 17  1  0  0  0  0
 16 18  1  0  0  0  0
 19 20  2  0  0  0  0
 19 21  1  0  0  0  0
 21 22  1  0  0  0  0
 21 23  1  0  0  0  0
 23 24  1  0  0  0  0
 23 25  1  0  0  0  0
 23 26  1  0  0  0  0
M  END
$$$$

  -OEChem-01062216063D

 26 25  0     1  0  0  0  0  0999 V2000
   -3.1169   -3.1424    0.9128 H   0  0  0  0  0  0  0  0  0  0  0  0
   -2.9771   -2.1022    0.6052 C   0  0  0  0  0  0  0  0  0  0  0  0
   -3.5819   -1.4614    1.2516 H   0  0  0  0  0  0  0  0  0  0  0  0
   -3.3180   -1.9917   -0.4272 H   0  0  0  0  0  0  0  0  0  0  0  0
   -1.5142   -1.7133    0.7126 C   0  0  0  0  0  0  0  0  0  0  0  0
   -0.7057   -2.5647    1.0514 O   0  0  0  0  0  0  0  0  0  0  0  0
   -1.1534   -0.4178    0.3813 N   0  0  0  0  0  0  0  0  0  0  0  0
   -1.9216    0.1619    0.0480 H   0  0  0  0  0  0  0  0  0  0  0  0
    0.1585    0.2686    0.4434 C   0  0  1  0  0  0  0  0  0  0  0  0
    0.0136    1.1906    1.0188 H   0  0  0  0  0  0  0  0  0  0  0  0
    1.3163   -0.4975    1.1265 C   0  0  0  0  0  0  0  0  0  0  0  0
    1.4574   -1.4823    0.6769 H   0  0  0  0  0  0  0  0  0  0  0  0
    2.2472    0.0571    0.9798 H   0  0  0  0  0  0  0  0  0  0  0  0
    1.1165   -0.6210    2.6326 C   0  0  0  0  0  0  0  0  0  0  0  0
    0.7115    0.3036    3.3133 O   0  0  0  0  0  0  0  0  0  0  0  0
    1.1917   -1.8284    3.2610 N   0  0  0  0  0  0  0  0  0  0  0  0
    0.7697   -1.8324    4.1841 H   0  0  0  0  0  0  0  0  0  0  0  0
    1.0311   -2.6341    2.6595 H   0  0  0  0  0  0  0  0  0  0  0  0
    0.5365    0.7314   -0.9785 C   0  0  0  0  0  0  0  0  0  0  0  0
   -0.1064    1.6353   -1.4950 O   0  0  0  0  0  0  0  0  0  0  0  0
    1.5013    0.0791   -1.7265 N   0  0  0  0  0  0  0  0  0  0  0  0
    1.9279   -0.7472   -1.3179 H   0  0  0  0  0  0  0  0  0  0  0  0
    1.7976    0.4107   -3.1151 C   0  0  0  0  0  0  0  0  0  0  0  0
    2.1089    1.4572   -3.2011 H   0  0  0  0  0  0  0  0  0  0  0  0
    2.6082   -0.2214   -3.4902 H   0  0  0  0  0  0  0  0  0  0  0  0
    0.9151    0.2526   -3.7436 H   0  0  0  0  0  0  0  0  0  0  0  0
  1  2  1  0  0  0  0
  2  3  1  0  0  0  0
  2  4  1  0  0  0  0
  2  5  1  0  0  0  0
  5  6  2  0  0  0  0
  5  7  1  0  0  0  0
  7  8  1  0  0  0  0
  7  9  1  0  0  0  0
  9 10  1  0  0  0  0
  9 11  1  0  0  0  0
  9 19  1  0  0  0  0
 11 12  1  0  0  0  0
 11 13  1  0  0  0  0
 11 14  1  0  0  0  0
 14 15  2  0  0  0  0
 14 16  1  0  0  0  0
 16 17  1  0  0  0  0
 16 18  1  0  0  0  0
 19 20  2  0  0  0  0
 19 21  1  0  0  0  0
 21 22  1  0  0  0  0
 21 23  1  0  0  0  0
 23 24  1  0  0  0  0
 23 25  1  0  0  0  0
 23 26  1  0  0  0  0
M  END
$$$$

  -OEChem-01062216063D

 26 25  0     1  0  0  0  0  0999 V2000
   -3.1100   -3.1460    0.9671 H   0  0  0  0  0  0  0  0  0  0  0  0
   -2.9820   -2.1070    0.6501 C   0  0  0  0  0  0  0  0  0  0  0  0
   -3.5607   -1.4634    1.3175 H   0  0  0  0  0  0  0  0  0  0  0  0
   -3.3628   -2.0005   -0.3686 H   0  0  0  0  0  0  0  0  0  0  0  0
   -1.5156   -1.7191    0.6992 C   0  0  0  0  0  0  0  0  0  0  0  0
   -0.6928   -2.5730    0.9938 O   0  0  0  0  0  0  0  0  0  0  0  0
   -1.1655   -0.4236    0.3568 N   0  0  0  0  0  0  0  0  0  0  0  0
   -1.9495    0.1659    0.0842 H   0  0  0  0  0  0  0  0  0  0  0  0
    0.1428    0.2696    0.4226 C   0  0  1  0  0  0  0  0  0  0  0  0
   -0.0079    1.1924    0.9955 H   0  0  0  0  0  0  0  0  0  0  0  0
    1.3073   -0.4866    1.1039 C   0  0  0  0  0  0  0  0  0  0  0  0
    1.4600   -1.4692    0.6537 H   0  0  0  0  0  0  0  0  0  0  0  0
    2.2325    0.0772    0.9543 H   0  0  0  0  0  0  0  0  0  0  0  0
    1.1082   -0.6141    2.6094 C   0  0  0  0  0  0  0  0  0  0  0  0
    0.6944    0.3050    3.2920 O   0  0  0  0  0  0  0  0  0  0  0  0
    1.1888   -1.8232    3.2341 N   0  0  0  0  0  0  0  0  0  0  0  0
    0.7655   -1.8348    4.1566 H   0  0  0  0  0  0  0  0  0  0  0  0
    1.0453   -2.6304    2.6306 H   0  0  0  0  0  0  0  0  0  0  0  0
    0.5341    0.7224   -0.9968 C   0  0  0  0  0  0  0  0  0  0  0  0
    0.1008    1.7813   -1.4287 O   0  0  0  0  0  0  0  0  0  0  0  0
    1.2710   -0.1002   -1.8302 N   0  0  0  0  0  0  0  0  0  0  0  0
    1.4951   -1.0290   -1.4841 H   0  0  0  0  0  0  0  0  0  0  0  0
    1.5615    0.2237   -3.2215 C   0  0  0  0  0  0  0  0  0  0  0  0
    2.1101    1.1692   -3.2883 H   0  0  0  0  0  0  0  0  0  0  0  0
    2.1743   -0.5623   -3.6730 H   0  0  0  0  0  0  0  0  0  0  0  0
    0.6334    0.3132   -3.7959 H   0  0  0  0  0  0  0  0  0  0  0  0
  1  2  1  0  0  0  0
  2  3  1  0  0  0  0
  2  4  1  0  0  0  0
  2  5  1  0  0  0  0
  5  6  2  0  0  0  0
  5  7  1  0  0  0  0
  7  8  1  0  0  0  0
  7  9  1  0  0  0  0
  9 10  1  0  0  0  0
  9 11  1  0  0  0  0
  9 19  1  0  0  0  0
 11 12  1  0  0  0  0
 11 13  1  0  0  0  0
 11 14  1  0  0  0  0
 14 15  2  0  0  0  0
 14 16  1  0  0  0  0
 16 17  1  0  0  0  0
 16 18  1  0  0  0  0
 19 20  2  0  0  0  0
 19 21  1  0  0  0  0
 21 22  1  0  0  0  0
 21 23  1  0  0  0  0
 23 24  1  0  0  0  0
 23 25  1  0  0  0  0
 23 26  1  0  0  0  0
M  END
$$$$

  -OEChem-01062216063D

 26 25  0     1  0  0  0  0  0999 V2000
   -3.1068   -3.1487    1.0326 H   0  0  0  0  0  0  0  0  0  0  0  0
   -2.9916   -2.1125    0.7016 C   0  0  0  0  0  0  0  0  0  0  0  0
   -3.5443   -1.4633    1.3854 H   0  0  0  0  0  0  0  0  0  0  0  0
   -3.4122   -2.0151   -0.3023 H   0  0  0  0  0  0  0  0  0  0  0  0
   -1.5247   -1.7238    0.6900 C   0  0  0  0  0  0  0  0  0  0  0  0
   -0.6887   -2.5795    0.9366 O   0  0  0  0  0  0  0  0  0  0  0  0
   -1.1873   -0.4282    0.3357 N   0  0  0  0  0  0  0  0  0  0  0  0
   -1.9843    0.1666    0.1188 H   0  0  0  0  0  0  0  0  0  0  0  0
    0.1174    0.2735    0.4024 C   0  0  1  0  0  0  0  0  0  0  0  0
   -0.0373    1.1965    0.9741 H   0  0  0  0  0  0  0  0  0  0  0  0
    1.2912   -0.4749    1.0750 C   0  0  0  0  0  0  0  0  0  0  0  0
    1.4551   -1.4524    0.6177 H   0  0  0  0  0  0  0  0  0  0  0  0
    2.2096    0.0997    0.9245 H   0  0  0  0  0  0  0  0  0  0  0  0
    1.0980   -0.6119    2.5801 C   0  0  0  0  0  0  0  0  0  0  0  0
    0.6773    0.2994    3.2690 O   0  0  0  0  0  0  0  0  0  0  0  0
    1.1954   -1.8226    3.1997 N   0  0  0  0  0  0  0  0  0  0  0  0
    0.7786   -1.8454    4.1250 H   0  0  0  0  0  0  0  0  0  0  0  0
    1.0723   -2.6319    2.5948 H   0  0  0  0  0  0  0  0  0  0  0  0
    0.5171    0.7165   -1.0160 C   0  0  0  0  0  0  0  0  0  0  0  0
    0.3502    1.8767   -1.3626 O   0  0  0  0  0  0  0  0  0  0  0  0
    0.9852   -0.2100   -1.9296 N   0  0  0  0  0  0  0  0  0  0  0  0
    1.0022   -1.1825   -1.6339 H   0  0  0  0  0  0  0  0  0  0  0  0
    1.2934    0.1157   -3.3163 C   0  0  0  0  0  0  0  0  0  0  0  0
    2.0632    0.8933   -3.3650 H   0  0  0  0  0  0  0  0  0  0  0  0
    1.6654   -0.7707   -3.8392 H   0  0  0  0  0  0  0  0  0  0  0  0
    0.3975    0.4738   -3.8344 H   0  0  0  0  0  0  0  0  0  0  0  0
  1  2  1  0  0  0  0
  2  3  1  0  0  0  0
  2  4  1  0  0  0  0
  2  5  1  0  0  0  0
  5  6  2  0  0  0  0
  5  7  1  0  0  0  0
  7  8  1  0  0  0  0
  7  9  1  0  0  0  0
  9 10  1  0  0  0  0
  9 11  1  0  0  0  0
  9 19  1  0  0  0  0
 11 12  1  0  0  0  0
 11 13  1  0  0  0  0
 11 14  1  0  0  0  0
 14 15  2  0  0  0  0
 14 16  1  0  0  0  0
 16 17  1  0  0  0  0
 16 18  1  0  0  0  0
 19 20  2  0  0  0  0
 19 21  1  0  0  0  0
 21 22  1  0  0  0  0
 21 23  1  0  0  0  0
 23 24  1  0  0  0  0
 23 25  1  0  0  0  0
 23 26  1  0  0  0  0
M  END
$$$$

  -OEChem-01062216063D

 26 25  0     1  0  0  0  0  0999 V2000
   -3.1062   -3.1520    1.0922 H   0  0  0  0  0  0  0  0  0  0  0  0
   -3.0041   -2.1178    0.7511 C   0  0  0  0  0  0  0  0  0  0  0  0
   -3.5356   -1.4655    1.4484 H   0  0  0  0  0  0  0  0  0  0  0  0
   -3.4574   -2.0276   -0.2391 H   0  0  0  0  0  0  0  0  0  0  0  0
   -1.5392   -1.7263    0.6899 C   0  0  0  0  0  0  0  0  0  0  0  0
   -0.6932   -2.5826    0.8951 O   0  0  0  0  0  0  0  0  0  0  0  0
   -1.2151   -0.4301    0.3255 N   0  0  0  0  0  0  0  0  0  0  0  0
   -2.0221    0.1654    0.1530 H   0  0  0  0  0  0  0  0  0  0  0  0
    0.0858    0.2816    0.3876 C   0  0  1  0  0  0  0  0  0  0  0  0
   -0.0706    1.2039    0.9604 H   0  0  0  0  0  0  0  0  0  0  0  0
    1.2698   -0.4619    1.0450 C   0  0  0  0  0  0  0  0  0  0  0  0
    1.4393   -1.4333    0.5763 H   0  0  0  0  0  0  0  0  0  0  0  0
    2.1818    0.1223    0.8926 H   0  0  0  0  0  0  0  0  0  0  0  0
    1.0889   -0.6119    2.5501 C   0  0  0  0  0  0  0  0  0  0  0  0
    0.6658    0.2900    3.2501 O   0  0  0  0  0  0  0  0  0  0  0  0
    1.2104   -1.8258    3.1598 N   0  0  0  0  0  0  0  0  0  0  0  0
    0.8054   -1.8646    4.0897 H   0  0  0  0  0  0  0  0  0  0  0  0
    1.1028   -2.6339    2.5506 H   0  0  0  0  0  0  0  0  0  0  0  0
    0.4866    0.7191   -1.0314 C   0  0  0  0  0  0  0  0  0  0  0  0
    0.6187    1.9044   -1.2978 O   0  0  0  0  0  0  0  0  0  0  0  0
    0.6621   -0.2320   -2.0191 N   0  0  0  0  0  0  0  0  0  0  0  0
    0.5015   -1.2023   -1.7599 H   0  0  0  0  0  0  0  0  0  0  0  0
    1.0073    0.0920   -3.3973 C   0  0  0  0  0  0  0  0  0  0  0  0
    1.9562    0.6374   -3.4361 H   0  0  0  0  0  0  0  0  0  0  0  0
    1.1113   -0.8243   -3.9864 H   0  0  0  0  0  0  0  0  0  0  0  0
    0.2266    0.7104   -3.8526 H   0  0  0  0  0  0  0  0  0  0  0  0
  1  2  1  0  0  0  0
  2  3  1  0  0  0  0
  2  4  1  0  0  0  0
  2  5  1  0  0  0  0
  5  6  2  0  0  0  0
  5  7  1  0  0  0  0
  7  8  1  0  0  0  0
  7  9  1  0  0  0  0
  9 10  1  0  0  0  0
  9 11  1  0  0  0  0
  9 19  1  0  0  0  0
 11 12  1  0  0  0  0
 11 13  1  0  0  0  0
 11 14  1  0  0  0  0
 14 15  2  0  0  0  0
 14 16  1  0  0  0  0
 16 17  1  0  0  0  0
 16 18  1  0  0  0  0
 19 20  2  0  0  0  0
 19 21  1  0  0  0  0
 21 22  1  0  0  0  0
 21 23  1  0  0  0  0
 23 24  1  0  0  0  0
 23 25  1  0  0  0  0
 23 26  1  0  0  0  0
M  END
$$$$

  -OEChem-01062216063D

 26 25  0     1  0  0  0  0  0999 V2000
   -3.1056   -3.1694    1.1403 H   0  0  0  0  0  0  0  0  0  0  0  0
   -3.0169   -2.1293    0.8131 C   0  0  0  0  0  0  0  0  0  0  0  0
   -3.5213   -1.4896    1.5415 H   0  0  0  0  0  0  0  0  0  0  0  0
   -3.5086   -2.0224   -0.1569 H   0  0  0  0  0  0  0  0  0  0  0  0
   -1.5555   -1.7359    0.7022 C   0  0  0  0  0  0  0  0  0  0  0  0
   -0.7024   -2.5906    0.8803 O   0  0  0  0  0  0  0  0  0  0  0  0
   -1.2461   -0.4386    0.3278 N   0  0  0  0  0  0  0  0  0  0  0  0
   -2.0615    0.1531    0.1850 H   0  0  0  0  0  0  0  0  0  0  0  0
    0.0508    0.2854    0.3738 C   0  0  1  0  0  0  0  0  0  0  0  0
   -0.1054    1.2064    0.9486 H   0  0  0  0  0  0  0  0  0  0  0  0
    1.2462   -0.4528    1.0144 C   0  0  0  0  0  0  0  0  0  0  0  0
    1.4159   -1.4206    0.5385 H   0  0  0  0  0  0  0  0  0  0  0  0
    2.1531    0.1375    0.8541 H   0  0  0  0  0  0  0  0  0  0  0  0
    1.0848   -0.6087    2.5206 C   0  0  0  0  0  0  0  0  0  0  0  0
    0.6650    0.2879    3.2296 O   0  0  0  0  0  0  0  0  0  0  0  0
    1.2166   -1.8259    3.1214 N   0  0  0  0  0  0  0  0  0  0  0  0
    0.8207   -1.8731    4.0547 H   0  0  0  0  0  0  0  0  0  0  0  0
    1.1084   -2.6300    2.5071 H   0  0  0  0  0  0  0  0  0  0  0  0
    0.4503    0.7275   -1.0456 C   0  0  0  0  0  0  0  0  0  0  0  0
    0.8689    1.8585   -1.2433 O   0  0  0  0  0  0  0  0  0  0  0  0
    0.3361   -0.1556   -2.1033 N   0  0  0  0  0  0  0  0  0  0  0  0
    0.0327   -1.1006   -1.8823 H   0  0  0  0  0  0  0  0  0  0  0  0
    0.7321    0.1676   -3.4682 C   0  0  0  0  0  0  0  0  0  0  0  0
    1.7978    0.4163   -3.5090 H   0  0  0  0  0  0  0  0  0  0  0  0
    0.5503   -0.6864   -4.1277 H   0  0  0  0  0  0  0  0  0  0  0  0
    0.1568    1.0213   -3.8416 H   0  0  0  0  0  0  0  0  0  0  0  0
  1  2  1  0  0  0  0
  2  3  1  0  0  0  0
  2  4  1  0  0  0  0
  2  5  1  0  0  0  0
  5  6  2  0  0  0  0
  5  7  1  0  0  0  0
  7  8  1  0  0  0  0
  7  9  1  0  0  0  0
  9 10  1  0  0  0  0
  9 11  1  0  0  0  0
  9 19  1  0  0  0  0
 11 12  1  0  0  0  0
 11 13  1  0  0  0  0
 11 14  1  0  0  0  0
 14 15  2  0  0  0  0
 14 16  1  0  0  0  0
 16 17  1  0  0  0  0
 16 18  1  0  0  0  0
 19 20  2  0  0  0  0
 19 21  1  0  0  0  0
 21 22  1  0  0  0  0
 21 23  1  0  0  0  0
 23 24  1  0  0  0  0
 23 25  1  0  0  0  0
 23 26  1  0  0  0  0
M  END
$$$$

  -OEChem-01062216063D

 26 25  0     1  0  0  0  0  0999 V2000
   -3.1086   -3.1727    1.1806 H   0  0  0  0  0  0  0  0  0  0  0  0
   -3.0235   -2.1372    0.8386 C   0  0  0  0  0  0  0  0  0  0  0  0
   -3.5239   -1.4881    1.5616 H   0  0  0  0  0  0  0  0  0  0  0  0
   -3.5214   -2.0449   -0.1297 H   0  0  0  0  0  0  0  0  0  0  0  0
   -1.5633   -1.7435    0.7128 C   0  0  0  0  0  0  0  0  0  0  0  0
   -0.7093   -2.5978    0.8858 O   0  0  0  0  0  0  0  0  0  0  0  0
   -1.2612   -0.4446    0.3360 N   0  0  0  0  0  0  0  0  0  0  0  0
   -2.0810    0.1454    0.2136 H   0  0  0  0  0  0  0  0  0  0  0  0
    0.0341    0.2862    0.3688 C   0  0  1  0  0  0  0  0  0  0  0  0
   -0.1209    1.2051    0.9467 H   0  0  0  0  0  0  0  0  0  0  0  0
    1.2341   -0.4527    1.0005 C   0  0  0  0  0  0  0  0  0  0  0  0
    1.3991   -1.4196    0.5212 H   0  0  0  0  0  0  0  0  0  0  0  0
    2.1415    0.1355    0.8346 H   0  0  0  0  0  0  0  0  0  0  0  0
    1.0843   -0.6092    2.5077 C   0  0  0  0  0  0  0  0  0  0  0  0
    0.6700    0.2871    3.2206 O   0  0  0  0  0  0  0  0  0  0  0  0
    1.2263   -1.8251    3.1086 N   0  0  0  0  0  0  0  0  0  0  0  0
    0.8400   -1.8736    4.0458 H   0  0  0  0  0  0  0  0  0  0  0  0
    1.1188   -2.6308    2.4961 H   0  0  0  0  0  0  0  0  0  0  0  0
    0.4325    0.7388   -1.0496 C   0  0  0  0  0  0  0  0  0  0  0  0
    1.0934    1.7551   -1.2052 O   0  0  0  0  0  0  0  0  0  0  0  0
    0.0462    0.0023   -2.1544 N   0  0  0  0  0  0  0  0  0  0  0  0
   -0.4115   -0.8866   -1.9714 H   0  0  0  0  0  0  0  0  0  0  0  0
    0.4446    0.3305   -3.5177 C   0  0  0  0  0  0  0  0  0  0  0  0
    1.5349    0.3034   -3.6161 H   0  0  0  0  0  0  0  0  0  0  0  0
    0.0151   -0.3893   -4.2209 H   0  0  0  0  0  0  0  0  0  0  0  0
    0.0912    1.3308   -3.7895 H   0  0  0  0  0  0  0  0  0  0  0  0
  1  2  1  0  0  0  0
  2  3  1  0  0  0  0
  2  4  1  0  0  0  0
  2  5  1  0  0  0  0
  5  6  2  0  0  0  0
  5  7  1  0  0  0  0
  7  8  1  0  0  0  0
  7  9  1  0  0  0  0
  9 10  1  0  0  0  0
  9 11  1  0  0  0  0
  9 19  1  0  0  0  0
 11 12  1  0  0  0  0
 11 13  1  0  0  0  0
 11 14  1  0  0  0  0
 14 15  2  0  0  0  0
 14 16  1  0  0  0  0
 16 17  1  0  0  0  0
 16 18  1  0  0  0  0
 19 20  2  0  0  0  0
 19 21  1  0  0  0  0
 21 22  1  0  0  0  0
 21 23  1  0  0  0  0
 23 24  1  0  0  0  0
 23 25  1  0  0  0  0
 23 26  1  0  0  0  0
M  END
$$$$

  -OEChem-01062216063D

 26 25  0     1  0  0  0  0  0999 V2000
   -3.0954   -3.1864    1.1882 H   0  0  0  0  0  0  0  0  0  0  0  0
   -3.0161   -2.1471    0.8565 C   0  0  0  0  0  0  0  0  0  0  0  0
   -3.5055   -1.5067    1.5945 H   0  0  0  0  0  0  0  0  0  0  0  0
   -3.5291   -2.0443   -0.1027 H   0  0  0  0  0  0  0  0  0  0  0  0
   -1.5579   -1.7516    0.7124 C   0  0  0  0  0  0  0  0  0  0  0  0
   -0.7030   -2.6066    0.8761 O   0  0  0  0  0  0  0  0  0  0  0  0
   -1.2631   -0.4495    0.3386 N   0  0  0  0  0  0  0  0  0  0  0  0
   -2.0861    0.1414    0.2461 H   0  0  0  0  0  0  0  0  0  0  0  0
    0.0315    0.2861    0.3641 C   0  0  1  0  0  0  0  0  0  0  0  0
   -0.1230    1.2031    0.9444 H   0  0  0  0  0  0  0  0  0  0  0  0
    1.2316   -0.4554    0.9963 C   0  0  0  0  0  0  0  0  0  0  0  0
    1.3961   -1.4221    0.5165 H   0  0  0  0  0  0  0  0  0  0  0  0
    2.1412    0.1296    0.8330 H   0  0  0  0  0  0  0  0  0  0  0  0
    1.0811   -0.6079    2.5037 C   0  0  0  0  0  0  0  0  0  0  0  0
    0.6688    0.2916    3.2142 O   0  0  0  0  0  0  0  0  0  0  0  0
    1.2148   -1.8242    3.1060 N   0  0  0  0  0  0  0  0  0  0  0  0
    0.8249   -1.8713    4.0415 H   0  0  0  0  0  0  0  0  0  0  0  0
    1.1092   -2.6301    2.4933 H   0  0  0  0  0  0  0  0  0  0  0  0
    0.4266    0.7516   -1.0544 C   0  0  0  0  0  0  0  0  0  0  0  0
    1.2810    1.6137   -1.2015 O   0  0  0  0  0  0  0  0  0  0  0  0
   -0.1967    0.2241   -2.1709 N   0  0  0  0  0  0  0  0  0  0  0  0
   -0.8039   -0.5746   -2.0129 H   0  0  0  0  0  0  0  0  0  0  0  0
    0.1836    0.5658   -3.5362 C   0  0  0  0  0  0  0  0  0  0  0  0
    1.2222    0.2769   -3.7286 H   0  0  0  0  0  0  0  0  0  0  0  0
   -0.4602    0.0435   -4.2505 H   0  0  0  0  0  0  0  0  0  0  0  0
    0.0810    1.6431   -3.7041 H   0  0  0  0  0  0  0  0  0  0  0  0
  1  2  1  0  0  0  0
  2  3  1  0  0  0  0
  2  4  1  0  0  0  0
  2  5  1  0  0  0  0
  5  6  2  0  0  0  0
  5  7  1  0  0  0  0
  7  8  1  0  0  0  0
  7  9  1  0  0  0  0
  9 10  1  0  0  0  0
  9 11  1  0  0  0  0
  9 19  1  0  0  0  0
 11 12  1  0  0  0  0
 11 13  1  0  0  0  0
 11 14  1  0  0  0  0
 14 15  2  0  0  0  0
 14 16  1  0  0  0  0
 16 17  1  0  0  0  0
 16 18  1  0  0  0  0
 19 20  2  0  0  0  0
 19 21  1  0  0  0  0
 21 22  1  0  0  0  0
 21 23  1  0  0  0  0
 23 24  1  0  0  0  0
 23 25  1  0  0  0  0
 23 26  1  0  0  0  0
M  END
$$$$

  -OEChem-01062216063D

 26 25  0     1  0  0  0  0  0999 V2000
   -3.0845   -3.1871    1.1901 H   0  0  0  0  0  0  0  0  0  0  0  0
   -3.0041   -2.1500    0.8512 C   0  0  0  0  0  0  0  0  0  0  0  0
   -3.4903   -1.5041    1.5867 H   0  0  0  0  0  0  0  0  0  0  0  0
   -3.5192   -2.0528   -0.1075 H   0  0  0  0  0  0  0  0  0  0  0  0
   -1.5456   -1.7581    0.7006 C   0  0  0  0  0  0  0  0  0  0  0  0
   -0.6938   -2.6156    0.8661 O   0  0  0  0  0  0  0  0  0  0  0  0
   -1.2516   -0.4532    0.3339 N   0  0  0  0  0  0  0  0  0  0  0  0
   -2.0746    0.1414    0.2725 H   0  0  0  0  0  0  0  0  0  0  0  0
    0.0444    0.2819    0.3592 C   0  0  1  0  0  0  0  0  0  0  0  0
   -0.1096    1.1984    0.9400 H   0  0  0  0  0  0  0  0  0  0  0  0
    1.2382   -0.4649    1.0017 C   0  0  0  0  0  0  0  0  0  0  0  0
    1.4024   -1.4337    0.5261 H   0  0  0  0  0  0  0  0  0  0  0  0
    2.1538    0.1127    0.8470 H   0  0  0  0  0  0  0  0  0  0  0  0
    1.0760   -0.6092    2.5086 C   0  0  0  0  0  0  0  0  0  0  0  0
    0.6640    0.2962    3.2122 O   0  0  0  0  0  0  0  0  0  0  0  0
    1.1997   -1.8235    3.1174 N   0  0  0  0  0  0  0  0  0  0  0  0
    0.8051   -1.8659    4.0513 H   0  0  0  0  0  0  0  0  0  0  0  0
    1.0969   -2.6316    2.5069 H   0  0  0  0  0  0  0  0  0  0  0  0
    0.4352    0.7571   -1.0605 C   0  0  0  0  0  0  0  0  0  0  0  0
    1.4358    1.4389   -1.2328 O   0  0  0  0  0  0  0  0  0  0  0  0
   -0.3775    0.4839   -2.1469 N   0  0  0  0  0  0  0  0  0  0  0  0
   -1.1198   -0.1915   -1.9941 H   0  0  0  0  0  0  0  0  0  0  0  0
   -0.0392    0.8609   -3.5145 C   0  0  0  0  0  0  0  0  0  0  0  0
    0.8885    0.3713   -3.8286 H   0  0  0  0  0  0  0  0  0  0  0  0
   -0.8389    0.5614   -4.1985 H   0  0  0  0  0  0  0  0  0  0  0  0
    0.0913    1.9455   -3.5924 H   0  0  0  0  0  0  0  0  0  0  0  0
  1  2  1  0  0  0  0
  2  3  1  0  0  0  0
  2  4  1  0  0  0  0
  2  5  1  0  0  0  0
  5  6  2  0  0  0  0
  5  7  1  0  0  0  0
  7  8  1  0  0  0  0
  7  9  1  0  0  0  0
  9 10  1  0  0  0  0
  9 11  1  0  0  0  0
  9 19  1  0  0  0  0
 11 12  1  0  0  0  0
 11 13  1  0  0  0  0
 11 14  1  0  0  0  0
 14 15  2  0  0  0  0
 14 16  1  0  0  0  0
 16 17  1  0  0  0  0
 16 18  1  0  0  0  0
 19 20  2  0  0  0  0
 19 21  1  0  0  0  0
 21 22  1  0  0  0  0
 21 23  1  0  0  0  0
 23 24  1  0  0  0  0
 23 25  1  0  0  0  0
 23 26  1  0  0  0  0
M  END
$$$$

  -OEChem-01062216063D

 26 25  0     1  0  0  0  0  0999 V2000
   -3.0748   -3.1921    1.1580 H   0  0  0  0  0  0  0  0  0  0  0  0
   -2.9925   -2.1510    0.8322 C   0  0  0  0  0  0  0  0  0  0  0  0
   -3.4791   -1.5134    1.5746 H   0  0  0  0  0  0  0  0  0  0  0  0
   -3.5058   -2.0418   -0.1260 H   0  0  0  0  0  0  0  0  0  0  0  0
   -1.5329   -1.7601    0.6882 C   0  0  0  0  0  0  0  0  0  0  0  0
   -0.6837   -2.6188    0.8598 O   0  0  0  0  0  0  0  0  0  0  0  0
   -1.2378   -0.4529    0.3291 N   0  0  0  0  0  0  0  0  0  0  0  0
   -2.0601    0.1440    0.2922 H   0  0  0  0  0  0  0  0  0  0  0  0
    0.0602    0.2791    0.3555 C   0  0  1  0  0  0  0  0  0  0  0  0
   -0.0933    1.1952    0.9367 H   0  0  0  0  0  0  0  0  0  0  0  0
    1.2480   -0.4720    1.0085 C   0  0  0  0  0  0  0  0  0  0  0  0
    1.4121   -1.4426    0.5365 H   0  0  0  0  0  0  0  0  0  0  0  0
    2.1685    0.0995    0.8610 H   0  0  0  0  0  0  0  0  0  0  0  0
    1.0770   -0.6084    2.5149 C   0  0  0  0  0  0  0  0  0  0  0  0
    0.6660    0.3030    3.2113 O   0  0  0  0  0  0  0  0  0  0  0  0
    1.1864   -1.8213    3.1291 N   0  0  0  0  0  0  0  0  0  0  0  0
    0.7817   -1.8589    4.0588 H   0  0  0  0  0  0  0  0  0  0  0  0
    1.0867   -2.6308    2.5200 H   0  0  0  0  0  0  0  0  0  0  0  0
    0.4439    0.7613   -1.0668 C   0  0  0  0  0  0  0  0  0  0  0  0
    1.5517    1.2260   -1.2980 O   0  0  0  0  0  0  0  0  0  0  0  0
   -0.4959    0.7737   -2.0834 N   0  0  0  0  0  0  0  0  0  0  0  0
   -1.3529    0.2592   -1.9107 H   0  0  0  0  0  0  0  0  0  0  0  0
   -0.1894    1.1851   -3.4489 C   0  0  0  0  0  0  0  0  0  0  0  0
    0.5736    0.5313   -3.8841 H   0  0  0  0  0  0  0  0  0  0  0  0
   -1.0879    1.1323   -4.0711 H   0  0  0  0  0  0  0  0  0  0  0  0
    0.1793    2.2162   -3.4654 H   0  0  0  0  0  0  0  0  0  0  0  0
  1  2  1  0  0  0  0
  2  3  1  0  0  0  0
  2  4  1  0  0  0  0
  2  5  1  0  0  0  0
  5  6  2  0  0  0  0
  5  7  1  0  0  0  0
  7  8  1  0  0  0  0
  7  9  1  0  0  0  0
  9 10  1  0  0  0  0
  9 11  1  0  0  0  0
  9 19  1  0  0  0  0
 11 12  1  0  0  0  0
 11 13  1  0  0  0  0
 11 14  1  0  0  0  0
 14 15  2  0  0  0  0
 14 16  1  0  0  0  0
 16 17  1  0  0  0  0
 16 18  1  0  0  0  0
 19 20  2  0  0  0  0
 19 21  1  0  0  0  0
 21 22  1  0  0  0  0
 21 23  1  0  0  0  0
 23 24  1  0  0  0  0
 23 25  1  0  0  0  0
 23 26  1  0  0  0  0
M  END
$$$$

  -OEChem-01062216063D

 26 25  0     1  0  0  0  0  0999 V2000
   -3.0803   -3.1869    1.1376 H   0  0  0  0  0  0  0  0  0  0  0  0
   -2.9903   -2.1530    0.7918 C   0  0  0  0  0  0  0  0  0  0  0  0
   -3.4994   -1.5012    1.5059 H   0  0  0  0  0  0  0  0  0  0  0  0
   -3.4763   -2.0662   -0.1830 H   0  0  0  0  0  0  0  0  0  0  0  0
   -1.5277   -1.7618    0.6806 C   0  0  0  0  0  0  0  0  0  0  0  0
   -0.6843   -2.6191    0.8844 O   0  0  0  0  0  0  0  0  0  0  0  0
   -1.2251   -0.4544    0.3267 N   0  0  0  0  0  0  0  0  0  0  0  0
   -2.0458    0.1426    0.2807 H   0  0  0  0  0  0  0  0  0  0  0  0
    0.0780    0.2683    0.3510 C   0  0  1  0  0  0  0  0  0  0  0  0
   -0.0709    1.1862    0.9301 H   0  0  0  0  0  0  0  0  0  0  0  0
    1.2593   -0.4845    1.0155 C   0  0  0  0  0  0  0  0  0  0  0  0
    1.4195   -1.4595    0.5513 H   0  0  0  0  0  0  0  0  0  0  0  0
    2.1839    0.0802    0.8679 H   0  0  0  0  0  0  0  0  0  0  0  0
    1.0834   -0.6057    2.5224 C   0  0  0  0  0  0  0  0  0  0  0  0
    0.6760    0.3163    3.2076 O   0  0  0  0  0  0  0  0  0  0  0  0
    1.1937   -1.8110    3.1510 N   0  0  0  0  0  0  0  0  0  0  0  0
    0.7896   -1.8380    4.0812 H   0  0  0  0  0  0  0  0  0  0  0  0
    1.0945   -2.6276    2.5512 H   0  0  0  0  0  0  0  0  0  0  0  0
    0.4529    0.7526   -1.0745 C   0  0  0  0  0  0  0  0  0  0  0  0
    1.6162    0.9463   -1.4012 O   0  0  0  0  0  0  0  0  0  0  0  0
   -0.5379    1.0688   -1.9891 N   0  0  0  0  0  0  0  0  0  0  0  0
   -1.4872    0.8073   -1.7493 H   0  0  0  0  0  0  0  0  0  0  0  0
   -0.2581    1.5264   -3.3458 C   0  0  0  0  0  0  0  0  0  0  0  0
    0.2943    0.7616   -3.9019 H   0  0  0  0  0  0  0  0  0  0  0  0
   -1.1925    1.7342   -3.8760 H   0  0  0  0  0  0  0  0  0  0  0  0
    0.3371    2.4456   -3.3252 H   0  0  0  0  0  0  0  0  0  0  0  0
  1  2  1  0  0  0  0
  2  3  1  0  0  0  0
  2  4  1  0  0  0  0
  2  5  1  0  0  0  0
  5  6  2  0  0  0  0
  5  7  1  0  0  0  0
  7  8  1  0  0  0  0
  7  9  1  0  0  0  0
  9 10  1  0  0  0  0
  9 11  1  0  0  0  0
  9 19  1  0  0  0  0
 11 12  1  0  0  0  0
 11 13  1  0  0  0  0
 11 14  1  0  0  0  0
 14 15  2  0  0  0  0
 14 16  1  0  0  0  0
 16 17  1  0  0  0  0
 16 18  1  0  0  0  0
 19 20  2  0  0  0  0
 19 21  1  0  0  0  0
 21 22  1  0  0  0  0
 21 23  1  0  0  0  0
 23 24  1  0  0  0  0
 23 25  1  0  0  0  0
 23 26  1  0  0  0  0
M  END
$$$$

  -OEChem-01062216063D

 26 25  0     1  0  0  0  0  0999 V2000
   -3.1077   -3.1851    1.0495 H   0  0  0  0  0  0  0  0  0  0  0  0
   -2.9986   -2.1502    0.7120 C   0  0  0  0  0  0  0  0  0  0  0  0
   -3.5606   -1.5010    1.3882 H   0  0  0  0  0  0  0  0  0  0  0  0
   -3.4130   -2.0647   -0.2956 H   0  0  0  0  0  0  0  0  0  0  0  0
   -1.5339   -1.7518    0.7055 C   0  0  0  0  0  0  0  0  0  0  0  0
   -0.7050   -2.5981    0.9973 O   0  0  0  0  0  0  0  0  0  0  0  0
   -1.2146   -0.4493    0.3488 N   0  0  0  0  0  0  0  0  0  0  0  0
   -2.0297    0.1326    0.1846 H   0  0  0  0  0  0  0  0  0  0  0  0
    0.0953    0.2590    0.3595 C   0  0  1  0  0  0  0  0  0  0  0  0
   -0.0398    1.1799    0.9367 H   0  0  0  0  0  0  0  0  0  0  0  0
    1.2764   -0.4942    1.0216 C   0  0  0  0  0  0  0  0  0  0  0  0
    1.4206   -1.4767    0.5673 H   0  0  0  0  0  0  0  0  0  0  0  0
    2.2026    0.0626    0.8543 H   0  0  0  0  0  0  0  0  0  0  0  0
    1.1142   -0.5998    2.5316 C   0  0  0  0  0  0  0  0  0  0  0  0
    0.7193    0.3329    3.2103 O   0  0  0  0  0  0  0  0  0  0  0  0
    1.2301   -1.7973    3.1737 N   0  0  0  0  0  0  0  0  0  0  0  0
    0.8327   -1.8097    4.1070 H   0  0  0  0  0  0  0  0  0  0  0  0
    1.1070   -2.6176    2.5831 H   0  0  0  0  0  0  0  0  0  0  0  0
    0.4506    0.7333   -1.0736 C   0  0  0  0  0  0  0  0  0  0  0  0
    1.5744    0.6025   -1.5402 O   0  0  0  0  0  0  0  0  0  0  0  0
   -0.5120    1.3451   -1.8601 N   0  0  0  0  0  0  0  0  0  0  0  0
   -1.4330    1.4808   -1.4603 H   0  0  0  0  0  0  0  0  0  0  0  0
   -0.2530    1.8340   -3.2100 C   0  0  0  0  0  0  0  0  0  0  0  0
    0.0809    1.0155   -3.8565 H   0  0  0  0  0  0  0  0  0  0  0  0
   -1.1636    2.2627   -3.6393 H   0  0  0  0  0  0  0  0  0  0  0  0
    0.5205    2.6092   -3.1952 H   0  0  0  0  0  0  0  0  0  0  0  0
  1  2  1  0  0  0  0
  2  3  1  0  0  0  0
  2  4  1  0  0  0  0
  2  5  1  0  0  0  0
  5  6  2  0  0  0  0
  5  7  1  0  0  0  0
  7  8  1  0  0  0  0
  7  9  1  0  0  0  0
  9 10  1  0  0  0  0
  9 11  1  0  0  0  0
  9 19  1  0  0  0  0
 11 12  1  0  0  0  0
 11 13  1  0  0  0  0
 11 14  1  0  0  0  0
 14 15  2  0  0  0  0
 14 16  1  0  0  0  0
 16 17  1  0  0  0  0
 16 18  1  0  0  0  0
 19 20  2  0  0  0  0
 19 21  1  0  0  0  0
 21 22  1  0  0  0  0
 21 23  1  0  0  0  0
 23 24  1  0  0  0  0
 23 25  1  0  0  0  0
 23 26  1  0  0  0  0
M  END
$$$$

  -OEChem-01062216063D

 26 25  0     1  0  0  0  0  0999 V2000
   -3.1292   -3.1766    0.9934 H   0  0  0  0  0  0  0  0  0  0  0  0
   -3.0081   -2.1419    0.6598 C   0  0  0  0  0  0  0  0  0  0  0  0
   -3.6078   -1.4940    1.3038 H   0  0  0  0  0  0  0  0  0  0  0  0
   -3.3689   -2.0606   -0.3685 H   0  0  0  0  0  0  0  0  0  0  0  0
   -1.5479   -1.7348    0.7311 C   0  0  0  0  0  0  0  0  0  0  0  0
   -0.7343   -2.5679    1.0957 O   0  0  0  0  0  0  0  0  0  0  0  0
   -1.2161   -0.4375    0.3682 N   0  0  0  0  0  0  0  0  0  0  0  0
   -2.0129    0.1185    0.0737 H   0  0  0  0  0  0  0  0  0  0  0  0
    0.0991    0.2570    0.3673 C   0  0  1  0  0  0  0  0  0  0  0  0
   -0.0236    1.1800    0.9440 H   0  0  0  0  0  0  0  0  0  0  0  0
    1.2838   -0.4969    1.0181 C   0  0  0  0  0  0  0  0  0  0  0  0
    1.4100   -1.4849    0.5695 H   0  0  0  0  0  0  0  0  0  0  0  0
    2.2103    0.0519    0.8270 H   0  0  0  0  0  0  0  0  0  0  0  0
    1.1401   -0.5958    2.5310 C   0  0  0  0  0  0  0  0  0  0  0  0
    0.7571    0.3430    3.2082 O   0  0  0  0  0  0  0  0  0  0  0  0
    1.2659   -1.7874    3.1815 N   0  0  0  0  0  0  0  0  0  0  0  0
    0.8759   -1.7894    4.1180 H   0  0  0  0  0  0  0  0  0  0  0  0
    1.1220   -2.6094    2.5980 H   0  0  0  0  0  0  0  0  0  0  0  0
    0.4383    0.7179   -1.0701 C   0  0  0  0  0  0  0  0  0  0  0  0
    1.4341    0.3222   -1.6614 O   0  0  0  0  0  0  0  0  0  0  0  0
   -0.4121    1.5960   -1.7209 N   0  0  0  0  0  0  0  0  0  0  0  0
   -1.1723    1.9992   -1.1836 H   0  0  0  0  0  0  0  0  0  0  0  0
   -0.1495    2.1143   -3.0587 C   0  0  0  0  0  0  0  0  0  0  0  0
   -0.0512    1.2924   -3.7759 H   0  0  0  0  0  0  0  0  0  0  0  0
   -0.9726    2.7578   -3.3839 H   0  0  0  0  0  0  0  0  0  0  0  0
    0.7748    2.7014   -3.0671 H   0  0  0  0  0  0  0  0  0  0  0  0
  1  2  1  0  0  0  0
  2  3  1  0  0  0  0
  2  4  1  0  0  0  0
  2  5  1  0  0  0  0
  5  6  2  0  0  0  0
  5  7  1  0  0  0  0
  7  8  1  0  0  0  0
  7  9  1  0  0  0  0
  9 10  1  0  0  0  0
  9 11  1  0  0  0  0
  9 19  1  0  0  0  0
 11 12  1  0  0  0  0
 11 13  1  0  0  0  0
 11 14  1  0  0  0  0
 14 15  2  0  0  0  0
 14 16  1  0  0  0  0
 16 17  1  0  0  0  0
 16 18  1  0  0  0  0
 19 20  2  0  0  0  0
 19 21  1  0  0  0  0
 21 22  1  0  0  0  0
 21 23  1  0  0  0  0
 23 24  1  0  0  0  0
 23 25  1  0  0  0  0
 23 26  1  0  0  0  0
M  END
$$$$

  -OEChem-01062216063D

 26 25  0     1  0  0  0  0  0999 V2000
   -3.1420   -3.1755    0.9583 H   0  0  0  0  0  0  0  0  0  0  0  0
   -3.0208   -2.1374    0.6353 C   0  0  0  0  0  0  0  0  0  0  0  0
   -3.6466   -1.4995    1.2642 H   0  0  0  0  0  0  0  0  0  0  0  0
   -3.3509   -2.0530   -0.4029 H   0  0  0  0  0  0  0  0  0  0  0  0
   -1.5673   -1.7169    0.7536 C   0  0  0  0  0  0  0  0  0  0  0  0
   -0.7605   -2.5393    1.1561 O   0  0  0  0  0  0  0  0  0  0  0  0
   -1.2323   -0.4213    0.3874 N   0  0  0  0  0  0  0  0  0  0  0  0
   -2.0177    0.1203    0.0388 H   0  0  0  0  0  0  0  0  0  0  0  0
    0.0846    0.2674    0.3807 C   0  0  1  0  0  0  0  0  0  0  0  0
   -0.0315    1.1872    0.9634 H   0  0  0  0  0  0  0  0  0  0  0  0
    1.2765   -0.4890    1.0136 C   0  0  0  0  0  0  0  0  0  0  0  0
    1.3905   -1.4768    0.5604 H   0  0  0  0  0  0  0  0  0  0  0  0
    2.2009    0.0575    0.8073 H   0  0  0  0  0  0  0  0  0  0  0  0
    1.1539   -0.5985    2.5276 C   0  0  0  0  0  0  0  0  0  0  0  0
    0.7793    0.3369    3.2144 O   0  0  0  0  0  0  0  0  0  0  0  0
    1.3114   -1.7893    3.1727 N   0  0  0  0  0  0  0  0  0  0  0  0
    0.9400   -1.7977    4.1167 H   0  0  0  0  0  0  0  0  0  0  0  0
    1.1614   -2.6110    2.5905 H   0  0  0  0  0  0  0  0  0  0  0  0
    0.4202    0.7246   -1.0561 C   0  0  0  0  0  0  0  0  0  0  0  0
    1.2367    0.1292   -1.7461 O   0  0  0  0  0  0  0  0  0  0  0  0
   -0.2309    1.8224   -1.5924 N   0  0  0  0  0  0  0  0  0  0  0  0
   -0.8366    2.3580   -0.9784 H   0  0  0  0  0  0  0  0  0  0  0  0
    0.0608    2.3486   -2.9213 C   0  0  0  0  0  0  0  0  0  0  0  0
   -0.0962    1.5770   -3.6825 H   0  0  0  0  0  0  0  0  0  0  0  0
   -0.5970    3.1933   -3.1469 H   0  0  0  0  0  0  0  0  0  0  0  0
    1.0990    2.6925   -2.9775 H   0  0  0  0  0  0  0  0  0  0  0  0
  1  2  1  0  0  0  0
  2  3  1  0  0  0  0
  2  4  1  0  0  0  0
  2  5  1  0  0  0  0
  5  6  2  0  0  0  0
  5  7  1  0  0  0  0
  7  8  1  0  0  0  0
  7  9  1  0  0  0  0
  9 10  1  0  0  0  0
  9 11  1  0  0  0  0
  9 19  1  0  0  0  0
 11 12  1  0  0  0  0
 11 13  1  0  0  0  0
 11 14  1  0  0  0  0
 14 15  2  0  0  0  0
 14 16  1  0  0  0  0
 16 17  1  0  0  0  0
 16 18  1  0  0  0  0
 19 20  2  0  0  0  0
 19 21  1  0  0  0  0
 21 22  1  0  0  0  0
 21 23  1  0  0  0  0
 23 24  1  0  0  0  0
 23 25  1  0  0  0  0
 23 26  1  0  0  0  0
M  END
$$$$

  -OEChem-01062216063D

 26 25  0     1  0  0  0  0  0999 V2000
   -3.1474   -3.1746    0.9447 H   0  0  0  0  0  0  0  0  0  0  0  0
   -3.0271   -2.1358    0.6240 C   0  0  0  0  0  0  0  0  0  0  0  0
   -3.6672   -1.5017    1.2423 H   0  0  0  0  0  0  0  0  0  0  0  0
   -3.3397   -2.0529   -0.4199 H   0  0  0  0  0  0  0  0  0  0  0  0
   -1.5781   -1.7067    0.7662 C   0  0  0  0  0  0  0  0  0  0  0  0
   -0.7742   -2.5227    1.1878 O   0  0  0  0  0  0  0  0  0  0  0  0
   -1.2445   -0.4104    0.4019 N   0  0  0  0  0  0  0  0  0  0  0  0
   -2.0242    0.1229    0.0281 H   0  0  0  0  0  0  0  0  0  0  0  0
    0.0718    0.2774    0.3934 C   0  0  1  0  0  0  0  0  0  0  0  0
   -0.0438    1.1910    0.9857 H   0  0  0  0  0  0  0  0  0  0  0  0
    1.2702   -0.4794    1.0101 C   0  0  0  0  0  0  0  0  0  0  0  0
    1.3795   -1.4643    0.5494 H   0  0  0  0  0  0  0  0  0  0  0  0
    2.1916    0.0693    0.7972 H   0  0  0  0  0  0  0  0  0  0  0  0
    1.1617   -0.6021    2.5245 C   0  0  0  0  0  0  0  0  0  0  0  0
    0.7903    0.3273    3.2211 O   0  0  0  0  0  0  0  0  0  0  0  0
    1.3397   -1.7950    3.1605 N   0  0  0  0  0  0  0  0  0  0  0  0
    0.9792   -1.8114    4.1086 H   0  0  0  0  0  0  0  0  0  0  0  0
    1.1843   -2.6138    2.5757 H   0  0  0  0  0  0  0  0  0  0  0  0
    0.4095    0.7398   -1.0399 C   0  0  0  0  0  0  0  0  0  0  0  0
    0.9949    0.0032   -1.8216 O   0  0  0  0  0  0  0  0  0  0  0  0
    0.0146    1.9945   -1.4706 N   0  0  0  0  0  0  0  0  0  0  0  0
   -0.4076    2.6171   -0.7882 H   0  0  0  0  0  0  0  0  0  0  0  0
    0.3348    2.5185   -2.7939 C   0  0  0  0  0  0  0  0  0  0  0  0
   -0.0585    1.8583   -3.5743 H   0  0  0  0  0  0  0  0  0  0  0  0
   -0.1091    3.5099   -2.9269 H   0  0  0  0  0  0  0  0  0  0  0  0
    1.4193    2.6046   -2.9194 H   0  0  0  0  0  0  0  0  0  0  0  0
  1  2  1  0  0  0  0
  2  3  1  0  0  0  0
  2  4  1  0  0  0  0
  2  5  1  0  0  0  0
  5  6  2  0  0  0  0
  5  7  1  0  0  0  0
  7  8  1  0  0  0  0
  7  9  1  0  0  0  0
  9 10  1  0  0  0  0
  9 11  1  0  0  0  0
  9 19  1  0  0  0  0
 11 12  1  0  0  0  0
 11 13  1  0  0  0  0
 11 14  1  0  0  0  0
 14 15  2  0  0  0  0
 14 16  1  0  0  0  0
 16 17  1  0  0  0  0
 16 18  1  0  0  0  0
 19 20  2  0  0  0  0
 19 21  1  0  0  0  0
 21 22  1  0  0  0  0
 21 23  1  0  0  0  0
 23 24  1  0  0  0  0
 23 25  1  0  0  0  0
 23 26  1  0  0  0  0
M  END
$$$$

  -OEChem-01062216063D

 26 25  0     1  0  0  0  0  0999 V2000
   -3.1541   -3.1716    0.9199 H   0  0  0  0  0  0  0  0  0  0  0  0
   -3.0318   -2.1319    0.6032 C   0  0  0  0  0  0  0  0  0  0  0  0
   -3.6893   -1.5016    1.2067 H   0  0  0  0  0  0  0  0  0  0  0  0
   -3.3206   -2.0494   -0.4474 H   0  0  0  0  0  0  0  0  0  0  0  0
   -1.5889   -1.6948    0.7791 C   0  0  0  0  0  0  0  0  0  0  0  0
   -0.7908   -2.5037    1.2253 O   0  0  0  0  0  0  0  0  0  0  0  0
   -1.2533   -0.3989    0.4169 N   0  0  0  0  0  0  0  0  0  0  0  0
   -2.0226    0.1223    0.0059 H   0  0  0  0  0  0  0  0  0  0  0  0
    0.0649    0.2842    0.4066 C   0  0  1  0  0  0  0  0  0  0  0  0
   -0.0524    1.1931    1.0055 H   0  0  0  0  0  0  0  0  0  0  0  0
    1.2666   -0.4755    1.0108 C   0  0  0  0  0  0  0  0  0  0  0  0
    1.3677   -1.4593    0.5453 H   0  0  0  0  0  0  0  0  0  0  0  0
    2.1876    0.0715    0.7927 H   0  0  0  0  0  0  0  0  0  0  0  0
    1.1690   -0.6066    2.5255 C   0  0  0  0  0  0  0  0  0  0  0  0
    0.8027    0.3202    3.2281 O   0  0  0  0  0  0  0  0  0  0  0  0
    1.3670   -1.7985    3.1572 N   0  0  0  0  0  0  0  0  0  0  0  0
    1.0166   -1.8194    4.1090 H   0  0  0  0  0  0  0  0  0  0  0  0
    1.2103   -2.6176    2.5733 H   0  0  0  0  0  0  0  0  0  0  0  0
    0.4100    0.7527   -1.0216 C   0  0  0  0  0  0  0  0  0  0  0  0
    0.7254   -0.0537   -1.8856 O   0  0  0  0  0  0  0  0  0  0  0  0
    0.3117    2.0920   -1.3555 N   0  0  0  0  0  0  0  0  0  0  0  0
    0.0934    2.7503   -0.6131 H   0  0  0  0  0  0  0  0  0  0  0  0
    0.6405    2.6108   -2.6784 C   0  0  0  0  0  0  0  0  0  0  0  0
    0.0276    2.1249   -3.4451 H   0  0  0  0  0  0  0  0  0  0  0  0
    0.4525    3.6881   -2.7198 H   0  0  0  0  0  0  0  0  0  0  0  0
    1.6967    2.4343   -2.9075 H   0  0  0  0  0  0  0  0  0  0  0  0
  1  2  1  0  0  0  0
  2  3  1  0  0  0  0
  2  4  1  0  0  0  0
  2  5  1  0  0  0  0
  5  6  2  0  0  0  0
  5  7  1  0  0  0  0
  7  8  1  0  0  0  0
  7  9  1  0  0  0  0
  9 10  1  0  0  0  0
  9 11  1  0  0  0  0
  9 19  1  0  0  0  0
 11 12  1  0  0  0  0
 11 13  1  0  0  0  0
 11 14  1  0  0  0  0
 14 15  2  0  0  0  0
 14 16  1  0  0  0  0
 16 17  1  0  0  0  0
 16 18  1  0  0  0  0
 19 20  2  0  0  0  0
 19 21  1  0  0  0  0
 21 22  1  0  0  0  0
 21 23  1  0  0  0  0
 23 24  1  0  0  0  0
 23 25  1  0  0  0  0
 23 26  1  0  0  0  0
M  END
$$$$

  -OEChem-01062216063D

 26 25  0     1  0  0  0  0  0999 V2000
   -3.1568   -3.1696    0.8986 H   0  0  0  0  0  0  0  0  0  0  0  0
   -3.0322   -2.1292    0.5850 C   0  0  0  0  0  0  0  0  0  0  0  0
   -3.7060   -1.5020    1.1740 H   0  0  0  0  0  0  0  0  0  0  0  0
   -3.2985   -2.0476   -0.4718 H   0  0  0  0  0  0  0  0  0  0  0  0
   -1.5955   -1.6854    0.7926 C   0  0  0  0  0  0  0  0  0  0  0  0
   -0.8041   -2.4887    1.2610 O   0  0  0  0  0  0  0  0  0  0  0  0
   -1.2565   -0.3905    0.4311 N   0  0  0  0  0  0  0  0  0  0  0  0
   -2.0112    0.1151   -0.0244 H   0  0  0  0  0  0  0  0  0  0  0  0
    0.0644    0.2869    0.4165 C   0  0  1  0  0  0  0  0  0  0  0  0
   -0.0530    1.1946    1.0172 H   0  0  0  0  0  0  0  0  0  0  0  0
    1.2664   -0.4765    1.0135 C   0  0  0  0  0  0  0  0  0  0  0  0
    1.3587   -1.4604    0.5466 H   0  0  0  0  0  0  0  0  0  0  0  0
    2.1892    0.0658    0.7912 H   0  0  0  0  0  0  0  0  0  0  0  0
    1.1777   -0.6096    2.5288 C   0  0  0  0  0  0  0  0  0  0  0  0
    0.8183    0.3182    3.2336 O   0  0  0  0  0  0  0  0  0  0  0  0
    1.3815   -1.8012    3.1592 N   0  0  0  0  0  0  0  0  0  0  0  0
    1.0395   -1.8199    4.1142 H   0  0  0  0  0  0  0  0  0  0  0  0
    1.2129   -2.6197    2.5777 H   0  0  0  0  0  0  0  0  0  0  0  0
    0.4149    0.7603   -1.0082 C   0  0  0  0  0  0  0  0  0  0  0  0
    0.4344   -0.0314   -1.9405 O   0  0  0  0  0  0  0  0  0  0  0  0
    0.6288    2.1036   -1.2613 N   0  0  0  0  0  0  0  0  0  0  0  0
    0.6356    2.7399   -0.4690 H   0  0  0  0  0  0  0  0  0  0  0  0
    0.9628    2.6243   -2.5821 C   0  0  0  0  0  0  0  0  0  0  0  0
    0.1855    2.3606   -3.3071 H   0  0  0  0  0  0  0  0  0  0  0  0
    1.0464    3.7149   -2.5490 H   0  0  0  0  0  0  0  0  0  0  0  0
    1.9184    2.2135   -2.9248 H   0  0  0  0  0  0  0  0  0  0  0  0
  1  2  1  0  0  0  0
  2  3  1  0  0  0  0
  2  4  1  0  0  0  0
  2  5  1  0  0  0  0
  5  6  2  0  0  0  0
  5  7  1  0  0  0  0
  7  8  1  0  0  0  0
  7  9  1  0  0  0  0
  9 10  1  0  0  0  0
  9 11  1  0  0  0  0
  9 19  1  0  0  0  0
 11 12  1  0  0  0  0
 11 13  1  0  0  0  0
 11 14  1  0  0  0  0
 14 15  2  0  0  0  0
 14 16  1  0  0  0  0
 16 17  1  0  0  0  0
 16 18  1  0  0  0  0
 19 20  2  0  0  0  0
 19 21  1  0  0  0  0
 21 22  1  0  0  0  0
 21 23  1  0  0  0  0
 23 24  1  0  0  0  0
 23 25  1  0  0  0  0
 23 26  1  0  0  0  0
M  END
$$$$

  -OEChem-01062216063D

 26 25  0     1  0  0  0  0  0999 V2000
   -3.1590   -3.1640    0.8779 H   0  0  0  0  0  0  0  0  0  0  0  0
   -3.0272   -2.1261    0.5591 C   0  0  0  0  0  0  0  0  0  0  0  0
   -3.7192   -1.4951    1.1221 H   0  0  0  0  0  0  0  0  0  0  0  0
   -3.2610   -2.0540   -0.5062 H   0  0  0  0  0  0  0  0  0  0  0  0
   -1.5985   -1.6773    0.8056 C   0  0  0  0  0  0  0  0  0  0  0  0
   -0.8159   -2.4774    1.2949 O   0  0  0  0  0  0  0  0  0  0  0  0
   -1.2524   -0.3847    0.4447 N   0  0  0  0  0  0  0  0  0  0  0  0
   -1.9886    0.1055   -0.0567 H   0  0  0  0  0  0  0  0  0  0  0  0
    0.0744    0.2805    0.4231 C   0  0  1  0  0  0  0  0  0  0  0  0
   -0.0395    1.1903    1.0215 H   0  0  0  0  0  0  0  0  0  0  0  0
    1.2726   -0.4887    1.0207 C   0  0  0  0  0  0  0  0  0  0  0  0
    1.3551   -1.4762    0.5597 H   0  0  0  0  0  0  0  0  0  0  0  0
    2.1993    0.0446    0.7932 H   0  0  0  0  0  0  0  0  0  0  0  0
    1.1876   -0.6118    2.5375 C   0  0  0  0  0  0  0  0  0  0  0  0
    0.8378    0.3236    3.2363 O   0  0  0  0  0  0  0  0  0  0  0  0
    1.3843   -1.7988    3.1780 N   0  0  0  0  0  0  0  0  0  0  0  0
    1.0460   -1.8029    4.1346 H   0  0  0  0  0  0  0  0  0  0  0  0
    1.2003   -2.6210    2.6067 H   0  0  0  0  0  0  0  0  0  0  0  0
    0.4273    0.7572   -1.0005 C   0  0  0  0  0  0  0  0  0  0  0  0
    0.1474    0.0723   -1.9755 O   0  0  0  0  0  0  0  0  0  0  0  0
    0.9530    2.0218   -1.1960 N   0  0  0  0  0  0  0  0  0  0  0  0
    1.1749    2.5750   -0.3727 H   0  0  0  0  0  0  0  0  0  0  0  0
    1.2712    2.5613   -2.5130 C   0  0  0  0  0  0  0  0  0  0  0  0
    0.3748    2.5933   -3.1413 H   0  0  0  0  0  0  0  0  0  0  0  0
    1.6637    3.5785   -2.4202 H   0  0  0  0  0  0  0  0  0  0  0  0
    2.0266    1.9423   -3.0084 H   0  0  0  0  0  0  0  0  0  0  0  0
  1  2  1  0  0  0  0
  2  3  1  0  0  0  0
  2  4  1  0  0  0  0
  2  5  1  0  0  0  0
  5  6  2  0  0  0  0
  5  7  1  0  0  0  0
  7  8  1  0  0  0  0
  7  9  1  0  0  0  0
  9 10  1  0  0  0  0
  9 11  1  0  0  0  0
  9 19  1  0  0  0  0
 11 12  1  0  0  0  0
 11 13  1  0  0  0  0
 11 14  1  0  0  0  0
 14 15  2  0  0  0  0
 14 16  1  0  0  0  0
 16 17  1  0  0  0  0
 16 18  1  0  0  0  0
 19 20  2  0  0  0  0
 19 21  1  0  0  0  0
 21 22  1  0  0  0  0
 21 23  1  0  0  0  0
 23 24  1  0  0  0  0
 23 25  1  0  0  0  0
 23 26  1  0  0  0  0
M  END
$$$$

  -OEChem-01062216063D

 26 25  0     1  0  0  0  0  0999 V2000
   -3.1598   -3.1609    0.8863 H   0  0  0  0  0  0  0  0  0  0  0  0
   -3.0237   -2.1250    0.5636 C   0  0  0  0  0  0  0  0  0  0  0  0
   -3.7134   -1.4890    1.1237 H   0  0  0  0  0  0  0  0  0  0  0  0
   -3.2572   -2.0557   -0.5018 H   0  0  0  0  0  0  0  0  0  0  0  0
   -1.5939   -1.6802    0.8091 C   0  0  0  0  0  0  0  0  0  0  0  0
   -0.8134   -2.4827    1.2981 O   0  0  0  0  0  0  0  0  0  0  0  0
   -1.2442   -0.3890    0.4475 N   0  0  0  0  0  0  0  0  0  0  0  0
   -1.9701    0.0916   -0.0786 H   0  0  0  0  0  0  0  0  0  0  0  0
    0.0825    0.2771    0.4236 C   0  0  1  0  0  0  0  0  0  0  0  0
   -0.0309    1.1902    1.0175 H   0  0  0  0  0  0  0  0  0  0  0  0
    1.2761   -0.4974    1.0263 C   0  0  0  0  0  0  0  0  0  0  0  0
    1.3554   -1.4864    0.5678 H   0  0  0  0  0  0  0  0  0  0  0  0
    2.2074    0.0292    0.8029 H   0  0  0  0  0  0  0  0  0  0  0  0
    1.1862   -0.6167    2.5434 C   0  0  0  0  0  0  0  0  0  0  0  0
    0.8395    0.3221    3.2390 O   0  0  0  0  0  0  0  0  0  0  0  0
    1.3703   -1.8047    3.1862 N   0  0  0  0  0  0  0  0  0  0  0  0
    1.0284   -1.8035    4.1417 H   0  0  0  0  0  0  0  0  0  0  0  0
    1.1773   -2.6256    2.6158 H   0  0  0  0  0  0  0  0  0  0  0  0
    0.4394    0.7553   -0.9999 C   0  0  0  0  0  0  0  0  0  0  0  0
   -0.0704    0.2333   -1.9834 O   0  0  0  0  0  0  0  0  0  0  0  0
    1.2397    1.8707   -1.1722 N   0  0  0  0  0  0  0  0  0  0  0  0
    1.6223    2.3123   -0.3404 H   0  0  0  0  0  0  0  0  0  0  0  0
    1.5753    2.4228   -2.4794 C   0  0  0  0  0  0  0  0  0  0  0  0
    0.6685    2.7316   -3.0100 H   0  0  0  0  0  0  0  0  0  0  0  0
    2.2232    3.2972   -2.3655 H   0  0  0  0  0  0  0  0  0  0  0  0
    2.1025    1.6787   -3.0856 H   0  0  0  0  0  0  0  0  0  0  0  0
  1  2  1  0  0  0  0
  2  3  1  0  0  0  0
  2  4  1  0  0  0  0
  2  5  1  0  0  0  0
  5  6  2  0  0  0  0
  5  7  1  0  0  0  0
  7  8  1  0  0  0  0
  7  9  1  0  0  0  0
  9 10  1  0  0  0  0
  9 11  1  0  0  0  0
  9 19  1  0  0  0  0
 11 12  1  0  0  0  0
 11 13  1  0  0  0  0
 11 14  1  0  0  0  0
 14 15  2  0  0  0  0
 14 16  1  0  0  0  0
 16 17  1  0  0  0  0
 16 18  1  0  0  0  0
 19 20  2  0  0  0  0
 19 21  1  0  0  0  0
 21 22  1  0  0  0  0
 21 23  1  0  0  0  0
 23 24  1  0  0  0  0
 23 25  1  0  0  0  0
 23 26  1  0  0  0  0
M  END
$$$$

  -OEChem-01062216063D

 26 25  0     1  0  0  0  0  0999 V2000
   -3.1617   -3.1544    0.8592 H   0  0  0  0  0  0  0  0  0  0  0  0
   -3.0181   -2.1161    0.5471 C   0  0  0  0  0  0  0  0  0  0  0  0
   -3.7117   -1.4826    1.1051 H   0  0  0  0  0  0  0  0  0  0  0  0
   -3.2395   -2.0364   -0.5202 H   0  0  0  0  0  0  0  0  0  0  0  0
   -1.5892   -1.6786    0.8119 C   0  0  0  0  0  0  0  0  0  0  0  0
   -0.8164   -2.4871    1.3034 O   0  0  0  0  0  0  0  0  0  0  0  0
   -1.2289   -0.3891    0.4553 N   0  0  0  0  0  0  0  0  0  0  0  0
   -1.9429    0.0902   -0.0895 H   0  0  0  0  0  0  0  0  0  0  0  0
    0.0994    0.2745    0.4357 C   0  0  1  0  0  0  0  0  0  0  0  0
   -0.0093    1.1906    1.0259 H   0  0  0  0  0  0  0  0  0  0  0  0
    1.2829   -0.5108    1.0486 C   0  0  0  0  0  0  0  0  0  0  0  0
    1.3573   -1.5005    0.5915 H   0  0  0  0  0  0  0  0  0  0  0  0
    2.2222    0.0045    0.8363 H   0  0  0  0  0  0  0  0  0  0  0  0
    1.1806   -0.6280    2.5651 C   0  0  0  0  0  0  0  0  0  0  0  0
    0.8370    0.3133    3.2584 O   0  0  0  0  0  0  0  0  0  0  0  0
    1.3569   -1.8161    3.2098 N   0  0  0  0  0  0  0  0  0  0  0  0
    1.0115   -1.8122    4.1640 H   0  0  0  0  0  0  0  0  0  0  0  0
    1.1625   -2.6368    2.6398 H   0  0  0  0  0  0  0  0  0  0  0  0
    0.4523    0.7521   -0.9914 C   0  0  0  0  0  0  0  0  0  0  0  0
   -0.2437    0.4314   -1.9477 O   0  0  0  0  0  0  0  0  0  0  0  0
    1.4814    1.6558   -1.1903 N   0  0  0  0  0  0  0  0  0  0  0  0
    2.0108    1.9569   -0.3768 H   0  0  0  0  0  0  0  0  0  0  0  0
    1.8199    2.2117   -2.4955 C   0  0  0  0  0  0  0  0  0  0  0  0
    0.9715    2.7683   -2.9077 H   0  0  0  0  0  0  0  0  0  0  0  0
    2.6706    2.8945   -2.4072 H   0  0  0  0  0  0  0  0  0  0  0  0
    2.0897    1.4123   -3.1938 H   0  0  0  0  0  0  0  0  0  0  0  0
  1  2  1  0  0  0  0
  2  3  1  0  0  0  0
  2  4  1  0  0  0  0
  2  5  1  0  0  0  0
  5  6  2  0  0  0  0
  5  7  1  0  0  0  0
  7  8  1  0  0  0  0
  7  9  1  0  0  0  0
  9 10  1  0  0  0  0
  9 11  1  0  0  0  0
  9 19  1  0  0  0  0
 11 12  1  0  0  0  0
 11 13  1  0  0  0  0
 11 14  1  0  0  0  0
 14 15  2  0  0  0  0
 14 16  1  0  0  0  0
 16 17  1  0  0  0  0
 16 18  1  0  0  0  0
 19 20  2  0  0  0  0
 19 21  1  0  0  0  0
 21 22  1  0  0  0  0
 21 23  1  0  0  0  0
 23 24  1  0  0  0  0
 23 25  1  0  0  0  0
 23 26  1  0  0  0  0
M  END
$$$$

  -OEChem-01062216063D

 26 25  0     1  0  0  0  0  0999 V2000
   -3.2411   -3.0986    0.8907 H   0  0  0  0  0  0  0  0  0  0  0  0
   -3.0751   -2.0584    0.5964 C   0  0  0  0  0  0  0  0  0  0  0  0
   -3.6671   -1.4111    1.2481 H   0  0  0  0  0  0  0  0  0  0  0  0
   -3.4078   -1.9268   -0.4362 H   0  0  0  0  0  0  0  0  0  0  0  0
   -1.6035   -1.7060    0.7138 C   0  0  0  0  0  0  0  0  0  0  0  0
   -0.8170   -2.5894    1.0158 O   0  0  0  0  0  0  0  0  0  0  0  0
   -1.2141   -0.4190    0.3839 N   0  0  0  0  0  0  0  0  0  0  0  0
   -1.9540    0.1381   -0.0413 H   0  0  0  0  0  0  0  0  0  0  0  0
    0.1141    0.2437    0.3826 C   0  0  1  0  0  0  0  0  0  0  0  0
    0.0759    1.0005    1.1736 H   0  0  0  0  0  0  0  0  0  0  0  0
    1.3452   -0.6446    0.6948 C   0  0  0  0  0  0  0  0  0  0  0  0
    1.3399   -1.5179    0.0373 H   0  0  0  0  0  0  0  0  0  0  0  0
    2.2707   -0.0992    0.4999 H   0  0  0  0  0  0  0  0  0  0  0  0
    1.4009   -1.0932    2.1526 C   0  0  0  0  0  0  0  0  0  0  0  0
    1.1407   -0.3281    3.0644 O   0  0  0  0  0  0  0  0  0  0  0  0
    1.7309   -2.3674    2.5100 N   0  0  0  0  0  0  0  0  0  0  0  0
    1.5138   -2.5801    3.4784 H   0  0  0  0  0  0  0  0  0  0  0  0
    1.5094   -3.0730    1.8122 H   0  0  0  0  0  0  0  0  0  0  0  0
    0.3018    1.0554   -0.9218 C   0  0  0  0  0  0  0  0  0  0  0  0
   -0.6196    1.1512   -1.7253 O   0  0  0  0  0  0  0  0  0  0  0  0
    1.4645    1.7674   -1.1615 N   0  0  0  0  0  0  0  0  0  0  0  0
    2.1909    1.7391   -0.4519 H   0  0  0  0  0  0  0  0  0  0  0  0
    1.6656    2.6033   -2.3397 C   0  0  0  0  0  0  0  0  0  0  0  0
    0.9145    3.3994   -2.3790 H   0  0  0  0  0  0  0  0  0  0  0  0
    2.6572    3.0651   -2.3111 H   0  0  0  0  0  0  0  0  0  0  0  0
    1.5907    2.0029   -3.2525 H   0  0  0  0  0  0  0  0  0  0  0  0
  1  2  1  0  0  0  0
  2  3  1  0  0  0  0
  2  4  1  0  0  0  0
  2  5  1  0  0  0  0
  5  6  2  0  0  0  0
  5  7  1  0  0  0  0
  7  8  1  0  0  0  0
  7  9  1  0  0  0  0
  9 10  1  0  0  0  0
  9 11  1  0  0  0  0
  9 19  1  0  0  0  0
 11 12  1  0  0  0  0
 11 13  1  0  0  0  0
 11 14  1  0  0  0  0
 14 15  2  0  0  0  0
 14 16  1  0  0  0  0
 16 17  1  0  0  0  0
 16 18  1  0  0  0  0
 19 20  2  0  0  0  0
 19 21  1  0  0  0  0
 21 22  1  0  0  0  0
 21 23  1  0  0  0  0
 23 24  1  0  0  0  0
 23 25  1  0  0  0  0
 23 26  1  0  0  0  0
M  END
$$$$

  -OEChem-01062216063D

 26 25  0     1  0  0  0  0  0999 V2000
   -3.2361   -3.0920    0.8659 H   0  0  0  0  0  0  0  0  0  0  0  0
   -3.0639   -2.0488    0.5864 C   0  0  0  0  0  0  0  0  0  0  0  0
   -3.6430   -1.4062    1.2543 H   0  0  0  0  0  0  0  0  0  0  0  0
   -3.4063   -1.8980   -0.4404 H   0  0  0  0  0  0  0  0  0  0  0  0
   -1.5883   -1.7111    0.6945 C   0  0  0  0  0  0  0  0  0  0  0  0
   -0.8055   -2.6043    0.9777 O   0  0  0  0  0  0  0  0  0  0  0  0
   -1.1904   -0.4247    0.3745 N   0  0  0  0  0  0  0  0  0  0  0  0
   -1.9313    0.1516   -0.0240 H   0  0  0  0  0  0  0  0  0  0  0  0
    0.1383    0.2356    0.3911 C   0  0  1  0  0  0  0  0  0  0  0  0
    0.0958    0.9951    1.1795 H   0  0  0  0  0  0  0  0  0  0  0  0
    1.3597   -0.6603    0.7236 C   0  0  0  0  0  0  0  0  0  0  0  0
    1.3646   -1.5330    0.0652 H   0  0  0  0  0  0  0  0  0  0  0  0
    2.2910   -0.1180    0.5527 H   0  0  0  0  0  0  0  0  0  0  0  0
    1.3877   -1.1068    2.1829 C   0  0  0  0  0  0  0  0  0  0  0  0
    1.1173   -0.3410    3.0907 O   0  0  0  0  0  0  0  0  0  0  0  0
    1.6971   -2.3842    2.5464 N   0  0  0  0  0  0  0  0  0  0  0  0
    1.4661   -2.5925    3.5126 H   0  0  0  0  0  0  0  0  0  0  0  0
    1.4746   -3.0878    1.8467 H   0  0  0  0  0  0  0  0  0  0  0  0
    0.3220    1.0460   -0.9167 C   0  0  0  0  0  0  0  0  0  0  0  0
   -0.6603    1.3367   -1.5913 O   0  0  0  0  0  0  0  0  0  0  0  0
    1.5594    1.5148   -1.3234 N   0  0  0  0  0  0  0  0  0  0  0  0
    2.3585    1.3173   -0.7291 H   0  0  0  0  0  0  0  0  0  0  0  0
    1.7566    2.3310   -2.5158 C   0  0  0  0  0  0  0  0  0  0  0  0
    1.1918    3.2660   -2.4380 H   0  0  0  0  0  0  0  0  0  0  0  0
    2.8162    2.5762   -2.6352 H   0  0  0  0  0  0  0  0  0  0  0  0
    1.4243    1.7915   -3.4091 H   0  0  0  0  0  0  0  0  0  0  0  0
  1  2  1  0  0  0  0
  2  3  1  0  0  0  0
  2  4  1  0  0  0  0
  2  5  1  0  0  0  0
  5  6  2  0  0  0  0
  5  7  1  0  0  0  0
  7  8  1  0  0  0  0
  7  9  1  0  0  0  0
  9 10  1  0  0  0  0
  9 11  1  0  0  0  0
  9 19  1  0  0  0  0
 11 12  1  0  0  0  0
 11 13  1  0  0  0  0
 11 14  1  0  0  0  0
 14 15  2  0  0  0  0
 14 16  1  0  0  0  0
 16 17  1  0  0  0  0
 16 18  1  0  0  0  0
 19 20  2  0  0  0  0
 19 21  1  0  0  0  0
 21 22  1  0  0  0  0
 21 23  1  0  0  0  0
 23 24  1  0  0  0  0
 23 25  1  0  0  0  0
 23 26  1  0  0  0  0
M  END
$$$$

  -OEChem-01062216063D

 26 25  0     1  0  0  0  0  0999 V2000
   -3.2234   -3.0894    0.8700 H   0  0  0  0  0  0  0  0  0  0  0  0
   -3.0519   -2.0460    0.5907 C   0  0  0  0  0  0  0  0  0  0  0  0
   -3.6115   -1.4032    1.2747 H   0  0  0  0  0  0  0  0  0  0  0  0
   -3.4177   -1.8889   -0.4270 H   0  0  0  0  0  0  0  0  0  0  0  0
   -1.5725   -1.7169    0.6661 C   0  0  0  0  0  0  0  0  0  0  0  0
   -0.7859   -2.6173    0.9150 O   0  0  0  0  0  0  0  0  0  0  0  0
   -1.1743   -0.4277    0.3580 N   0  0  0  0  0  0  0  0  0  0  0  0
   -1.9233    0.1705    0.0101 H   0  0  0  0  0  0  0  0  0  0  0  0
    0.1529    0.2330    0.3971 C   0  0  1  0  0  0  0  0  0  0  0  0
    0.1001    0.9923    1.1854 H   0  0  0  0  0  0  0  0  0  0  0  0
    1.3707   -0.6608    0.7467 C   0  0  0  0  0  0  0  0  0  0  0  0
    1.3952   -1.5301    0.0845 H   0  0  0  0  0  0  0  0  0  0  0  0
    2.3006   -0.1085    0.6006 H   0  0  0  0  0  0  0  0  0  0  0  0
    1.3747   -1.1105    2.2053 C   0  0  0  0  0  0  0  0  0  0  0  0
    1.0877   -0.3494    3.1118 O   0  0  0  0  0  0  0  0  0  0  0  0
    1.6616   -2.3936    2.5673 N   0  0  0  0  0  0  0  0  0  0  0  0
    1.4096   -2.6045    3.5276 H   0  0  0  0  0  0  0  0  0  0  0  0
    1.4450   -3.0909    1.8593 H   0  0  0  0  0  0  0  0  0  0  0  0
    0.3393    1.0454   -0.9084 C   0  0  0  0  0  0  0  0  0  0  0  0
   -0.6470    1.5277   -1.4545 O   0  0  0  0  0  0  0  0  0  0  0  0
    1.5810    1.2682   -1.4792 N   0  0  0  0  0  0  0  0  0  0  0  0
    2.3919    0.8620   -1.0234 H   0  0  0  0  0  0  0  0  0  0  0  0
    1.7745    2.0326   -2.7059 C   0  0  0  0  0  0  0  0  0  0  0  0
    1.4036    3.0555   -2.5826 H   0  0  0  0  0  0  0  0  0  0  0  0
    2.8380    2.0792   -2.9591 H   0  0  0  0  0  0  0  0  0  0  0  0
    1.2411    1.5620   -3.5386 H   0  0  0  0  0  0  0  0  0  0  0  0
  1  2  1  0  0  0  0
  2  3  1  0  0  0  0
  2  4  1  0  0  0  0
  2  5  1  0  0  0  0
  5  6  2  0  0  0  0
  5  7  1  0  0  0  0
  7  8  1  0  0  0  0
  7  9  1  0  0  0  0
  9 10  1  0  0  0  0
  9 11  1  0  0  0  0
  9 19  1  0  0  0  0
 11 12  1  0  0  0  0
 11 13  1  0  0  0  0
 11 14  1  0  0  0  0
 14 15  2  0  0  0  0
 14 16  1  0  0  0  0
 16 17  1  0  0  0  0
 16 18  1  0  0  0  0
 19 20  2  0  0  0  0
 19 21  1  0  0  0  0
 21 22  1  0  0  0  0
 21 23  1  0  0  0  0
 23 24  1  0  0  0  0
 23 25  1  0  0  0  0
 23 26  1  0  0  0  0
M  END
$$$$

  -OEChem-01062216063D

 26 25  0     1  0  0  0  0  0999 V2000
   -3.2079   -3.0866    0.8964 H   0  0  0  0  0  0  0  0  0  0  0  0
   -3.0406   -2.0460    0.6046 C   0  0  0  0  0  0  0  0  0  0  0  0
   -3.5826   -1.3968    1.2965 H   0  0  0  0  0  0  0  0  0  0  0  0
   -3.4295   -1.8961   -0.4055 H   0  0  0  0  0  0  0  0  0  0  0  0
   -1.5590   -1.7202    0.6426 C   0  0  0  0  0  0  0  0  0  0  0  0
   -0.7665   -2.6248    0.8557 O   0  0  0  0  0  0  0  0  0  0  0  0
   -1.1644   -0.4285    0.3398 N   0  0  0  0  0  0  0  0  0  0  0  0
   -1.9237    0.1871    0.0504 H   0  0  0  0  0  0  0  0  0  0  0  0
    0.1613    0.2322    0.3956 C   0  0  1  0  0  0  0  0  0  0  0  0
    0.0997    0.9918    1.1830 H   0  0  0  0  0  0  0  0  0  0  0  0
    1.3789   -0.6563    0.7564 C   0  0  0  0  0  0  0  0  0  0  0  0
    1.4193   -1.5242    0.0930 H   0  0  0  0  0  0  0  0  0  0  0  0
    2.3046   -0.0925    0.6214 H   0  0  0  0  0  0  0  0  0  0  0  0
    1.3664   -1.1077    2.2147 C   0  0  0  0  0  0  0  0  0  0  0  0
    1.0650   -0.3503    3.1194 O   0  0  0  0  0  0  0  0  0  0  0  0
    1.6310   -2.3955    2.5767 N   0  0  0  0  0  0  0  0  0  0  0  0
    1.3655   -2.6056    3.5336 H   0  0  0  0  0  0  0  0  0  0  0  0
    1.4134   -3.0882    1.8643 H   0  0  0  0  0  0  0  0  0  0  0  0
    0.3543    1.0432   -0.9073 C   0  0  0  0  0  0  0  0  0  0  0  0
   -0.5848    1.7067   -1.3313 O   0  0  0  0  0  0  0  0  0  0  0  0
    1.5329    1.0218   -1.6335 N   0  0  0  0  0  0  0  0  0  0  0  0
    2.2800    0.4201   -1.3014 H   0  0  0  0  0  0  0  0  0  0  0  0
    1.7118    1.7358   -2.8923 C   0  0  0  0  0  0  0  0  0  0  0  0
    1.5450    2.8089   -2.7518 H   0  0  0  0  0  0  0  0  0  0  0  0
    2.7295    1.5920   -3.2676 H   0  0  0  0  0  0  0  0  0  0  0  0
    1.0089    1.3654   -3.6460 H   0  0  0  0  0  0  0  0  0  0  0  0
  1  2  1  0  0  0  0
  2  3  1  0  0  0  0
  2  4  1  0  0  0  0
  2  5  1  0  0  0  0
  5  6  2  0  0  0  0
  5  7  1  0  0  0  0
  7  8  1  0  0  0  0
  7  9  1  0  0  0  0
  9 10  1  0  0  0  0
  9 11  1  0  0  0  0
  9 19  1  0  0  0  0
 11 12  1  0  0  0  0
 11 13  1  0  0  0  0
 11 14  1  0  0  0  0
 14 15  2  0  0  0  0
 14 16  1  0  0  0  0
 16 17  1  0  0  0  0
 16 18  1  0  0  0  0
 19 20  2  0  0  0  0
 19 21  1  0  0  0  0
 21 22  1  0  0  0  0
 21 23  1  0  0  0  0
 23 24  1  0  0  0  0
 23 25  1  0  0  0  0
 23 26  1  0  0  0  0
M  END
$$$$

  -OEChem-01062216063D

 26 25  0     1  0  0  0  0  0999 V2000
   -3.1912   -3.0901    0.9300 H   0  0  0  0  0  0  0  0  0  0  0  0
   -3.0332   -2.0502    0.6303 C   0  0  0  0  0  0  0  0  0  0  0  0
   -3.5557   -1.3994    1.3358 H   0  0  0  0  0  0  0  0  0  0  0  0
   -3.4519   -1.9037   -0.3683 H   0  0  0  0  0  0  0  0  0  0  0  0
   -1.5510   -1.7239    0.6241 C   0  0  0  0  0  0  0  0  0  0  0  0
   -0.7509   -2.6294    0.8026 O   0  0  0  0  0  0  0  0  0  0  0  0
   -1.1639   -0.4306    0.3184 N   0  0  0  0  0  0  0  0  0  0  0  0
   -1.9335    0.1946    0.0831 H   0  0  0  0  0  0  0  0  0  0  0  0
    0.1590    0.2335    0.3861 C   0  0  1  0  0  0  0  0  0  0  0  0
    0.0887    0.9948    1.1717 H   0  0  0  0  0  0  0  0  0  0  0  0
    1.3796   -0.6458    0.7551 C   0  0  0  0  0  0  0  0  0  0  0  0
    1.4313   -1.5146    0.0941 H   0  0  0  0  0  0  0  0  0  0  0  0
    2.3001   -0.0720    0.6204 H   0  0  0  0  0  0  0  0  0  0  0  0
    1.3599   -1.0983    2.2127 C   0  0  0  0  0  0  0  0  0  0  0  0
    1.0467   -0.3457    3.1172 O   0  0  0  0  0  0  0  0  0  0  0  0
    1.6113   -2.3895    2.5719 N   0  0  0  0  0  0  0  0  0  0  0  0
    1.3368   -2.6010    3.5261 H   0  0  0  0  0  0  0  0  0  0  0  0
    1.3951   -3.0783    1.8551 H   0  0  0  0  0  0  0  0  0  0  0  0
    0.3651    1.0383   -0.9152 C   0  0  0  0  0  0  0  0  0  0  0  0
   -0.4793    1.8664   -1.2327 O   0  0  0  0  0  0  0  0  0  0  0  0
    1.4173    0.7896   -1.7796 N   0  0  0  0  0  0  0  0  0  0  0  0
    2.0475    0.0292   -1.5440 H   0  0  0  0  0  0  0  0  0  0  0  0
    1.5762    1.4636   -3.0627 C   0  0  0  0  0  0  0  0  0  0  0  0
    1.6422    2.5477   -2.9208 H   0  0  0  0  0  0  0  0  0  0  0  0
    2.4917    1.1250   -3.5572 H   0  0  0  0  0  0  0  0  0  0  0  0
    0.7267    1.2447   -3.7183 H   0  0  0  0  0  0  0  0  0  0  0  0
  1  2  1  0  0  0  0
  2  3  1  0  0  0  0
  2  4  1  0  0  0  0
  2  5  1  0  0  0  0
  5  6  2  0  0  0  0
  5  7  1  0  0  0  0
  7  8  1  0  0  0  0
  7  9  1  0  0  0  0
  9 10  1  0  0  0  0
  9 11  1  0  0  0  0
  9 19  1  0  0  0  0
 11 12  1  0  0  0  0
 11 13  1  0  0  0  0
 11 14  1  0  0  0  0
 14 15  2  0  0  0  0
 14 16  1  0  0  0  0
 16 17  1  0  0  0  0
 16 18  1  0  0  0  0
 19 20  2  0  0  0  0
 19 21  1  0  0  0  0
 21 22  1  0  0  0  0
 21 23  1  0  0  0  0
 23 24  1  0  0  0  0
 23 25  1  0  0  0  0
 23 26  1  0  0  0  0
M  END
$$$$

  -OEChem-01062216063D

 26 25  0     1  0  0  0  0  0999 V2000
   -3.1748   -3.0946    0.9871 H   0  0  0  0  0  0  0  0  0  0  0  0
   -3.0282   -2.0594    0.6661 C   0  0  0  0  0  0  0  0  0  0  0  0
   -3.5326   -1.3987    1.3755 H   0  0  0  0  0  0  0  0  0  0  0  0
   -3.4754   -1.9303   -0.3225 H   0  0  0  0  0  0  0  0  0  0  0  0
   -1.5480   -1.7295    0.6125 C   0  0  0  0  0  0  0  0  0  0  0  0
   -0.7398   -2.6336    0.7591 O   0  0  0  0  0  0  0  0  0  0  0  0
   -1.1724   -0.4352    0.2967 N   0  0  0  0  0  0  0  0  0  0  0  0
   -1.9527    0.1941    0.1157 H   0  0  0  0  0  0  0  0  0  0  0  0
    0.1476    0.2341    0.3702 C   0  0  1  0  0  0  0  0  0  0  0  0
    0.0699    0.9968    1.1539 H   0  0  0  0  0  0  0  0  0  0  0  0
    1.3733   -0.6345    0.7434 C   0  0  0  0  0  0  0  0  0  0  0  0
    1.4351   -1.5040    0.0848 H   0  0  0  0  0  0  0  0  0  0  0  0
    2.2877   -0.0513    0.6053 H   0  0  0  0  0  0  0  0  0  0  0  0
    1.3536   -1.0873    2.2008 C   0  0  0  0  0  0  0  0  0  0  0  0
    1.0320   -0.3388    3.1056 O   0  0  0  0  0  0  0  0  0  0  0  0
    1.5979   -2.3803    2.5583 N   0  0  0  0  0  0  0  0  0  0  0  0
    1.3197   -2.5930    3.5111 H   0  0  0  0  0  0  0  0  0  0  0  0
    1.3843   -3.0673    1.8389 H   0  0  0  0  0  0  0  0  0  0  0  0
    0.3694    1.0302   -0.9312 C   0  0  0  0  0  0  0  0  0  0  0  0
   -0.3208    2.0178   -1.1442 O   0  0  0  0  0  0  0  0  0  0  0  0
    1.2343    0.5874   -1.9167 N   0  0  0  0  0  0  0  0  0  0  0  0
    1.6995   -0.3021   -1.7632 H   0  0  0  0  0  0  0  0  0  0  0  0
    1.3770    1.2427   -3.2112 C   0  0  0  0  0  0  0  0  0  0  0  0
    1.6853    2.2855   -3.0811 H   0  0  0  0  0  0  0  0  0  0  0  0
    2.1355    0.7321   -3.8124 H   0  0  0  0  0  0  0  0  0  0  0  0
    0.4287    1.2213   -3.7584 H   0  0  0  0  0  0  0  0  0  0  0  0
  1  2  1  0  0  0  0
  2  3  1  0  0  0  0
  2  4  1  0  0  0  0
  2  5  1  0  0  0  0
  5  6  2  0  0  0  0
  5  7  1  0  0  0  0
  7  8  1  0  0  0  0
  7  9  1  0  0  0  0
  9 10  1  0  0  0  0
  9 11  1  0  0  0  0
  9 19  1  0  0  0  0
 11 12  1  0  0  0  0
 11 13  1  0  0  0  0
 11 14  1  0  0  0  0
 14 15  2  0  0  0  0
 14 16  1  0  0  0  0
 16 17  1  0  0  0  0
 16 18  1  0  0  0  0
 19 20  2  0  0  0  0
 19 21  1  0  0  0  0
 21 22  1  0  0  0  0
 21 23  1  0  0  0  0
 23 24  1  0  0  0  0
 23 25  1  0  0  0  0
 23 26  1  0  0  0  0
M  END
$$$$

  -OEChem-01062216063D

 26 25  0     1  0  0  0  0  0999 V2000
   -3.1569   -3.1190    0.9688 H   0  0  0  0  0  0  0  0  0  0  0  0
   -3.0254   -2.0650    0.7080 C   0  0  0  0  0  0  0  0  0  0  0  0
   -3.4881   -1.4520    1.4854 H   0  0  0  0  0  0  0  0  0  0  0  0
   -3.5255   -1.8729   -0.2443 H   0  0  0  0  0  0  0  0  0  0  0  0
   -1.5493   -1.7313    0.5966 C   0  0  0  0  0  0  0  0  0  0  0  0
   -0.7330   -2.6333    0.7065 O   0  0  0  0  0  0  0  0  0  0  0  0
   -1.1864   -0.4359    0.2700 N   0  0  0  0  0  0  0  0  0  0  0  0
   -1.9754    0.1938    0.1357 H   0  0  0  0  0  0  0  0  0  0  0  0
    0.1297    0.2404    0.3546 C   0  0  1  0  0  0  0  0  0  0  0  0
    0.0428    1.0042    1.1368 H   0  0  0  0  0  0  0  0  0  0  0  0
    1.3610   -0.6183    0.7309 C   0  0  0  0  0  0  0  0  0  0  0  0
    1.4362   -1.4849    0.0700 H   0  0  0  0  0  0  0  0  0  0  0  0
    2.2703   -0.0258    0.5966 H   0  0  0  0  0  0  0  0  0  0  0  0
    1.3371   -1.0773    2.1860 C   0  0  0  0  0  0  0  0  0  0  0  0
    1.0033   -0.3364    3.0927 O   0  0  0  0  0  0  0  0  0  0  0  0
    1.5945   -2.3693    2.5387 N   0  0  0  0  0  0  0  0  0  0  0  0
    1.3132   -2.5921    3.4883 H   0  0  0  0  0  0  0  0  0  0  0  0
    1.4049   -3.0566    1.8132 H   0  0  0  0  0  0  0  0  0  0  0  0
    0.3684    1.0248   -0.9489 C   0  0  0  0  0  0  0  0  0  0  0  0
   -0.1112    2.1430   -1.0726 O   0  0  0  0  0  0  0  0  0  0  0  0
    0.9993    0.4334   -2.0287 N   0  0  0  0  0  0  0  0  0  0  0  0
    1.2589   -0.5442   -1.9342 H   0  0  0  0  0  0  0  0  0  0  0  0
    1.1225    1.0728   -3.3330 C   0  0  0  0  0  0  0  0  0  0  0  0
    1.6433    2.0319   -3.2424 H   0  0  0  0  0  0  0  0  0  0  0  0
    1.6931    0.4348   -4.0146 H   0  0  0  0  0  0  0  0  0  0  0  0
    0.1332    1.2487   -3.7682 H   0  0  0  0  0  0  0  0  0  0  0  0
  1  2  1  0  0  0  0
  2  3  1  0  0  0  0
  2  4  1  0  0  0  0
  2  5  1  0  0  0  0
  5  6  2  0  0  0  0
  5  7  1  0  0  0  0
  7  8  1  0  0  0  0
  7  9  1  0  0  0  0
  9 10  1  0  0  0  0
  9 11  1  0  0  0  0
  9 19  1  0  0  0  0
 11 12  1  0  0  0  0
 11 13  1  0  0  0  0
 11 14  1  0  0  0  0
 14 15  2  0  0  0  0
 14 16  1  0  0  0  0
 16 17  1  0  0  0  0
 16 18  1  0  0  0  0
 19 20  2  0  0  0  0
 19 21  1  0  0  0  0
 21 22  1  0  0  0  0
 21 23  1  0  0  0  0
 23 24  1  0  0  0  0
 23 25  1  0  0  0  0
 23 26  1  0  0  0  0
M  END
$$$$

  -OEChem-01062216063D

 26 25  0     1  0  0  0  0  0999 V2000
   -3.1390   -3.1256    1.0622 H   0  0  0  0  0  0  0  0  0  0  0  0
   -3.0235   -2.0804    0.7612 C   0  0  0  0  0  0  0  0  0  0  0  0
   -3.4662   -1.4441    1.5315 H   0  0  0  0  0  0  0  0  0  0  0  0
   -3.5548   -1.9241   -0.1807 H   0  0  0  0  0  0  0  0  0  0  0  0
   -1.5543   -1.7415    0.5917 C   0  0  0  0  0  0  0  0  0  0  0  0
   -0.7308   -2.6408    0.6597 O   0  0  0  0  0  0  0  0  0  0  0  0
   -1.2082   -0.4451    0.2521 N   0  0  0  0  0  0  0  0  0  0  0  0
   -2.0059    0.1809    0.1623 H   0  0  0  0  0  0  0  0  0  0  0  0
    0.1034    0.2414    0.3373 C   0  0  1  0  0  0  0  0  0  0  0  0
    0.0108    1.0059    1.1183 H   0  0  0  0  0  0  0  0  0  0  0  0
    1.3429   -0.6055    0.7087 C   0  0  0  0  0  0  0  0  0  0  0  0
    1.4284   -1.4678    0.0435 H   0  0  0  0  0  0  0  0  0  0  0  0
    2.2450   -0.0018    0.5748 H   0  0  0  0  0  0  0  0  0  0  0  0
    1.3244   -1.0685    2.1624 C   0  0  0  0  0  0  0  0  0  0  0  0
    0.9839   -0.3340    3.0719 O   0  0  0  0  0  0  0  0  0  0  0  0
    1.5901   -2.3598    2.5114 N   0  0  0  0  0  0  0  0  0  0  0  0
    1.3127   -2.5890    3.4606 H   0  0  0  0  0  0  0  0  0  0  0  0
    1.4123   -3.0470    1.7831 H   0  0  0  0  0  0  0  0  0  0  0  0
    0.3488    1.0166   -0.9690 C   0  0  0  0  0  0  0  0  0  0  0  0
    0.1432    2.2209   -1.0113 O   0  0  0  0  0  0  0  0  0  0  0  0
    0.7024    0.3433   -2.1241 N   0  0  0  0  0  0  0  0  0  0  0  0
    0.7515   -0.6705   -2.0721 H   0  0  0  0  0  0  0  0  0  0  0  0
    0.8419    0.9947   -3.4208 C   0  0  0  0  0  0  0  0  0  0  0  0
    1.5954    1.7880   -3.3720 H   0  0  0  0  0  0  0  0  0  0  0  0
    1.1547    0.2690   -4.1777 H   0  0  0  0  0  0  0  0  0  0  0  0
   -0.1114    1.4335   -3.7335 H   0  0  0  0  0  0  0  0  0  0  0  0
  1  2  1  0  0  0  0
  2  3  1  0  0  0  0
  2  4  1  0  0  0  0
  2  5  1  0  0  0  0
  5  6  2  0  0  0  0
  5  7  1  0  0  0  0
  7  8  1  0  0  0  0
  7  9  1  0  0  0  0
  9 10  1  0  0  0  0
  9 11  1  0  0  0  0
  9 19  1  0  0  0  0
 11 12  1  0  0  0  0
 11 13  1  0  0  0  0
 11 14  1  0  0  0  0
 14 15  2  0  0  0  0
 14 16  1  0  0  0  0
 16 17  1  0  0  0  0
 16 18  1  0  0  0  0
 19 20  2  0  0  0  0
 19 21  1  0  0  0  0
 21 22  1  0  0  0  0
 21 23  1  0  0  0  0
 23 24  1  0  0  0  0
 23 25  1  0  0  0  0
 23 26  1  0  0  0  0
M  END
$$$$

  -OEChem-01062216063D

 26 25  0     1  0  0  0  0  0999 V2000
   -3.1260   -3.1514    1.1048 H   0  0  0  0  0  0  0  0  0  0  0  0
   -3.0290   -2.1000    0.8194 C   0  0  0  0  0  0  0  0  0  0  0  0
   -3.4443   -1.4812    1.6188 H   0  0  0  0  0  0  0  0  0  0  0  0
   -3.5980   -1.9296   -0.0978 H   0  0  0  0  0  0  0  0  0  0  0  0
   -1.5693   -1.7492    0.5987 C   0  0  0  0  0  0  0  0  0  0  0  0
   -0.7376   -2.6424    0.6301 O   0  0  0  0  0  0  0  0  0  0  0  0
   -1.2433   -0.4507    0.2463 N   0  0  0  0  0  0  0  0  0  0  0  0
   -2.0496    0.1679    0.1918 H   0  0  0  0  0  0  0  0  0  0  0  0
    0.0628    0.2502    0.3270 C   0  0  1  0  0  0  0  0  0  0  0  0
   -0.0326    1.0144    1.1081 H   0  0  0  0  0  0  0  0  0  0  0  0
    1.3137   -0.5845    0.6831 C   0  0  0  0  0  0  0  0  0  0  0  0
    1.4045   -1.4397    0.0092 H   0  0  0  0  0  0  0  0  0  0  0  0
    2.2077    0.0310    0.5473 H   0  0  0  0  0  0  0  0  0  0  0  0
    1.3115   -1.0584    2.1329 C   0  0  0  0  0  0  0  0  0  0  0  0
    0.9693   -0.3354    3.0511 O   0  0  0  0  0  0  0  0  0  0  0  0
    1.6017   -2.3481    2.4683 N   0  0  0  0  0  0  0  0  0  0  0  0
    1.3359   -2.5932    3.4166 H   0  0  0  0  0  0  0  0  0  0  0  0
    1.4397   -3.0320    1.7334 H   0  0  0  0  0  0  0  0  0  0  0  0
    0.3092    1.0192   -0.9823 C   0  0  0  0  0  0  0  0  0  0  0  0
    0.4185    2.2363   -0.9716 O   0  0  0  0  0  0  0  0  0  0  0  0
    0.3661    0.3355   -2.1826 N   0  0  0  0  0  0  0  0  0  0  0  0
    0.2250   -0.6709   -2.1488 H   0  0  0  0  0  0  0  0  0  0  0  0
    0.5593    0.9867   -3.4721 C   0  0  0  0  0  0  0  0  0  0  0  0
    1.5022    1.5436   -3.4824 H   0  0  0  0  0  0  0  0  0  0  0  0
    0.5904    0.2407   -4.2718 H   0  0  0  0  0  0  0  0  0  0  0  0
   -0.2621    1.6810   -3.6773 H   0  0  0  0  0  0  0  0  0  0  0  0
  1  2  1  0  0  0  0
  2  3  1  0  0  0  0
  2  4  1  0  0  0  0
  2  5  1  0  0  0  0
  5  6  2  0  0  0  0
  5  7  1  0  0  0  0
  7  8  1  0  0  0  0
  7  9  1  0  0  0  0
  9 10  1  0  0  0  0
  9 11  1  0  0  0  0
  9 19  1  0  0  0  0
 11 12  1  0  0  0  0
 11 13  1  0  0  0  0
 11 14  1  0  0  0  0
 14 15  2  0  0  0  0
 14 16  1  0  0  0  0
 16 17  1  0  0  0  0
 16 18  1  0  0  0  0
 19 20  2  0  0  0  0
 19 21  1  0  0  0  0
 21 22  1  0  0  0  0
 21 23  1  0  0  0  0
 23 24  1  0  0  0  0
 23 25  1  0  0  0  0
 23 26  1  0  0  0  0
M  END
$$$$

  -OEChem-01062216063D

 26 25  0     1  0  0  0  0  0999 V2000
   -3.1177   -3.1798    1.1298 H   0  0  0  0  0  0  0  0  0  0  0  0
   -3.0330   -2.1230    0.8611 C   0  0  0  0  0  0  0  0  0  0  0  0
   -3.4326   -1.5209    1.6809 H   0  0  0  0  0  0  0  0  0  0  0  0
   -3.6251   -1.9402   -0.0390 H   0  0  0  0  0  0  0  0  0  0  0  0
   -1.5808   -1.7599    0.6121 C   0  0  0  0  0  0  0  0  0  0  0  0
   -0.7426   -2.6472    0.6203 O   0  0  0  0  0  0  0  0  0  0  0  0
   -1.2734   -0.4577    0.2554 N   0  0  0  0  0  0  0  0  0  0  0  0
   -2.0866    0.1534    0.2295 H   0  0  0  0  0  0  0  0  0  0  0  0
    0.0278    0.2569    0.3232 C   0  0  1  0  0  0  0  0  0  0  0  0
   -0.0660    1.0187    1.1066 H   0  0  0  0  0  0  0  0  0  0  0  0
    1.2891   -0.5684    0.6615 C   0  0  0  0  0  0  0  0  0  0  0  0
    1.3796   -1.4179   -0.0195 H   0  0  0  0  0  0  0  0  0  0  0  0
    2.1762    0.0555    0.5185 H   0  0  0  0  0  0  0  0  0  0  0  0
    1.3074   -1.0482    2.1091 C   0  0  0  0  0  0  0  0  0  0  0  0
    0.9695   -0.3325    3.0346 O   0  0  0  0  0  0  0  0  0  0  0  0
    1.6139   -2.3365    2.4356 N   0  0  0  0  0  0  0  0  0  0  0  0
    1.3604   -2.5901    3.3850 H   0  0  0  0  0  0  0  0  0  0  0  0
    1.4578   -3.0189    1.6981 H   0  0  0  0  0  0  0  0  0  0  0  0
    0.2657    1.0326   -0.9847 C   0  0  0  0  0  0  0  0  0  0  0  0
    0.6833    2.1806   -0.9545 O   0  0  0  0  0  0  0  0  0  0  0  0
    0.0196    0.4247   -2.2017 N   0  0  0  0  0  0  0  0  0  0  0  0
   -0.2897   -0.5435   -2.1780 H   0  0  0  0  0  0  0  0  0  0  0  0
    0.2704    1.0634   -3.4874 C   0  0  0  0  0  0  0  0  0  0  0  0
    1.3308    1.3168   -3.5889 H   0  0  0  0  0  0  0  0  0  0  0  0
   -0.0040    0.3897   -4.3047 H   0  0  0  0  0  0  0  0  0  0  0  0
   -0.3213    1.9799   -3.5819 H   0  0  0  0  0  0  0  0  0  0  0  0
  1  2  1  0  0  0  0
  2  3  1  0  0  0  0
  2  4  1  0  0  0  0
  2  5  1  0  0  0  0
  5  6  2  0  0  0  0
  5  7  1  0  0  0  0
  7  8  1  0  0  0  0
  7  9  1  0  0  0  0
  9 10  1  0  0  0  0
  9 11  1  0  0  0  0
  9 19  1  0  0  0  0
 11 12  1  0  0  0  0
 11 13  1  0  0  0  0
 11 14  1  0  0  0  0
 14 15  2  0  0  0  0
 14 16  1  0  0  0  0
 16 17  1  0  0  0  0
 16 18  1  0  0  0  0
 19 20  2  0  0  0  0
 19 21  1  0  0  0  0
 21 22  1  0  0  0  0
 21 23  1  0  0  0  0
 23 24  1  0  0  0  0
 23 25  1  0  0  0  0
 23 26  1  0  0  0  0
M  END
$$$$

  -OEChem-01062216063D

 26 25  0     1  0  0  0  0  0999 V2000
   -3.1078   -3.1934    1.1735 H   0  0  0  0  0  0  0  0  0  0  0  0
   -3.0326   -2.1401    0.8884 C   0  0  0  0  0  0  0  0  0  0  0  0
   -3.4271   -1.5292    1.7042 H   0  0  0  0  0  0  0  0  0  0  0  0
   -3.6361   -1.9742   -0.0072 H   0  0  0  0  0  0  0  0  0  0  0  0
   -1.5853   -1.7721    0.6175 C   0  0  0  0  0  0  0  0  0  0  0  0
   -0.7454   -2.6573    0.6150 O   0  0  0  0  0  0  0  0  0  0  0  0
   -1.2882   -0.4667    0.2613 N   0  0  0  0  0  0  0  0  0  0  0  0
   -2.1047    0.1404    0.2576 H   0  0  0  0  0  0  0  0  0  0  0  0
    0.0109    0.2560    0.3183 C   0  0  1  0  0  0  0  0  0  0  0  0
   -0.0810    1.0154    1.1040 H   0  0  0  0  0  0  0  0  0  0  0  0
    1.2758   -0.5680    0.6499 C   0  0  0  0  0  0  0  0  0  0  0  0
    1.3640   -1.4175   -0.0314 H   0  0  0  0  0  0  0  0  0  0  0  0
    2.1628    0.0551    0.5026 H   0  0  0  0  0  0  0  0  0  0  0  0
    1.3020   -1.0449    2.0983 C   0  0  0  0  0  0  0  0  0  0  0  0
    0.9683   -0.3277    3.0245 O   0  0  0  0  0  0  0  0  0  0  0  0
    1.6174   -2.3307    2.4265 N   0  0  0  0  0  0  0  0  0  0  0  0
    1.3735   -2.5843    3.3783 H   0  0  0  0  0  0  0  0  0  0  0  0
    1.4640   -3.0161    1.6910 H   0  0  0  0  0  0  0  0  0  0  0  0
    0.2470    1.0436   -0.9854 C   0  0  0  0  0  0  0  0  0  0  0  0
    0.9063    2.0726   -0.9701 O   0  0  0  0  0  0  0  0  0  0  0  0
   -0.2750    0.5884   -2.1823 N   0  0  0  0  0  0  0  0  0  0  0  0
   -0.7318   -0.3193   -2.1642 H   0  0  0  0  0  0  0  0  0  0  0  0
   -0.0207    1.2322   -3.4653 C   0  0  0  0  0  0  0  0  0  0  0  0
    1.0497    1.2172   -3.6958 H   0  0  0  0  0  0  0  0  0  0  0  0
   -0.5549    0.7088   -4.2640 H   0  0  0  0  0  0  0  0  0  0  0  0
   -0.3623    2.2726   -3.4462 H   0  0  0  0  0  0  0  0  0  0  0  0
  1  2  1  0  0  0  0
  2  3  1  0  0  0  0
  2  4  1  0  0  0  0
  2  5  1  0  0  0  0
  5  6  2  0  0  0  0
  5  7  1  0  0  0  0
  7  8  1  0  0  0  0
  7  9  1  0  0  0  0
  9 10  1  0  0  0  0
  9 11  1  0  0  0  0
  9 19  1  0  0  0  0
 11 12  1  0  0  0  0
 11 13  1  0  0  0  0
 11 14  1  0  0  0  0
 14 15  2  0  0  0  0
 14 16  1  0  0  0  0
 16 17  1  0  0  0  0
 16 18  1  0  0  0  0
 19 20  2  0  0  0  0
 19 21  1  0  0  0  0
 21 22  1  0  0  0  0
 21 23  1  0  0  0  0
 23 24  1  0  0  0  0
 23 25  1  0  0  0  0
 23 26  1  0  0  0  0
M  END
$$$$

  -OEChem-01062216063D

 26 25  0     1  0  0  0  0  0999 V2000
   -3.1029   -3.2092    1.1463 H   0  0  0  0  0  0  0  0  0  0  0  0
   -3.0257   -2.1483    0.8909 C   0  0  0  0  0  0  0  0  0  0  0  0
   -3.4092   -1.5588    1.7276 H   0  0  0  0  0  0  0  0  0  0  0  0
   -3.6371   -1.9545    0.0062 H   0  0  0  0  0  0  0  0  0  0  0  0
   -1.5798   -1.7778    0.6169 C   0  0  0  0  0  0  0  0  0  0  0  0
   -0.7394   -2.6623    0.6122 O   0  0  0  0  0  0  0  0  0  0  0  0
   -1.2881   -0.4696    0.2648 N   0  0  0  0  0  0  0  0  0  0  0  0
   -2.1059    0.1354    0.2812 H   0  0  0  0  0  0  0  0  0  0  0  0
    0.0100    0.2583    0.3173 C   0  0  1  0  0  0  0  0  0  0  0  0
   -0.0812    1.0162    1.1043 H   0  0  0  0  0  0  0  0  0  0  0  0
    1.2746   -0.5687    0.6487 C   0  0  0  0  0  0  0  0  0  0  0  0
    1.3608   -1.4183   -0.0328 H   0  0  0  0  0  0  0  0  0  0  0  0
    2.1650    0.0495    0.5025 H   0  0  0  0  0  0  0  0  0  0  0  0
    1.3010   -1.0437    2.0975 C   0  0  0  0  0  0  0  0  0  0  0  0
    0.9694   -0.3242    3.0231 O   0  0  0  0  0  0  0  0  0  0  0  0
    1.6134   -2.3300    2.4266 N   0  0  0  0  0  0  0  0  0  0  0  0
    1.3706   -2.5827    3.3789 H   0  0  0  0  0  0  0  0  0  0  0  0
    1.4590   -3.0154    1.6913 H   0  0  0  0  0  0  0  0  0  0  0  0
    0.2428    1.0561   -0.9837 C   0  0  0  0  0  0  0  0  0  0  0  0
    1.0867    1.9398   -1.0211 O   0  0  0  0  0  0  0  0  0  0  0  0
   -0.5148    0.7989   -2.1122 N   0  0  0  0  0  0  0  0  0  0  0  0
   -1.1067   -0.0261   -2.0787 H   0  0  0  0  0  0  0  0  0  0  0  0
   -0.2888    1.4556   -3.3941 C   0  0  0  0  0  0  0  0  0  0  0  0
    0.7109    1.2202   -3.7744 H   0  0  0  0  0  0  0  0  0  0  0  0
   -1.0278    1.1183   -4.1272 H   0  0  0  0  0  0  0  0  0  0  0  0
   -0.3788    2.5422   -3.2896 H   0  0  0  0  0  0  0  0  0  0  0  0
  1  2  1  0  0  0  0
  2  3  1  0  0  0  0
  2  4  1  0  0  0  0
  2  5  1  0  0  0  0
  5  6  2  0  0  0  0
  5  7  1  0  0  0  0
  7  8  1  0  0  0  0
  7  9  1  0  0  0  0
  9 10  1  0  0  0  0
  9 11  1  0  0  0  0
  9 19  1  0  0  0  0
 11 12  1  0  0  0  0
 11 13  1  0  0  0  0
 11 14  1  0  0  0  0
 14 15  2  0  0  0  0
 14 16  1  0  0  0  0
 16 17  1  0  0  0  0
 16 18  1  0  0  0  0
 19 20  2  0  0  0  0
 19 21  1  0  0  0  0
 21 22  1  0  0  0  0
 21 23  1  0  0  0  0
 23 24  1  0  0  0  0
 23 25  1  0  0  0  0
 23 26  1  0  0  0  0
M  END
$$$$

  -OEChem-01062216063D

 26 25  0     1  0  0  0  0  0999 V2000
   -3.0829   -3.2153    1.1596 H   0  0  0  0  0  0  0  0  0  0  0  0
   -3.0100   -2.1552    0.8998 C   0  0  0  0  0  0  0  0  0  0  0  0
   -3.3811   -1.5639    1.7406 H   0  0  0  0  0  0  0  0  0  0  0  0
   -3.6345   -1.9648    0.0237 H   0  0  0  0  0  0  0  0  0  0  0  0
   -1.5684   -1.7853    0.6027 C   0  0  0  0  0  0  0  0  0  0  0  0
   -0.7301   -2.6715    0.5868 O   0  0  0  0  0  0  0  0  0  0  0  0
   -1.2811   -0.4742    0.2554 N   0  0  0  0  0  0  0  0  0  0  0  0
   -2.0979    0.1298    0.3059 H   0  0  0  0  0  0  0  0  0  0  0  0
    0.0170    0.2559    0.3075 C   0  0  1  0  0  0  0  0  0  0  0  0
   -0.0750    1.0128    1.0948 H   0  0  0  0  0  0  0  0  0  0  0  0
    1.2776   -0.5775    0.6478 C   0  0  0  0  0  0  0  0  0  0  0  0
    1.3642   -1.4289   -0.0313 H   0  0  0  0  0  0  0  0  0  0  0  0
    2.1742    0.0329    0.5074 H   0  0  0  0  0  0  0  0  0  0  0  0
    1.2930   -1.0454    2.0989 C   0  0  0  0  0  0  0  0  0  0  0  0
    0.9602   -0.3190    3.0190 O   0  0  0  0  0  0  0  0  0  0  0  0
    1.5925   -2.3327    2.4361 N   0  0  0  0  0  0  0  0  0  0  0  0
    1.3391   -2.5807    3.3868 H   0  0  0  0  0  0  0  0  0  0  0  0
    1.4424   -3.0198    1.7014 H   0  0  0  0  0  0  0  0  0  0  0  0
    0.2484    1.0631   -0.9918 C   0  0  0  0  0  0  0  0  0  0  0  0
    1.2282    1.7858   -1.1069 O   0  0  0  0  0  0  0  0  0  0  0  0
   -0.6859    1.0436   -2.0129 N   0  0  0  0  0  0  0  0  0  0  0  0
   -1.3986    0.3229   -1.9540 H   0  0  0  0  0  0  0  0  0  0  0  0
   -0.4958    1.7408   -3.2798 C   0  0  0  0  0  0  0  0  0  0  0  0
    0.3778    1.3445   -3.8079 H   0  0  0  0  0  0  0  0  0  0  0  0
   -1.3755    1.6130   -3.9178 H   0  0  0  0  0  0  0  0  0  0  0  0
   -0.3480    2.8125   -3.1094 H   0  0  0  0  0  0  0  0  0  0  0  0
  1  2  1  0  0  0  0
  2  3  1  0  0  0  0
  2  4  1  0  0  0  0
  2  5  1  0  0  0  0
  5  6  2  0  0  0  0
  5  7  1  0  0  0  0
  7  8  1  0  0  0  0
  7  9  1  0  0  0  0
  9 10  1  0  0  0  0
  9 11  1  0  0  0  0
  9 19  1  0  0  0  0
 11 12  1  0  0  0  0
 11 13  1  0  0  0  0
 11 14  1  0  0  0  0
 14 15  2  0  0  0  0
 14 16  1  0  0  0  0
 16 17  1  0  0  0  0
 16 18  1  0  0  0  0
 19 20  2  0  0  0  0
 19 21  1  0  0  0  0
 21 22  1  0  0  0  0
 21 23  1  0  0  0  0
 23 24  1  0  0  0  0
 23 25  1  0  0  0  0
 23 26  1  0  0  0  0
M  END
$$$$

  -OEChem-01062216063D

 26 25  0     1  0  0  0  0  0999 V2000
   -3.0632   -3.1978    1.1986 H   0  0  0  0  0  0  0  0  0  0  0  0
   -2.9964   -2.1537    0.8790 C   0  0  0  0  0  0  0  0  0  0  0  0
   -3.3906   -1.5193    1.6768 H   0  0  0  0  0  0  0  0  0  0  0  0
   -3.6049   -2.0211   -0.0187 H   0  0  0  0  0  0  0  0  0  0  0  0
   -1.5531   -1.7859    0.5875 C   0  0  0  0  0  0  0  0  0  0  0  0
   -0.7180   -2.6751    0.5747 O   0  0  0  0  0  0  0  0  0  0  0  0
   -1.2634   -0.4727    0.2489 N   0  0  0  0  0  0  0  0  0  0  0  0
   -2.0777    0.1316    0.3218 H   0  0  0  0  0  0  0  0  0  0  0  0
    0.0377    0.2532    0.2998 C   0  0  1  0  0  0  0  0  0  0  0  0
   -0.0512    1.0096    1.0875 H   0  0  0  0  0  0  0  0  0  0  0  0
    1.2922   -0.5887    0.6487 C   0  0  0  0  0  0  0  0  0  0  0  0
    1.3778   -1.4422   -0.0280 H   0  0  0  0  0  0  0  0  0  0  0  0
    2.1953    0.0129    0.5147 H   0  0  0  0  0  0  0  0  0  0  0  0
    1.2970   -1.0482    2.1024 C   0  0  0  0  0  0  0  0  0  0  0  0
    0.9656   -0.3136    3.0167 O   0  0  0  0  0  0  0  0  0  0  0  0
    1.5714   -2.3392    2.4466 N   0  0  0  0  0  0  0  0  0  0  0  0
    1.3052   -2.5794    3.3958 H   0  0  0  0  0  0  0  0  0  0  0  0
    1.4130   -3.0254    1.7122 H   0  0  0  0  0  0  0  0  0  0  0  0
    0.2598    1.0690   -0.9989 C   0  0  0  0  0  0  0  0  0  0  0  0
    1.3378    1.5968   -1.2353 O   0  0  0  0  0  0  0  0  0  0  0  0
   -0.7917    1.3094   -1.8672 N   0  0  0  0  0  0  0  0  0  0  0  0
   -1.6185    0.7354   -1.7416 H   0  0  0  0  0  0  0  0  0  0  0  0
   -0.6390    2.0467   -3.1164 C   0  0  0  0  0  0  0  0  0  0  0  0
    0.0589    1.5296   -3.7832 H   0  0  0  0  0  0  0  0  0  0  0  0
   -1.6041    2.1359   -3.6242 H   0  0  0  0  0  0  0  0  0  0  0  0
   -0.2589    3.0555   -2.9229 H   0  0  0  0  0  0  0  0  0  0  0  0
  1  2  1  0  0  0  0
  2  3  1  0  0  0  0
  2  4  1  0  0  0  0
  2  5  1  0  0  0  0
  5  6  2  0  0  0  0
  5  7  1  0  0  0  0
  7  8  1  0  0  0  0
  7  9  1  0  0  0  0
  9 10  1  0  0  0  0
  9 11  1  0  0  0  0
  9 19  1  0  0  0  0
 11 12  1  0  0  0  0
 11 13  1  0  0  0  0
 11 14  1  0  0  0  0
 14 15  2  0  0  0  0
 14 16  1  0  0  0  0
 16 17  1  0  0  0  0
 16 18  1  0  0  0  0
 19 20  2  0  0  0  0
 19 21  1  0  0  0  0
 21 22  1  0  0  0  0
 21 23  1  0  0  0  0
 23 24  1  0  0  0  0
 23 25  1  0  0  0  0
 23 26  1  0  0  0  0
M  END
$$$$

  -OEChem-01062216063D

 26 25  0     1  0  0  0  0  0999 V2000
   -3.0778   -3.2112    1.1060 H   0  0  0  0  0  0  0  0  0  0  0  0
   -2.9974   -2.1520    0.8446 C   0  0  0  0  0  0  0  0  0  0  0  0
   -3.3864   -1.5573    1.6748 H   0  0  0  0  0  0  0  0  0  0  0  0
   -3.6015   -1.9638   -0.0461 H   0  0  0  0  0  0  0  0  0  0  0  0
   -1.5489   -1.7861    0.5775 C   0  0  0  0  0  0  0  0  0  0  0  0
   -0.7140   -2.6755    0.5915 O   0  0  0  0  0  0  0  0  0  0  0  0
   -1.2546   -0.4722    0.2443 N   0  0  0  0  0  0  0  0  0  0  0  0
   -2.0699    0.1297    0.3102 H   0  0  0  0  0  0  0  0  0  0  0  0
    0.0492    0.2484    0.2933 C   0  0  1  0  0  0  0  0  0  0  0  0
   -0.0388    1.0046    1.0811 H   0  0  0  0  0  0  0  0  0  0  0  0
    1.3002   -0.5960    0.6530 C   0  0  0  0  0  0  0  0  0  0  0  0
    1.3863   -1.4537   -0.0181 H   0  0  0  0  0  0  0  0  0  0  0  0
    2.2057    0.0019    0.5196 H   0  0  0  0  0  0  0  0  0  0  0  0
    1.3017   -1.0450    2.1096 C   0  0  0  0  0  0  0  0  0  0  0  0
    0.9713   -0.3018    3.0175 O   0  0  0  0  0  0  0  0  0  0  0  0
    1.5802   -2.3323    2.4637 N   0  0  0  0  0  0  0  0  0  0  0  0
    1.3169   -2.5667    3.4151 H   0  0  0  0  0  0  0  0  0  0  0  0
    1.4226   -3.0238    1.7342 H   0  0  0  0  0  0  0  0  0  0  0  0
    0.2655    1.0694   -1.0056 C   0  0  0  0  0  0  0  0  0  0  0  0
    1.3869    1.3525   -1.4050 O   0  0  0  0  0  0  0  0  0  0  0  0
   -0.8172    1.5804   -1.7025 N   0  0  0  0  0  0  0  0  0  0  0  0
   -1.7359    1.2437   -1.4398 H   0  0  0  0  0  0  0  0  0  0  0  0
   -0.6817    2.3470   -2.9365 C   0  0  0  0  0  0  0  0  0  0  0  0
   -0.2093    1.7395   -3.7157 H   0  0  0  0  0  0  0  0  0  0  0  0
   -1.6655    2.6658   -3.2937 H   0  0  0  0  0  0  0  0  0  0  0  0
   -0.0708    3.2404   -2.7678 H   0  0  0  0  0  0  0  0  0  0  0  0
  1  2  1  0  0  0  0
  2  3  1  0  0  0  0
  2  4  1  0  0  0  0
  2  5  1  0  0  0  0
  5  6  2  0  0  0  0
  5  7  1  0  0  0  0
  7  8  1  0  0  0  0
  7  9  1  0  0  0  0
  9 10  1  0  0  0  0
  9 11  1  0  0  0  0
  9 19  1  0  0  0  0
 11 12  1  0  0  0  0
 11 13  1  0  0  0  0
 11 14  1  0  0  0  0
 14 15  2  0  0  0  0
 14 16  1  0  0  0  0
 16 17  1  0  0  0  0
 16 18  1  0  0  0  0
 19 20  2  0  0  0  0
 19 21  1  0  0  0  0
 21 22  1  0  0  0  0
 21 23  1  0  0  0  0
 23 24  1  0  0  0  0
 23 25  1  0  0  0  0
 23 26  1  0  0  0  0
M  END
$$$$

  -OEChem-01062216063D

 26 25  0     1  0  0  0  0  0999 V2000
   -3.1590   -3.1672    1.0667 H   0  0  0  0  0  0  0  0  0  0  0  0
   -3.0466   -2.1345    0.7238 C   0  0  0  0  0  0  0  0  0  0  0  0
   -3.5520   -1.4745    1.4330 H   0  0  0  0  0  0  0  0  0  0  0  0
   -3.5190   -2.0371   -0.2568 H   0  0  0  0  0  0  0  0  0  0  0  0
   -1.5759   -1.7698    0.6305 C   0  0  0  0  0  0  0  0  0  0  0  0
   -0.7503   -2.6528    0.7916 O   0  0  0  0  0  0  0  0  0  0  0  0
   -1.2458   -0.4674    0.2868 N   0  0  0  0  0  0  0  0  0  0  0  0
   -2.0570    0.1262    0.1496 H   0  0  0  0  0  0  0  0  0  0  0  0
    0.0706    0.2284    0.2978 C   0  0  1  0  0  0  0  0  0  0  0  0
    0.0098    0.9933    1.0795 H   0  0  0  0  0  0  0  0  0  0  0  0
    1.3203   -0.6197    0.6484 C   0  0  0  0  0  0  0  0  0  0  0  0
    1.3729   -1.4956   -0.0030 H   0  0  0  0  0  0  0  0  0  0  0  0
    2.2274   -0.0350    0.4722 H   0  0  0  0  0  0  0  0  0  0  0  0
    1.3540   -1.0398    2.1136 C   0  0  0  0  0  0  0  0  0  0  0  0
    1.0519   -0.2726    3.0119 O   0  0  0  0  0  0  0  0  0  0  0  0
    1.6660   -2.3121    2.4935 N   0  0  0  0  0  0  0  0  0  0  0  0
    1.4273   -2.5229    3.4567 H   0  0  0  0  0  0  0  0  0  0  0  0
    1.4920   -3.0245    1.7887 H   0  0  0  0  0  0  0  0  0  0  0  0
    0.2578    1.0348   -1.0124 C   0  0  0  0  0  0  0  0  0  0  0  0
    1.3007    0.9965   -1.6517 O   0  0  0  0  0  0  0  0  0  0  0  0
   -0.7795    1.8120   -1.5027 N   0  0  0  0  0  0  0  0  0  0  0  0
   -1.6019    1.9221   -0.9208 H   0  0  0  0  0  0  0  0  0  0  0  0
   -0.6686    2.6176   -2.7139 C   0  0  0  0  0  0  0  0  0  0  0  0
   -0.4241    1.9849   -3.5738 H   0  0  0  0  0  0  0  0  0  0  0  0
   -1.6159    3.1253   -2.9191 H   0  0  0  0  0  0  0  0  0  0  0  0
    0.1138    3.3754   -2.6006 H   0  0  0  0  0  0  0  0  0  0  0  0
  1  2  1  0  0  0  0
  2  3  1  0  0  0  0
  2  4  1  0  0  0  0
  2  5  1  0  0  0  0
  5  6  2  0  0  0  0
  5  7  1  0  0  0  0
  7  8  1  0  0  0  0
  7  9  1  0  0  0  0
  9 10  1  0  0  0  0
  9 11  1  0  0  0  0
  9 19  1  0  0  0  0
 11 12  1  0  0  0  0
 11 13  1  0  0  0  0
 11 14  1  0  0  0  0
 14 15  2  0  0  0  0
 14 16  1  0  0  0  0
 16 17  1  0  0  0  0
 16 18  1  0  0  0  0
 19 20  2  0  0  0  0
 19 21  1  0  0  0  0
 21 22  1  0  0  0  0
 21 23  1  0  0  0  0
 23 24  1  0  0  0  0
 23 25  1  0  0  0  0
 23 26  1  0  0  0  0
M  END
$$$$

  -OEChem-01062216063D

 26 25  0     1  0  0  0  0  0999 V2000
   -3.1926   -3.1435    1.0219 H   0  0  0  0  0  0  0  0  0  0  0  0
   -3.0637   -2.1123    0.6798 C   0  0  0  0  0  0  0  0  0  0  0  0
   -3.6023   -1.4488    1.3607 H   0  0  0  0  0  0  0  0  0  0  0  0
   -3.4877   -2.0192   -0.3231 H   0  0  0  0  0  0  0  0  0  0  0  0
   -1.5906   -1.7472    0.6552 C   0  0  0  0  0  0  0  0  0  0  0  0
   -0.7741   -2.6253    0.8776 O   0  0  0  0  0  0  0  0  0  0  0  0
   -1.2454   -0.4504    0.3065 N   0  0  0  0  0  0  0  0  0  0  0  0
   -2.0435    0.1318    0.0716 H   0  0  0  0  0  0  0  0  0  0  0  0
    0.0753    0.2332    0.3091 C   0  0  1  0  0  0  0  0  0  0  0  0
    0.0274    0.9990    1.0903 H   0  0  0  0  0  0  0  0  0  0  0  0
    1.3256   -0.6162    0.6469 C   0  0  0  0  0  0  0  0  0  0  0  0
    1.3644   -1.4945   -0.0027 H   0  0  0  0  0  0  0  0  0  0  0  0
    2.2299   -0.0328    0.4526 H   0  0  0  0  0  0  0  0  0  0  0  0
    1.3751   -1.0383    2.1114 C   0  0  0  0  0  0  0  0  0  0  0  0
    1.0835   -0.2691    3.0116 O   0  0  0  0  0  0  0  0  0  0  0  0
    1.6998   -2.3081    2.4892 N   0  0  0  0  0  0  0  0  0  0  0  0
    1.4670   -2.5190    3.4539 H   0  0  0  0  0  0  0  0  0  0  0  0
    1.5182   -3.0211    1.7872 H   0  0  0  0  0  0  0  0  0  0  0  0
    0.2489    1.0268   -1.0062 C   0  0  0  0  0  0  0  0  0  0  0  0
    1.1433    0.7723   -1.8016 O   0  0  0  0  0  0  0  0  0  0  0  0
   -0.6532    2.0301   -1.3194 N   0  0  0  0  0  0  0  0  0  0  0  0
   -1.3104    2.3102   -0.5986 H   0  0  0  0  0  0  0  0  0  0  0  0
   -0.5409    2.8537   -2.5181 C   0  0  0  0  0  0  0  0  0  0  0  0
   -0.5487    2.2274   -3.4165 H   0  0  0  0  0  0  0  0  0  0  0  0
   -1.3818    3.5512   -2.5784 H   0  0  0  0  0  0  0  0  0  0  0  0
    0.3892    3.4315   -2.5003 H   0  0  0  0  0  0  0  0  0  0  0  0
  1  2  1  0  0  0  0
  2  3  1  0  0  0  0
  2  4  1  0  0  0  0
  2  5  1  0  0  0  0
  5  6  2  0  0  0  0
  5  7  1  0  0  0  0
  7  8  1  0  0  0  0
  7  9  1  0  0  0  0
  9 10  1  0  0  0  0
  9 11  1  0  0  0  0
  9 19  1  0  0  0  0
 11 12  1  0  0  0  0
 11 13  1  0  0  0  0
 11 14  1  0  0  0  0
 14 15  2  0  0  0  0
 14 16  1  0  0  0  0
 16 17  1  0  0  0  0
 16 18  1  0  0  0  0
 19 20  2  0  0  0  0
 19 21  1  0  0  0  0
 21 22  1  0  0  0  0
 21 23  1  0  0  0  0
 23 24  1  0  0  0  0
 23 25  1  0  0  0  0
 23 26  1  0  0  0  0
M  END
$$$$

  -OEChem-01062216063D

 26 25  0     1  0  0  0  0  0999 V2000
   -3.2046   -3.1362    1.0102 H   0  0  0  0  0  0  0  0  0  0  0  0
   -3.0735   -2.1045    0.6710 C   0  0  0  0  0  0  0  0  0  0  0  0
   -3.6248   -1.4429    1.3433 H   0  0  0  0  0  0  0  0  0  0  0  0
   -3.4817   -2.0119   -0.3385 H   0  0  0  0  0  0  0  0  0  0  0  0
   -1.6014   -1.7355    0.6698 C   0  0  0  0  0  0  0  0  0  0  0  0
   -0.7864   -2.6094    0.9132 O   0  0  0  0  0  0  0  0  0  0  0  0
   -1.2543   -0.4397    0.3206 N   0  0  0  0  0  0  0  0  0  0  0  0
   -2.0486    0.1387    0.0626 H   0  0  0  0  0  0  0  0  0  0  0  0
    0.0655    0.2422    0.3219 C   0  0  1  0  0  0  0  0  0  0  0  0
    0.0208    1.0024    1.1087 H   0  0  0  0  0  0  0  0  0  0  0  0
    1.3204   -0.6048    0.6441 C   0  0  0  0  0  0  0  0  0  0  0  0
    1.3530   -1.4800   -0.0102 H   0  0  0  0  0  0  0  0  0  0  0  0
    2.2202   -0.0175    0.4413 H   0  0  0  0  0  0  0  0  0  0  0  0
    1.3836   -1.0391    2.1043 C   0  0  0  0  0  0  0  0  0  0  0  0
    1.0961   -0.2771    3.0119 O   0  0  0  0  0  0  0  0  0  0  0  0
    1.7234   -2.3083    2.4702 N   0  0  0  0  0  0  0  0  0  0  0  0
    1.4995   -2.5273    3.4353 H   0  0  0  0  0  0  0  0  0  0  0  0
    1.5392   -3.0178    1.7654 H   0  0  0  0  0  0  0  0  0  0  0  0
    0.2389    1.0339   -0.9918 C   0  0  0  0  0  0  0  0  0  0  0  0
    0.9485    0.6215   -1.8989 O   0  0  0  0  0  0  0  0  0  0  0  0
   -0.4488    2.2225   -1.1671 N   0  0  0  0  0  0  0  0  0  0  0  0
   -0.9566    2.5942   -0.3700 H   0  0  0  0  0  0  0  0  0  0  0  0
   -0.3101    3.0535   -2.3578 C   0  0  0  0  0  0  0  0  0  0  0  0
   -0.5702    2.4837   -3.2561 H   0  0  0  0  0  0  0  0  0  0  0  0
   -0.9763    3.9193   -2.2952 H   0  0  0  0  0  0  0  0  0  0  0  0
    0.7194    3.4138   -2.4555 H   0  0  0  0  0  0  0  0  0  0  0  0
  1  2  1  0  0  0  0
  2  3  1  0  0  0  0
  2  4  1  0  0  0  0
  2  5  1  0  0  0  0
  5  6  2  0  0  0  0
  5  7  1  0  0  0  0
  7  8  1  0  0  0  0
  7  9  1  0  0  0  0
  9 10  1  0  0  0  0
  9 11  1  0  0  0  0
  9 19  1  0  0  0  0
 11 12  1  0  0  0  0
 11 13  1  0  0  0  0
 11 14  1  0  0  0  0
 14 15  2  0  0  0  0
 14 16  1  0  0  0  0
 16 17  1  0  0  0  0
 16 18  1  0  0  0  0
 19 20  2  0  0  0  0
 19 21  1  0  0  0  0
 21 22  1  0  0  0  0
 21 23  1  0  0  0  0
 23 24  1  0  0  0  0
 23 25  1  0  0  0  0
 23 26  1  0  0  0  0
M  END
$$$$

  -OEChem-01062216063D

 26 25  0     1  0  0  0  0  0999 V2000
   -3.2121   -3.1348    1.0031 H   0  0  0  0  0  0  0  0  0  0  0  0
   -3.0808   -2.1024    0.6659 C   0  0  0  0  0  0  0  0  0  0  0  0
   -3.6423   -1.4429    1.3319 H   0  0  0  0  0  0  0  0  0  0  0  0
   -3.4779   -2.0107   -0.3480 H   0  0  0  0  0  0  0  0  0  0  0  0
   -1.6101   -1.7277    0.6819 C   0  0  0  0  0  0  0  0  0  0  0  0
   -0.7949   -2.5977    0.9390 O   0  0  0  0  0  0  0  0  0  0  0  0
   -1.2635   -0.4313    0.3353 N   0  0  0  0  0  0  0  0  0  0  0  0
   -2.0552    0.1430    0.0600 H   0  0  0  0  0  0  0  0  0  0  0  0
    0.0547    0.2524    0.3378 C   0  0  1  0  0  0  0  0  0  0  0  0
    0.0094    1.0041    1.1325 H   0  0  0  0  0  0  0  0  0  0  0  0
    1.3141   -0.5916    0.6440 C   0  0  0  0  0  0  0  0  0  0  0  0
    1.3424   -1.4613   -0.0181 H   0  0  0  0  0  0  0  0  0  0  0  0
    2.2104   -0.0003    0.4378 H   0  0  0  0  0  0  0  0  0  0  0  0
    1.3893   -1.0414    2.0991 C   0  0  0  0  0  0  0  0  0  0  0  0
    1.1044   -0.2893    3.0159 O   0  0  0  0  0  0  0  0  0  0  0  0
    1.7439   -2.3110    2.4497 N   0  0  0  0  0  0  0  0  0  0  0  0
    1.5284   -2.5407    3.4141 H   0  0  0  0  0  0  0  0  0  0  0  0
    1.5569   -3.0151    1.7403 H   0  0  0  0  0  0  0  0  0  0  0  0
    0.2333    1.0481   -0.9711 C   0  0  0  0  0  0  0  0  0  0  0  0
    0.7102    0.5236   -1.9679 O   0  0  0  0  0  0  0  0  0  0  0  0
   -0.1857    2.3653   -1.0404 N   0  0  0  0  0  0  0  0  0  0  0  0
   -0.5139    2.8026   -0.1841 H   0  0  0  0  0  0  0  0  0  0  0  0
   -0.0179    3.1920   -2.2304 C   0  0  0  0  0  0  0  0  0  0  0  0
   -0.5122    2.7306   -3.0919 H   0  0  0  0  0  0  0  0  0  0  0  0
   -0.4589    4.1805   -2.0702 H   0  0  0  0  0  0  0  0  0  0  0  0
    1.0450    3.3191   -2.4614 H   0  0  0  0  0  0  0  0  0  0  0  0
  1  2  1  0  0  0  0
  2  3  1  0  0  0  0
  2  4  1  0  0  0  0
  2  5  1  0  0  0  0
  5  6  2  0  0  0  0
  5  7  1  0  0  0  0
  7  8  1  0  0  0  0
  7  9  1  0  0  0  0
  9 10  1  0  0  0  0
  9 11  1  0  0  0  0
  9 19  1  0  0  0  0
 11 12  1  0  0  0  0
 11 13  1  0  0  0  0
 11 14  1  0  0  0  0
 14 15  2  0  0  0  0
 14 16  1  0  0  0  0
 16 17  1  0  0  0  0
 16 18  1  0  0  0  0
 19 20  2  0  0  0  0
 19 21  1  0  0  0  0
 21 22  1  0  0  0  0
 21 23  1  0  0  0  0
 23 24  1  0  0  0  0
 23 25  1  0  0  0  0
 23 26  1  0  0  0  0
M  END
$$$$

  -OEChem-01062216063D

 26 25  0     1  0  0  0  0  0999 V2000
   -3.2205   -3.1358    0.9809 H   0  0  0  0  0  0  0  0  0  0  0  0
   -3.0886   -2.1006    0.6531 C   0  0  0  0  0  0  0  0  0  0  0  0
   -3.6642   -1.4481    1.3139 H   0  0  0  0  0  0  0  0  0  0  0  0
   -3.4689   -2.0044   -0.3669 H   0  0  0  0  0  0  0  0  0  0  0  0
   -1.6202   -1.7192    0.6972 C   0  0  0  0  0  0  0  0  0  0  0  0
   -0.8063   -2.5838    0.9764 O   0  0  0  0  0  0  0  0  0  0  0  0
   -1.2726   -0.4231    0.3520 N   0  0  0  0  0  0  0  0  0  0  0  0
   -2.0579    0.1420    0.0411 H   0  0  0  0  0  0  0  0  0  0  0  0
    0.0462    0.2581    0.3506 C   0  0  1  0  0  0  0  0  0  0  0  0
   -0.0010    1.0036    1.1508 H   0  0  0  0  0  0  0  0  0  0  0  0
    1.3083   -0.5848    0.6437 C   0  0  0  0  0  0  0  0  0  0  0  0
    1.3293   -1.4524   -0.0214 H   0  0  0  0  0  0  0  0  0  0  0  0
    2.2029    0.0065    0.4316 H   0  0  0  0  0  0  0  0  0  0  0  0
    1.3966   -1.0426    2.0957 C   0  0  0  0  0  0  0  0  0  0  0  0
    1.1177   -0.2946    3.0175 O   0  0  0  0  0  0  0  0  0  0  0  0
    1.7676   -2.3097    2.4381 N   0  0  0  0  0  0  0  0  0  0  0  0
    1.5627   -2.5437    3.4039 H   0  0  0  0  0  0  0  0  0  0  0  0
    1.5781   -3.0135    1.7291 H   0  0  0  0  0  0  0  0  0  0  0  0
    0.2319    1.0594   -0.9529 C   0  0  0  0  0  0  0  0  0  0  0  0
    0.4292    0.4852   -2.0146 O   0  0  0  0  0  0  0  0  0  0  0  0
    0.1189    2.4385   -0.9441 N   0  0  0  0  0  0  0  0  0  0  0  0
    0.0083    2.8985   -0.0448 H   0  0  0  0  0  0  0  0  0  0  0  0
    0.3087    3.2603   -2.1337 C   0  0  0  0  0  0  0  0  0  0  0  0
   -0.3909    2.9625   -2.9219 H   0  0  0  0  0  0  0  0  0  0  0  0
    0.1329    4.3143   -1.8981 H   0  0  0  0  0  0  0  0  0  0  0  0
    1.3311    3.1551   -2.5117 H   0  0  0  0  0  0  0  0  0  0  0  0
  1  2  1  0  0  0  0
  2  3  1  0  0  0  0
  2  4  1  0  0  0  0
  2  5  1  0  0  0  0
  5  6  2  0  0  0  0
  5  7  1  0  0  0  0
  7  8  1  0  0  0  0
  7  9  1  0  0  0  0
  9 10  1  0  0  0  0
  9 11  1  0  0  0  0
  9 19  1  0  0  0  0
 11 12  1  0  0  0  0
 11 13  1  0  0  0  0
 11 14  1  0  0  0  0
 14 15  2  0  0  0  0
 14 16  1  0  0  0  0
 16 17  1  0  0  0  0
 16 18  1  0  0  0  0
 19 20  2  0  0  0  0
 19 21  1  0  0  0  0
 21 22  1  0  0  0  0
 21 23  1  0  0  0  0
 23 24  1  0  0  0  0
 23 25  1  0  0  0  0
 23 26  1  0  0  0  0
M  END
$$$$

  -OEChem-01062216063D

 26 25  0     1  0  0  0  0  0999 V2000
   -3.2293   -3.1326    0.9536 H   0  0  0  0  0  0  0  0  0  0  0  0
   -3.0923   -2.0952    0.6349 C   0  0  0  0  0  0  0  0  0  0  0  0
   -3.6861   -1.4479    1.2848 H   0  0  0  0  0  0  0  0  0  0  0  0
   -3.4474   -1.9942   -0.3937 H   0  0  0  0  0  0  0  0  0  0  0  0
   -1.6269   -1.7087    0.7162 C   0  0  0  0  0  0  0  0  0  0  0  0
   -0.8175   -2.5693    1.0205 O   0  0  0  0  0  0  0  0  0  0  0  0
   -1.2741   -0.4143    0.3713 N   0  0  0  0  0  0  0  0  0  0  0  0
   -2.0479    0.1388    0.0127 H   0  0  0  0  0  0  0  0  0  0  0  0
    0.0473    0.2614    0.3633 C   0  0  1  0  0  0  0  0  0  0  0  0
    0.0009    1.0051    1.1655 H   0  0  0  0  0  0  0  0  0  0  0  0
    1.3090   -0.5842    0.6464 C   0  0  0  0  0  0  0  0  0  0  0  0
    1.3221   -1.4505   -0.0207 H   0  0  0  0  0  0  0  0  0  0  0  0
    2.2040    0.0049    0.4302 H   0  0  0  0  0  0  0  0  0  0  0  0
    1.4074   -1.0454    2.0969 C   0  0  0  0  0  0  0  0  0  0  0  0
    1.1368   -0.2980    3.0214 O   0  0  0  0  0  0  0  0  0  0  0  0
    1.7820   -2.3129    2.4342 N   0  0  0  0  0  0  0  0  0  0  0  0
    1.5821   -2.5481    3.4009 H   0  0  0  0  0  0  0  0  0  0  0  0
    1.5838   -3.0152    1.7263 H   0  0  0  0  0  0  0  0  0  0  0  0
    0.2372    1.0664   -0.9372 C   0  0  0  0  0  0  0  0  0  0  0  0
    0.1280    0.5199   -2.0261 O   0  0  0  0  0  0  0  0  0  0  0  0
    0.4442    2.4335   -0.8879 N   0  0  0  0  0  0  0  0  0  0  0  0
    0.5672    2.8607    0.0261 H   0  0  0  0  0  0  0  0  0  0  0  0
    0.6414    3.2532   -2.0780 C   0  0  0  0  0  0  0  0  0  0  0  0
   -0.2140    3.1600   -2.7555 H   0  0  0  0  0  0  0  0  0  0  0  0
    0.7460    4.3061   -1.7994 H   0  0  0  0  0  0  0  0  0  0  0  0
    1.5470    2.9433   -2.6100 H   0  0  0  0  0  0  0  0  0  0  0  0
  1  2  1  0  0  0  0
  2  3  1  0  0  0  0
  2  4  1  0  0  0  0
  2  5  1  0  0  0  0
  5  6  2  0  0  0  0
  5  7  1  0  0  0  0
  7  8  1  0  0  0  0
  7  9  1  0  0  0  0
  9 10  1  0  0  0  0
  9 11  1  0  0  0  0
  9 19  1  0  0  0  0
 11 12  1  0  0  0  0
 11 13  1  0  0  0  0
 11 14  1  0  0  0  0
 14 15  2  0  0  0  0
 14 16  1  0  0  0  0
 16 17  1  0  0  0  0
 16 18  1  0  0  0  0
 19 20  2  0  0  0  0
 19 21  1  0  0  0  0
 21 22  1  0  0  0  0
 21 23  1  0  0  0  0
 23 24  1  0  0  0  0
 23 25  1  0  0  0  0
 23 26  1  0  0  0  0
M  END
$$$$

  -OEChem-01062216063D

 26 25  0     1  0  0  0  0  0999 V2000
   -3.2392   -3.1234    0.9200 H   0  0  0  0  0  0  0  0  0  0  0  0
   -3.0952   -2.0833    0.6139 C   0  0  0  0  0  0  0  0  0  0  0  0
   -3.6992   -1.4407    1.2590 H   0  0  0  0  0  0  0  0  0  0  0  0
   -3.4320   -1.9714   -0.4197 H   0  0  0  0  0  0  0  0  0  0  0  0
   -1.6309   -1.7002    0.7260 C   0  0  0  0  0  0  0  0  0  0  0  0
   -0.8301   -2.5593    1.0571 O   0  0  0  0  0  0  0  0  0  0  0  0
   -1.2670   -0.4102    0.3781 N   0  0  0  0  0  0  0  0  0  0  0  0
   -2.0230    0.1295   -0.0365 H   0  0  0  0  0  0  0  0  0  0  0  0
    0.0597    0.2547    0.3632 C   0  0  1  0  0  0  0  0  0  0  0  0
    0.0149    1.0028    1.1614 H   0  0  0  0  0  0  0  0  0  0  0  0
    1.3152   -0.5991    0.6514 C   0  0  0  0  0  0  0  0  0  0  0  0
    1.3180   -1.4717   -0.0073 H   0  0  0  0  0  0  0  0  0  0  0  0
    2.2155   -0.0206    0.4287 H   0  0  0  0  0  0  0  0  0  0  0  0
    1.4134   -1.0501    2.1054 C   0  0  0  0  0  0  0  0  0  0  0  0
    1.1507   -0.2925    3.0237 O   0  0  0  0  0  0  0  0  0  0  0  0
    1.7908   -2.3137    2.4539 N   0  0  0  0  0  0  0  0  0  0  0  0
    1.5958   -2.5379    3.4242 H   0  0  0  0  0  0  0  0  0  0  0  0
    1.5909   -3.0247    1.7555 H   0  0  0  0  0  0  0  0  0  0  0  0
    0.2591    1.0594   -0.9366 C   0  0  0  0  0  0  0  0  0  0  0  0
   -0.1448    0.6245   -2.0070 O   0  0  0  0  0  0  0  0  0  0  0  0
    0.7817    2.3390   -0.8849 N   0  0  0  0  0  0  0  0  0  0  0  0
    1.1035    2.6834    0.0157 H   0  0  0  0  0  0  0  0  0  0  0  0
    0.9534    3.1817   -2.0623 C   0  0  0  0  0  0  0  0  0  0  0  0
   -0.0086    3.3488   -2.5582 H   0  0  0  0  0  0  0  0  0  0  0  0
    1.3664    4.1536   -1.7752 H   0  0  0  0  0  0  0  0  0  0  0  0
    1.6397    2.7100   -2.7734 H   0  0  0  0  0  0  0  0  0  0  0  0
  1  2  1  0  0  0  0
  2  3  1  0  0  0  0
  2  4  1  0  0  0  0
  2  5  1  0  0  0  0
  5  6  2  0  0  0  0
  5  7  1  0  0  0  0
  7  8  1  0  0  0  0
  7  9  1  0  0  0  0
  9 10  1  0  0  0  0
  9 11  1  0  0  0  0
  9 19  1  0  0  0  0
 11 12  1  0  0  0  0
 11 13  1  0  0  0  0
 11 14  1  0  0  0  0
 14 15  2  0  0  0  0
 14 16  1  0  0  0  0
 16 17  1  0  0  0  0
 16 18  1  0  0  0  0
 19 20  2  0  0  0  0
 19 21  1  0  0  0  0
 21 22  1  0  0  0  0
 21 23  1  0  0  0  0
 23 24  1  0  0  0  0
 23 25  1  0  0  0  0
 23 26  1  0  0  0  0
M  END
$$$$

  -OEChem-01062216063D

 26 25  0     1  0  0  0  0  0999 V2000
   -3.2440   -3.1145    0.9043 H   0  0  0  0  0  0  0  0  0  0  0  0
   -3.0925   -2.0741    0.6027 C   0  0  0  0  0  0  0  0  0  0  0  0
   -3.7041   -1.4308    1.2398 H   0  0  0  0  0  0  0  0  0  0  0  0
   -3.4139   -1.9585   -0.4354 H   0  0  0  0  0  0  0  0  0  0  0  0
   -1.6289   -1.6952    0.7366 C   0  0  0  0  0  0  0  0  0  0  0  0
   -0.8348   -2.5574    1.0759 O   0  0  0  0  0  0  0  0  0  0  0  0
   -1.2557   -0.4083    0.3887 N   0  0  0  0  0  0  0  0  0  0  0  0
   -1.9990    0.1251   -0.0575 H   0  0  0  0  0  0  0  0  0  0  0  0
    0.0734    0.2512    0.3683 C   0  0  1  0  0  0  0  0  0  0  0  0
    0.0346    1.0042    1.1627 H   0  0  0  0  0  0  0  0  0  0  0  0
    1.3225   -0.6131    0.6582 C   0  0  0  0  0  0  0  0  0  0  0  0
    1.3162   -1.4887    0.0034 H   0  0  0  0  0  0  0  0  0  0  0  0
    2.2291   -0.0460    0.4329 H   0  0  0  0  0  0  0  0  0  0  0  0
    1.4187   -1.0599    2.1137 C   0  0  0  0  0  0  0  0  0  0  0  0
    1.1642   -0.2970    3.0294 O   0  0  0  0  0  0  0  0  0  0  0  0
    1.7856   -2.3253    2.4663 N   0  0  0  0  0  0  0  0  0  0  0  0
    1.5903   -2.5428    3.4382 H   0  0  0  0  0  0  0  0  0  0  0  0
    1.5741   -3.0372    1.7722 H   0  0  0  0  0  0  0  0  0  0  0  0
    0.2702    1.0560   -0.9336 C   0  0  0  0  0  0  0  0  0  0  0  0
   -0.3705    0.7813   -1.9407 O   0  0  0  0  0  0  0  0  0  0  0  0
    1.0683    2.1859   -0.9341 N   0  0  0  0  0  0  0  0  0  0  0  0
    1.5610    2.4181   -0.0758 H   0  0  0  0  0  0  0  0  0  0  0  0
    1.2451    3.0416   -2.1014 C   0  0  0  0  0  0  0  0  0  0  0  0
    0.2813    3.4414   -2.4340 H   0  0  0  0  0  0  0  0  0  0  0  0
    1.9019    3.8821   -1.8582 H   0  0  0  0  0  0  0  0  0  0  0  0
    1.6954    2.4774   -2.9248 H   0  0  0  0  0  0  0  0  0  0  0  0
  1  2  1  0  0  0  0
  2  3  1  0  0  0  0
  2  4  1  0  0  0  0
  2  5  1  0  0  0  0
  5  6  2  0  0  0  0
  5  7  1  0  0  0  0
  7  8  1  0  0  0  0
  7  9  1  0  0  0  0
  9 10  1  0  0  0  0
  9 11  1  0  0  0  0
  9 19  1  0  0  0  0
 11 12  1  0  0  0  0
 11 13  1  0  0  0  0
 11 14  1  0  0  0  0
 14 15  2  0  0  0  0
 14 16  1  0  0  0  0
 16 17  1  0  0  0  0
 16 18  1  0  0  0  0
 19 20  2  0  0  0  0
 19 21  1  0  0  0  0
 21 22  1  0  0  0  0
 21 23  1  0  0  0  0
 23 24  1  0  0  0  0
 23 25  1  0  0  0  0
 23 26  1  0  0  0  0
M  END
$$$$

  -OEChem-01062216063D

 26 25  0     1  0  0  0  0  0999 V2000
   -3.2386   -3.1113    0.8969 H   0  0  0  0  0  0  0  0  0  0  0  0
   -3.0830   -2.0701    0.6006 C   0  0  0  0  0  0  0  0  0  0  0  0
   -3.6886   -1.4276    1.2444 H   0  0  0  0  0  0  0  0  0  0  0  0
   -3.4075   -1.9466   -0.4356 H   0  0  0  0  0  0  0  0  0  0  0  0
   -1.6171   -1.6998    0.7308 C   0  0  0  0  0  0  0  0  0  0  0  0
   -0.8260   -2.5703    1.0567 O   0  0  0  0  0  0  0  0  0  0  0  0
   -1.2375   -0.4133    0.3881 N   0  0  0  0  0  0  0  0  0  0  0  0
   -1.9770    0.1256   -0.0594 H   0  0  0  0  0  0  0  0  0  0  0  0
    0.0911    0.2482    0.3724 C   0  0  1  0  0  0  0  0  0  0  0  0
    0.0535    1.0048    1.1636 H   0  0  0  0  0  0  0  0  0  0  0  0
    1.3320   -0.6276    0.6719 C   0  0  0  0  0  0  0  0  0  0  0  0
    1.3226   -1.5039    0.0184 H   0  0  0  0  0  0  0  0  0  0  0  0
    2.2476   -0.0726    0.4559 H   0  0  0  0  0  0  0  0  0  0  0  0
    1.4134   -1.0728    2.1290 C   0  0  0  0  0  0  0  0  0  0  0  0
    1.1593   -0.3071    3.0422 O   0  0  0  0  0  0  0  0  0  0  0  0
    1.7599   -2.3431    2.4848 N   0  0  0  0  0  0  0  0  0  0  0  0
    1.5579   -2.5561    3.4564 H   0  0  0  0  0  0  0  0  0  0  0  0
    1.5357   -3.0520    1.7913 H   0  0  0  0  0  0  0  0  0  0  0  0
    0.2850    1.0553   -0.9309 C   0  0  0  0  0  0  0  0  0  0  0  0
   -0.5241    0.9625   -1.8468 O   0  0  0  0  0  0  0  0  0  0  0  0
    1.2999    1.9908   -1.0300 N   0  0  0  0  0  0  0  0  0  0  0  0
    1.9200    2.1027   -0.2326 H   0  0  0  0  0  0  0  0  0  0  0  0
    1.4910    2.8463   -2.1953 C   0  0  0  0  0  0  0  0  0  0  0  0
    0.6133    3.4822   -2.3525 H   0  0  0  0  0  0  0  0  0  0  0  0
    2.3637    3.4909   -2.0531 H   0  0  0  0  0  0  0  0  0  0  0  0
    1.6525    2.2401   -3.0930 H   0  0  0  0  0  0  0  0  0  0  0  0
  1  2  1  0  0  0  0
  2  3  1  0  0  0  0
  2  4  1  0  0  0  0
  2  5  1  0  0  0  0
  5  6  2  0  0  0  0
  5  7  1  0  0  0  0
  7  8  1  0  0  0  0
  7  9  1  0  0  0  0
  9 10  1  0  0  0  0
  9 11  1  0  0  0  0
  9 19  1  0  0  0  0
 11 12  1  0  0  0  0
 11 13  1  0  0  0  0
 11 14  1  0  0  0  0
 14 15  2  0  0  0  0
 14 16  1  0  0  0  0
 16 17  1  0  0  0  0
 16 18  1  0  0  0  0
 19 20  2  0  0  0  0
 19 21  1  0  0  0  0
 21 22  1  0  0  0  0
 21 23  1  0  0  0  0
 23 24  1  0  0  0  0
 23 25  1  0  0  0  0
 23 26  1  0  0  0  0
M  END
$$$$

  -OEChem-01062216063D

 26 25  0     1  0  0  0  0  0999 V2000
   -3.2965   -3.0439    0.9715 H   0  0  0  0  0  0  0  0  0  0  0  0
   -3.1210   -2.0070    0.6711 C   0  0  0  0  0  0  0  0  0  0  0  0
   -3.6236   -1.3464    1.3819 H   0  0  0  0  0  0  0  0  0  0  0  0
   -3.5455   -1.8512   -0.3238 H   0  0  0  0  0  0  0  0  0  0  0  0
   -1.6328   -1.7102    0.6516 C   0  0  0  0  0  0  0  0  0  0  0  0
   -0.8543   -2.6334    0.8186 O   0  0  0  0  0  0  0  0  0  0  0  0
   -1.2275   -0.4297    0.3213 N   0  0  0  0  0  0  0  0  0  0  0  0
   -1.9859    0.1765    0.0095 H   0  0  0  0  0  0  0  0  0  0  0  0
    0.1004    0.2324    0.3180 C   0  0  1  0  0  0  0  0  0  0  0  0
    0.1564    0.7936    1.2572 H   0  0  0  0  0  0  0  0  0  0  0  0
    1.3573   -0.6765    0.2920 C   0  0  0  0  0  0  0  0  0  0  0  0
    1.2560   -1.3935   -0.5272 H   0  0  0  0  0  0  0  0  0  0  0  0
    2.2563   -0.0868    0.1028 H   0  0  0  0  0  0  0  0  0  0  0  0
    1.5936   -1.4342    1.5955 C   0  0  0  0  0  0  0  0  0  0  0  0
    1.4475   -0.8899    2.6758 O   0  0  0  0  0  0  0  0  0  0  0  0
    2.0259   -2.7281    1.6238 N   0  0  0  0  0  0  0  0  0  0  0  0
    1.9340   -3.1568    2.5395 H   0  0  0  0  0  0  0  0  0  0  0  0
    1.7661   -3.2854    0.8157 H   0  0  0  0  0  0  0  0  0  0  0  0
    0.1449    1.3219   -0.7801 C   0  0  0  0  0  0  0  0  0  0  0  0
   -0.8628    1.5817   -1.4289 O   0  0  0  0  0  0  0  0  0  0  0  0
    1.2802    2.0864   -0.9861 N   0  0  0  0  0  0  0  0  0  0  0  0
    2.0789    1.9174   -0.3815 H   0  0  0  0  0  0  0  0  0  0  0  0
    1.3442    3.1861   -1.9418 C   0  0  0  0  0  0  0  0  0  0  0  0
    0.6112    3.9589   -1.6872 H   0  0  0  0  0  0  0  0  0  0  0  0
    2.3406    3.6385   -1.9324 H   0  0  0  0  0  0  0  0  0  0  0  0
    1.1387    2.8252   -2.9550 H   0  0  0  0  0  0  0  0  0  0  0  0
  1  2  1  0  0  0  0
  2  3  1  0  0  0  0
  2  4  1  0  0  0  0
  2  5  1  0  0  0  0
  5  6  2  0  0  0  0
  5  7  1  0  0  0  0
  7  8  1  0  0  0  0
  7  9  1  0  0  0  0
  9 10  1  0  0  0  0
  9 11  1  0  0  0  0
  9 19  1  0  0  0  0
 11 12  1  0  0  0  0
 11 13  1  0  0  0  0
 11 14  1  0  0  0  0
 14 15  2  0  0  0  0
 14 16  1  0  0  0  0
 16 17  1  0  0  0  0
 16 18  1  0  0  0  0
 19 20  2  0  0  0  0
 19 21  1  0  0  0  0
 21 22  1  0  0  0  0
 21 23  1  0  0  0  0
 23 24  1  0  0  0  0
 23 25  1  0  0  0  0
 23 26  1  0  0  0  0
M  END
$$$$

  -OEChem-01062216063D

 26 25  0     1  0  0  0  0  0999 V2000
   -3.2888   -3.0361    0.9706 H   0  0  0  0  0  0  0  0  0  0  0  0
   -3.1098   -1.9988    0.6740 C   0  0  0  0  0  0  0  0  0  0  0  0
   -3.5856   -1.3392    1.4037 H   0  0  0  0  0  0  0  0  0  0  0  0
   -3.5594   -1.8296   -0.3074 H   0  0  0  0  0  0  0  0  0  0  0  0
   -1.6198   -1.7168    0.6174 C   0  0  0  0  0  0  0  0  0  0  0  0
   -0.8447   -2.6504    0.7395 O   0  0  0  0  0  0  0  0  0  0  0  0
   -1.2091   -0.4347    0.3012 N   0  0  0  0  0  0  0  0  0  0  0  0
   -1.9697    0.1925    0.0388 H   0  0  0  0  0  0  0  0  0  0  0  0
    0.1197    0.2250    0.3219 C   0  0  1  0  0  0  0  0  0  0  0  0
    0.1664    0.7849    1.2623 H   0  0  0  0  0  0  0  0  0  0  0  0
    1.3714   -0.6922    0.3159 C   0  0  0  0  0  0  0  0  0  0  0  0
    1.2853   -1.4039   -0.5095 H   0  0  0  0  0  0  0  0  0  0  0  0
    2.2784   -0.1072    0.1558 H   0  0  0  0  0  0  0  0  0  0  0  0
    1.5778   -1.4538    1.6223 C   0  0  0  0  0  0  0  0  0  0  0  0
    1.4162   -0.9144    2.7026 O   0  0  0  0  0  0  0  0  0  0  0  0
    1.9975   -2.7517    1.6511 N   0  0  0  0  0  0  0  0  0  0  0  0
    1.8927   -3.1832    2.5641 H   0  0  0  0  0  0  0  0  0  0  0  0
    1.7383   -3.3029    0.8384 H   0  0  0  0  0  0  0  0  0  0  0  0
    0.1626    1.3182   -0.7754 C   0  0  0  0  0  0  0  0  0  0  0  0
   -0.8871    1.7321   -1.2564 O   0  0  0  0  0  0  0  0  0  0  0  0
    1.3503    1.8895   -1.1995 N   0  0  0  0  0  0  0  0  0  0  0  0
    2.2088    1.5820   -0.7531 H   0  0  0  0  0  0  0  0  0  0  0  0
    1.4184    2.9592   -2.1885 C   0  0  0  0  0  0  0  0  0  0  0  0
    0.8715    3.8411   -1.8382 H   0  0  0  0  0  0  0  0  0  0  0  0
    2.4596    3.2459   -2.3646 H   0  0  0  0  0  0  0  0  0  0  0  0
    0.9854    2.6305   -3.1392 H   0  0  0  0  0  0  0  0  0  0  0  0
  1  2  1  0  0  0  0
  2  3  1  0  0  0  0
  2  4  1  0  0  0  0
  2  5  1  0  0  0  0
  5  6  2  0  0  0  0
  5  7  1  0  0  0  0
  7  8  1  0  0  0  0
  7  9  1  0  0  0  0
  9 10  1  0  0  0  0
  9 11  1  0  0  0  0
  9 19  1  0  0  0  0
 11 12  1  0  0  0  0
 11 13  1  0  0  0  0
 11 14  1  0  0  0  0
 14 15  2  0  0  0  0
 14 16  1  0  0  0  0
 16 17  1  0  0  0  0
 16 18  1  0  0  0  0
 19 20  2  0  0  0  0
 19 21  1  0  0  0  0
 21 22  1  0  0  0  0
 21 23  1  0  0  0  0
 23 24  1  0  0  0  0
 23 25  1  0  0  0  0
 23 26  1  0  0  0  0
M  END
$$$$

  -OEChem-01062216063D

 26 25  0     1  0  0  0  0  0999 V2000
   -3.2670   -3.0416    0.9669 H   0  0  0  0  0  0  0  0  0  0  0  0
   -3.0941   -1.9992    0.6851 C   0  0  0  0  0  0  0  0  0  0  0  0
   -3.5406   -1.3527    1.4446 H   0  0  0  0  0  0  0  0  0  0  0  0
   -3.5773   -1.8086   -0.2763 H   0  0  0  0  0  0  0  0  0  0  0  0
   -1.6057   -1.7227    0.5812 C   0  0  0  0  0  0  0  0  0  0  0  0
   -0.8304   -2.6619    0.6534 O   0  0  0  0  0  0  0  0  0  0  0  0
   -1.1965   -0.4376    0.2749 N   0  0  0  0  0  0  0  0  0  0  0  0
   -1.9611    0.2076    0.0753 H   0  0  0  0  0  0  0  0  0  0  0  0
    0.1336    0.2168    0.3156 C   0  0  1  0  0  0  0  0  0  0  0  0
    0.1690    0.7790    1.2554 H   0  0  0  0  0  0  0  0  0  0  0  0
    1.3840   -0.7021    0.3321 C   0  0  0  0  0  0  0  0  0  0  0  0
    1.3173   -1.4140   -0.4950 H   0  0  0  0  0  0  0  0  0  0  0  0
    2.2928   -0.1134    0.1955 H   0  0  0  0  0  0  0  0  0  0  0  0
    1.5630   -1.4599    1.6454 C   0  0  0  0  0  0  0  0  0  0  0  0
    1.3824   -0.9191    2.7218 O   0  0  0  0  0  0  0  0  0  0  0  0
    1.9617   -2.7639    1.6861 N   0  0  0  0  0  0  0  0  0  0  0  0
    1.8351   -3.1903    2.5987 H   0  0  0  0  0  0  0  0  0  0  0  0
    1.7074   -3.3140    0.8709 H   0  0  0  0  0  0  0  0  0  0  0  0
    0.1787    1.3118   -0.7789 C   0  0  0  0  0  0  0  0  0  0  0  0
   -0.8596    1.8881   -1.0848 O   0  0  0  0  0  0  0  0  0  0  0  0
    1.3493    1.6807   -1.4198 N   0  0  0  0  0  0  0  0  0  0  0  0
    2.2040    1.1996   -1.1588 H   0  0  0  0  0  0  0  0  0  0  0  0
    1.4126    2.7211   -2.4398 C   0  0  0  0  0  0  0  0  0  0  0  0
    1.0745    3.6794   -2.0313 H   0  0  0  0  0  0  0  0  0  0  0  0
    2.4407    2.8412   -2.7946 H   0  0  0  0  0  0  0  0  0  0  0  0
    0.7801    2.4588   -3.2943 H   0  0  0  0  0  0  0  0  0  0  0  0
  1  2  1  0  0  0  0
  2  3  1  0  0  0  0
  2  4  1  0  0  0  0
  2  5  1  0  0  0  0
  5  6  2  0  0  0  0
  5  7  1  0  0  0  0
  7  8  1  0  0  0  0
  7  9  1  0  0  0  0
  9 10  1  0  0  0  0
  9 11  1  0  0  0  0
  9 19  1  0  0  0  0
 11 12  1  0  0  0  0
 11 13  1  0  0  0  0
 11 14  1  0  0  0  0
 14 15  2  0  0  0  0
 14 16  1  0  0  0  0
 16 17  1  0  0  0  0
 16 18  1  0  0  0  0
 19 20  2  0  0  0  0
 19 21  1  0  0  0  0
 21 22  1  0  0  0  0
 21 23  1  0  0  0  0
 23 24  1  0  0  0  0
 23 25  1  0  0  0  0
 23 26  1  0  0  0  0
M  END
$$$$

  -OEChem-01062216063D

 26 25  0     1  0  0  0  0  0999 V2000
   -3.2507   -3.0425    0.9813 H   0  0  0  0  0  0  0  0  0  0  0  0
   -3.0848   -1.9990    0.6991 C   0  0  0  0  0  0  0  0  0  0  0  0
   -3.5114   -1.3553    1.4723 H   0  0  0  0  0  0  0  0  0  0  0  0
   -3.5931   -1.8041   -0.2484 H   0  0  0  0  0  0  0  0  0  0  0  0
   -1.5993   -1.7227    0.5573 C   0  0  0  0  0  0  0  0  0  0  0  0
   -0.8221   -2.6627    0.5918 O   0  0  0  0  0  0  0  0  0  0  0  0
   -1.1945   -0.4353    0.2554 N   0  0  0  0  0  0  0  0  0  0  0  0
   -1.9625    0.2200    0.1115 H   0  0  0  0  0  0  0  0  0  0  0  0
    0.1357    0.2156    0.3143 C   0  0  1  0  0  0  0  0  0  0  0  0
    0.1608    0.7776    1.2547 H   0  0  0  0  0  0  0  0  0  0  0  0
    1.3884   -0.6982    0.3436 C   0  0  0  0  0  0  0  0  0  0  0  0
    1.3375   -1.4080   -0.4862 H   0  0  0  0  0  0  0  0  0  0  0  0
    2.2937   -0.0994    0.2217 H   0  0  0  0  0  0  0  0  0  0  0  0
    1.5539   -1.4597    1.6566 C   0  0  0  0  0  0  0  0  0  0  0  0
    1.3584   -0.9257    2.7336 O   0  0  0  0  0  0  0  0  0  0  0  0
    1.9463   -2.7656    1.6953 N   0  0  0  0  0  0  0  0  0  0  0  0
    1.8154   -3.1942    2.6063 H   0  0  0  0  0  0  0  0  0  0  0  0
    1.6927   -3.3123    0.8775 H   0  0  0  0  0  0  0  0  0  0  0  0
    0.1902    1.3085   -0.7787 C   0  0  0  0  0  0  0  0  0  0  0  0
   -0.7867    2.0320   -0.9343 O   0  0  0  0  0  0  0  0  0  0  0  0
    1.2795    1.4746   -1.6170 N   0  0  0  0  0  0  0  0  0  0  0  0
    2.0567    0.8299   -1.5139 H   0  0  0  0  0  0  0  0  0  0  0  0
    1.3285    2.4711   -2.6806 C   0  0  0  0  0  0  0  0  0  0  0  0
    1.1942    3.4771   -2.2692 H   0  0  0  0  0  0  0  0  0  0  0  0
    2.2960    2.4336   -3.1904 H   0  0  0  0  0  0  0  0  0  0  0  0
    0.5407    2.2836   -3.4178 H   0  0  0  0  0  0  0  0  0  0  0  0
  1  2  1  0  0  0  0
  2  3  1  0  0  0  0
  2  4  1  0  0  0  0
  2  5  1  0  0  0  0
  5  6  2  0  0  0  0
  5  7  1  0  0  0  0
  7  8  1  0  0  0  0
  7  9  1  0  0  0  0
  9 10  1  0  0  0  0
  9 11  1  0  0  0  0
  9 19  1  0  0  0  0
 11 12  1  0  0  0  0
 11 13  1  0  0  0  0
 11 14  1  0  0  0  0
 14 15  2  0  0  0  0
 14 16  1  0  0  0  0
 16 17  1  0  0  0  0
 16 18  1  0  0  0  0
 19 20  2  0  0  0  0
 19 21  1  0  0  0  0
 21 22  1  0  0  0  0
 21 23  1  0  0  0  0
 23 24  1  0  0  0  0
 23 25  1  0  0  0  0
 23 26  1  0  0  0  0
M  END
$$$$

  -OEChem-01062216063D

 26 25  0     1  0  0  0  0  0999 V2000
   -3.2311   -3.0509    0.9952 H   0  0  0  0  0  0  0  0  0  0  0  0
   -3.0744   -2.0038    0.7218 C   0  0  0  0  0  0  0  0  0  0  0  0
   -3.4781   -1.3709    1.5159 H   0  0  0  0  0  0  0  0  0  0  0  0
   -3.6108   -1.7976   -0.2078 H   0  0  0  0  0  0  0  0  0  0  0  0
   -1.5940   -1.7235    0.5401 C   0  0  0  0  0  0  0  0  0  0  0  0
   -0.8141   -2.6623    0.5410 O   0  0  0  0  0  0  0  0  0  0  0  0
   -1.1983   -0.4338    0.2354 N   0  0  0  0  0  0  0  0  0  0  0  0
   -1.9708    0.2251    0.1446 H   0  0  0  0  0  0  0  0  0  0  0  0
    0.1308    0.2171    0.3061 C   0  0  1  0  0  0  0  0  0  0  0  0
    0.1480    0.7801    1.2466 H   0  0  0  0  0  0  0  0  0  0  0  0
    1.3866   -0.6904    0.3442 C   0  0  0  0  0  0  0  0  0  0  0  0
    1.3454   -1.4010   -0.4854 H   0  0  0  0  0  0  0  0  0  0  0  0
    2.2873   -0.0828    0.2250 H   0  0  0  0  0  0  0  0  0  0  0  0
    1.5443   -1.4530    1.6576 C   0  0  0  0  0  0  0  0  0  0  0  0
    1.3375   -0.9222    2.7340 O   0  0  0  0  0  0  0  0  0  0  0  0
    1.9323   -2.7603    1.6986 N   0  0  0  0  0  0  0  0  0  0  0  0
    1.7955   -3.1883    2.6089 H   0  0  0  0  0  0  0  0  0  0  0  0
    1.6822   -3.3065    0.8793 H   0  0  0  0  0  0  0  0  0  0  0  0
    0.1978    1.3050   -0.7871 C   0  0  0  0  0  0  0  0  0  0  0  0
   -0.6714    2.1671   -0.8097 O   0  0  0  0  0  0  0  0  0  0  0  0
    1.1428    1.2804   -1.7984 N   0  0  0  0  0  0  0  0  0  0  0  0
    1.7910    0.4991   -1.8161 H   0  0  0  0  0  0  0  0  0  0  0  0
    1.1702    2.2430   -2.8932 C   0  0  0  0  0  0  0  0  0  0  0  0
    1.2556    3.2632   -2.5043 H   0  0  0  0  0  0  0  0  0  0  0  0
    2.0280    2.0505   -3.5448 H   0  0  0  0  0  0  0  0  0  0  0  0
    0.2561    2.1691   -3.4916 H   0  0  0  0  0  0  0  0  0  0  0  0
  1  2  1  0  0  0  0
  2  3  1  0  0  0  0
  2  4  1  0  0  0  0
  2  5  1  0  0  0  0
  5  6  2  0  0  0  0
  5  7  1  0  0  0  0
  7  8  1  0  0  0  0
  7  9  1  0  0  0  0
  9 10  1  0  0  0  0
  9 11  1  0  0  0  0
  9 19  1  0  0  0  0
 11 12  1  0  0  0  0
 11 13  1  0  0  0  0
 11 14  1  0  0  0  0
 14 15  2  0  0  0  0
 14 16  1  0  0  0  0
 16 17  1  0  0  0  0
 16 18  1  0  0  0  0
 19 20  2  0  0  0  0
 19 21  1  0  0  0  0
 21 22  1  0  0  0  0
 21 23  1  0  0  0  0
 23 24  1  0  0  0  0
 23 25  1  0  0  0  0
 23 26  1  0  0  0  0
M  END
$$$$

  -OEChem-01062216063D

 26 25  0     1  0  0  0  0  0999 V2000
   -3.2033   -3.0635    1.0247 H   0  0  0  0  0  0  0  0  0  0  0  0
   -3.0616   -2.0134    0.7536 C   0  0  0  0  0  0  0  0  0  0  0  0
   -3.4405   -1.3885    1.5661 H   0  0  0  0  0  0  0  0  0  0  0  0
   -3.6311   -1.8035   -0.1552 H   0  0  0  0  0  0  0  0  0  0  0  0
   -1.5898   -1.7257    0.5223 C   0  0  0  0  0  0  0  0  0  0  0  0
   -0.8069   -2.6613    0.4833 O   0  0  0  0  0  0  0  0  0  0  0  0
   -1.2070   -0.4335    0.2121 N   0  0  0  0  0  0  0  0  0  0  0  0
   -1.9842    0.2242    0.1712 H   0  0  0  0  0  0  0  0  0  0  0  0
    0.1201    0.2199    0.2933 C   0  0  1  0  0  0  0  0  0  0  0  0
    0.1285    0.7827    1.2342 H   0  0  0  0  0  0  0  0  0  0  0  0
    1.3805   -0.6798    0.3391 C   0  0  0  0  0  0  0  0  0  0  0  0
    1.3494   -1.3925   -0.4890 H   0  0  0  0  0  0  0  0  0  0  0  0
    2.2764   -0.0647    0.2198 H   0  0  0  0  0  0  0  0  0  0  0  0
    1.5321   -1.4426    1.6533 C   0  0  0  0  0  0  0  0  0  0  0  0
    1.3139   -0.9149    2.7289 O   0  0  0  0  0  0  0  0  0  0  0  0
    1.9154   -2.7512    1.6957 N   0  0  0  0  0  0  0  0  0  0  0  0
    1.7710   -3.1807    2.6042 H   0  0  0  0  0  0  0  0  0  0  0  0
    1.6744   -3.2957    0.8725 H   0  0  0  0  0  0  0  0  0  0  0  0
    0.2039    1.3029   -0.7997 C   0  0  0  0  0  0  0  0  0  0  0  0
   -0.5088    2.2930   -0.7044 O   0  0  0  0  0  0  0  0  0  0  0  0
    0.9485    1.1168   -1.9511 N   0  0  0  0  0  0  0  0  0  0  0  0
    1.4290    0.2287   -2.0580 H   0  0  0  0  0  0  0  0  0  0  0  0
    0.9453    2.0551   -3.0671 C   0  0  0  0  0  0  0  0  0  0  0  0
    1.2547    3.0508   -2.7319 H   0  0  0  0  0  0  0  0  0  0  0  0
    1.6410    1.7222   -3.8435 H   0  0  0  0  0  0  0  0  0  0  0  0
   -0.0558    2.1259   -3.5051 H   0  0  0  0  0  0  0  0  0  0  0  0
  1  2  1  0  0  0  0
  2  3  1  0  0  0  0
  2  4  1  0  0  0  0
  2  5  1  0  0  0  0
  5  6  2  0  0  0  0
  5  7  1  0  0  0  0
  7  8  1  0  0  0  0
  7  9  1  0  0  0  0
  9 10  1  0  0  0  0
  9 11  1  0  0  0  0
  9 19  1  0  0  0  0
 11 12  1  0  0  0  0
 11 13  1  0  0  0  0
 11 14  1  0  0  0  0
 14 15  2  0  0  0  0
 14 16  1  0  0  0  0
 16 17  1  0  0  0  0
 16 18  1  0  0  0  0
 19 20  2  0  0  0  0
 19 21  1  0  0  0  0
 21 22  1  0  0  0  0
 21 23  1  0  0  0  0
 23 24  1  0  0  0  0
 23 25  1  0  0  0  0
 23 26  1  0  0  0  0
M  END
$$$$

  -OEChem-01062216063D

 26 25  0     1  0  0  0  0  0999 V2000
   -3.1805   -3.0852    1.0524 H   0  0  0  0  0  0  0  0  0  0  0  0
   -3.0517   -2.0296    0.7966 C   0  0  0  0  0  0  0  0  0  0  0  0
   -3.4002   -1.4218    1.6353 H   0  0  0  0  0  0  0  0  0  0  0  0
   -3.6565   -1.8041   -0.0850 H   0  0  0  0  0  0  0  0  0  0  0  0
   -1.5906   -1.7326    0.5146 C   0  0  0  0  0  0  0  0  0  0  0  0
   -0.8042   -2.6629    0.4391 O   0  0  0  0  0  0  0  0  0  0  0  0
   -1.2248   -0.4383    0.1918 N   0  0  0  0  0  0  0  0  0  0  0  0
   -2.0081    0.2125    0.1881 H   0  0  0  0  0  0  0  0  0  0  0  0
    0.0983    0.2233    0.2791 C   0  0  1  0  0  0  0  0  0  0  0  0
    0.0991    0.7880    1.2192 H   0  0  0  0  0  0  0  0  0  0  0  0
    1.3657   -0.6646    0.3276 C   0  0  0  0  0  0  0  0  0  0  0  0
    1.3465   -1.3752   -0.5024 H   0  0  0  0  0  0  0  0  0  0  0  0
    2.2548   -0.0389    0.2107 H   0  0  0  0  0  0  0  0  0  0  0  0
    1.5190   -1.4288    1.6406 C   0  0  0  0  0  0  0  0  0  0  0  0
    1.2921   -0.9065    2.7170 O   0  0  0  0  0  0  0  0  0  0  0  0
    1.9064   -2.7364    1.6817 N   0  0  0  0  0  0  0  0  0  0  0  0
    1.7634   -3.1683    2.5892 H   0  0  0  0  0  0  0  0  0  0  0  0
    1.6735   -3.2810    0.8563 H   0  0  0  0  0  0  0  0  0  0  0  0
    0.1943    1.2968   -0.8201 C   0  0  0  0  0  0  0  0  0  0  0  0
   -0.2928    2.4012   -0.6234 O   0  0  0  0  0  0  0  0  0  0  0  0
    0.6906    0.9879   -2.0738 N   0  0  0  0  0  0  0  0  0  0  0  0
    0.9583    0.0226   -2.2424 H   0  0  0  0  0  0  0  0  0  0  0  0
    0.6819    1.9238   -3.1916 C   0  0  0  0  0  0  0  0  0  0  0  0
    1.2117    2.8445   -2.9251 H   0  0  0  0  0  0  0  0  0  0  0  0
    1.1787    1.4809   -4.0601 H   0  0  0  0  0  0  0  0  0  0  0  0
   -0.3460    2.1773   -3.4711 H   0  0  0  0  0  0  0  0  0  0  0  0
  1  2  1  0  0  0  0
  2  3  1  0  0  0  0
  2  4  1  0  0  0  0
  2  5  1  0  0  0  0
  5  6  2  0  0  0  0
  5  7  1  0  0  0  0
  7  8  1  0  0  0  0
  7  9  1  0  0  0  0
  9 10  1  0  0  0  0
  9 11  1  0  0  0  0
  9 19  1  0  0  0  0
 11 12  1  0  0  0  0
 11 13  1  0  0  0  0
 11 14  1  0  0  0  0
 14 15  2  0  0  0  0
 14 16  1  0  0  0  0
 16 17  1  0  0  0  0
 16 18  1  0  0  0  0
 19 20  2  0  0  0  0
 19 21  1  0  0  0  0
 21 22  1  0  0  0  0
 21 23  1  0  0  0  0
 23 24  1  0  0  0  0
 23 25  1  0  0  0  0
 23 26  1  0  0  0  0
M  END
$$$$

  -OEChem-01062216063D

 26 25  0     1  0  0  0  0  0999 V2000
   -3.1616   -3.1023    1.0985 H   0  0  0  0  0  0  0  0  0  0  0  0
   -3.0495   -2.0474    0.8321 C   0  0  0  0  0  0  0  0  0  0  0  0
   -3.3867   -1.4371    1.6737 H   0  0  0  0  0  0  0  0  0  0  0  0
   -3.6751   -1.8349   -0.0383 H   0  0  0  0  0  0  0  0  0  0  0  0
   -1.5978   -1.7383    0.5173 C   0  0  0  0  0  0  0  0  0  0  0  0
   -0.8067   -2.6620    0.4151 O   0  0  0  0  0  0  0  0  0  0  0  0
   -1.2492   -0.4422    0.1824 N   0  0  0  0  0  0  0  0  0  0  0  0
   -2.0387    0.2002    0.2070 H   0  0  0  0  0  0  0  0  0  0  0  0
    0.0692    0.2298    0.2746 C   0  0  1  0  0  0  0  0  0  0  0  0
    0.0644    0.7948    1.2148 H   0  0  0  0  0  0  0  0  0  0  0  0
    1.3459   -0.6440    0.3171 C   0  0  0  0  0  0  0  0  0  0  0  0
    1.3361   -1.3476   -0.5189 H   0  0  0  0  0  0  0  0  0  0  0  0
    2.2275   -0.0066    0.2045 H   0  0  0  0  0  0  0  0  0  0  0  0
    1.5085   -1.4162    1.6238 C   0  0  0  0  0  0  0  0  0  0  0  0
    1.2760   -0.9057    2.7046 O   0  0  0  0  0  0  0  0  0  0  0  0
    1.9146   -2.7184    1.6532 N   0  0  0  0  0  0  0  0  0  0  0  0
    1.7753   -3.1636    2.5548 H   0  0  0  0  0  0  0  0  0  0  0  0
    1.7006   -3.2573    0.8192 H   0  0  0  0  0  0  0  0  0  0  0  0
    0.1706    1.2941   -0.8317 C   0  0  0  0  0  0  0  0  0  0  0  0
   -0.0341    2.4703   -0.5697 O   0  0  0  0  0  0  0  0  0  0  0  0
    0.3830    0.9136   -2.1439 N   0  0  0  0  0  0  0  0  0  0  0  0
    0.4317   -0.0834   -2.3343 H   0  0  0  0  0  0  0  0  0  0  0  0
    0.3864    1.8498   -3.2611 C   0  0  0  0  0  0  0  0  0  0  0  0
    1.1419    2.6276   -3.1073 H   0  0  0  0  0  0  0  0  0  0  0  0
    0.6178    1.3254   -4.1932 H   0  0  0  0  0  0  0  0  0  0  0  0
   -0.5941    2.3262   -3.3647 H   0  0  0  0  0  0  0  0  0  0  0  0
  1  2  1  0  0  0  0
  2  3  1  0  0  0  0
  2  4  1  0  0  0  0
  2  5  1  0  0  0  0
  5  6  2  0  0  0  0
  5  7  1  0  0  0  0
  7  8  1  0  0  0  0
  7  9  1  0  0  0  0
  9 10  1  0  0  0  0
  9 11  1  0  0  0  0
  9 19  1  0  0  0  0
 11 12  1  0  0  0  0
 11 13  1  0  0  0  0
 11 14  1  0  0  0  0
 14 15  2  0  0  0  0
 14 16  1  0  0  0  0
 16 17  1  0  0  0  0
 16 18  1  0  0  0  0
 19 20  2  0  0  0  0
 19 21  1  0  0  0  0
 21 22  1  0  0  0  0
 21 23  1  0  0  0  0
 23 24  1  0  0  0  0
 23 25  1  0  0  0  0
 23 26  1  0  0  0  0
M  END
$$$$

  -OEChem-01062216063D

 26 25  0     1  0  0  0  0  0999 V2000
   -3.1387   -3.1325    1.1530 H   0  0  0  0  0  0  0  0  0  0  0  0
   -3.0454   -2.0771    0.8815 C   0  0  0  0  0  0  0  0  0  0  0  0
   -3.3643   -1.4686    1.7314 H   0  0  0  0  0  0  0  0  0  0  0  0
   -3.6985   -1.8729    0.0297 H   0  0  0  0  0  0  0  0  0  0  0  0
   -1.6067   -1.7533    0.5238 C   0  0  0  0  0  0  0  0  0  0  0  0
   -0.8106   -2.6682    0.3908 O   0  0  0  0  0  0  0  0  0  0  0  0
   -1.2806   -0.4538    0.1796 N   0  0  0  0  0  0  0  0  0  0  0  0
   -2.0784    0.1761    0.2273 H   0  0  0  0  0  0  0  0  0  0  0  0
    0.0308    0.2353    0.2702 C   0  0  1  0  0  0  0  0  0  0  0  0
    0.0223    0.7998    1.2108 H   0  0  0  0  0  0  0  0  0  0  0  0
    1.3178   -0.6214    0.3015 C   0  0  0  0  0  0  0  0  0  0  0  0
    1.3145   -1.3172   -0.5411 H   0  0  0  0  0  0  0  0  0  0  0  0
    2.1902    0.0288    0.1899 H   0  0  0  0  0  0  0  0  0  0  0  0
    1.4960   -1.4001    1.6020 C   0  0  0  0  0  0  0  0  0  0  0  0
    1.2616   -0.9007    2.6878 O   0  0  0  0  0  0  0  0  0  0  0  0
    1.9182   -2.6974    1.6197 N   0  0  0  0  0  0  0  0  0  0  0  0
    1.7902   -3.1518    2.5182 H   0  0  0  0  0  0  0  0  0  0  0  0
    1.7102   -3.2322    0.7816 H   0  0  0  0  0  0  0  0  0  0  0  0
    0.1291    1.2959   -0.8393 C   0  0  0  0  0  0  0  0  0  0  0  0
    0.2471    2.4786   -0.5556 O   0  0  0  0  0  0  0  0  0  0  0  0
    0.0397    0.9144   -2.1649 N   0  0  0  0  0  0  0  0  0  0  0  0
   -0.1073   -0.0737   -2.3533 H   0  0  0  0  0  0  0  0  0  0  0  0
    0.0943    1.8536   -3.2781 C   0  0  0  0  0  0  0  0  0  0  0  0
    1.0332    2.4170   -3.2578 H   0  0  0  0  0  0  0  0  0  0  0  0
    0.0348    1.3168   -4.2298 H   0  0  0  0  0  0  0  0  0  0  0  0
   -0.7414    2.5594   -3.2254 H   0  0  0  0  0  0  0  0  0  0  0  0
  1  2  1  0  0  0  0
  2  3  1  0  0  0  0
  2  4  1  0  0  0  0
  2  5  1  0  0  0  0
  5  6  2  0  0  0  0
  5  7  1  0  0  0  0
  7  8  1  0  0  0  0
  7  9  1  0  0  0  0
  9 10  1  0  0  0  0
  9 11  1  0  0  0  0
  9 19  1  0  0  0  0
 11 12  1  0  0  0  0
 11 13  1  0  0  0  0
 11 14  1  0  0  0  0
 14 15  2  0  0  0  0
 14 16  1  0  0  0  0
 16 17  1  0  0  0  0
 16 18  1  0  0  0  0
 19 20  2  0  0  0  0
 19 21  1  0  0  0  0
 21 22  1  0  0  0  0
 21 23  1  0  0  0  0
 23 24  1  0  0  0  0
 23 25  1  0  0  0  0
 23 26  1  0  0  0  0
M  END
$$$$

  -OEChem-01062216063D

 26 25  0     1  0  0  0  0  0999 V2000
   -3.1101   -3.1626    1.2059 H   0  0  0  0  0  0  0  0  0  0  0  0
   -3.0373   -2.1085    0.9232 C   0  0  0  0  0  0  0  0  0  0  0  0
   -3.3438   -1.4969    1.7754 H   0  0  0  0  0  0  0  0  0  0  0  0
   -3.7134   -1.9206    0.0857 H   0  0  0  0  0  0  0  0  0  0  0  0
   -1.6119   -1.7695    0.5284 C   0  0  0  0  0  0  0  0  0  0  0  0
   -0.8121   -2.6766    0.3679 O   0  0  0  0  0  0  0  0  0  0  0  0
   -1.3065   -0.4651    0.1825 N   0  0  0  0  0  0  0  0  0  0  0  0
   -2.1105    0.1547    0.2531 H   0  0  0  0  0  0  0  0  0  0  0  0
   -0.0011    0.2391    0.2681 C   0  0  1  0  0  0  0  0  0  0  0  0
   -0.0109    0.8008    1.2102 H   0  0  0  0  0  0  0  0  0  0  0  0
    1.2932   -0.6059    0.2886 C   0  0  0  0  0  0  0  0  0  0  0  0
    1.2924   -1.2969   -0.5580 H   0  0  0  0  0  0  0  0  0  0  0  0
    2.1596    0.0523    0.1760 H   0  0  0  0  0  0  0  0  0  0  0  0
    1.4834   -1.3867    1.5856 C   0  0  0  0  0  0  0  0  0  0  0  0
    1.2497   -0.8936    2.6746 O   0  0  0  0  0  0  0  0  0  0  0  0
    1.9149   -2.6810    1.5966 N   0  0  0  0  0  0  0  0  0  0  0  0
    1.7946   -3.1413    2.4931 H   0  0  0  0  0  0  0  0  0  0  0  0
    1.7114   -3.2129    0.7555 H   0  0  0  0  0  0  0  0  0  0  0  0
    0.0931    1.3059   -0.8370 C   0  0  0  0  0  0  0  0  0  0  0  0
    0.5112    2.4250   -0.5810 O   0  0  0  0  0  0  0  0  0  0  0  0
   -0.2948    0.9989   -2.1278 N   0  0  0  0  0  0  0  0  0  0  0  0
   -0.6038    0.0461   -2.3018 H   0  0  0  0  0  0  0  0  0  0  0  0
   -0.1996    1.9345   -3.2413 C   0  0  0  0  0  0  0  0  0  0  0  0
    0.8411    2.2371   -3.3988 H   0  0  0  0  0  0  0  0  0  0  0  0
   -0.5674    1.4679   -4.1603 H   0  0  0  0  0  0  0  0  0  0  0  0
   -0.8004    2.8284   -3.0430 H   0  0  0  0  0  0  0  0  0  0  0  0
  1  2  1  0  0  0  0
  2  3  1  0  0  0  0
  2  4  1  0  0  0  0
  2  5  1  0  0  0  0
  5  6  2  0  0  0  0
  5  7  1  0  0  0  0
  7  8  1  0  0  0  0
  7  9  1  0  0  0  0
  9 10  1  0  0  0  0
  9 11  1  0  0  0  0
  9 19  1  0  0  0  0
 11 12  1  0  0  0  0
 11 13  1  0  0  0  0
 11 14  1  0  0  0  0
 14 15  2  0  0  0  0
 14 16  1  0  0  0  0
 16 17  1  0  0  0  0
 16 18  1  0  0  0  0
 19 20  2  0  0  0  0
 19 21  1  0  0  0  0
 21 22  1  0  0  0  0
 21 23  1  0  0  0  0
 23 24  1  0  0  0  0
 23 25  1  0  0  0  0
 23 26  1  0  0  0  0
M  END
$$$$

  -OEChem-01062216063D

 26 25  0     1  0  0  0  0  0999 V2000
   -3.1016   -3.1969    1.1912 H   0  0  0  0  0  0  0  0  0  0  0  0
   -3.0318   -2.1332    0.9459 C   0  0  0  0  0  0  0  0  0  0  0  0
   -3.3170   -1.5528    1.8269 H   0  0  0  0  0  0  0  0  0  0  0  0
   -3.7263   -1.9133    0.1315 H   0  0  0  0  0  0  0  0  0  0  0  0
   -1.6145   -1.7823    0.5322 C   0  0  0  0  0  0  0  0  0  0  0  0
   -0.8105   -2.6829    0.3587 O   0  0  0  0  0  0  0  0  0  0  0  0
   -1.3243   -0.4730    0.1899 N   0  0  0  0  0  0  0  0  0  0  0  0
   -2.1324    0.1380    0.2836 H   0  0  0  0  0  0  0  0  0  0  0  0
   -0.0233    0.2436    0.2700 C   0  0  1  0  0  0  0  0  0  0  0  0
   -0.0331    0.8012    1.2142 H   0  0  0  0  0  0  0  0  0  0  0  0
    1.2759   -0.5954    0.2821 C   0  0  0  0  0  0  0  0  0  0  0  0
    1.2730   -1.2839   -0.5664 H   0  0  0  0  0  0  0  0  0  0  0  0
    2.1398    0.0655    0.1666 H   0  0  0  0  0  0  0  0  0  0  0  0
    1.4774   -1.3780    1.5765 C   0  0  0  0  0  0  0  0  0  0  0  0
    1.2470   -0.8884    2.6681 O   0  0  0  0  0  0  0  0  0  0  0  0
    1.9182   -2.6693    1.5826 N   0  0  0  0  0  0  0  0  0  0  0  0
    1.8044   -3.1332    2.4779 H   0  0  0  0  0  0  0  0  0  0  0  0
    1.7178   -3.2003    0.7402 H   0  0  0  0  0  0  0  0  0  0  0  0
    0.0672    1.3215   -0.8276 C   0  0  0  0  0  0  0  0  0  0  0  0
    0.7286    2.3327   -0.6448 O   0  0  0  0  0  0  0  0  0  0  0  0
   -0.5916    1.1478   -2.0310 N   0  0  0  0  0  0  0  0  0  0  0  0
   -1.0382    0.2467   -2.1790 H   0  0  0  0  0  0  0  0  0  0  0  0
   -0.4779    2.0772   -3.1485 C   0  0  0  0  0  0  0  0  0  0  0  0
    0.5582    2.1289   -3.4992 H   0  0  0  0  0  0  0  0  0  0  0  0
   -1.1099    1.7496   -3.9795 H   0  0  0  0  0  0  0  0  0  0  0  0
   -0.7981    3.0803   -2.8473 H   0  0  0  0  0  0  0  0  0  0  0  0
  1  2  1  0  0  0  0
  2  3  1  0  0  0  0
  2  4  1  0  0  0  0
  2  5  1  0  0  0  0
  5  6  2  0  0  0  0
  5  7  1  0  0  0  0
  7  8  1  0  0  0  0
  7  9  1  0  0  0  0
  9 10  1  0  0  0  0
  9 11  1  0  0  0  0
  9 19  1  0  0  0  0
 11 12  1  0  0  0  0
 11 13  1  0  0  0  0
 11 14  1  0  0  0  0
 14 15  2  0  0  0  0
 14 16  1  0  0  0  0
 16 17  1  0  0  0  0
 16 18  1  0  0  0  0
 19 20  2  0  0  0  0
 19 21  1  0  0  0  0
 21 22  1  0  0  0  0
 21 23  1  0  0  0  0
 23 24  1  0  0  0  0
 23 25  1  0  0  0  0
 23 26  1  0  0  0  0
M  END
$$$$

  -OEChem-01062216063D

 26 25  0     1  0  0  0  0  0999 V2000
   -3.0857   -3.2118    1.1856 H   0  0  0  0  0  0  0  0  0  0  0  0
   -3.0186   -2.1444    0.9563 C   0  0  0  0  0  0  0  0  0  0  0  0
   -3.2864   -1.5779    1.8518 H   0  0  0  0  0  0  0  0  0  0  0  0
   -3.7273   -1.9107    0.1582 H   0  0  0  0  0  0  0  0  0  0  0  0
   -1.6082   -1.7895    0.5229 C   0  0  0  0  0  0  0  0  0  0  0  0
   -0.8055   -2.6886    0.3365 O   0  0  0  0  0  0  0  0  0  0  0  0
   -1.3254   -0.4768    0.1858 N   0  0  0  0  0  0  0  0  0  0  0  0
   -2.1331    0.1301    0.3040 H   0  0  0  0  0  0  0  0  0  0  0  0
   -0.0260    0.2452    0.2666 C   0  0  1  0  0  0  0  0  0  0  0  0
   -0.0369    0.8009    1.2117 H   0  0  0  0  0  0  0  0  0  0  0  0
    1.2725   -0.5975    0.2813 C   0  0  0  0  0  0  0  0  0  0  0  0
    1.2694   -1.2861   -0.5672 H   0  0  0  0  0  0  0  0  0  0  0  0
    2.1404    0.0584    0.1677 H   0  0  0  0  0  0  0  0  0  0  0  0
    1.4691   -1.3785    1.5772 C   0  0  0  0  0  0  0  0  0  0  0  0
    1.2376   -0.8867    2.6678 O   0  0  0  0  0  0  0  0  0  0  0  0
    1.9086   -2.6702    1.5857 N   0  0  0  0  0  0  0  0  0  0  0  0
    1.7919   -3.1347    2.4804 H   0  0  0  0  0  0  0  0  0  0  0  0
    1.7133   -3.2007    0.7415 H   0  0  0  0  0  0  0  0  0  0  0  0
    0.0646    1.3325   -0.8256 C   0  0  0  0  0  0  0  0  0  0  0  0
    0.8994    2.2216   -0.7423 O   0  0  0  0  0  0  0  0  0  0  0  0
   -0.8160    1.3324   -1.8927 N   0  0  0  0  0  0  0  0  0  0  0  0
   -1.3892    0.5006   -2.0025 H   0  0  0  0  0  0  0  0  0  0  0  0
   -0.7310    2.2807   -2.9971 C   0  0  0  0  0  0  0  0  0  0  0  0
    0.2165    2.1607   -3.5329 H   0  0  0  0  0  0  0  0  0  0  0  0
   -1.5519    2.1161   -3.7016 H   0  0  0  0  0  0  0  0  0  0  0  0
   -0.7976    3.3090   -2.6258 H   0  0  0  0  0  0  0  0  0  0  0  0
  1  2  1  0  0  0  0
  2  3  1  0  0  0  0
  2  4  1  0  0  0  0
  2  5  1  0  0  0  0
  5  6  2  0  0  0  0
  5  7  1  0  0  0  0
  7  8  1  0  0  0  0
  7  9  1  0  0  0  0
  9 10  1  0  0  0  0
  9 11  1  0  0  0  0
  9 19  1  0  0  0  0
 11 12  1  0  0  0  0
 11 13  1  0  0  0  0
 11 14  1  0  0  0  0
 14 15  2  0  0  0  0
 14 16  1  0  0  0  0
 16 17  1  0  0  0  0
 16 18  1  0  0  0  0
 19 20  2  0  0  0  0
 19 21  1  0  0  0  0
 21 22  1  0  0  0  0
 21 23  1  0  0  0  0
 23 24  1  0  0  0  0
 23 25  1  0  0  0  0
 23 26  1  0  0  0  0
M  END
$$$$

  -OEChem-01062216063D

 26 25  0     1  0  0  0  0  0999 V2000
   -3.0693   -3.2201    1.1741 H   0  0  0  0  0  0  0  0  0  0  0  0
   -3.0033   -2.1506    0.9537 C   0  0  0  0  0  0  0  0  0  0  0  0
   -3.2640   -1.5918    1.8560 H   0  0  0  0  0  0  0  0  0  0  0  0
   -3.7180   -1.9094    0.1633 H   0  0  0  0  0  0  0  0  0  0  0  0
   -1.5963   -1.7930    0.5114 C   0  0  0  0  0  0  0  0  0  0  0  0
   -0.7969   -2.6924    0.3134 O   0  0  0  0  0  0  0  0  0  0  0  0
   -1.3169   -0.4777    0.1798 N   0  0  0  0  0  0  0  0  0  0  0  0
   -2.1214    0.1262    0.3300 H   0  0  0  0  0  0  0  0  0  0  0  0
   -0.0167    0.2454    0.2569 C   0  0  1  0  0  0  0  0  0  0  0  0
   -0.0259    0.8005    1.2018 H   0  0  0  0  0  0  0  0  0  0  0  0
    1.2784   -0.6064    0.2774 C   0  0  0  0  0  0  0  0  0  0  0  0
    1.2733   -1.2992   -0.5677 H   0  0  0  0  0  0  0  0  0  0  0  0
    2.1538    0.0391    0.1639 H   0  0  0  0  0  0  0  0  0  0  0  0
    1.4666   -1.3796    1.5790 C   0  0  0  0  0  0  0  0  0  0  0  0
    1.2359   -0.8781    2.6655 O   0  0  0  0  0  0  0  0  0  0  0  0
    1.8903   -2.6765    1.5968 N   0  0  0  0  0  0  0  0  0  0  0  0
    1.7656   -3.1351    2.4933 H   0  0  0  0  0  0  0  0  0  0  0  0
    1.6916   -3.2085    0.7542 H   0  0  0  0  0  0  0  0  0  0  0  0
    0.0704    1.3418   -0.8308 C   0  0  0  0  0  0  0  0  0  0  0  0
    1.0327    2.0949   -0.8772 O   0  0  0  0  0  0  0  0  0  0  0  0
   -0.9755    1.5445   -1.7147 N   0  0  0  0  0  0  0  0  0  0  0  0
   -1.6659    0.8020   -1.7663 H   0  0  0  0  0  0  0  0  0  0  0  0
   -0.9249    2.5259   -2.7924 C   0  0  0  0  0  0  0  0  0  0  0  0
   -0.1141    2.2885   -3.4890 H   0  0  0  0  0  0  0  0  0  0  0  0
   -1.8689    2.5295   -3.3459 H   0  0  0  0  0  0  0  0  0  0  0  0
   -0.7592    3.5308   -2.3892 H   0  0  0  0  0  0  0  0  0  0  0  0
  1  2  1  0  0  0  0
  2  3  1  0  0  0  0
  2  4  1  0  0  0  0
  2  5  1  0  0  0  0
  5  6  2  0  0  0  0
  5  7  1  0  0  0  0
  7  8  1  0  0  0  0
  7  9  1  0  0  0  0
  9 10  1  0  0  0  0
  9 11  1  0  0  0  0
  9 19  1  0  0  0  0
 11 12  1  0  0  0  0
 11 13  1  0  0  0  0
 11 14  1  0  0  0  0
 14 15  2  0  0  0  0
 14 16  1  0  0  0  0
 16 17  1  0  0  0  0
 16 18  1  0  0  0  0
 19 20  2  0  0  0  0
 19 21  1  0  0  0  0
 21 22  1  0  0  0  0
 21 23  1  0  0  0  0
 23 24  1  0  0  0  0
 23 25  1  0  0  0  0
 23 26  1  0  0  0  0
M  END
$$$$

  -OEChem-01062216063D

 26 25  0     1  0  0  0  0  0999 V2000
   -3.0466   -3.2181    1.1807 H   0  0  0  0  0  0  0  0  0  0  0  0
   -2.9866   -2.1517    0.9446 C   0  0  0  0  0  0  0  0  0  0  0  0
   -3.2442   -1.5813    1.8406 H   0  0  0  0  0  0  0  0  0  0  0  0
   -3.7076   -1.9258    0.1551 H   0  0  0  0  0  0  0  0  0  0  0  0
   -1.5840   -1.7948    0.4880 C   0  0  0  0  0  0  0  0  0  0  0  0
   -0.7875   -2.6952    0.2828 O   0  0  0  0  0  0  0  0  0  0  0  0
   -1.3061   -0.4769    0.1636 N   0  0  0  0  0  0  0  0  0  0  0  0
   -2.1080    0.1222    0.3390 H   0  0  0  0  0  0  0  0  0  0  0  0
   -0.0046    0.2449    0.2427 C   0  0  1  0  0  0  0  0  0  0  0  0
   -0.0159    0.7995    1.1876 H   0  0  0  0  0  0  0  0  0  0  0  0
    1.2865   -0.6161    0.2751 C   0  0  0  0  0  0  0  0  0  0  0  0
    1.2827   -1.3118   -0.5677 H   0  0  0  0  0  0  0  0  0  0  0  0
    2.1694    0.0196    0.1672 H   0  0  0  0  0  0  0  0  0  0  0  0
    1.4610   -1.3818    1.5830 C   0  0  0  0  0  0  0  0  0  0  0  0
    1.2269   -0.8711    2.6647 O   0  0  0  0  0  0  0  0  0  0  0  0
    1.8706   -2.6830    1.6121 N   0  0  0  0  0  0  0  0  0  0  0  0
    1.7360   -3.1348    2.5106 H   0  0  0  0  0  0  0  0  0  0  0  0
    1.6707   -3.2181    0.7716 H   0  0  0  0  0  0  0  0  0  0  0  0
    0.0794    1.3496   -0.8412 C   0  0  0  0  0  0  0  0  0  0  0  0
    1.1266    1.9453   -1.0530 O   0  0  0  0  0  0  0  0  0  0  0  0
   -1.0581    1.7686   -1.5113 N   0  0  0  0  0  0  0  0  0  0  0  0
   -1.8600    1.1497   -1.4643 H   0  0  0  0  0  0  0  0  0  0  0  0
   -1.0337    2.7915   -2.5512 C   0  0  0  0  0  0  0  0  0  0  0  0
   -0.4118    2.4680   -3.3924 H   0  0  0  0  0  0  0  0  0  0  0  0
   -2.0463    2.9812   -2.9200 H   0  0  0  0  0  0  0  0  0  0  0  0
   -0.6311    3.7305   -2.1567 H   0  0  0  0  0  0  0  0  0  0  0  0
  1  2  1  0  0  0  0
  2  3  1  0  0  0  0
  2  4  1  0  0  0  0
  2  5  1  0  0  0  0
  5  6  2  0  0  0  0
  5  7  1  0  0  0  0
  7  8  1  0  0  0  0
  7  9  1  0  0  0  0
  9 10  1  0  0  0  0
  9 11  1  0  0  0  0
  9 19  1  0  0  0  0
 11 12  1  0  0  0  0
 11 13  1  0  0  0  0
 11 14  1  0  0  0  0
 14 15  2  0  0  0  0
 14 16  1  0  0  0  0
 16 17  1  0  0  0  0
 16 18  1  0  0  0  0
 19 20  2  0  0  0  0
 19 21  1  0  0  0  0
 21 22  1  0  0  0  0
 21 23  1  0  0  0  0
 23 24  1  0  0  0  0
 23 25  1  0  0  0  0
 23 26  1  0  0  0  0
M  END
$$$$

  -OEChem-01062216063D

 26 25  0     1  0  0  0  0  0999 V2000
   -3.0821   -3.2069    1.1299 H   0  0  0  0  0  0  0  0  0  0  0  0
   -3.0093   -2.1421    0.8905 C   0  0  0  0  0  0  0  0  0  0  0  0
   -3.3026   -1.5662    1.7717 H   0  0  0  0  0  0  0  0  0  0  0  0
   -3.6958   -1.9190    0.0701 H   0  0  0  0  0  0  0  0  0  0  0  0
   -1.5878   -1.7912    0.4906 C   0  0  0  0  0  0  0  0  0  0  0  0
   -0.7854   -2.6965    0.3383 O   0  0  0  0  0  0  0  0  0  0  0  0
   -1.2962   -0.4743    0.1724 N   0  0  0  0  0  0  0  0  0  0  0  0
   -2.1018    0.1266    0.3106 H   0  0  0  0  0  0  0  0  0  0  0  0
    0.0110    0.2389    0.2367 C   0  0  1  0  0  0  0  0  0  0  0  0
    0.0098    0.7927    1.1821 H   0  0  0  0  0  0  0  0  0  0  0  0
    1.2980   -0.6301    0.2714 C   0  0  0  0  0  0  0  0  0  0  0  0
    1.2856   -1.3333   -0.5651 H   0  0  0  0  0  0  0  0  0  0  0  0
    2.1845   -0.0011    0.1549 H   0  0  0  0  0  0  0  0  0  0  0  0
    1.4780   -1.3838    1.5851 C   0  0  0  0  0  0  0  0  0  0  0  0
    1.2541   -0.8606    2.6633 O   0  0  0  0  0  0  0  0  0  0  0  0
    1.8998   -2.6807    1.6247 N   0  0  0  0  0  0  0  0  0  0  0  0
    1.7755   -3.1249    2.5283 H   0  0  0  0  0  0  0  0  0  0  0  0
    1.7005   -3.2257    0.7905 H   0  0  0  0  0  0  0  0  0  0  0  0
    0.0851    1.3510   -0.8439 C   0  0  0  0  0  0  0  0  0  0  0  0
    1.1559    1.7273   -1.3009 O   0  0  0  0  0  0  0  0  0  0  0  0
   -1.0611    2.0011   -1.2731 N   0  0  0  0  0  0  0  0  0  0  0  0
   -1.9524    1.6282   -0.9703 H   0  0  0  0  0  0  0  0  0  0  0  0
   -1.0533    3.0413   -2.2965 C   0  0  0  0  0  0  0  0  0  0  0  0
   -0.6759    2.6435   -3.2445 H   0  0  0  0  0  0  0  0  0  0  0  0
   -2.0667    3.4208   -2.4586 H   0  0  0  0  0  0  0  0  0  0  0  0
   -0.4179    3.8784   -1.9881 H   0  0  0  0  0  0  0  0  0  0  0  0
  1  2  1  0  0  0  0
  2  3  1  0  0  0  0
  2  4  1  0  0  0  0
  2  5  1  0  0  0  0
  5  6  2  0  0  0  0
  5  7  1  0  0  0  0
  7  8  1  0  0  0  0
  7  9  1  0  0  0  0
  9 10  1  0  0  0  0
  9 11  1  0  0  0  0
  9 19  1  0  0  0  0
 11 12  1  0  0  0  0
 11 13  1  0  0  0  0
 11 14  1  0  0  0  0
 14 15  2  0  0  0  0
 14 16  1  0  0  0  0
 16 17  1  0  0  0  0
 16 18  1  0  0  0  0
 19 20  2  0  0  0  0
 19 21  1  0  0  0  0
 21 22  1  0  0  0  0
 21 23  1  0  0  0  0
 23 24  1  0  0  0  0
 23 25  1  0  0  0  0
 23 26  1  0  0  0  0
M  END
$$$$

  -OEChem-01062216063D

 26 25  0     1  0  0  0  0  0999 V2000
   -3.2148   -3.1366    1.0588 H   0  0  0  0  0  0  0  0  0  0  0  0
   -3.0959   -2.0938    0.7504 C   0  0  0  0  0  0  0  0  0  0  0  0
   -3.5383   -1.4516    1.5158 H   0  0  0  0  0  0  0  0  0  0  0  0
   -3.6251   -1.9446   -0.1939 H   0  0  0  0  0  0  0  0  0  0  0  0
   -1.6246   -1.7620    0.5802 C   0  0  0  0  0  0  0  0  0  0  0  0
   -0.8164   -2.6714    0.6410 O   0  0  0  0  0  0  0  0  0  0  0  0
   -1.2799   -0.4639    0.2400 N   0  0  0  0  0  0  0  0  0  0  0  0
   -2.0849    0.1386    0.1032 H   0  0  0  0  0  0  0  0  0  0  0  0
    0.0416    0.2218    0.2428 C   0  0  1  0  0  0  0  0  0  0  0  0
    0.0804    0.7921    1.1770 H   0  0  0  0  0  0  0  0  0  0  0  0
    1.3230   -0.6530    0.2579 C   0  0  0  0  0  0  0  0  0  0  0  0
    1.2701   -1.3813   -0.5554 H   0  0  0  0  0  0  0  0  0  0  0  0
    2.2047   -0.0300    0.0839 H   0  0  0  0  0  0  0  0  0  0  0  0
    1.5512   -1.3747    1.5820 C   0  0  0  0  0  0  0  0  0  0  0  0
    1.3698   -0.8195    2.6526 O   0  0  0  0  0  0  0  0  0  0  0  0
    2.0034   -2.6609    1.6403 N   0  0  0  0  0  0  0  0  0  0  0  0
    1.9058   -3.0845    2.5571 H   0  0  0  0  0  0  0  0  0  0  0  0
    1.7929   -3.2303    0.8261 H   0  0  0  0  0  0  0  0  0  0  0  0
    0.0772    1.3112   -0.8574 C   0  0  0  0  0  0  0  0  0  0  0  0
    1.0137    1.4095   -1.6386 O   0  0  0  0  0  0  0  0  0  0  0  0
   -0.9996    2.1699   -1.0131 N   0  0  0  0  0  0  0  0  0  0  0  0
   -1.6939    2.1854   -0.2741 H   0  0  0  0  0  0  0  0  0  0  0  0
   -1.0235    3.2370   -2.0081 C   0  0  0  0  0  0  0  0  0  0  0  0
   -0.9151    2.8235   -3.0165 H   0  0  0  0  0  0  0  0  0  0  0  0
   -1.9728    3.7790   -1.9595 H   0  0  0  0  0  0  0  0  0  0  0  0
   -0.2091    3.9472   -1.8295 H   0  0  0  0  0  0  0  0  0  0  0  0
  1  2  1  0  0  0  0
  2  3  1  0  0  0  0
  2  4  1  0  0  0  0
  2  5  1  0  0  0  0
  5  6  2  0  0  0  0
  5  7  1  0  0  0  0
  7  8  1  0  0  0  0
  7  9  1  0  0  0  0
  9 10  1  0  0  0  0
  9 11  1  0  0  0  0
  9 19  1  0  0  0  0
 11 12  1  0  0  0  0
 11 13  1  0  0  0  0
 11 14  1  0  0  0  0
 14 15  2  0  0  0  0
 14 16  1  0  0  0  0
 16 17  1  0  0  0  0
 16 18  1  0  0  0  0
 19 20  2  0  0  0  0
 19 21  1  0  0  0  0
 21 22  1  0  0  0  0
 21 23  1  0  0  0  0
 23 24  1  0  0  0  0
 23 25  1  0  0  0  0
 23 26  1  0  0  0  0
M  END
$$$$

  -OEChem-01062216063D

 26 25  0     1  0  0  0  0  0999 V2000
   -3.2478   -3.1003    1.0664 H   0  0  0  0  0  0  0  0  0  0  0  0
   -3.1162   -2.0699    0.7236 C   0  0  0  0  0  0  0  0  0  0  0  0
   -3.5928   -1.3997    1.4431 H   0  0  0  0  0  0  0  0  0  0  0  0
   -3.6024   -1.9579   -0.2486 H   0  0  0  0  0  0  0  0  0  0  0  0
   -1.6389   -1.7413    0.6064 C   0  0  0  0  0  0  0  0  0  0  0  0
   -0.8342   -2.6484    0.7213 O   0  0  0  0  0  0  0  0  0  0  0  0
   -1.2810   -0.4489    0.2593 N   0  0  0  0  0  0  0  0  0  0  0  0
   -2.0775    0.1512    0.0661 H   0  0  0  0  0  0  0  0  0  0  0  0
    0.0430    0.2277    0.2543 C   0  0  1  0  0  0  0  0  0  0  0  0
    0.0929    0.7983    1.1877 H   0  0  0  0  0  0  0  0  0  0  0  0
    1.3243   -0.6450    0.2553 C   0  0  0  0  0  0  0  0  0  0  0  0
    1.2609   -1.3732   -0.5577 H   0  0  0  0  0  0  0  0  0  0  0  0
    2.2007   -0.0183    0.0671 H   0  0  0  0  0  0  0  0  0  0  0  0
    1.5678   -1.3725    1.5736 C   0  0  0  0  0  0  0  0  0  0  0  0
    1.3959   -0.8194    2.6470 O   0  0  0  0  0  0  0  0  0  0  0  0
    2.0306   -2.6554    1.6241 N   0  0  0  0  0  0  0  0  0  0  0  0
    1.9430   -3.0817    2.5409 H   0  0  0  0  0  0  0  0  0  0  0  0
    1.8179   -3.2249    0.8107 H   0  0  0  0  0  0  0  0  0  0  0  0
    0.0680    1.3048   -0.8529 C   0  0  0  0  0  0  0  0  0  0  0  0
    0.8449    1.2434   -1.7962 O   0  0  0  0  0  0  0  0  0  0  0  0
   -0.8468    2.3436   -0.8084 N   0  0  0  0  0  0  0  0  0  0  0  0
   -1.3895    2.4503    0.0430 H   0  0  0  0  0  0  0  0  0  0  0  0
   -0.8580    3.4312   -1.7805 C   0  0  0  0  0  0  0  0  0  0  0  0
   -1.0172    3.0410   -2.7914 H   0  0  0  0  0  0  0  0  0  0  0  0
   -1.6647    4.1345   -1.5524 H   0  0  0  0  0  0  0  0  0  0  0  0
    0.0924    3.9749   -1.7586 H   0  0  0  0  0  0  0  0  0  0  0  0
  1  2  1  0  0  0  0
  2  3  1  0  0  0  0
  2  4  1  0  0  0  0
  2  5  1  0  0  0  0
  5  6  2  0  0  0  0
  5  7  1  0  0  0  0
  7  8  1  0  0  0  0
  7  9  1  0  0  0  0
  9 10  1  0  0  0  0
  9 11  1  0  0  0  0
  9 19  1  0  0  0  0
 11 12  1  0  0  0  0
 11 13  1  0  0  0  0
 11 14  1  0  0  0  0
 14 15  2  0  0  0  0
 14 16  1  0  0  0  0
 16 17  1  0  0  0  0
 16 18  1  0  0  0  0
 19 20  2  0  0  0  0
 19 21  1  0  0  0  0
 21 22  1  0  0  0  0
 21 23  1  0  0  0  0
 23 24  1  0  0  0  0
 23 25  1  0  0  0  0
 23 26  1  0  0  0  0
M  END
$$$$

  -OEChem-01062216063D

 26 25  0     1  0  0  0  0  0999 V2000
   -3.2591   -3.0899    1.0650 H   0  0  0  0  0  0  0  0  0  0  0  0
   -3.1239   -2.0606    0.7204 C   0  0  0  0  0  0  0  0  0  0  0  0
   -3.6117   -1.3882    1.4301 H   0  0  0  0  0  0  0  0  0  0  0  0
   -3.5958   -1.9525   -0.2593 H   0  0  0  0  0  0  0  0  0  0  0  0
   -1.6456   -1.7302    0.6225 C   0  0  0  0  0  0  0  0  0  0  0  0
   -0.8414   -2.6356    0.7530 O   0  0  0  0  0  0  0  0  0  0  0  0
   -1.2855   -0.4381    0.2772 N   0  0  0  0  0  0  0  0  0  0  0  0
   -2.0807    0.1624    0.0781 H   0  0  0  0  0  0  0  0  0  0  0  0
    0.0368    0.2394    0.2788 C   0  0  1  0  0  0  0  0  0  0  0  0
    0.0883    0.8011    1.2175 H   0  0  0  0  0  0  0  0  0  0  0  0
    1.3204   -0.6275    0.2626 C   0  0  0  0  0  0  0  0  0  0  0  0
    1.2538   -1.3446   -0.5598 H   0  0  0  0  0  0  0  0  0  0  0  0
    2.1915    0.0066    0.0756 H   0  0  0  0  0  0  0  0  0  0  0  0
    1.5749   -1.3754    1.5668 C   0  0  0  0  0  0  0  0  0  0  0  0
    1.4060   -0.8393    2.6493 O   0  0  0  0  0  0  0  0  0  0  0  0
    2.0440   -2.6568    1.5923 N   0  0  0  0  0  0  0  0  0  0  0  0
    1.9584   -3.1006    2.5009 H   0  0  0  0  0  0  0  0  0  0  0  0
    1.8298   -3.2116    0.7693 H   0  0  0  0  0  0  0  0  0  0  0  0
    0.0657    1.3148   -0.8274 C   0  0  0  0  0  0  0  0  0  0  0  0
    0.6473    1.1255   -1.8869 O   0  0  0  0  0  0  0  0  0  0  0  0
   -0.6178    2.5039   -0.6408 N   0  0  0  0  0  0  0  0  0  0  0  0
   -1.0143    2.6791    0.2778 H   0  0  0  0  0  0  0  0  0  0  0  0
   -0.6087    3.5874   -1.6174 C   0  0  0  0  0  0  0  0  0  0  0  0
   -1.0094    3.2429   -2.5767 H   0  0  0  0  0  0  0  0  0  0  0  0
   -1.2260    4.4197   -1.2657 H   0  0  0  0  0  0  0  0  0  0  0  0
    0.4115    3.9539   -1.7735 H   0  0  0  0  0  0  0  0  0  0  0  0
  1  2  1  0  0  0  0
  2  3  1  0  0  0  0
  2  4  1  0  0  0  0
  2  5  1  0  0  0  0
  5  6  2  0  0  0  0
  5  7  1  0  0  0  0
  7  8  1  0  0  0  0
  7  9  1  0  0  0  0
  9 10  1  0  0  0  0
  9 11  1  0  0  0  0
  9 19  1  0  0  0  0
 11 12  1  0  0  0  0
 11 13  1  0  0  0  0
 11 14  1  0  0  0  0
 14 15  2  0  0  0  0
 14 16  1  0  0  0  0
 16 17  1  0  0  0  0
 16 18  1  0  0  0  0
 19 20  2  0  0  0  0
 19 21  1  0  0  0  0
 21 22  1  0  0  0  0
 21 23  1  0  0  0  0
 23 24  1  0  0  0  0
 23 25  1  0  0  0  0
 23 26  1  0  0  0  0
M  END
$$$$

  -OEChem-01062216063D

 26 25  0     1  0  0  0  0  0999 V2000
   -3.2712   -3.0892    1.0530 H   0  0  0  0  0  0  0  0  0  0  0  0
   -3.1334   -2.0580    0.7151 C   0  0  0  0  0  0  0  0  0  0  0  0
   -3.6314   -1.3898    1.4217 H   0  0  0  0  0  0  0  0  0  0  0  0
   -3.5934   -1.9461   -0.2697 H   0  0  0  0  0  0  0  0  0  0  0  0
   -1.6546   -1.7244    0.6373 C   0  0  0  0  0  0  0  0  0  0  0  0
   -0.8501   -2.6268    0.7858 O   0  0  0  0  0  0  0  0  0  0  0  0
   -1.2932   -0.4324    0.2943 N   0  0  0  0  0  0  0  0  0  0  0  0
   -2.0864    0.1654    0.0790 H   0  0  0  0  0  0  0  0  0  0  0  0
    0.0277    0.2459    0.2972 C   0  0  1  0  0  0  0  0  0  0  0  0
    0.0787    0.7977    1.2414 H   0  0  0  0  0  0  0  0  0  0  0  0
    1.3132   -0.6151    0.2661 C   0  0  0  0  0  0  0  0  0  0  0  0
    1.2425   -1.3254   -0.5621 H   0  0  0  0  0  0  0  0  0  0  0  0
    2.1805    0.0235    0.0779 H   0  0  0  0  0  0  0  0  0  0  0  0
    1.5781   -1.3758    1.5604 C   0  0  0  0  0  0  0  0  0  0  0  0
    1.4128   -0.8505    2.6486 O   0  0  0  0  0  0  0  0  0  0  0  0
    2.0628   -2.6515    1.5699 N   0  0  0  0  0  0  0  0  0  0  0  0
    1.9875   -3.1052    2.4744 H   0  0  0  0  0  0  0  0  0  0  0  0
    1.8514   -3.2007    0.7427 H   0  0  0  0  0  0  0  0  0  0  0  0
    0.0652    1.3241   -0.8044 C   0  0  0  0  0  0  0  0  0  0  0  0
    0.4022    1.0444   -1.9466 O   0  0  0  0  0  0  0  0  0  0  0  0
   -0.3354    2.6174   -0.5184 N   0  0  0  0  0  0  0  0  0  0  0  0
   -0.5496    2.8422    0.4490 H   0  0  0  0  0  0  0  0  0  0  0  0
   -0.3007    3.6973   -1.4983 C   0  0  0  0  0  0  0  0  0  0  0  0
   -0.9309    3.4539   -2.3603 H   0  0  0  0  0  0  0  0  0  0  0  0
   -0.6711    4.6252   -1.0521 H   0  0  0  0  0  0  0  0  0  0  0  0
    0.7236    3.8654   -1.8476 H   0  0  0  0  0  0  0  0  0  0  0  0
  1  2  1  0  0  0  0
  2  3  1  0  0  0  0
  2  4  1  0  0  0  0
  2  5  1  0  0  0  0
  5  6  2  0  0  0  0
  5  7  1  0  0  0  0
  7  8  1  0  0  0  0
  7  9  1  0  0  0  0
  9 10  1  0  0  0  0
  9 11  1  0  0  0  0
  9 19  1  0  0  0  0
 11 12  1  0  0  0  0
 11 13  1  0  0  0  0
 11 14  1  0  0  0  0
 14 15  2  0  0  0  0
 14 16  1  0  0  0  0
 16 17  1  0  0  0  0
 16 18  1  0  0  0  0
 19 20  2  0  0  0  0
 19 21  1  0  0  0  0
 21 22  1  0  0  0  0
 21 23  1  0  0  0  0
 23 24  1  0  0  0  0
 23 25  1  0  0  0  0
 23 26  1  0  0  0  0
M  END
$$$$

  -OEChem-01062216063D

 26 25  0     1  0  0  0  0  0999 V2000
   -3.2849   -3.0824    1.0322 H   0  0  0  0  0  0  0  0  0  0  0  0
   -3.1404   -2.0509    0.6981 C   0  0  0  0  0  0  0  0  0  0  0  0
   -3.6613   -1.3838    1.3891 H   0  0  0  0  0  0  0  0  0  0  0  0
   -3.5711   -1.9412   -0.3002 H   0  0  0  0  0  0  0  0  0  0  0  0
   -1.6610   -1.7128    0.6641 C   0  0  0  0  0  0  0  0  0  0  0  0
   -0.8591   -2.6108    0.8488 O   0  0  0  0  0  0  0  0  0  0  0  0
   -1.2937   -0.4229    0.3207 N   0  0  0  0  0  0  0  0  0  0  0  0
   -2.0799    0.1665    0.0603 H   0  0  0  0  0  0  0  0  0  0  0  0
    0.0284    0.2521    0.3184 C   0  0  1  0  0  0  0  0  0  0  0  0
    0.0818    0.7973    1.2665 H   0  0  0  0  0  0  0  0  0  0  0  0
    1.3132   -0.6077    0.2707 C   0  0  0  0  0  0  0  0  0  0  0  0
    1.2336   -1.3124   -0.5616 H   0  0  0  0  0  0  0  0  0  0  0  0
    2.1787    0.0318    0.0786 H   0  0  0  0  0  0  0  0  0  0  0  0
    1.5912   -1.3789    1.5560 C   0  0  0  0  0  0  0  0  0  0  0  0
    1.4358   -0.8615    2.6494 O   0  0  0  0  0  0  0  0  0  0  0  0
    2.0756   -2.6547    1.5505 N   0  0  0  0  0  0  0  0  0  0  0  0
    2.0050   -3.1156    2.4520 H   0  0  0  0  0  0  0  0  0  0  0  0
    1.8549   -3.1971    0.7212 H   0  0  0  0  0  0  0  0  0  0  0  0
    0.0718    1.3317   -0.7804 C   0  0  0  0  0  0  0  0  0  0  0  0
    0.1168    1.0138   -1.9606 O   0  0  0  0  0  0  0  0  0  0  0  0
   -0.0144    2.6713   -0.4457 N   0  0  0  0  0  0  0  0  0  0  0  0
   -0.0101    2.9137    0.5413 H   0  0  0  0  0  0  0  0  0  0  0  0
    0.0266    3.7444   -1.4325 C   0  0  0  0  0  0  0  0  0  0  0  0
   -0.7910    3.6351   -2.1529 H   0  0  0  0  0  0  0  0  0  0  0  0
   -0.0766    4.7158   -0.9397 H   0  0  0  0  0  0  0  0  0  0  0  0
    0.9779    3.7306   -1.9747 H   0  0  0  0  0  0  0  0  0  0  0  0
  1  2  1  0  0  0  0
  2  3  1  0  0  0  0
  2  4  1  0  0  0  0
  2  5  1  0  0  0  0
  5  6  2  0  0  0  0
  5  7  1  0  0  0  0
  7  8  1  0  0  0  0
  7  9  1  0  0  0  0
  9 10  1  0  0  0  0
  9 11  1  0  0  0  0
  9 19  1  0  0  0  0
 11 12  1  0  0  0  0
 11 13  1  0  0  0  0
 11 14  1  0  0  0  0
 14 15  2  0  0  0  0
 14 16  1  0  0  0  0
 16 17  1  0  0  0  0
 16 18  1  0  0  0  0
 19 20  2  0  0  0  0
 19 21  1  0  0  0  0
 21 22  1  0  0  0  0
 21 23  1  0  0  0  0
 23 24  1  0  0  0  0
 23 25  1  0  0  0  0
 23 26  1  0  0  0  0
M  END
$$$$

  -OEChem-01062216063D

 26 25  0     1  0  0  0  0  0999 V2000
   -3.2947   -3.0752    1.0102 H   0  0  0  0  0  0  0  0  0  0  0  0
   -3.1433   -2.0430    0.6815 C   0  0  0  0  0  0  0  0  0  0  0  0
   -3.6824   -1.3775    1.3599 H   0  0  0  0  0  0  0  0  0  0  0  0
   -3.5489   -1.9318   -0.3272 H   0  0  0  0  0  0  0  0  0  0  0  0
   -1.6641   -1.7022    0.6853 C   0  0  0  0  0  0  0  0  0  0  0  0
   -0.8661   -2.5961    0.9038 O   0  0  0  0  0  0  0  0  0  0  0  0
   -1.2892   -0.4154    0.3404 N   0  0  0  0  0  0  0  0  0  0  0  0
   -2.0633    0.1620    0.0215 H   0  0  0  0  0  0  0  0  0  0  0  0
    0.0355    0.2536    0.3283 C   0  0  1  0  0  0  0  0  0  0  0  0
    0.0908    0.7974    1.2770 H   0  0  0  0  0  0  0  0  0  0  0  0
    1.3175   -0.6093    0.2709 C   0  0  0  0  0  0  0  0  0  0  0  0
    1.2294   -1.3136   -0.5608 H   0  0  0  0  0  0  0  0  0  0  0  0
    2.1836    0.0278    0.0728 H   0  0  0  0  0  0  0  0  0  0  0  0
    1.6043   -1.3815    1.5539 C   0  0  0  0  0  0  0  0  0  0  0  0
    1.4588   -0.8620    2.6474 O   0  0  0  0  0  0  0  0  0  0  0  0
    2.0808   -2.6603    1.5471 N   0  0  0  0  0  0  0  0  0  0  0  0
    2.0121   -3.1174    2.4508 H   0  0  0  0  0  0  0  0  0  0  0  0
    1.8465   -3.2041    0.7225 H   0  0  0  0  0  0  0  0  0  0  0  0
    0.0829    1.3348   -0.7681 C   0  0  0  0  0  0  0  0  0  0  0  0
   -0.1847    1.0503   -1.9273 O   0  0  0  0  0  0  0  0  0  0  0  0
    0.3207    2.6562   -0.4355 N   0  0  0  0  0  0  0  0  0  0  0  0
    0.5545    2.8667    0.5310 H   0  0  0  0  0  0  0  0  0  0  0  0
    0.3586    3.7329   -1.4183 C   0  0  0  0  0  0  0  0  0  0  0  0
   -0.5950    3.7985   -1.9527 H   0  0  0  0  0  0  0  0  0  0  0  0
    0.5425    4.6913   -0.9230 H   0  0  0  0  0  0  0  0  0  0  0  0
    1.1587    3.5596   -2.1459 H   0  0  0  0  0  0  0  0  0  0  0  0
  1  2  1  0  0  0  0
  2  3  1  0  0  0  0
  2  4  1  0  0  0  0
  2  5  1  0  0  0  0
  5  6  2  0  0  0  0
  5  7  1  0  0  0  0
  7  8  1  0  0  0  0
  7  9  1  0  0  0  0
  9 10  1  0  0  0  0
  9 11  1  0  0  0  0
  9 19  1  0  0  0  0
 11 12  1  0  0  0  0
 11 13  1  0  0  0  0
 11 14  1  0  0  0  0
 14 15  2  0  0  0  0
 14 16  1  0  0  0  0
 16 17  1  0  0  0  0
 16 18  1  0  0  0  0
 19 20  2  0  0  0  0
 19 21  1  0  0  0  0
 21 22  1  0  0  0  0
 21 23  1  0  0  0  0
 23 24  1  0  0  0  0
 23 25  1  0  0  0  0
 23 26  1  0  0  0  0
M  END
$$$$

  -OEChem-01062216063D

 26 25  0     1  0  0  0  0  0999 V2000
   -3.3024   -3.0666    0.9853 H   0  0  0  0  0  0  0  0  0  0  0  0
   -3.1426   -2.0320    0.6686 C   0  0  0  0  0  0  0  0  0  0  0  0
   -3.6880   -1.3702    1.3459 H   0  0  0  0  0  0  0  0  0  0  0  0
   -3.5341   -1.9097   -0.3443 H   0  0  0  0  0  0  0  0  0  0  0  0
   -1.6626   -1.6961    0.6950 C   0  0  0  0  0  0  0  0  0  0  0  0
   -0.8700   -2.5913    0.9290 O   0  0  0  0  0  0  0  0  0  0  0  0
   -1.2794   -0.4130    0.3473 N   0  0  0  0  0  0  0  0  0  0  0  0
   -2.0422    0.1576   -0.0110 H   0  0  0  0  0  0  0  0  0  0  0  0
    0.0477    0.2502    0.3278 C   0  0  1  0  0  0  0  0  0  0  0  0
    0.1046    0.7991    1.2738 H   0  0  0  0  0  0  0  0  0  0  0  0
    1.3240   -0.6208    0.2725 C   0  0  0  0  0  0  0  0  0  0  0  0
    1.2285   -1.3302   -0.5538 H   0  0  0  0  0  0  0  0  0  0  0  0
    2.1941    0.0082    0.0681 H   0  0  0  0  0  0  0  0  0  0  0  0
    1.6102   -1.3868    1.5595 C   0  0  0  0  0  0  0  0  0  0  0  0
    1.4711   -0.8594    2.6498 O   0  0  0  0  0  0  0  0  0  0  0  0
    2.0809   -2.6676    1.5587 N   0  0  0  0  0  0  0  0  0  0  0  0
    2.0166   -3.1171    2.4665 H   0  0  0  0  0  0  0  0  0  0  0  0
    1.8361   -3.2170    0.7410 H   0  0  0  0  0  0  0  0  0  0  0  0
    0.0999    1.3312   -0.7699 C   0  0  0  0  0  0  0  0  0  0  0  0
   -0.4489    1.1459   -1.8482 O   0  0  0  0  0  0  0  0  0  0  0  0
    0.6439    2.5732   -0.4963 N   0  0  0  0  0  0  0  0  0  0  0  0
    1.0786    2.7100    0.4125 H   0  0  0  0  0  0  0  0  0  0  0  0
    0.6726    3.6658   -1.4618 C   0  0  0  0  0  0  0  0  0  0  0  0
   -0.3442    3.9373   -1.7647 H   0  0  0  0  0  0  0  0  0  0  0  0
    1.1480    4.5474   -1.0213 H   0  0  0  0  0  0  0  0  0  0  0  0
    1.2404    3.3757   -2.3522 H   0  0  0  0  0  0  0  0  0  0  0  0
  1  2  1  0  0  0  0
  2  3  1  0  0  0  0
  2  4  1  0  0  0  0
  2  5  1  0  0  0  0
  5  6  2  0  0  0  0
  5  7  1  0  0  0  0
  7  8  1  0  0  0  0
  7  9  1  0  0  0  0
  9 10  1  0  0  0  0
  9 11  1  0  0  0  0
  9 19  1  0  0  0  0
 11 12  1  0  0  0  0
 11 13  1  0  0  0  0
 11 14  1  0  0  0  0
 14 15  2  0  0  0  0
 14 16  1  0  0  0  0
 16 17  1  0  0  0  0
 16 18  1  0  0  0  0
 19 20  2  0  0  0  0
 19 21  1  0  0  0  0
 21 22  1  0  0  0  0
 21 23  1  0  0  0  0
 23 24  1  0  0  0  0
 23 25  1  0  0  0  0
 23 26  1  0  0  0  0
M  END
$$$$

  -OEChem-01062216063D

 26 25  0     1  0  0  0  0  0999 V2000
   -3.3059   -3.0578    0.9743 H   0  0  0  0  0  0  0  0  0  0  0  0
   -3.1399   -2.0219    0.6657 C   0  0  0  0  0  0  0  0  0  0  0  0
   -3.6787   -1.3622    1.3502 H   0  0  0  0  0  0  0  0  0  0  0  0
   -3.5336   -1.8880   -0.3449 H   0  0  0  0  0  0  0  0  0  0  0  0
   -1.6575   -1.6965    0.6912 C   0  0  0  0  0  0  0  0  0  0  0  0
   -0.8701   -2.5971    0.9232 O   0  0  0  0  0  0  0  0  0  0  0  0
   -1.2657   -0.4164    0.3426 N   0  0  0  0  0  0  0  0  0  0  0  0
   -2.0220    0.1572   -0.0268 H   0  0  0  0  0  0  0  0  0  0  0  0
    0.0624    0.2442    0.3204 C   0  0  1  0  0  0  0  0  0  0  0  0
    0.1198    0.8004    1.2622 H   0  0  0  0  0  0  0  0  0  0  0  0
    1.3331   -0.6379    0.2724 C   0  0  0  0  0  0  0  0  0  0  0  0
    1.2320   -1.3538   -0.5476 H   0  0  0  0  0  0  0  0  0  0  0  0
    2.2106   -0.0207    0.0642 H   0  0  0  0  0  0  0  0  0  0  0  0
    1.6098   -1.3964    1.5663 C   0  0  0  0  0  0  0  0  0  0  0  0
    1.4723   -0.8585    2.6515 O   0  0  0  0  0  0  0  0  0  0  0  0
    2.0736   -2.6797    1.5785 N   0  0  0  0  0  0  0  0  0  0  0  0
    2.0018   -3.1202    2.4903 H   0  0  0  0  0  0  0  0  0  0  0  0
    1.8285   -3.2358    0.7655 H   0  0  0  0  0  0  0  0  0  0  0  0
    0.1171    1.3250   -0.7791 C   0  0  0  0  0  0  0  0  0  0  0  0
   -0.6466    1.2776   -1.7356 O   0  0  0  0  0  0  0  0  0  0  0  0
    0.9250    2.4365   -0.6195 N   0  0  0  0  0  0  0  0  0  0  0  0
    1.5107    2.4813    0.2103 H   0  0  0  0  0  0  0  0  0  0  0  0
    0.9553    3.5476   -1.5634 C   0  0  0  0  0  0  0  0  0  0  0  0
   -0.0318    4.0167   -1.6349 H   0  0  0  0  0  0  0  0  0  0  0  0
    1.6742    4.3042   -1.2346 H   0  0  0  0  0  0  0  0  0  0  0  0
    1.2525    3.1984   -2.5580 H   0  0  0  0  0  0  0  0  0  0  0  0
  1  2  1  0  0  0  0
  2  3  1  0  0  0  0
  2  4  1  0  0  0  0
  2  5  1  0  0  0  0
  5  6  2  0  0  0  0
  5  7  1  0  0  0  0
  7  8  1  0  0  0  0
  7  9  1  0  0  0  0
  9 10  1  0  0  0  0
  9 11  1  0  0  0  0
  9 19  1  0  0  0  0
 11 12  1  0  0  0  0
 11 13  1  0  0  0  0
 11 14  1  0  0  0  0
 14 15  2  0  0  0  0
 14 16  1  0  0  0  0
 16 17  1  0  0  0  0
 16 18  1  0  0  0  0
 19 20  2  0  0  0  0
 19 21  1  0  0  0  0
 21 22  1  0  0  0  0
 21 23  1  0  0  0  0
 23 24  1  0  0  0  0
 23 25  1  0  0  0  0
 23 26  1  0  0  0  0
M  END
$$$$

  -OEChem-01062216063D

 26 25  0     1  0  0  0  0  0999 V2000
   -3.3045   -3.0491    0.9767 H   0  0  0  0  0  0  0  0  0  0  0  0
   -3.1318   -2.0140    0.6689 C   0  0  0  0  0  0  0  0  0  0  0  0
   -3.6561   -1.3505    1.3609 H   0  0  0  0  0  0  0  0  0  0  0  0
   -3.5357   -1.8730   -0.3367 H   0  0  0  0  0  0  0  0  0  0  0  0
   -1.6466   -1.7023    0.6786 C   0  0  0  0  0  0  0  0  0  0  0  0
   -0.8638   -2.6127    0.8875 O   0  0  0  0  0  0  0  0  0  0  0  0
   -1.2483   -0.4230    0.3357 N   0  0  0  0  0  0  0  0  0  0  0  0
   -2.0044    0.1620   -0.0179 H   0  0  0  0  0  0  0  0  0  0  0  0
    0.0791    0.2394    0.3185 C   0  0  1  0  0  0  0  0  0  0  0  0
    0.1376    0.7991    1.2582 H   0  0  0  0  0  0  0  0  0  0  0  0
    1.3433   -0.6554    0.2779 C   0  0  0  0  0  0  0  0  0  0  0  0
    1.2389   -1.3728   -0.5405 H   0  0  0  0  0  0  0  0  0  0  0  0
    2.2307   -0.0516    0.0742 H   0  0  0  0  0  0  0  0  0  0  0  0
    1.6054   -1.4129    1.5757 C   0  0  0  0  0  0  0  0  0  0  0  0
    1.4672   -0.8712    2.6586 O   0  0  0  0  0  0  0  0  0  0  0  0
    2.0545   -2.7013    1.5945 N   0  0  0  0  0  0  0  0  0  0  0  0
    1.9781   -3.1356    2.5090 H   0  0  0  0  0  0  0  0  0  0  0  0
    1.7963   -3.2586    0.7861 H   0  0  0  0  0  0  0  0  0  0  0  0
    0.1293    1.3229   -0.7816 C   0  0  0  0  0  0  0  0  0  0  0  0
   -0.7836    1.4262   -1.5930 O   0  0  0  0  0  0  0  0  0  0  0  0
    1.1373    2.2710   -0.7858 N   0  0  0  0  0  0  0  0  0  0  0  0
    1.8403    2.2165   -0.0537 H   0  0  0  0  0  0  0  0  0  0  0  0
    1.1875    3.3835   -1.7275 C   0  0  0  0  0  0  0  0  0  0  0  0
    0.2981    4.0141   -1.6235 H   0  0  0  0  0  0  0  0  0  0  0  0
    2.0718    3.9996   -1.5386 H   0  0  0  0  0  0  0  0  0  0  0  0
    1.2384    3.0124   -2.7565 H   0  0  0  0  0  0  0  0  0  0  0  0
  1  2  1  0  0  0  0
  2  3  1  0  0  0  0
  2  4  1  0  0  0  0
  2  5  1  0  0  0  0
  5  6  2  0  0  0  0
  5  7  1  0  0  0  0
  7  8  1  0  0  0  0
  7  9  1  0  0  0  0
  9 10  1  0  0  0  0
  9 11  1  0  0  0  0
  9 19  1  0  0  0  0
 11 12  1  0  0  0  0
 11 13  1  0  0  0  0
 11 14  1  0  0  0  0
 14 15  2  0  0  0  0
 14 16  1  0  0  0  0
 16 17  1  0  0  0  0
 16 18  1  0  0  0  0
 19 20  2  0  0  0  0
 19 21  1  0  0  0  0
 21 22  1  0  0  0  0
 21 23  1  0  0  0  0
 23 24  1  0  0  0  0
 23 25  1  0  0  0  0
 23 26  1  0  0  0  0
M  END
$$$$

  -OEChem-01062216063D

 26 25  0     1  0  0  0  0  0999 V2000
   -3.3292   -2.9869    1.0606 H   0  0  0  0  0  0  0  0  0  0  0  0
   -3.1427   -1.9624    0.7258 C   0  0  0  0  0  0  0  0  0  0  0  0
   -3.6259   -1.2732    1.4226 H   0  0  0  0  0  0  0  0  0  0  0  0
   -3.5792   -1.8309   -0.2673 H   0  0  0  0  0  0  0  0  0  0  0  0
   -1.6504   -1.6883    0.6769 C   0  0  0  0  0  0  0  0  0  0  0  0
   -0.8868   -2.6200    0.8484 O   0  0  0  0  0  0  0  0  0  0  0  0
   -1.2340   -0.4164    0.3297 N   0  0  0  0  0  0  0  0  0  0  0  0
   -1.9972    0.2083    0.0666 H   0  0  0  0  0  0  0  0  0  0  0  0
    0.0904    0.2524    0.3190 C   0  0  1  0  0  0  0  0  0  0  0  0
    0.2717    0.5882    1.3460 H   0  0  0  0  0  0  0  0  0  0  0  0
    1.3237   -0.5997   -0.0842 C   0  0  0  0  0  0  0  0  0  0  0  0
    1.1026   -1.0984   -1.0313 H   0  0  0  0  0  0  0  0  0  0  0  0
    2.1947    0.0388   -0.2441 H   0  0  0  0  0  0  0  0  0  0  0  0
    1.7393   -1.6499    0.9384 C   0  0  0  0  0  0  0  0  0  0  0  0
    1.7523   -1.3917    2.1292 O   0  0  0  0  0  0  0  0  0  0  0  0
    2.1646   -2.8958    0.5772 N   0  0  0  0  0  0  0  0  0  0  0  0
    2.1788   -3.5498    1.3542 H   0  0  0  0  0  0  0  0  0  0  0  0
    1.8311   -3.2332   -0.3191 H   0  0  0  0  0  0  0  0  0  0  0  0
    0.0048    1.5510   -0.5192 C   0  0  0  0  0  0  0  0  0  0  0  0
   -1.0679    1.8995   -1.0016 O   0  0  0  0  0  0  0  0  0  0  0  0
    1.1074    2.3699   -0.6907 N   0  0  0  0  0  0  0  0  0  0  0  0
    1.9681    2.1070   -0.2188 H   0  0  0  0  0  0  0  0  0  0  0  0
    1.0635    3.6337   -1.4171 C   0  0  0  0  0  0  0  0  0  0  0  0
    0.3521    4.3220   -0.9485 H   0  0  0  0  0  0  0  0  0  0  0  0
    2.0512    4.1045   -1.4160 H   0  0  0  0  0  0  0  0  0  0  0  0
    0.7618    3.4681   -2.4568 H   0  0  0  0  0  0  0  0  0  0  0  0
  1  2  1  0  0  0  0
  2  3  1  0  0  0  0
  2  4  1  0  0  0  0
  2  5  1  0  0  0  0
  5  6  2  0  0  0  0
  5  7  1  0  0  0  0
  7  8  1  0  0  0  0
  7  9  1  0  0  0  0
  9 10  1  0  0  0  0
  9 11  1  0  0  0  0
  9 19  1  0  0  0  0
 11 12  1  0  0  0  0
 11 13  1  0  0  0  0
 11 14  1  0  0  0  0
 14 15  2  0  0  0  0
 14 16  1  0  0  0  0
 16 17  1  0  0  0  0
 16 18  1  0  0  0  0
 19 20  2  0  0  0  0
 19 21  1  0  0  0  0
 21 22  1  0  0  0  0
 21 23  1  0  0  0  0
 23 24  1  0  0  0  0
 23 25  1  0  0  0  0
 23 26  1  0  0  0  0
M  END
$$$$

  -OEChem-01062216063D

 26 25  0     1  0  0  0  0  0999 V2000
   -3.3243   -2.9705    1.0724 H   0  0  0  0  0  0  0  0  0  0  0  0
   -3.1362   -1.9465    0.7373 C   0  0  0  0  0  0  0  0  0  0  0  0
   -3.5744   -1.2559    1.4619 H   0  0  0  0  0  0  0  0  0  0  0  0
   -3.6165   -1.7986   -0.2329 H   0  0  0  0  0  0  0  0  0  0  0  0
   -1.6436   -1.6967    0.6204 C   0  0  0  0  0  0  0  0  0  0  0  0
   -0.8889   -2.6478    0.7071 O   0  0  0  0  0  0  0  0  0  0  0  0
   -1.2204   -0.4228    0.2898 N   0  0  0  0  0  0  0  0  0  0  0  0
   -1.9845    0.2276    0.1010 H   0  0  0  0  0  0  0  0  0  0  0  0
    0.1080    0.2384    0.3010 C   0  0  1  0  0  0  0  0  0  0  0  0
    0.2770    0.5749    1.3299 H   0  0  0  0  0  0  0  0  0  0  0  0
    1.3427   -0.6263   -0.0746 C   0  0  0  0  0  0  0  0  0  0  0  0
    1.1385   -1.1275   -1.0242 H   0  0  0  0  0  0  0  0  0  0  0  0
    2.2252    0.0007   -0.2123 H   0  0  0  0  0  0  0  0  0  0  0  0
    1.7254   -1.6734    0.9652 C   0  0  0  0  0  0  0  0  0  0  0  0
    1.7154   -1.4091    2.1545 O   0  0  0  0  0  0  0  0  0  0  0  0
    2.1545   -2.9229    0.6215 N   0  0  0  0  0  0  0  0  0  0  0  0
    2.1534   -3.5710    1.4036 H   0  0  0  0  0  0  0  0  0  0  0  0
    1.8318   -3.2663   -0.2766 H   0  0  0  0  0  0  0  0  0  0  0  0
    0.0223    1.5440   -0.5300 C   0  0  0  0  0  0  0  0  0  0  0  0
   -1.0775    2.0126   -0.8059 O   0  0  0  0  0  0  0  0  0  0  0  0
    1.1514    2.2211   -0.9586 N   0  0  0  0  0  0  0  0  0  0  0  0
    2.0561    1.8605   -0.6709 H   0  0  0  0  0  0  0  0  0  0  0  0
    1.1018    3.4729   -1.7055 C   0  0  0  0  0  0  0  0  0  0  0  0
    0.5831    4.2450   -1.1273 H   0  0  0  0  0  0  0  0  0  0  0  0
    2.1152    3.8253   -1.9207 H   0  0  0  0  0  0  0  0  0  0  0  0
    0.5764    3.3311   -2.6559 H   0  0  0  0  0  0  0  0  0  0  0  0
  1  2  1  0  0  0  0
  2  3  1  0  0  0  0
  2  4  1  0  0  0  0
  2  5  1  0  0  0  0
  5  6  2  0  0  0  0
  5  7  1  0  0  0  0
  7  8  1  0  0  0  0
  7  9  1  0  0  0  0
  9 10  1  0  0  0  0
  9 11  1  0  0  0  0
  9 19  1  0  0  0  0
 11 12  1  0  0  0  0
 11 13  1  0  0  0  0
 11 14  1  0  0  0  0
 14 15  2  0  0  0  0
 14 16  1  0  0  0  0
 16 17  1  0  0  0  0
 16 18  1  0  0  0  0
 19 20  2  0  0  0  0
 19 21  1  0  0  0  0
 21 22  1  0  0  0  0
 21 23  1  0  0  0  0
 23 24  1  0  0  0  0
 23 25  1  0  0  0  0
 23 26  1  0  0  0  0
M  END
$$$$

  -OEChem-01062216063D

 26 25  0     1  0  0  0  0  0999 V2000
   -3.3060   -2.9909    1.0108 H   0  0  0  0  0  0  0  0  0  0  0  0
   -3.1223   -1.9443    0.7516 C   0  0  0  0  0  0  0  0  0  0  0  0
   -3.5024   -1.3120    1.5579 H   0  0  0  0  0  0  0  0  0  0  0  0
   -3.6601   -1.7096   -0.1704 H   0  0  0  0  0  0  0  0  0  0  0  0
   -1.6359   -1.7028    0.5618 C   0  0  0  0  0  0  0  0  0  0  0  0
   -0.8861   -2.6627    0.5620 O   0  0  0  0  0  0  0  0  0  0  0  0
   -1.2149   -0.4249    0.2448 N   0  0  0  0  0  0  0  0  0  0  0  0
   -1.9788    0.2438    0.1389 H   0  0  0  0  0  0  0  0  0  0  0  0
    0.1167    0.2271    0.2791 C   0  0  1  0  0  0  0  0  0  0  0  0
    0.2676    0.5642    1.3109 H   0  0  0  0  0  0  0  0  0  0  0  0
    1.3574   -0.6420   -0.0623 C   0  0  0  0  0  0  0  0  0  0  0  0
    1.1793   -1.1479   -1.0146 H   0  0  0  0  0  0  0  0  0  0  0  0
    2.2441   -0.0154   -0.1740 H   0  0  0  0  0  0  0  0  0  0  0  0
    1.7087   -1.6815    0.9971 C   0  0  0  0  0  0  0  0  0  0  0  0
    1.6697   -1.4100    2.1840 O   0  0  0  0  0  0  0  0  0  0  0  0
    2.1380   -2.9364    0.6750 N   0  0  0  0  0  0  0  0  0  0  0  0
    2.1225   -3.5742    1.4652 H   0  0  0  0  0  0  0  0  0  0  0  0
    1.8201   -3.2894   -0.2214 H   0  0  0  0  0  0  0  0  0  0  0  0
    0.0364    1.5374   -0.5441 C   0  0  0  0  0  0  0  0  0  0  0  0
   -1.0365    2.1274   -0.6149 O   0  0  0  0  0  0  0  0  0  0  0  0
    1.1229    2.0665   -1.2201 N   0  0  0  0  0  0  0  0  0  0  0  0
    2.0087    1.5757   -1.1512 H   0  0  0  0  0  0  0  0  0  0  0  0
    1.0622    3.2976   -1.9999 C   0  0  0  0  0  0  0  0  0  0  0  0
    0.7831    4.1427   -1.3615 H   0  0  0  0  0  0  0  0  0  0  0  0
    2.0380    3.5102   -2.4474 H   0  0  0  0  0  0  0  0  0  0  0  0
    0.3257    3.2058   -2.8053 H   0  0  0  0  0  0  0  0  0  0  0  0
  1  2  1  0  0  0  0
  2  3  1  0  0  0  0
  2  4  1  0  0  0  0
  2  5  1  0  0  0  0
  5  6  2  0  0  0  0
  5  7  1  0  0  0  0
  7  8  1  0  0  0  0
  7  9  1  0  0  0  0
  9 10  1  0  0  0  0
  9 11  1  0  0  0  0
  9 19  1  0  0  0  0
 11 12  1  0  0  0  0
 11 13  1  0  0  0  0
 11 14  1  0  0  0  0
 14 15  2  0  0  0  0
 14 16  1  0  0  0  0
 16 17  1  0  0  0  0
 16 18  1  0  0  0  0
 19 20  2  0  0  0  0
 19 21  1  0  0  0  0
 21 22  1  0  0  0  0
 21 23  1  0  0  0  0
 23 24  1  0  0  0  0
 23 25  1  0  0  0  0
 23 26  1  0  0  0  0
M  END
$$$$

  -OEChem-01062216063D

 26 25  0     1  0  0  0  0  0999 V2000
   -3.2743   -2.9988    1.0431 H   0  0  0  0  0  0  0  0  0  0  0  0
   -3.1057   -1.9504    0.7810 C   0  0  0  0  0  0  0  0  0  0  0  0
   -3.4444   -1.3239    1.6099 H   0  0  0  0  0  0  0  0  0  0  0  0
   -3.6903   -1.7109   -0.1107 H   0  0  0  0  0  0  0  0  0  0  0  0
   -1.6314   -1.7062    0.5167 C   0  0  0  0  0  0  0  0  0  0  0  0
   -0.8851   -2.6665    0.4408 O   0  0  0  0  0  0  0  0  0  0  0  0
   -1.2212   -0.4234    0.2061 N   0  0  0  0  0  0  0  0  0  0  0  0
   -1.9858    0.2516    0.1751 H   0  0  0  0  0  0  0  0  0  0  0  0
    0.1117    0.2226    0.2604 C   0  0  1  0  0  0  0  0  0  0  0  0
    0.2463    0.5595    1.2946 H   0  0  0  0  0  0  0  0  0  0  0  0
    1.3598   -0.6436   -0.0575 C   0  0  0  0  0  0  0  0  0  0  0  0
    1.2032   -1.1522   -1.0123 H   0  0  0  0  0  0  0  0  0  0  0  0
    2.2435   -0.0086   -0.1498 H   0  0  0  0  0  0  0  0  0  0  0  0
    1.6917   -1.6806    1.0114 C   0  0  0  0  0  0  0  0  0  0  0  0
    1.6295   -1.4085    2.1970 O   0  0  0  0  0  0  0  0  0  0  0  0
    2.1229   -2.9377    0.7007 N   0  0  0  0  0  0  0  0  0  0  0  0
    2.0961   -3.5721    1.4931 H   0  0  0  0  0  0  0  0  0  0  0  0
    1.8155   -3.2939   -0.1982 H   0  0  0  0  0  0  0  0  0  0  0  0
    0.0437    1.5340   -0.5572 C   0  0  0  0  0  0  0  0  0  0  0  0
   -0.9514    2.2412   -0.4489 O   0  0  0  0  0  0  0  0  0  0  0  0
    1.0285    1.9083   -1.4556 N   0  0  0  0  0  0  0  0  0  0  0  0
    1.8217    1.2860   -1.5737 H   0  0  0  0  0  0  0  0  0  0  0  0
    0.9548    3.1148   -2.2716 C   0  0  0  0  0  0  0  0  0  0  0  0
    0.8741    4.0030   -1.6360 H   0  0  0  0  0  0  0  0  0  0  0  0
    1.8553    3.2115   -2.8858 H   0  0  0  0  0  0  0  0  0  0  0  0
    0.0852    3.0761   -2.9362 H   0  0  0  0  0  0  0  0  0  0  0  0
  1  2  1  0  0  0  0
  2  3  1  0  0  0  0
  2  4  1  0  0  0  0
  2  5  1  0  0  0  0
  5  6  2  0  0  0  0
  5  7  1  0  0  0  0
  7  8  1  0  0  0  0
  7  9  1  0  0  0  0
  9 10  1  0  0  0  0
  9 11  1  0  0  0  0
  9 19  1  0  0  0  0
 11 12  1  0  0  0  0
 11 13  1  0  0  0  0
 11 14  1  0  0  0  0
 14 15  2  0  0  0  0
 14 16  1  0  0  0  0
 16 17  1  0  0  0  0
 16 18  1  0  0  0  0
 19 20  2  0  0  0  0
 19 21  1  0  0  0  0
 21 22  1  0  0  0  0
 21 23  1  0  0  0  0
 23 24  1  0  0  0  0
 23 25  1  0  0  0  0
 23 26  1  0  0  0  0
M  END
$$$$

  -OEChem-01062216063D

 26 25  0     1  0  0  0  0  0999 V2000
   -3.2535   -3.0106    1.0449 H   0  0  0  0  0  0  0  0  0  0  0  0
   -3.0926   -1.9553    0.8073 C   0  0  0  0  0  0  0  0  0  0  0  0
   -3.3938   -1.3536    1.6684 H   0  0  0  0  0  0  0  0  0  0  0  0
   -3.7136   -1.6878   -0.0511 H   0  0  0  0  0  0  0  0  0  0  0  0
   -1.6297   -1.7064    0.4892 C   0  0  0  0  0  0  0  0  0  0  0  0
   -0.8851   -2.6635    0.3658 O   0  0  0  0  0  0  0  0  0  0  0  0
   -1.2297   -0.4204    0.1787 N   0  0  0  0  0  0  0  0  0  0  0  0
   -1.9951    0.2535    0.1941 H   0  0  0  0  0  0  0  0  0  0  0  0
    0.1029    0.2229    0.2506 C   0  0  1  0  0  0  0  0  0  0  0  0
    0.2250    0.5591    1.2871 H   0  0  0  0  0  0  0  0  0  0  0  0
    1.3576   -0.6368   -0.0525 C   0  0  0  0  0  0  0  0  0  0  0  0
    1.2155   -1.1466   -1.0088 H   0  0  0  0  0  0  0  0  0  0  0  0
    2.2371    0.0068   -0.1362 H   0  0  0  0  0  0  0  0  0  0  0  0
    1.6781   -1.6752    1.0189 C   0  0  0  0  0  0  0  0  0  0  0  0
    1.5987   -1.4085    2.2047 O   0  0  0  0  0  0  0  0  0  0  0  0
    2.1167   -2.9303    0.7101 N   0  0  0  0  0  0  0  0  0  0  0  0
    2.0872   -3.5666    1.5010 H   0  0  0  0  0  0  0  0  0  0  0  0
    1.8202   -3.2858   -0.1929 H   0  0  0  0  0  0  0  0  0  0  0  0
    0.0492    1.5311   -0.5672 C   0  0  0  0  0  0  0  0  0  0  0  0
   -0.8306    2.3436   -0.3117 O   0  0  0  0  0  0  0  0  0  0  0  0
    0.8731    1.7585   -1.6563 N   0  0  0  0  0  0  0  0  0  0  0  0
    1.5318    1.0282   -1.9082 H   0  0  0  0  0  0  0  0  0  0  0  0
    0.7680    2.9368   -2.5092 C   0  0  0  0  0  0  0  0  0  0  0  0
    0.8941    3.8502   -1.9183 H   0  0  0  0  0  0  0  0  0  0  0  0
    1.5438    2.9162   -3.2806 H   0  0  0  0  0  0  0  0  0  0  0  0
   -0.2097    2.9677   -3.0015 H   0  0  0  0  0  0  0  0  0  0  0  0
  1  2  1  0  0  0  0
  2  3  1  0  0  0  0
  2  4  1  0  0  0  0
  2  5  1  0  0  0  0
  5  6  2  0  0  0  0
  5  7  1  0  0  0  0
  7  8  1  0  0  0  0
  7  9  1  0  0  0  0
  9 10  1  0  0  0  0
  9 11  1  0  0  0  0
  9 19  1  0  0  0  0
 11 12  1  0  0  0  0
 11 13  1  0  0  0  0
 11 14  1  0  0  0  0
 14 15  2  0  0  0  0
 14 16  1  0  0  0  0
 16 17  1  0  0  0  0
 16 18  1  0  0  0  0
 19 20  2  0  0  0  0
 19 21  1  0  0  0  0
 21 22  1  0  0  0  0
 21 23  1  0  0  0  0
 23 24  1  0  0  0  0
 23 25  1  0  0  0  0
 23 26  1  0  0  0  0
M  END
$$$$

  -OEChem-01062216063D

 26 25  0     1  0  0  0  0  0999 V2000
   -3.2191   -3.0197    1.1055 H   0  0  0  0  0  0  0  0  0  0  0  0
   -3.0781   -1.9683    0.8389 C   0  0  0  0  0  0  0  0  0  0  0  0
   -3.3623   -1.3500    1.6941 H   0  0  0  0  0  0  0  0  0  0  0  0
   -3.7260   -1.7284   -0.0076 H   0  0  0  0  0  0  0  0  0  0  0  0
   -1.6284   -1.7103    0.4726 C   0  0  0  0  0  0  0  0  0  0  0  0
   -0.8854   -2.6622    0.3052 O   0  0  0  0  0  0  0  0  0  0  0  0
   -1.2440   -0.4210    0.1563 N   0  0  0  0  0  0  0  0  0  0  0  0
   -2.0123    0.2463    0.2125 H   0  0  0  0  0  0  0  0  0  0  0  0
    0.0863    0.2252    0.2377 C   0  0  1  0  0  0  0  0  0  0  0  0
    0.1994    0.5615    1.2754 H   0  0  0  0  0  0  0  0  0  0  0  0
    1.3472   -0.6270   -0.0568 C   0  0  0  0  0  0  0  0  0  0  0  0
    1.2127   -1.1401   -1.0123 H   0  0  0  0  0  0  0  0  0  0  0  0
    2.2211    0.0248   -0.1405 H   0  0  0  0  0  0  0  0  0  0  0  0
    1.6652   -1.6650    1.0160 C   0  0  0  0  0  0  0  0  0  0  0  0
    1.5755   -1.4008    2.2015 O   0  0  0  0  0  0  0  0  0  0  0  0
    2.1085   -2.9192    0.7101 N   0  0  0  0  0  0  0  0  0  0  0  0
    2.0796   -3.5555    1.5011 H   0  0  0  0  0  0  0  0  0  0  0  0
    1.8181   -3.2763   -0.1942 H   0  0  0  0  0  0  0  0  0  0  0  0
    0.0476    1.5294   -0.5822 C   0  0  0  0  0  0  0  0  0  0  0  0
   -0.6643    2.4464   -0.1955 O   0  0  0  0  0  0  0  0  0  0  0  0
    0.6557    1.6273   -1.8213 N   0  0  0  0  0  0  0  0  0  0  0  0
    1.1403    0.8064   -2.1711 H   0  0  0  0  0  0  0  0  0  0  0  0
    0.5266    2.7932   -2.6875 C   0  0  0  0  0  0  0  0  0  0  0  0
    0.8665    3.6958   -2.1685 H   0  0  0  0  0  0  0  0  0  0  0  0
    1.1348    2.6648   -3.5880 H   0  0  0  0  0  0  0  0  0  0  0  0
   -0.5165    2.9325   -2.9901 H   0  0  0  0  0  0  0  0  0  0  0  0
  1  2  1  0  0  0  0
  2  3  1  0  0  0  0
  2  4  1  0  0  0  0
  2  5  1  0  0  0  0
  5  6  2  0  0  0  0
  5  7  1  0  0  0  0
  7  8  1  0  0  0  0
  7  9  1  0  0  0  0
  9 10  1  0  0  0  0
  9 11  1  0  0  0  0
  9 19  1  0  0  0  0
 11 12  1  0  0  0  0
 11 13  1  0  0  0  0
 11 14  1  0  0  0  0
 14 15  2  0  0  0  0
 14 16  1  0  0  0  0
 16 17  1  0  0  0  0
 16 18  1  0  0  0  0
 19 20  2  0  0  0  0
 19 21  1  0  0  0  0
 21 22  1  0  0  0  0
 21 23  1  0  0  0  0
 23 24  1  0  0  0  0
 23 25  1  0  0  0  0
 23 26  1  0  0  0  0
M  END
$$$$

  -OEChem-01062216063D

 26 25  0     1  0  0  0  0  0999 V2000
   -3.1798   -3.0328    1.1686 H   0  0  0  0  0  0  0  0  0  0  0  0
   -3.0646   -1.9872    0.8687 C   0  0  0  0  0  0  0  0  0  0  0  0
   -3.3400   -1.3496    1.7126 H   0  0  0  0  0  0  0  0  0  0  0  0
   -3.7366   -1.7834    0.0314 H   0  0  0  0  0  0  0  0  0  0  0  0
   -1.6283   -1.7155    0.4615 C   0  0  0  0  0  0  0  0  0  0  0  0
   -0.8853   -2.6604    0.2585 O   0  0  0  0  0  0  0  0  0  0  0  0
   -1.2606   -0.4232    0.1368 N   0  0  0  0  0  0  0  0  0  0  0  0
   -2.0326    0.2357    0.2236 H   0  0  0  0  0  0  0  0  0  0  0  0
    0.0668    0.2286    0.2285 C   0  0  1  0  0  0  0  0  0  0  0  0
    0.1709    0.5643    1.2675 H   0  0  0  0  0  0  0  0  0  0  0  0
    1.3356   -0.6123   -0.0602 C   0  0  0  0  0  0  0  0  0  0  0  0
    1.2148   -1.1227   -1.0187 H   0  0  0  0  0  0  0  0  0  0  0  0
    2.2030    0.0491   -0.1375 H   0  0  0  0  0  0  0  0  0  0  0  0
    1.6532   -1.6515    1.0115 C   0  0  0  0  0  0  0  0  0  0  0  0
    1.5528   -1.3933    2.1975 O   0  0  0  0  0  0  0  0  0  0  0  0
    2.1022   -2.9035    0.7049 N   0  0  0  0  0  0  0  0  0  0  0  0
    2.0686   -3.5435    1.4925 H   0  0  0  0  0  0  0  0  0  0  0  0
    1.8247   -3.2575   -0.2045 H   0  0  0  0  0  0  0  0  0  0  0  0
    0.0405    1.5276   -0.5971 C   0  0  0  0  0  0  0  0  0  0  0  0
   -0.4411    2.5385   -0.1058 O   0  0  0  0  0  0  0  0  0  0  0  0
    0.3902    1.5268   -1.9354 N   0  0  0  0  0  0  0  0  0  0  0  0
    0.6498    0.6357   -2.3480 H   0  0  0  0  0  0  0  0  0  0  0  0
    0.2392    2.6890   -2.8028 C   0  0  0  0  0  0  0  0  0  0  0  0
    0.8013    3.5404   -2.4041 H   0  0  0  0  0  0  0  0  0  0  0  0
    0.6183    2.4656   -3.8048 H   0  0  0  0  0  0  0  0  0  0  0  0
   -0.8158    2.9707   -2.8851 H   0  0  0  0  0  0  0  0  0  0  0  0
  1  2  1  0  0  0  0
  2  3  1  0  0  0  0
  2  4  1  0  0  0  0
  2  5  1  0  0  0  0
  5  6  2  0  0  0  0
  5  7  1  0  0  0  0
  7  8  1  0  0  0  0
  7  9  1  0  0  0  0
  9 10  1  0  0  0  0
  9 11  1  0  0  0  0
  9 19  1  0  0  0  0
 11 12  1  0  0  0  0
 11 13  1  0  0  0  0
 11 14  1  0  0  0  0
 14 15  2  0  0  0  0
 14 16  1  0  0  0  0
 16 17  1  0  0  0  0
 16 18  1  0  0  0  0
 19 20  2  0  0  0  0
 19 21  1  0  0  0  0
 21 22  1  0  0  0  0
 21 23  1  0  0  0  0
 23 24  1  0  0  0  0
 23 25  1  0  0  0  0
 23 26  1  0  0  0  0
M  END
$$$$

  -OEChem-01062216063D

 26 25  0     1  0  0  0  0  0999 V2000
   -3.1629   -3.0777    1.1615 H   0  0  0  0  0  0  0  0  0  0  0  0
   -3.0517   -2.0172    0.9179 C   0  0  0  0  0  0  0  0  0  0  0  0
   -3.2812   -1.4284    1.8095 H   0  0  0  0  0  0  0  0  0  0  0  0
   -3.7604   -1.7604    0.1269 H   0  0  0  0  0  0  0  0  0  0  0  0
   -1.6336   -1.7302    0.4604 C   0  0  0  0  0  0  0  0  0  0  0  0
   -0.8889   -2.6652    0.2209 O   0  0  0  0  0  0  0  0  0  0  0  0
   -1.2903   -0.4343    0.1233 N   0  0  0  0  0  0  0  0  0  0  0  0
   -2.0710    0.2100    0.2325 H   0  0  0  0  0  0  0  0  0  0  0  0
    0.0293    0.2340    0.2233 C   0  0  1  0  0  0  0  0  0  0  0  0
    0.1249    0.5714    1.2629 H   0  0  0  0  0  0  0  0  0  0  0  0
    1.3091   -0.5878   -0.0660 C   0  0  0  0  0  0  0  0  0  0  0  0
    1.1999   -1.0913   -1.0293 H   0  0  0  0  0  0  0  0  0  0  0  0
    2.1674    0.0863   -0.1352 H   0  0  0  0  0  0  0  0  0  0  0  0
    1.6367   -1.6296    0.9997 C   0  0  0  0  0  0  0  0  0  0  0  0
    1.5292   -1.3823    2.1875 O   0  0  0  0  0  0  0  0  0  0  0  0
    2.1026   -2.8732    0.6842 N   0  0  0  0  0  0  0  0  0  0  0  0
    2.0762   -3.5209    1.4656 H   0  0  0  0  0  0  0  0  0  0  0  0
    1.8371   -3.2220   -0.2308 H   0  0  0  0  0  0  0  0  0  0  0  0
    0.0057    1.5254   -0.6126 C   0  0  0  0  0  0  0  0  0  0  0  0
   -0.1860    2.6023   -0.0676 O   0  0  0  0  0  0  0  0  0  0  0  0
    0.0706    1.4623   -1.9923 N   0  0  0  0  0  0  0  0  0  0  0  0
    0.1143    0.5384   -2.4129 H   0  0  0  0  0  0  0  0  0  0  0  0
   -0.0505    2.6301   -2.8568 C   0  0  0  0  0  0  0  0  0  0  0  0
    0.7111    3.3751   -2.6034 H   0  0  0  0  0  0  0  0  0  0  0  0
    0.0860    2.3412   -3.9033 H   0  0  0  0  0  0  0  0  0  0  0  0
   -1.0397    3.0869   -2.7484 H   0  0  0  0  0  0  0  0  0  0  0  0
  1  2  1  0  0  0  0
  2  3  1  0  0  0  0
  2  4  1  0  0  0  0
  2  5  1  0  0  0  0
  5  6  2  0  0  0  0
  5  7  1  0  0  0  0
  7  8  1  0  0  0  0
  7  9  1  0  0  0  0
  9 10  1  0  0  0  0
  9 11  1  0  0  0  0
  9 19  1  0  0  0  0
 11 12  1  0  0  0  0
 11 13  1  0  0  0  0
 11 14  1  0  0  0  0
 14 15  2  0  0  0  0
 14 16  1  0  0  0  0
 16 17  1  0  0  0  0
 16 18  1  0  0  0  0
 19 20  2  0  0  0  0
 19 21  1  0  0  0  0
 21 22  1  0  0  0  0
 21 23  1  0  0  0  0
 23 24  1  0  0  0  0
 23 25  1  0  0  0  0
 23 26  1  0  0  0  0
M  END
$$$$

  -OEChem-01062216063D

 26 25  0     1  0  0  0  0  0999 V2000
   -3.1284   -3.1065    1.2320 H   0  0  0  0  0  0  0  0  0  0  0  0
   -3.0480   -2.0530    0.9489 C   0  0  0  0  0  0  0  0  0  0  0  0
   -3.2913   -1.4387    1.8194 H   0  0  0  0  0  0  0  0  0  0  0  0
   -3.7659   -1.8456    0.1517 H   0  0  0  0  0  0  0  0  0  0  0  0
   -1.6398   -1.7458    0.4743 C   0  0  0  0  0  0  0  0  0  0  0  0
   -0.8893   -2.6712    0.2180 O   0  0  0  0  0  0  0  0  0  0  0  0
   -1.3173   -0.4459    0.1312 N   0  0  0  0  0  0  0  0  0  0  0  0
   -2.1066    0.1857    0.2494 H   0  0  0  0  0  0  0  0  0  0  0  0
   -0.0043    0.2390    0.2290 C   0  0  1  0  0  0  0  0  0  0  0  0
    0.0919    0.5749    1.2689 H   0  0  0  0  0  0  0  0  0  0  0  0
    1.2837   -0.5635   -0.0738 C   0  0  0  0  0  0  0  0  0  0  0  0
    1.1763   -1.0589   -1.0419 H   0  0  0  0  0  0  0  0  0  0  0  0
    2.1329    0.1224   -0.1422 H   0  0  0  0  0  0  0  0  0  0  0  0
    1.6301   -1.6092    0.9818 C   0  0  0  0  0  0  0  0  0  0  0  0
    1.5256   -1.3725    2.1721 O   0  0  0  0  0  0  0  0  0  0  0  0
    2.1052   -2.8463    0.6541 N   0  0  0  0  0  0  0  0  0  0  0  0
    2.0883   -3.5011    1.4298 H   0  0  0  0  0  0  0  0  0  0  0  0
    1.8418   -3.1892   -0.2637 H   0  0  0  0  0  0  0  0  0  0  0  0
   -0.0356    1.5284   -0.6091 C   0  0  0  0  0  0  0  0  0  0  0  0
    0.1027    2.6179   -0.0738 O   0  0  0  0  0  0  0  0  0  0  0  0
   -0.2788    1.4596   -1.9681 N   0  0  0  0  0  0  0  0  0  0  0  0
   -0.4294    0.5368   -2.3665 H   0  0  0  0  0  0  0  0  0  0  0  0
   -0.3491    2.6302   -2.8339 C   0  0  0  0  0  0  0  0  0  0  0  0
    0.5894    3.1933   -2.7935 H   0  0  0  0  0  0  0  0  0  0  0  0
   -0.5232    2.3242   -3.8700 H   0  0  0  0  0  0  0  0  0  0  0  0
   -1.1682    3.2876   -2.5241 H   0  0  0  0  0  0  0  0  0  0  0  0
  1  2  1  0  0  0  0
  2  3  1  0  0  0  0
  2  4  1  0  0  0  0
  2  5  1  0  0  0  0
  5  6  2  0  0  0  0
  5  7  1  0  0  0  0
  7  8  1  0  0  0  0
  7  9  1  0  0  0  0
  9 10  1  0  0  0  0
  9 11  1  0  0  0  0
  9 19  1  0  0  0  0
 11 12  1  0  0  0  0
 11 13  1  0  0  0  0
 11 14  1  0  0  0  0
 14 15  2  0  0  0  0
 14 16  1  0  0  0  0
 16 17  1  0  0  0  0
 16 18  1  0  0  0  0
 19 20  2  0  0  0  0
 19 21  1  0  0  0  0
 21 22  1  0  0  0  0
 21 23  1  0  0  0  0
 23 24  1  0  0  0  0
 23 25  1  0  0  0  0
 23 26  1  0  0  0  0
M  END
$$$$

  -OEChem-01062216063D

 26 25  0     1  0  0  0  0  0999 V2000
   -3.1139   -3.1519    1.2229 H   0  0  0  0  0  0  0  0  0  0  0  0
   -3.0400   -2.0880    0.9796 C   0  0  0  0  0  0  0  0  0  0  0  0
   -3.2577   -1.5088    1.8804 H   0  0  0  0  0  0  0  0  0  0  0  0
   -3.7798   -1.8491    0.2119 H   0  0  0  0  0  0  0  0  0  0  0  0
   -1.6452   -1.7623    0.4783 C   0  0  0  0  0  0  0  0  0  0  0  0
   -0.8915   -2.6775    0.1967 O   0  0  0  0  0  0  0  0  0  0  0  0
   -1.3437   -0.4567    0.1368 N   0  0  0  0  0  0  0  0  0  0  0  0
   -2.1389    0.1628    0.2754 H   0  0  0  0  0  0  0  0  0  0  0  0
   -0.0369    0.2430    0.2338 C   0  0  1  0  0  0  0  0  0  0  0  0
    0.0585    0.5759    1.2747 H   0  0  0  0  0  0  0  0  0  0  0  0
    1.2574   -0.5450   -0.0772 C   0  0  0  0  0  0  0  0  0  0  0  0
    1.1517   -1.0349   -1.0483 H   0  0  0  0  0  0  0  0  0  0  0  0
    2.1002    0.1493   -0.1438 H   0  0  0  0  0  0  0  0  0  0  0  0
    1.6161   -1.5919    0.9727 C   0  0  0  0  0  0  0  0  0  0  0  0
    1.5128   -1.3631    2.1649 O   0  0  0  0  0  0  0  0  0  0  0  0
    2.1072   -2.8205    0.6370 N   0  0  0  0  0  0  0  0  0  0  0  0
    2.1011   -3.4814    1.4076 H   0  0  0  0  0  0  0  0  0  0  0  0
    1.8523   -3.1595   -0.2847 H   0  0  0  0  0  0  0  0  0  0  0  0
   -0.0734    1.5374   -0.5975 C   0  0  0  0  0  0  0  0  0  0  0  0
    0.3721    2.5794   -0.1413 O   0  0  0  0  0  0  0  0  0  0  0  0
   -0.6113    1.5229   -1.8709 N   0  0  0  0  0  0  0  0  0  0  0  0
   -0.9305    0.6256   -2.2264 H   0  0  0  0  0  0  0  0  0  0  0  0
   -0.6340    2.6868   -2.7484 C   0  0  0  0  0  0  0  0  0  0  0  0
    0.3851    3.0300   -2.9557 H   0  0  0  0  0  0  0  0  0  0  0  0
   -1.1147    2.4350   -3.6986 H   0  0  0  0  0  0  0  0  0  0  0  0
   -1.1938    3.5061   -2.2849 H   0  0  0  0  0  0  0  0  0  0  0  0
  1  2  1  0  0  0  0
  2  3  1  0  0  0  0
  2  4  1  0  0  0  0
  2  5  1  0  0  0  0
  5  6  2  0  0  0  0
  5  7  1  0  0  0  0
  7  8  1  0  0  0  0
  7  9  1  0  0  0  0
  9 10  1  0  0  0  0
  9 11  1  0  0  0  0
  9 19  1  0  0  0  0
 11 12  1  0  0  0  0
 11 13  1  0  0  0  0
 11 14  1  0  0  0  0
 14 15  2  0  0  0  0
 14 16  1  0  0  0  0
 16 17  1  0  0  0  0
 16 18  1  0  0  0  0
 19 20  2  0  0  0  0
 19 21  1  0  0  0  0
 21 22  1  0  0  0  0
 21 23  1  0  0  0  0
 23 24  1  0  0  0  0
 23 25  1  0  0  0  0
 23 26  1  0  0  0  0
M  END
$$$$

  -OEChem-01062216063D

 26 25  0     1  0  0  0  0  0999 V2000
   -3.0854   -3.1807    1.2422 H   0  0  0  0  0  0  0  0  0  0  0  0
   -3.0265   -2.1159    0.9989 C   0  0  0  0  0  0  0  0  0  0  0  0
   -3.2338   -1.5399    1.9042 H   0  0  0  0  0  0  0  0  0  0  0  0
   -3.7828   -1.8840    0.2450 H   0  0  0  0  0  0  0  0  0  0  0  0
   -1.6441   -1.7759    0.4732 C   0  0  0  0  0  0  0  0  0  0  0  0
   -0.8914   -2.6832    0.1650 O   0  0  0  0  0  0  0  0  0  0  0  0
   -1.3580   -0.4647    0.1388 N   0  0  0  0  0  0  0  0  0  0  0  0
   -2.1547    0.1455    0.3064 H   0  0  0  0  0  0  0  0  0  0  0  0
   -0.0551    0.2456    0.2351 C   0  0  1  0  0  0  0  0  0  0  0  0
    0.0405    0.5742    1.2769 H   0  0  0  0  0  0  0  0  0  0  0  0
    1.2415   -0.5379   -0.0808 C   0  0  0  0  0  0  0  0  0  0  0  0
    1.1354   -1.0254   -1.0530 H   0  0  0  0  0  0  0  0  0  0  0  0
    2.0830    0.1580   -0.1475 H   0  0  0  0  0  0  0  0  0  0  0  0
    1.6054   -1.5850    0.9673 C   0  0  0  0  0  0  0  0  0  0  0  0
    1.5036   -1.3575    2.1601 O   0  0  0  0  0  0  0  0  0  0  0  0
    2.0987   -2.8123    0.6301 N   0  0  0  0  0  0  0  0  0  0  0  0
    2.0992   -3.4735    1.4004 H   0  0  0  0  0  0  0  0  0  0  0  0
    1.8422   -3.1519   -0.2910 H   0  0  0  0  0  0  0  0  0  0  0  0
   -0.0928    1.5500   -0.5841 C   0  0  0  0  0  0  0  0  0  0  0  0
    0.5846    2.5095   -0.2473 O   0  0  0  0  0  0  0  0  0  0  0  0
   -0.8893    1.6413   -1.7109 N   0  0  0  0  0  0  0  0  0  0  0  0
   -1.3411    0.7846   -2.0195 H   0  0  0  0  0  0  0  0  0  0  0  0
   -0.9009    2.8052   -2.5888 C   0  0  0  0  0  0  0  0  0  0  0  0
    0.0890    2.9612   -3.0306 H   0  0  0  0  0  0  0  0  0  0  0  0
   -1.6238    2.6623   -3.3978 H   0  0  0  0  0  0  0  0  0  0  0  0
   -1.1823    3.7042   -2.0301 H   0  0  0  0  0  0  0  0  0  0  0  0
  1  2  1  0  0  0  0
  2  3  1  0  0  0  0
  2  4  1  0  0  0  0
  2  5  1  0  0  0  0
  5  6  2  0  0  0  0
  5  7  1  0  0  0  0
  7  8  1  0  0  0  0
  7  9  1  0  0  0  0
  9 10  1  0  0  0  0
  9 11  1  0  0  0  0
  9 19  1  0  0  0  0
 11 12  1  0  0  0  0
 11 13  1  0  0  0  0
 11 14  1  0  0  0  0
 14 15  2  0  0  0  0
 14 16  1  0  0  0  0
 16 17  1  0  0  0  0
 16 18  1  0  0  0  0
 19 20  2  0  0  0  0
 19 21  1  0  0  0  0
 21 22  1  0  0  0  0
 21 23  1  0  0  0  0
 23 24  1  0  0  0  0
 23 25  1  0  0  0  0
 23 26  1  0  0  0  0
M  END
$$$$

  -OEChem-01062216063D

 26 25  0     1  0  0  0  0  0999 V2000
   -3.0602   -3.1979    1.2413 H   0  0  0  0  0  0  0  0  0  0  0  0
   -3.0063   -2.1297    1.0120 C   0  0  0  0  0  0  0  0  0  0  0  0
   -3.1894   -1.5667    1.9305 H   0  0  0  0  0  0  0  0  0  0  0  0
   -3.7814   -1.8863    0.2813 H   0  0  0  0  0  0  0  0  0  0  0  0
   -1.6376   -1.7831    0.4561 C   0  0  0  0  0  0  0  0  0  0  0  0
   -0.8910   -2.6860    0.1211 O   0  0  0  0  0  0  0  0  0  0  0  0
   -1.3617   -0.4680    0.1281 N   0  0  0  0  0  0  0  0  0  0  0  0
   -2.1572    0.1349    0.3238 H   0  0  0  0  0  0  0  0  0  0  0  0
   -0.0610    0.2475    0.2306 C   0  0  1  0  0  0  0  0  0  0  0  0
    0.0300    0.5724    1.2740 H   0  0  0  0  0  0  0  0  0  0  0  0
    1.2359   -0.5404   -0.0803 C   0  0  0  0  0  0  0  0  0  0  0  0
    1.1309   -1.0280   -1.0526 H   0  0  0  0  0  0  0  0  0  0  0  0
    2.0822    0.1495   -0.1453 H   0  0  0  0  0  0  0  0  0  0  0  0
    1.5924   -1.5872    0.9705 C   0  0  0  0  0  0  0  0  0  0  0  0
    1.4865   -1.3586    2.1629 O   0  0  0  0  0  0  0  0  0  0  0  0
    2.0884   -2.8143    0.6363 N   0  0  0  0  0  0  0  0  0  0  0  0
    2.0862   -3.4760    1.4060 H   0  0  0  0  0  0  0  0  0  0  0  0
    1.8382   -3.1533   -0.2870 H   0  0  0  0  0  0  0  0  0  0  0  0
   -0.0944    1.5605   -0.5804 C   0  0  0  0  0  0  0  0  0  0  0  0
    0.7410    2.4299   -0.3806 O   0  0  0  0  0  0  0  0  0  0  0  0
   -1.0916    1.7849   -1.5134 N   0  0  0  0  0  0  0  0  0  0  0  0
   -1.6566    0.9800   -1.7690 H   0  0  0  0  0  0  0  0  0  0  0  0
   -1.1309    2.9680   -2.3652 C   0  0  0  0  0  0  0  0  0  0  0  0
   -0.2451    3.0070   -3.0080 H   0  0  0  0  0  0  0  0  0  0  0  0
   -2.0211    2.9473   -3.0012 H   0  0  0  0  0  0  0  0  0  0  0  0
   -1.1645    3.8780   -1.7566 H   0  0  0  0  0  0  0  0  0  0  0  0
  1  2  1  0  0  0  0
  2  3  1  0  0  0  0
  2  4  1  0  0  0  0
  2  5  1  0  0  0  0
  5  6  2  0  0  0  0
  5  7  1  0  0  0  0
  7  8  1  0  0  0  0
  7  9  1  0  0  0  0
  9 10  1  0  0  0  0
  9 11  1  0  0  0  0
  9 19  1  0  0  0  0
 11 12  1  0  0  0  0
 11 13  1  0  0  0  0
 11 14  1  0  0  0  0
 14 15  2  0  0  0  0
 14 16  1  0  0  0  0
 16 17  1  0  0  0  0
 16 18  1  0  0  0  0
 19 20  2  0  0  0  0
 19 21  1  0  0  0  0
 21 22  1  0  0  0  0
 21 23  1  0  0  0  0
 23 24  1  0  0  0  0
 23 25  1  0  0  0  0
 23 26  1  0  0  0  0
M  END
$$$$

  -OEChem-01062216063D

 26 25  0     1  0  0  0  0  0999 V2000
   -3.0411   -3.2067    1.2314 H   0  0  0  0  0  0  0  0  0  0  0  0
   -2.9891   -2.1360    1.0139 C   0  0  0  0  0  0  0  0  0  0  0  0
   -3.1536   -1.5839    1.9424 H   0  0  0  0  0  0  0  0  0  0  0  0
   -3.7770   -1.8826    0.3006 H   0  0  0  0  0  0  0  0  0  0  0  0
   -1.6303   -1.7860    0.4365 C   0  0  0  0  0  0  0  0  0  0  0  0
   -0.8897   -2.6876    0.0850 O   0  0  0  0  0  0  0  0  0  0  0  0
   -1.3591   -0.4681    0.1148 N   0  0  0  0  0  0  0  0  0  0  0  0
   -2.1508    0.1283    0.3409 H   0  0  0  0  0  0  0  0  0  0  0  0
   -0.0580    0.2485    0.2183 C   0  0  1  0  0  0  0  0  0  0  0  0
    0.0319    0.5721    1.2618 H   0  0  0  0  0  0  0  0  0  0  0  0
    1.2367   -0.5502   -0.0857 C   0  0  0  0  0  0  0  0  0  0  0  0
    1.1305   -1.0427   -1.0554 H   0  0  0  0  0  0  0  0  0  0  0  0
    2.0917    0.1284   -0.1525 H   0  0  0  0  0  0  0  0  0  0  0  0
    1.5819   -1.5922    0.9731 C   0  0  0  0  0  0  0  0  0  0  0  0
    1.4729   -1.3543    2.1637 O   0  0  0  0  0  0  0  0  0  0  0  0
    2.0774   -2.8220    0.6487 N   0  0  0  0  0  0  0  0  0  0  0  0
    2.0693   -3.4808    1.4206 H   0  0  0  0  0  0  0  0  0  0  0  0
    1.8364   -3.1637   -0.2759 H   0  0  0  0  0  0  0  0  0  0  0  0
   -0.0893    1.5700   -0.5853 C   0  0  0  0  0  0  0  0  0  0  0  0
    0.8600    2.3396   -0.5498 O   0  0  0  0  0  0  0  0  0  0  0  0
   -1.2254    1.9490   -1.2803 N   0  0  0  0  0  0  0  0  0  0  0  0
   -1.9072    1.2172   -1.4540 H   0  0  0  0  0  0  0  0  0  0  0  0
   -1.2901    3.1622   -2.0878 C   0  0  0  0  0  0  0  0  0  0  0  0
   -0.5526    3.1243   -2.8965 H   0  0  0  0  0  0  0  0  0  0  0  0
   -2.2854    3.2701   -2.5294 H   0  0  0  0  0  0  0  0  0  0  0  0
   -1.0907    4.0452   -1.4713 H   0  0  0  0  0  0  0  0  0  0  0  0
  1  2  1  0  0  0  0
  2  3  1  0  0  0  0
  2  4  1  0  0  0  0
  2  5  1  0  0  0  0
  5  6  2  0  0  0  0
  5  7  1  0  0  0  0
  7  8  1  0  0  0  0
  7  9  1  0  0  0  0
  9 10  1  0  0  0  0
  9 11  1  0  0  0  0
  9 19  1  0  0  0  0
 11 12  1  0  0  0  0
 11 13  1  0  0  0  0
 11 14  1  0  0  0  0
 14 15  2  0  0  0  0
 14 16  1  0  0  0  0
 16 17  1  0  0  0  0
 16 18  1  0  0  0  0
 19 20  2  0  0  0  0
 19 21  1  0  0  0  0
 21 22  1  0  0  0  0
 21 23  1  0  0  0  0
 23 24  1  0  0  0  0
 23 25  1  0  0  0  0
 23 26  1  0  0  0  0
M  END
$$$$

  -OEChem-01062216063D

 26 25  0     1  0  0  0  0  0999 V2000
   -3.0123   -3.2138    1.2241 H   0  0  0  0  0  0  0  0  0  0  0  0
   -2.9663   -2.1423    1.0082 C   0  0  0  0  0  0  0  0  0  0  0  0
   -3.1171   -1.5929    1.9407 H   0  0  0  0  0  0  0  0  0  0  0  0
   -3.7665   -1.8893    0.3088 H   0  0  0  0  0  0  0  0  0  0  0  0
   -1.6181   -1.7874    0.4089 C   0  0  0  0  0  0  0  0  0  0  0  0
   -0.8836   -2.6870    0.0398 O   0  0  0  0  0  0  0  0  0  0  0  0
   -1.3523   -0.4661    0.0950 N   0  0  0  0  0  0  0  0  0  0  0  0
   -2.1423    0.1218    0.3430 H   0  0  0  0  0  0  0  0  0  0  0  0
   -0.0512    0.2514    0.2017 C   0  0  1  0  0  0  0  0  0  0  0  0
    0.0354    0.5729    1.2458 H   0  0  0  0  0  0  0  0  0  0  0  0
    1.2418   -0.5578   -0.0916 C   0  0  0  0  0  0  0  0  0  0  0  0
    1.1393   -1.0533   -1.0603 H   0  0  0  0  0  0  0  0  0  0  0  0
    2.1039    0.1115   -0.1541 H   0  0  0  0  0  0  0  0  0  0  0  0
    1.5749   -1.5947    0.9762 C   0  0  0  0  0  0  0  0  0  0  0  0
    1.4612   -1.3482    2.1647 O   0  0  0  0  0  0  0  0  0  0  0  0
    2.0550   -2.8334    0.6626 N   0  0  0  0  0  0  0  0  0  0  0  0
    2.0365   -3.4865    1.4391 H   0  0  0  0  0  0  0  0  0  0  0  0
    1.8073   -3.1784   -0.2595 H   0  0  0  0  0  0  0  0  0  0  0  0
   -0.0830    1.5818   -0.5940 C   0  0  0  0  0  0  0  0  0  0  0  0
    0.9363    2.2368   -0.7608 O   0  0  0  0  0  0  0  0  0  0  0  0
   -1.2830    2.1238   -1.0259 N   0  0  0  0  0  0  0  0  0  0  0  0
   -2.0758    1.4931   -1.0639 H   0  0  0  0  0  0  0  0  0  0  0  0
   -1.3599    3.3707   -1.7803 C   0  0  0  0  0  0  0  0  0  0  0  0
   -0.8123    3.2831   -2.7247 H   0  0  0  0  0  0  0  0  0  0  0  0
   -2.4029    3.6139   -2.0046 H   0  0  0  0  0  0  0  0  0  0  0  0
   -0.9324    4.1962   -1.2012 H   0  0  0  0  0  0  0  0  0  0  0  0
  1  2  1  0  0  0  0
  2  3  1  0  0  0  0
  2  4  1  0  0  0  0
  2  5  1  0  0  0  0
  5  6  2  0  0  0  0
  5  7  1  0  0  0  0
  7  8  1  0  0  0  0
  7  9  1  0  0  0  0
  9 10  1  0  0  0  0
  9 11  1  0  0  0  0
  9 19  1  0  0  0  0
 11 12  1  0  0  0  0
 11 13  1  0  0  0  0
 11 14  1  0  0  0  0
 14 15  2  0  0  0  0
 14 16  1  0  0  0  0
 16 17  1  0  0  0  0
 16 18  1  0  0  0  0
 19 20  2  0  0  0  0
 19 21  1  0  0  0  0
 21 22  1  0  0  0  0
 21 23  1  0  0  0  0
 23 24  1  0  0  0  0
 23 25  1  0  0  0  0
 23 26  1  0  0  0  0
M  END
$$$$

  -OEChem-01062216063D

 26 25  0     1  0  0  0  0  0999 V2000
   -3.2841   -3.0748    1.0812 H   0  0  0  0  0  0  0  0  0  0  0  0
   -3.1384   -2.0433    0.7471 C   0  0  0  0  0  0  0  0  0  0  0  0
   -3.6192   -1.3735    1.4640 H   0  0  0  0  0  0  0  0  0  0  0  0
   -3.6096   -1.9209   -0.2311 H   0  0  0  0  0  0  0  0  0  0  0  0
   -1.6568   -1.7271    0.6534 C   0  0  0  0  0  0  0  0  0  0  0  0
   -0.8664   -2.6379    0.8029 O   0  0  0  0  0  0  0  0  0  0  0  0
   -1.2897   -0.4437    0.2845 N   0  0  0  0  0  0  0  0  0  0  0  0
   -2.0833    0.1336    0.0269 H   0  0  0  0  0  0  0  0  0  0  0  0
    0.0330    0.2402    0.2358 C   0  0  1  0  0  0  0  0  0  0  0  0
    0.2201    0.5992    1.2539 H   0  0  0  0  0  0  0  0  0  0  0  0
    1.2890   -0.5995   -0.1293 C   0  0  0  0  0  0  0  0  0  0  0  0
    1.0931   -1.1366   -1.0603 H   0  0  0  0  0  0  0  0  0  0  0  0
    2.1444    0.0591   -0.3019 H   0  0  0  0  0  0  0  0  0  0  0  0
    1.7269   -1.5920    0.9408 C   0  0  0  0  0  0  0  0  0  0  0  0
    1.7327   -1.2890    2.1220 O   0  0  0  0  0  0  0  0  0  0  0  0
    2.1874   -2.8402    0.6338 N   0  0  0  0  0  0  0  0  0  0  0  0
    2.2180   -3.4648    1.4334 H   0  0  0  0  0  0  0  0  0  0  0  0
    1.8879   -3.2176   -0.2582 H   0  0  0  0  0  0  0  0  0  0  0  0
   -0.0745    1.5403   -0.6037 C   0  0  0  0  0  0  0  0  0  0  0  0
    0.8435    1.9267   -1.3139 O   0  0  0  0  0  0  0  0  0  0  0  0
   -1.2708    2.2410   -0.6498 N   0  0  0  0  0  0  0  0  0  0  0  0
   -1.9388    2.0522    0.0897 H   0  0  0  0  0  0  0  0  0  0  0  0
   -1.4311    3.4732   -1.4158 C   0  0  0  0  0  0  0  0  0  0  0  0
   -1.2154    3.2974   -2.4752 H   0  0  0  0  0  0  0  0  0  0  0  0
   -2.4584    3.8406   -1.3315 H   0  0  0  0  0  0  0  0  0  0  0  0
   -0.7532    4.2482   -1.0426 H   0  0  0  0  0  0  0  0  0  0  0  0
  1  2  1  0  0  0  0
  2  3  1  0  0  0  0
  2  4  1  0  0  0  0
  2  5  1  0  0  0  0
  5  6  2  0  0  0  0
  5  7  1  0  0  0  0
  7  8  1  0  0  0  0
  7  9  1  0  0  0  0
  9 10  1  0  0  0  0
  9 11  1  0  0  0  0
  9 19  1  0  0  0  0
 11 12  1  0  0  0  0
 11 13  1  0  0  0  0
 11 14  1  0  0  0  0
 14 15  2  0  0  0  0
 14 16  1  0  0  0  0
 16 17  1  0  0  0  0
 16 18  1  0  0  0  0
 19 20  2  0  0  0  0
 19 21  1  0  0  0  0
 21 22  1  0  0  0  0
 21 23  1  0  0  0  0
 23 24  1  0  0  0  0
 23 25  1  0  0  0  0
 23 26  1  0  0  0  0
M  END
$$$$

  -OEChem-01062216063D

 26 25  0     1  0  0  0  0  0999 V2000
   -3.3070   -3.0283    1.0993 H   0  0  0  0  0  0  0  0  0  0  0  0
   -3.1488   -2.0122    0.7266 C   0  0  0  0  0  0  0  0  0  0  0  0
   -3.6554   -1.3127    1.3958 H   0  0  0  0  0  0  0  0  0  0  0  0
   -3.5840   -1.9324   -0.2726 H   0  0  0  0  0  0  0  0  0  0  0  0
   -1.6644   -1.6993    0.6726 C   0  0  0  0  0  0  0  0  0  0  0  0
   -0.8799   -2.6062    0.8686 O   0  0  0  0  0  0  0  0  0  0  0  0
   -1.2835   -0.4213    0.3006 N   0  0  0  0  0  0  0  0  0  0  0  0
   -2.0680    0.1625    0.0243 H   0  0  0  0  0  0  0  0  0  0  0  0
    0.0438    0.2503    0.2570 C   0  0  1  0  0  0  0  0  0  0  0  0
    0.2368    0.6071    1.2748 H   0  0  0  0  0  0  0  0  0  0  0  0
    1.2956   -0.5881   -0.1201 C   0  0  0  0  0  0  0  0  0  0  0  0
    1.0959   -1.1134   -1.0574 H   0  0  0  0  0  0  0  0  0  0  0  0
    2.1483    0.0755   -0.2887 H   0  0  0  0  0  0  0  0  0  0  0  0
    1.7343   -1.5960    0.9341 C   0  0  0  0  0  0  0  0  0  0  0  0
    1.7437   -1.3072    2.1189 O   0  0  0  0  0  0  0  0  0  0  0  0
    2.1896   -2.8413    0.6078 N   0  0  0  0  0  0  0  0  0  0  0  0
    2.2163   -3.4798    1.3967 H   0  0  0  0  0  0  0  0  0  0  0  0
    1.8948   -3.2020   -0.2926 H   0  0  0  0  0  0  0  0  0  0  0  0
   -0.0721    1.5398   -0.5907 C   0  0  0  0  0  0  0  0  0  0  0  0
    0.7046    1.7890   -1.5026 O   0  0  0  0  0  0  0  0  0  0  0  0
   -1.1511    2.3866   -0.3930 N   0  0  0  0  0  0  0  0  0  0  0  0
   -1.6835    2.2607    0.4625 H   0  0  0  0  0  0  0  0  0  0  0  0
   -1.3276    3.6270   -1.1411 C   0  0  0  0  0  0  0  0  0  0  0  0
   -1.3980    3.4206   -2.2145 H   0  0  0  0  0  0  0  0  0  0  0  0
   -2.2466    4.1313   -0.8275 H   0  0  0  0  0  0  0  0  0  0  0  0
   -0.4838    4.3033   -0.9674 H   0  0  0  0  0  0  0  0  0  0  0  0
  1  2  1  0  0  0  0
  2  3  1  0  0  0  0
  2  4  1  0  0  0  0
  2  5  1  0  0  0  0
  5  6  2  0  0  0  0
  5  7  1  0  0  0  0
  7  8  1  0  0  0  0
  7  9  1  0  0  0  0
  9 10  1  0  0  0  0
  9 11  1  0  0  0  0
  9 19  1  0  0  0  0
 11 12  1  0  0  0  0
 11 13  1  0  0  0  0
 11 14  1  0  0  0  0
 14 15  2  0  0  0  0
 14 16  1  0  0  0  0
 16 17  1  0  0  0  0
 16 18  1  0  0  0  0
 19 20  2  0  0  0  0
 19 21  1  0  0  0  0
 21 22  1  0  0  0  0
 21 23  1  0  0  0  0
 23 24  1  0  0  0  0
 23 25  1  0  0  0  0
 23 26  1  0  0  0  0
M  END
$$$$

  -OEChem-01062216063D

 26 25  0     1  0  0  0  0  0999 V2000
   -3.3085   -3.0227    1.1020 H   0  0  0  0  0  0  0  0  0  0  0  0
   -3.1507   -2.0042    0.7358 C   0  0  0  0  0  0  0  0  0  0  0  0
   -3.6520   -1.3086    1.4130 H   0  0  0  0  0  0  0  0  0  0  0  0
   -3.5919   -1.9166   -0.2601 H   0  0  0  0  0  0  0  0  0  0  0  0
   -1.6663   -1.6929    0.6747 C   0  0  0  0  0  0  0  0  0  0  0  0
   -0.8814   -2.6014    0.8627 O   0  0  0  0  0  0  0  0  0  0  0  0
   -1.2848   -0.4147    0.3044 N   0  0  0  0  0  0  0  0  0  0  0  0
   -2.0707    0.1797    0.0542 H   0  0  0  0  0  0  0  0  0  0  0  0
    0.0416    0.2560    0.2696 C   0  0  1  0  0  0  0  0  0  0  0  0
    0.2345    0.6065    1.2892 H   0  0  0  0  0  0  0  0  0  0  0  0
    1.2946   -0.5742   -0.1146 C   0  0  0  0  0  0  0  0  0  0  0  0
    1.0957   -1.0907   -1.0570 H   0  0  0  0  0  0  0  0  0  0  0  0
    2.1424    0.0968   -0.2796 H   0  0  0  0  0  0  0  0  0  0  0  0
    1.7352   -1.5929    0.9281 C   0  0  0  0  0  0  0  0  0  0  0  0
    1.7422   -1.3158    2.1157 O   0  0  0  0  0  0  0  0  0  0  0  0
    2.1884   -2.8357    0.5900 N   0  0  0  0  0  0  0  0  0  0  0  0
    2.2132   -3.4812    1.3733 H   0  0  0  0  0  0  0  0  0  0  0  0
    1.8897   -3.1879   -0.3127 H   0  0  0  0  0  0  0  0  0  0  0  0
   -0.0732    1.5417   -0.5787 C   0  0  0  0  0  0  0  0  0  0  0  0
    0.5297    1.6743   -1.6351 O   0  0  0  0  0  0  0  0  0  0  0  0
   -0.9598    2.5307   -0.1884 N   0  0  0  0  0  0  0  0  0  0  0  0
   -1.3589    2.4559    0.7429 H   0  0  0  0  0  0  0  0  0  0  0  0
   -1.1238    3.7827   -0.9193 C   0  0  0  0  0  0  0  0  0  0  0  0
   -1.4417    3.5873   -1.9489 H   0  0  0  0  0  0  0  0  0  0  0  0
   -1.8834    4.4058   -0.4377 H   0  0  0  0  0  0  0  0  0  0  0  0
   -0.1812    4.3397   -0.9420 H   0  0  0  0  0  0  0  0  0  0  0  0
  1  2  1  0  0  0  0
  2  3  1  0  0  0  0
  2  4  1  0  0  0  0
  2  5  1  0  0  0  0
  5  6  2  0  0  0  0
  5  7  1  0  0  0  0
  7  8  1  0  0  0  0
  7  9  1  0  0  0  0
  9 10  1  0  0  0  0
  9 11  1  0  0  0  0
  9 19  1  0  0  0  0
 11 12  1  0  0  0  0
 11 13  1  0  0  0  0
 11 14  1  0  0  0  0
 14 15  2  0  0  0  0
 14 16  1  0  0  0  0
 16 17  1  0  0  0  0
 16 18  1  0  0  0  0
 19 20  2  0  0  0  0
 19 21  1  0  0  0  0
 21 22  1  0  0  0  0
 21 23  1  0  0  0  0
 23 24  1  0  0  0  0
 23 25  1  0  0  0  0
 23 26  1  0  0  0  0
M  END
$$$$

  -OEChem-01062216063D

 26 25  0     1  0  0  0  0  0999 V2000
   -3.3131   -3.0208    1.1058 H   0  0  0  0  0  0  0  0  0  0  0  0
   -3.1534   -2.0030    0.7382 C   0  0  0  0  0  0  0  0  0  0  0  0
   -3.6632   -1.3062    1.4079 H   0  0  0  0  0  0  0  0  0  0  0  0
   -3.5843   -1.9186   -0.2624 H   0  0  0  0  0  0  0  0  0  0  0  0
   -1.6689   -1.6889    0.6922 C   0  0  0  0  0  0  0  0  0  0  0  0
   -0.8836   -2.5923    0.9023 O   0  0  0  0  0  0  0  0  0  0  0  0
   -1.2869   -0.4109    0.3231 N   0  0  0  0  0  0  0  0  0  0  0  0
   -2.0721    0.1819    0.0659 H   0  0  0  0  0  0  0  0  0  0  0  0
    0.0374    0.2616    0.2948 C   0  0  1  0  0  0  0  0  0  0  0  0
    0.2315    0.6027    1.3175 H   0  0  0  0  0  0  0  0  0  0  0  0
    1.2908   -0.5590   -0.1049 C   0  0  0  0  0  0  0  0  0  0  0  0
    1.0885   -1.0639   -1.0529 H   0  0  0  0  0  0  0  0  0  0  0  0
    2.1340    0.1183   -0.2667 H   0  0  0  0  0  0  0  0  0  0  0  0
    1.7387   -1.5924    0.9193 C   0  0  0  0  0  0  0  0  0  0  0  0
    1.7494   -1.3333    2.1110 O   0  0  0  0  0  0  0  0  0  0  0  0
    2.1903   -2.8294    0.5590 N   0  0  0  0  0  0  0  0  0  0  0  0
    2.2170   -3.4881    1.3311 H   0  0  0  0  0  0  0  0  0  0  0  0
    1.8904   -3.1663   -0.3491 H   0  0  0  0  0  0  0  0  0  0  0  0
   -0.0733    1.5450   -0.5535 C   0  0  0  0  0  0  0  0  0  0  0  0
    0.3170    1.5777   -1.7126 O   0  0  0  0  0  0  0  0  0  0  0  0
   -0.7094    2.6558   -0.0284 N   0  0  0  0  0  0  0  0  0  0  0  0
   -0.9628    2.6304    0.9554 H   0  0  0  0  0  0  0  0  0  0  0  0
   -0.8508    3.9114   -0.7572 C   0  0  0  0  0  0  0  0  0  0  0  0
   -1.4120    3.7559   -1.6850 H   0  0  0  0  0  0  0  0  0  0  0  0
   -1.3888    4.6443   -0.1483 H   0  0  0  0  0  0  0  0  0  0  0  0
    0.1332    4.3229   -1.0059 H   0  0  0  0  0  0  0  0  0  0  0  0
  1  2  1  0  0  0  0
  2  3  1  0  0  0  0
  2  4  1  0  0  0  0
  2  5  1  0  0  0  0
  5  6  2  0  0  0  0
  5  7  1  0  0  0  0
  7  8  1  0  0  0  0
  7  9  1  0  0  0  0
  9 10  1  0  0  0  0
  9 11  1  0  0  0  0
  9 19  1  0  0  0  0
 11 12  1  0  0  0  0
 11 13  1  0  0  0  0
 11 14  1  0  0  0  0
 14 15  2  0  0  0  0
 14 16  1  0  0  0  0
 16 17  1  0  0  0  0
 16 18  1  0  0  0  0
 19 20  2  0  0  0  0
 19 21  1  0  0  0  0
 21 22  1  0  0  0  0
 21 23  1  0  0  0  0
 23 24  1  0  0  0  0
 23 25  1  0  0  0  0
 23 26  1  0  0  0  0
M  END
$$$$

  -OEChem-01062216063D

 26 25  0     1  0  0  0  0  0999 V2000
   -3.3183   -3.0233    1.0901 H   0  0  0  0  0  0  0  0  0  0  0  0
   -3.1527   -2.0050    0.7263 C   0  0  0  0  0  0  0  0  0  0  0  0
   -3.6898   -1.3103    1.3765 H   0  0  0  0  0  0  0  0  0  0  0  0
   -3.5489   -1.9254   -0.2890 H   0  0  0  0  0  0  0  0  0  0  0  0
   -1.6699   -1.6799    0.7309 C   0  0  0  0  0  0  0  0  0  0  0  0
   -0.8870   -2.5723    0.9909 O   0  0  0  0  0  0  0  0  0  0  0  0
   -1.2851   -0.4038    0.3590 N   0  0  0  0  0  0  0  0  0  0  0  0
   -2.0642    0.1775    0.0603 H   0  0  0  0  0  0  0  0  0  0  0  0
    0.0384    0.2682    0.3273 C   0  0  1  0  0  0  0  0  0  0  0  0
    0.2393    0.5999    1.3515 H   0  0  0  0  0  0  0  0  0  0  0  0
    1.2861   -0.5472   -0.0952 C   0  0  0  0  0  0  0  0  0  0  0  0
    1.0718   -1.0403   -1.0471 H   0  0  0  0  0  0  0  0  0  0  0  0
    2.1267    0.1325   -0.2594 H   0  0  0  0  0  0  0  0  0  0  0  0
    1.7464   -1.5953    0.9082 C   0  0  0  0  0  0  0  0  0  0  0  0
    1.7710   -1.3525    2.1029 O   0  0  0  0  0  0  0  0  0  0  0  0
    2.1855   -2.8298    0.5242 N   0  0  0  0  0  0  0  0  0  0  0  0
    2.2138   -3.5010    1.2857 H   0  0  0  0  0  0  0  0  0  0  0  0
    1.8766   -3.1501   -0.3867 H   0  0  0  0  0  0  0  0  0  0  0  0
   -0.0669    1.5502   -0.5218 C   0  0  0  0  0  0  0  0  0  0  0  0
    0.0594    1.5065   -1.7379 O   0  0  0  0  0  0  0  0  0  0  0  0
   -0.4070    2.7498    0.0770 N   0  0  0  0  0  0  0  0  0  0  0  0
   -0.4734    2.7697    1.0910 H   0  0  0  0  0  0  0  0  0  0  0  0
   -0.5375    4.0011   -0.6608 C   0  0  0  0  0  0  0  0  0  0  0  0
   -1.3067    3.9115   -1.4354 H   0  0  0  0  0  0  0  0  0  0  0  0
   -0.8231    4.8121    0.0161 H   0  0  0  0  0  0  0  0  0  0  0  0
    0.4126    4.2660   -1.1370 H   0  0  0  0  0  0  0  0  0  0  0  0
  1  2  1  0  0  0  0
  2  3  1  0  0  0  0
  2  4  1  0  0  0  0
  2  5  1  0  0  0  0
  5  6  2  0  0  0  0
  5  7  1  0  0  0  0
  7  8  1  0  0  0  0
  7  9  1  0  0  0  0
  9 10  1  0  0  0  0
  9 11  1  0  0  0  0
  9 19  1  0  0  0  0
 11 12  1  0  0  0  0
 11 13  1  0  0  0  0
 11 14  1  0  0  0  0
 14 15  2  0  0  0  0
 14 16  1  0  0  0  0
 16 17  1  0  0  0  0
 16 18  1  0  0  0  0
 19 20  2  0  0  0  0
 19 21  1  0  0  0  0
 21 22  1  0  0  0  0
 21 23  1  0  0  0  0
 23 24  1  0  0  0  0
 23 25  1  0  0  0  0
 23 26  1  0  0  0  0
M  END
$$$$

  -OEChem-01062216063D

 26 25  0     1  0  0  0  0  0999 V2000
   -3.3214   -3.0239    1.0657 H   0  0  0  0  0  0  0  0  0  0  0  0
   -3.1507   -2.0035    0.7101 C   0  0  0  0  0  0  0  0  0  0  0  0
   -3.7149   -1.3142    1.3429 H   0  0  0  0  0  0  0  0  0  0  0  0
   -3.5127   -1.9243   -0.3180 H   0  0  0  0  0  0  0  0  0  0  0  0
   -1.6712   -1.6673    0.7659 C   0  0  0  0  0  0  0  0  0  0  0  0
   -0.8930   -2.5468    1.0786 O   0  0  0  0  0  0  0  0  0  0  0  0
   -1.2810   -0.3942    0.3905 N   0  0  0  0  0  0  0  0  0  0  0  0
   -2.0476    0.1714    0.0333 H   0  0  0  0  0  0  0  0  0  0  0  0
    0.0440    0.2728    0.3529 C   0  0  1  0  0  0  0  0  0  0  0  0
    0.2505    0.5980    1.3780 H   0  0  0  0  0  0  0  0  0  0  0  0
    1.2842   -0.5424   -0.0884 C   0  0  0  0  0  0  0  0  0  0  0  0
    1.0582   -1.0256   -1.0425 H   0  0  0  0  0  0  0  0  0  0  0  0
    2.1258    0.1355   -0.2549 H   0  0  0  0  0  0  0  0  0  0  0  0
    1.7513   -1.6013    0.8999 C   0  0  0  0  0  0  0  0  0  0  0  0
    1.7885   -1.3686    2.0961 O   0  0  0  0  0  0  0  0  0  0  0  0
    2.1796   -2.8346    0.5011 N   0  0  0  0  0  0  0  0  0  0  0  0
    2.2129   -3.5116    1.2574 H   0  0  0  0  0  0  0  0  0  0  0  0
    1.8602   -3.1465   -0.4091 H   0  0  0  0  0  0  0  0  0  0  0  0
   -0.0546    1.5536   -0.4969 C   0  0  0  0  0  0  0  0  0  0  0  0
   -0.2255    1.4768   -1.7060 O   0  0  0  0  0  0  0  0  0  0  0  0
   -0.0758    2.7958    0.1106 N   0  0  0  0  0  0  0  0  0  0  0  0
    0.0743    2.8340    1.1153 H   0  0  0  0  0  0  0  0  0  0  0  0
   -0.2048    4.0457   -0.6294 C   0  0  0  0  0  0  0  0  0  0  0  0
   -1.1365    4.0572   -1.2050 H   0  0  0  0  0  0  0  0  0  0  0  0
   -0.2159    4.8945    0.0610 H   0  0  0  0  0  0  0  0  0  0  0  0
    0.6366    4.1713   -1.3189 H   0  0  0  0  0  0  0  0  0  0  0  0
  1  2  1  0  0  0  0
  2  3  1  0  0  0  0
  2  4  1  0  0  0  0
  2  5  1  0  0  0  0
  5  6  2  0  0  0  0
  5  7  1  0  0  0  0
  7  8  1  0  0  0  0
  7  9  1  0  0  0  0
  9 10  1  0  0  0  0
  9 11  1  0  0  0  0
  9 19  1  0  0  0  0
 11 12  1  0  0  0  0
 11 13  1  0  0  0  0
 11 14  1  0  0  0  0
 14 15  2  0  0  0  0
 14 16  1  0  0  0  0
 16 17  1  0  0  0  0
 16 18  1  0  0  0  0
 19 20  2  0  0  0  0
 19 21  1  0  0  0  0
 21 22  1  0  0  0  0
 21 23  1  0  0  0  0
 23 24  1  0  0  0  0
 23 25  1  0  0  0  0
 23 26  1  0  0  0  0
M  END
$$$$

  -OEChem-01062216063D

 26 25  0     1  0  0  0  0  0999 V2000
   -3.3159   -3.0242    1.0491 H   0  0  0  0  0  0  0  0  0  0  0  0
   -3.1435   -2.0021    0.6999 C   0  0  0  0  0  0  0  0  0  0  0  0
   -3.7217   -1.3169    1.3245 H   0  0  0  0  0  0  0  0  0  0  0  0
   -3.4872   -1.9207   -0.3341 H   0  0  0  0  0  0  0  0  0  0  0  0
   -1.6670   -1.6600    0.7836 C   0  0  0  0  0  0  0  0  0  0  0  0
   -0.8925   -2.5327    1.1236 O   0  0  0  0  0  0  0  0  0  0  0  0
   -1.2734   -0.3893    0.4054 N   0  0  0  0  0  0  0  0  0  0  0  0
   -2.0285    0.1634    0.0038 H   0  0  0  0  0  0  0  0  0  0  0  0
    0.0517    0.2759    0.3636 C   0  0  1  0  0  0  0  0  0  0  0  0
    0.2579    0.5996    1.3893 H   0  0  0  0  0  0  0  0  0  0  0  0
    1.2864   -0.5415   -0.0861 C   0  0  0  0  0  0  0  0  0  0  0  0
    1.0524   -1.0222   -1.0395 H   0  0  0  0  0  0  0  0  0  0  0  0
    2.1293    0.1338   -0.2560 H   0  0  0  0  0  0  0  0  0  0  0  0
    1.7565   -1.6044    0.8967 C   0  0  0  0  0  0  0  0  0  0  0  0
    1.8011   -1.3734    2.0927 O   0  0  0  0  0  0  0  0  0  0  0  0
    2.1657   -2.8433    0.4954 N   0  0  0  0  0  0  0  0  0  0  0  0
    2.1922   -3.5195    1.2528 H   0  0  0  0  0  0  0  0  0  0  0  0
    1.8338   -3.1528   -0.4111 H   0  0  0  0  0  0  0  0  0  0  0  0
   -0.0415    1.5562   -0.4872 C   0  0  0  0  0  0  0  0  0  0  0  0
   -0.4927    1.5025   -1.6237 O   0  0  0  0  0  0  0  0  0  0  0  0
    0.2505    2.7885    0.0678 N   0  0  0  0  0  0  0  0  0  0  0  0
    0.6104    2.8065    1.0184 H   0  0  0  0  0  0  0  0  0  0  0  0
    0.1301    4.0445   -0.6633 C   0  0  0  0  0  0  0  0  0  0  0  0
   -0.8983    4.1899   -1.0106 H   0  0  0  0  0  0  0  0  0  0  0  0
    0.3974    4.8858   -0.0166 H   0  0  0  0  0  0  0  0  0  0  0  0
    0.7987    4.0484   -1.5305 H   0  0  0  0  0  0  0  0  0  0  0  0
  1  2  1  0  0  0  0
  2  3  1  0  0  0  0
  2  4  1  0  0  0  0
  2  5  1  0  0  0  0
  5  6  2  0  0  0  0
  5  7  1  0  0  0  0
  7  8  1  0  0  0  0
  7  9  1  0  0  0  0
  9 10  1  0  0  0  0
  9 11  1  0  0  0  0
  9 19  1  0  0  0  0
 11 12  1  0  0  0  0
 11 13  1  0  0  0  0
 11 14  1  0  0  0  0
 14 15  2  0  0  0  0
 14 16  1  0  0  0  0
 16 17  1  0  0  0  0
 16 18  1  0  0  0  0
 19 20  2  0  0  0  0
 19 21  1  0  0  0  0
 21 22  1  0  0  0  0
 21 23  1  0  0  0  0
 23 24  1  0  0  0  0
 23 25  1  0  0  0  0
 23 26  1  0  0  0  0
M  END
$$$$

  -OEChem-01062216063D

 26 25  0     1  0  0  0  0  0999 V2000
   -3.3222   -3.0168    1.0502 H   0  0  0  0  0  0  0  0  0  0  0  0
   -3.1461   -1.9951    0.7017 C   0  0  0  0  0  0  0  0  0  0  0  0
   -3.7120   -1.3070    1.3343 H   0  0  0  0  0  0  0  0  0  0  0  0
   -3.5007   -1.9084   -0.3282 H   0  0  0  0  0  0  0  0  0  0  0  0
   -1.6667   -1.6629    0.7707 C   0  0  0  0  0  0  0  0  0  0  0  0
   -0.8924   -2.5440    1.0904 O   0  0  0  0  0  0  0  0  0  0  0  0
   -1.2693   -0.3930    0.3950 N   0  0  0  0  0  0  0  0  0  0  0  0
   -2.0216    0.1652   -0.0060 H   0  0  0  0  0  0  0  0  0  0  0  0
    0.0554    0.2724    0.3534 C   0  0  1  0  0  0  0  0  0  0  0  0
    0.2560    0.6000    1.3792 H   0  0  0  0  0  0  0  0  0  0  0  0
    1.2901   -0.5487   -0.0893 C   0  0  0  0  0  0  0  0  0  0  0  0
    1.0566   -1.0346   -1.0403 H   0  0  0  0  0  0  0  0  0  0  0  0
    2.1351    0.1232   -0.2611 H   0  0  0  0  0  0  0  0  0  0  0  0
    1.7553   -1.6067    0.9020 C   0  0  0  0  0  0  0  0  0  0  0  0
    1.7961   -1.3673    2.0964 O   0  0  0  0  0  0  0  0  0  0  0  0
    2.1719   -2.8466    0.5112 N   0  0  0  0  0  0  0  0  0  0  0  0
    2.2018   -3.5159    1.2748 H   0  0  0  0  0  0  0  0  0  0  0  0
    1.8392   -3.1664   -0.3915 H   0  0  0  0  0  0  0  0  0  0  0  0
   -0.0303    1.5556   -0.4950 C   0  0  0  0  0  0  0  0  0  0  0  0
   -0.7204    1.5765   -1.5066 O   0  0  0  0  0  0  0  0  0  0  0  0
    0.5508    2.7280   -0.0475 N   0  0  0  0  0  0  0  0  0  0  0  0
    1.0920    2.6903    0.8124 H   0  0  0  0  0  0  0  0  0  0  0  0
    0.4482    3.9961   -0.7599 C   0  0  0  0  0  0  0  0  0  0  0  0
   -0.5998    4.2994   -0.8540 H   0  0  0  0  0  0  0  0  0  0  0  0
    0.9868    4.7793   -0.2177 H   0  0  0  0  0  0  0  0  0  0  0  0
    0.8815    3.9089   -1.7619 H   0  0  0  0  0  0  0  0  0  0  0  0
  1  2  1  0  0  0  0
  2  3  1  0  0  0  0
  2  4  1  0  0  0  0
  2  5  1  0  0  0  0
  5  6  2  0  0  0  0
  5  7  1  0  0  0  0
  7  8  1  0  0  0  0
  7  9  1  0  0  0  0
  9 10  1  0  0  0  0
  9 11  1  0  0  0  0
  9 19  1  0  0  0  0
 11 12  1  0  0  0  0
 11 13  1  0  0  0  0
 11 14  1  0  0  0  0
 14 15  2  0  0  0  0
 14 16  1  0  0  0  0
 16 17  1  0  0  0  0
 16 18  1  0  0  0  0
 19 20  2  0  0  0  0
 19 21  1  0  0  0  0
 21 22  1  0  0  0  0
 21 23  1  0  0  0  0
 23 24  1  0  0  0  0
 23 25  1  0  0  0  0
 23 26  1  0  0  0  0
M  END
$$$$

  -OEChem-01062216063D

 26 25  0     1  0  0  0  0  0999 V2000
   -3.3218   -3.0135    1.0564 H   0  0  0  0  0  0  0  0  0  0  0  0
   -3.1445   -1.9921    0.7077 C   0  0  0  0  0  0  0  0  0  0  0  0
   -3.7006   -1.3022    1.3472 H   0  0  0  0  0  0  0  0  0  0  0  0
   -3.5092   -1.9015   -0.3184 H   0  0  0  0  0  0  0  0  0  0  0  0
   -1.6628   -1.6679    0.7617 C   0  0  0  0  0  0  0  0  0  0  0  0
   -0.8887   -2.5566    1.0610 O   0  0  0  0  0  0  0  0  0  0  0  0
   -1.2629   -0.3981    0.3892 N   0  0  0  0  0  0  0  0  0  0  0  0
   -2.0181    0.1726    0.0094 H   0  0  0  0  0  0  0  0  0  0  0  0
    0.0601    0.2706    0.3487 C   0  0  1  0  0  0  0  0  0  0  0  0
    0.2584    0.6009    1.3741 H   0  0  0  0  0  0  0  0  0  0  0  0
    1.2938   -0.5553   -0.0919 C   0  0  0  0  0  0  0  0  0  0  0  0
    1.0593   -1.0444   -1.0409 H   0  0  0  0  0  0  0  0  0  0  0  0
    2.1424    0.1111   -0.2660 H   0  0  0  0  0  0  0  0  0  0  0  0
    1.7553   -1.6116    0.9030 C   0  0  0  0  0  0  0  0  0  0  0  0
    1.7960   -1.3686    2.0965 O   0  0  0  0  0  0  0  0  0  0  0  0
    2.1680   -2.8539    0.5162 N   0  0  0  0  0  0  0  0  0  0  0  0
    2.1961   -3.5190    1.2834 H   0  0  0  0  0  0  0  0  0  0  0  0
    1.8278   -3.1770   -0.3826 H   0  0  0  0  0  0  0  0  0  0  0  0
   -0.0250    1.5565   -0.4981 C   0  0  0  0  0  0  0  0  0  0  0  0
   -0.8927    1.6743   -1.3553 O   0  0  0  0  0  0  0  0  0  0  0  0
    0.7978    2.6319   -0.2162 N   0  0  0  0  0  0  0  0  0  0  0  0
    1.4771    2.5248    0.5327 H   0  0  0  0  0  0  0  0  0  0  0  0
    0.7308    3.9022   -0.9292 C   0  0  0  0  0  0  0  0  0  0  0  0
   -0.2667    4.3442   -0.8345 H   0  0  0  0  0  0  0  0  0  0  0  0
    1.4602    4.6061   -0.5167 H   0  0  0  0  0  0  0  0  0  0  0  0
    0.9528    3.7575   -1.9917 H   0  0  0  0  0  0  0  0  0  0  0  0
  1  2  1  0  0  0  0
  2  3  1  0  0  0  0
  2  4  1  0  0  0  0
  2  5  1  0  0  0  0
  5  6  2  0  0  0  0
  5  7  1  0  0  0  0
  7  8  1  0  0  0  0
  7  9  1  0  0  0  0
  9 10  1  0  0  0  0
  9 11  1  0  0  0  0
  9 19  1  0  0  0  0
 11 12  1  0  0  0  0
 11 13  1  0  0  0  0
 11 14  1  0  0  0  0
 14 15  2  0  0  0  0
 14 16  1  0  0  0  0
 16 17  1  0  0  0  0
 16 18  1  0  0  0  0
 19 20  2  0  0  0  0
 19 21  1  0  0  0  0
 21 22  1  0  0  0  0
 21 23  1  0  0  0  0
 23 24  1  0  0  0  0
 23 25  1  0  0  0  0
 23 26  1  0  0  0  0
M  END
$$$$

  -OEChem-01062216063D

 26 25  0     1  0  0  0  0  0999 V2000
   -3.3276   -3.0023    1.0565 H   0  0  0  0  0  0  0  0  0  0  0  0
   -3.1454   -1.9785    0.7177 C   0  0  0  0  0  0  0  0  0  0  0  0
   -3.6674   -1.2905    1.3870 H   0  0  0  0  0  0  0  0  0  0  0  0
   -3.5442   -1.8654   -0.2933 H   0  0  0  0  0  0  0  0  0  0  0  0
   -1.6577   -1.6784    0.7247 C   0  0  0  0  0  0  0  0  0  0  0  0
   -0.8870   -2.5867    0.9706 O   0  0  0  0  0  0  0  0  0  0  0  0
   -1.2504   -0.4083    0.3607 N   0  0  0  0  0  0  0  0  0  0  0  0
   -2.0102    0.1875    0.0303 H   0  0  0  0  0  0  0  0  0  0  0  0
    0.0720    0.2629    0.3331 C   0  0  1  0  0  0  0  0  0  0  0  0
    0.2616    0.5986    1.3585 H   0  0  0  0  0  0  0  0  0  0  0  0
    1.3064   -0.5740   -0.0900 C   0  0  0  0  0  0  0  0  0  0  0  0
    1.0774   -1.0693   -1.0371 H   0  0  0  0  0  0  0  0  0  0  0  0
    2.1645    0.0804   -0.2601 H   0  0  0  0  0  0  0  0  0  0  0  0
    1.7490   -1.6261    0.9180 C   0  0  0  0  0  0  0  0  0  0  0  0
    1.7774   -1.3752    2.1100 O   0  0  0  0  0  0  0  0  0  0  0  0
    2.1705   -2.8691    0.5428 N   0  0  0  0  0  0  0  0  0  0  0  0
    2.1913   -3.5299    1.3140 H   0  0  0  0  0  0  0  0  0  0  0  0
    1.8369   -3.1986   -0.3561 H   0  0  0  0  0  0  0  0  0  0  0  0
   -0.0111    1.5528   -0.5129 C   0  0  0  0  0  0  0  0  0  0  0  0
   -1.0058    1.7840   -1.1916 O   0  0  0  0  0  0  0  0  0  0  0  0
    0.9892    2.5060   -0.4401 N   0  0  0  0  0  0  0  0  0  0  0  0
    1.7710    2.3235    0.1835 H   0  0  0  0  0  0  0  0  0  0  0  0
    0.9385    3.7789   -1.1498 C   0  0  0  0  0  0  0  0  0  0  0  0
    0.0622    4.3574   -0.8386 H   0  0  0  0  0  0  0  0  0  0  0  0
    1.8354    4.3678   -0.9343 H   0  0  0  0  0  0  0  0  0  0  0  0
    0.8858    3.6130   -2.2309 H   0  0  0  0  0  0  0  0  0  0  0  0
  1  2  1  0  0  0  0
  2  3  1  0  0  0  0
  2  4  1  0  0  0  0
  2  5  1  0  0  0  0
  5  6  2  0  0  0  0
  5  7  1  0  0  0  0
  7  8  1  0  0  0  0
  7  9  1  0  0  0  0
  9 10  1  0  0  0  0
  9 11  1  0  0  0  0
  9 19  1  0  0  0  0
 11 12  1  0  0  0  0
 11 13  1  0  0  0  0
 11 14  1  0  0  0  0
 14 15  2  0  0  0  0
 14 16  1  0  0  0  0
 16 17  1  0  0  0  0
 16 18  1  0  0  0  0
 19 20  2  0  0  0  0
 19 21  1  0  0  0  0
 21 22  1  0  0  0  0
 21 23  1  0  0  0  0
 23 24  1  0  0  0  0
 23 25  1  0  0  0  0
 23 26  1  0  0  0  0
M  END
$$$$
